MODEL 1
REMARK VINA RESULT:     -12.7      0.000      0.000
REMARK SMILES NS(=O)(=O)c1ccc(-c2coc(=O)n2-c2ccc(C(=O)OCCOCCOC(=O)c3ccc(-c4c5nc(c(-c6c(F)cc(S(=O)(=O)[O-])cc6F)c6ccc([nH]6)c(-c6c(F)cc(S(=O)(=O)[O-])cc6F)c6nc(c(-c7c(F)cc(S(=O)(=O)[O-])cc7F)c7ccc4[nH]7)C=C6)C=C5)cc3)cc2)cc1
REMARK SMILES IDX 23 1 22 2 21 3 19 4 20 5 18 6 15 7 16 8 97 9 17 10 96 11
REMARK SMILES IDX 14 12 9 13 10 14 11 15 12 16 13 17 8 18 5 19 6 20 99 21 7 22
REMARK SMILES IDX 98 23 2 24 3 25 4 26 1 27 24 30 25 31 26 32 27 33 28 34
REMARK SMILES IDX 29 35 30 36 31 37 95 38 32 39 94 40 33 41 34 42 35 43 88 44
REMARK SMILES IDX 36 45 93 46 87 47 89 48 37 49 92 50 86 51 85 52 38 54 72 55
REMARK SMILES IDX 51 56 71 57 52 58 55 59 70 60 90 61 53 62 54 63 69 65 91 66
REMARK SMILES IDX 56 67 39 68 40 69 49 70 41 71 42 72 48 73 50 74 43 75 44 76
REMARK SMILES IDX 45 77 46 78 47 79 73 80 74 81 83 82 75 83 76 84 82 85 84 86
REMARK SMILES IDX 77 87 78 88 79 89 80 90 81 91 57 92 58 93 67 94 59 95 60 96
REMARK SMILES IDX 66 97 68 98 61 99 62 100 63 101 64 102 65 103
REMARK H PARENT 1 28 1 29 89 53 55 64
REMARK Flexibility Score: inf
ROOT
ATOM      1  C   UNL A   1      40.744  21.675  27.602  1.00  0.00     0.202 C 
ENDROOT
BRANCH   1   2
ATOM      2  C   UNL A   1      40.183  22.430  26.397  1.00  0.00     0.261 C 
BRANCH   2   3
ATOM      3  O   UNL A   1      38.753  22.533  26.424  1.00  0.00    -0.460 OA
BRANCH   3   4
ATOM      4  C   UNL A   1      38.122  21.783  25.490  1.00  0.00     0.338 C 
ATOM      5  O   UNL A   1      38.390  20.642  25.152  1.00  0.00    -0.246 OA
BRANCH   4   6
ATOM      6  C   UNL A   1      36.918  22.484  25.007  1.00  0.00     0.060 A 
ATOM      7  C   UNL A   1      34.431  23.472  24.254  1.00  0.00     0.053 A 
ATOM      8  C   UNL A   1      34.842  23.595  25.582  1.00  0.00     0.028 A 
ATOM      9  C   UNL A   1      35.323  22.976  23.287  1.00  0.00     0.028 A 
ATOM     10  C   UNL A   1      36.072  23.063  25.964  1.00  0.00     0.018 A 
ATOM     11  C   UNL A   1      36.580  22.501  23.656  1.00  0.00     0.018 A 
BRANCH   7  12
ATOM     12  N   UNL A   1      33.074  23.644  23.925  1.00  0.00    -0.242 N 
ATOM     13  C   UNL A   1      32.165  22.656  23.659  1.00  0.00     0.095 A 
ATOM     14  C   UNL A   1      31.016  23.273  23.414  1.00  0.00     0.228 A 
ATOM     15  O   UNL A   1      31.077  24.662  23.522  1.00  0.00    -0.415 OA
ATOM     16  C   UNL A   1      32.405  24.864  23.904  1.00  0.00     0.424 A 
ATOM     17  O   UNL A   1      32.854  25.971  24.166  1.00  0.00    -0.223 OA
BRANCH  13  18
ATOM     18  C   UNL A   1      32.393  21.223  23.852  1.00  0.00     0.002 A 
ATOM     19  C   UNL A   1      32.933  18.501  24.249  1.00  0.00     0.082 A 
ATOM     20  C   UNL A   1      33.127  19.397  25.299  1.00  0.00     0.022 A 
ATOM     21  C   UNL A   1      32.460  18.947  23.010  1.00  0.00     0.022 A 
ATOM     22  C   UNL A   1      32.849  20.750  25.099  1.00  0.00     0.012 A 
ATOM     23  C   UNL A   1      32.188  20.306  22.816  1.00  0.00     0.012 A 
BRANCH  19  24
ATOM     24  S   UNL A   1      33.296  16.787  24.490  1.00  0.00     0.238 S 
ATOM     25  O   UNL A   1      33.741  16.211  23.249  1.00  0.00    -0.207 OA
ATOM     26  O   UNL A   1      32.236  16.203  25.287  1.00  0.00    -0.207 OA
BRANCH  24  27
ATOM     27  N   UNL A   1      34.656  16.826  25.477  1.00  0.00    -0.225 NA
ATOM     28  H   UNL A   1      34.438  17.334  26.335  1.00  0.00     0.137 HD
ATOM     29  H   UNL A   1      35.417  17.297  24.988  1.00  0.00     0.137 HD
ENDBRANCH  24  27
ENDBRANCH  19  24
ENDBRANCH  13  18
ENDBRANCH   7  12
ENDBRANCH   4   6
ENDBRANCH   3   4
ENDBRANCH   2   3
ENDBRANCH   1   2
BRANCH   1  30
ATOM     30  O   UNL A   1      40.750  20.248  27.576  1.00  0.00    -0.374 OA
BRANCH  30  31
ATOM     31  C   UNL A   1      41.967  19.536  27.374  1.00  0.00     0.202 C 
BRANCH  31  32
ATOM     32  C   UNL A   1      42.500  19.354  25.961  1.00  0.00     0.261 C 
BRANCH  32  33
ATOM     33  O   UNL A   1      42.814  20.593  25.351  1.00  0.00    -0.460 OA
BRANCH  33  34
ATOM     34  C   UNL A   1      44.137  20.766  25.127  1.00  0.00     0.338 C 
ATOM     35  O   UNL A   1      44.982  19.898  24.988  1.00  0.00    -0.246 OA
BRANCH  34  36
ATOM     36  C   UNL A   1      44.434  22.196  25.215  1.00  0.00     0.060 A 
ATOM     37  C   UNL A   1      45.366  22.559  26.188  1.00  0.00     0.016 A 
ATOM     38  C   UNL A   1      43.547  23.116  24.637  1.00  0.00     0.016 A 
ATOM     39  C   UNL A   1      45.203  23.775  26.801  1.00  0.00     0.010 A 
ATOM     40  C   UNL A   1      43.376  24.322  25.262  1.00  0.00     0.010 A 
ATOM     41  C   UNL A   1      44.131  24.579  26.402  1.00  0.00    -0.014 A 
BRANCH  41  42
ATOM     42  C   UNL A   1      43.869  25.786  27.147  1.00  0.00     0.031 A 
ATOM     43  C   UNL A   1      44.918  26.794  26.901  1.00  0.00     0.074 A 
ATOM     44  C   UNL A   1      42.738  25.960  27.856  1.00  0.00     0.049 A 
ATOM     45  N   UNL A   1      45.897  27.114  27.679  1.00  0.00    -0.248 NA
ATOM     46  C   UNL A   1      45.062  27.289  25.520  1.00  0.00     0.031 C 
ATOM     47  C   UNL A   1      41.561  25.091  27.928  1.00  0.00     0.029 A 
ATOM     48  N   UNL A   1      42.374  27.025  28.617  1.00  0.00    -0.354 N 
ATOM     49  C   UNL A   1      46.599  28.084  26.975  1.00  0.00     0.074 A 
ATOM     50  C   UNL A   1      46.238  27.913  25.596  1.00  0.00     0.031 C 
ATOM     51  C   UNL A   1      40.538  25.767  28.505  1.00  0.00     0.029 A 
ATOM     52  C   UNL A   1      41.026  27.057  28.960  1.00  0.00     0.049 A 
ATOM     53  H   UNL A   1      43.013  27.719  28.902  1.00  0.00     0.167 HD
ATOM     54  C   UNL A   1      47.095  29.173  27.623  1.00  0.00     0.037 A 
ATOM     55  C   UNL A   1      40.375  28.113  29.518  1.00  0.00     0.037 A 
ATOM     56  C   UNL A   1      47.210  28.910  29.041  1.00  0.00     0.049 A 
ATOM     57  C   UNL A   1      41.422  28.965  30.148  1.00  0.00     0.074 A 
ATOM     58  C   UNL A   1      47.882  27.980  29.812  1.00  0.00     0.029 A 
ATOM     59  N   UNL A   1      46.236  29.437  29.855  1.00  0.00    -0.354 N 
ATOM     60  N   UNL A   1      42.157  28.574  31.157  1.00  0.00    -0.248 NA
ATOM     61  C   UNL A   1      41.989  30.041  29.349  1.00  0.00     0.031 C 
ATOM     62  C   UNL A   1      47.001  27.681  30.896  1.00  0.00     0.029 A 
ATOM     63  C   UNL A   1      45.869  28.488  30.773  1.00  0.00     0.049 A 
ATOM     64  H   UNL A   1      45.864  30.346  29.790  1.00  0.00     0.167 HD
ATOM     65  C   UNL A   1      43.434  29.042  30.876  1.00  0.00     0.074 A 
ATOM     66  C   UNL A   1      43.251  30.003  29.788  1.00  0.00     0.031 C 
ATOM     67  C   UNL A   1      44.542  28.392  31.347  1.00  0.00     0.037 A 
BRANCH  54  68
ATOM     68  C   UNL A   1      47.005  30.581  27.062  1.00  0.00     0.058 A 
ATOM     69  C   UNL A   1      48.168  31.379  27.074  1.00  0.00     0.135 A 
ATOM     70  C   UNL A   1      45.803  31.280  26.795  1.00  0.00     0.135 A 
ATOM     71  F   UNL A   1      49.372  30.827  27.295  1.00  0.00    -0.206 F 
ATOM     72  C   UNL A   1      48.124  32.767  26.948  1.00  0.00     0.059 A 
ATOM     73  C   UNL A   1      45.744  32.655  26.620  1.00  0.00     0.059 A 
ATOM     74  F   UNL A   1      44.600  30.701  26.771  1.00  0.00    -0.206 F 
ATOM     75  C   UNL A   1      46.901  33.398  26.745  1.00  0.00     0.060 A 
BRANCH  75  76
ATOM     76  S   UNL A   1      46.816  35.191  26.698  1.00  0.00     0.124 S 
ATOM     77  O   UNL A   1      46.513  35.428  25.290  1.00  0.00    -0.237 OA
ATOM     78  O   UNL A   1      45.739  35.463  27.643  1.00  0.00    -0.237 OA
ATOM     79  O   UNL A   1      48.147  35.601  27.136  1.00  0.00    -0.744 OA
ENDBRANCH  75  76
ENDBRANCH  54  68
BRANCH  55  80
ATOM     80  C   UNL A   1      39.019  28.627  29.172  1.00  0.00     0.058 A 
ATOM     81  C   UNL A   1      38.029  28.818  30.155  1.00  0.00     0.135 A 
ATOM     82  C   UNL A   1      38.756  29.209  27.915  1.00  0.00     0.135 A 
ATOM     83  F   UNL A   1      38.205  28.327  31.391  1.00  0.00    -0.206 F 
ATOM     84  C   UNL A   1      36.868  29.570  29.918  1.00  0.00     0.059 A 
ATOM     85  C   UNL A   1      37.607  29.955  27.653  1.00  0.00     0.059 A 
ATOM     86  F   UNL A   1      39.657  29.147  26.924  1.00  0.00    -0.206 F 
ATOM     87  C   UNL A   1      36.675  30.150  28.664  1.00  0.00     0.060 A 
BRANCH  87  88
ATOM     88  S   UNL A   1      35.256  31.242  28.388  1.00  0.00     0.124 S 
ATOM     89  O   UNL A   1      35.830  32.272  27.530  1.00  0.00    -0.237 OA
ATOM     90  O   UNL A   1      34.294  30.348  27.753  1.00  0.00    -0.237 OA
ATOM     91  O   UNL A   1      34.899  31.681  29.735  1.00  0.00    -0.744 OA
ENDBRANCH  87  88
ENDBRANCH  55  80
BRANCH  67  92
ATOM     92  C   UNL A   1      44.342  27.342  32.415  1.00  0.00     0.058 A 
ATOM     93  C   UNL A   1      44.077  27.619  33.769  1.00  0.00     0.135 A 
ATOM     94  C   UNL A   1      44.261  26.002  32.012  1.00  0.00     0.135 A 
ATOM     95  F   UNL A   1      44.042  28.881  34.218  1.00  0.00    -0.206 F 
ATOM     96  C   UNL A   1      43.776  26.606  34.685  1.00  0.00     0.059 A 
ATOM     97  C   UNL A   1      43.934  24.980  32.900  1.00  0.00     0.059 A 
ATOM     98  F   UNL A   1      44.443  25.678  30.721  1.00  0.00    -0.206 F 
ATOM     99  C   UNL A   1      43.703  25.288  34.238  1.00  0.00     0.060 A 
BRANCH  99 100
ATOM    100  S   UNL A   1      43.231  23.985  35.399  1.00  0.00     0.124 S 
ATOM    101  O   UNL A   1      44.019  24.323  36.579  1.00  0.00    -0.237 OA
ATOM    102  O   UNL A   1      41.788  24.177  35.523  1.00  0.00    -0.237 OA
ATOM    103  O   UNL A   1      43.629  22.757  34.714  1.00  0.00    -0.744 OA
ENDBRANCH  99 100
ENDBRANCH  67  92
ENDBRANCH  41  42
ENDBRANCH  34  36
ENDBRANCH  33  34
ENDBRANCH  32  33
ENDBRANCH  31  32
ENDBRANCH  30  31
ENDBRANCH   1  30
TORSDOF 21
ENDMDL
MODEL 2
REMARK VINA RESULT:     -11.5      1.910      3.334
REMARK SMILES NS(=O)(=O)c1ccc(-c2coc(=O)n2-c2ccc(C(=O)OCCOCCOC(=O)c3ccc(-c4c5nc(c(-c6c(F)cc(S(=O)(=O)[O-])cc6F)c6ccc([nH]6)c(-c6c(F)cc(S(=O)(=O)[O-])cc6F)c6nc(c(-c7c(F)cc(S(=O)(=O)[O-])cc7F)c7ccc4[nH]7)C=C6)C=C5)cc3)cc2)cc1
REMARK SMILES IDX 23 1 22 2 21 3 19 4 20 5 18 6 15 7 16 8 97 9 17 10 96 11
REMARK SMILES IDX 14 12 9 13 10 14 11 15 12 16 13 17 8 18 5 19 6 20 99 21 7 22
REMARK SMILES IDX 98 23 2 24 3 25 4 26 1 27 24 30 25 31 26 32 27 33 28 34
REMARK SMILES IDX 29 35 30 36 31 37 95 38 32 39 94 40 33 41 34 42 35 43 88 44
REMARK SMILES IDX 36 45 93 46 87 47 89 48 37 49 92 50 86 51 85 52 38 54 72 55
REMARK SMILES IDX 51 56 71 57 52 58 55 59 70 60 90 61 53 62 54 63 69 65 91 66
REMARK SMILES IDX 56 67 39 68 40 69 49 70 41 71 42 72 48 73 50 74 43 75 44 76
REMARK SMILES IDX 45 77 46 78 47 79 73 80 74 81 83 82 75 83 76 84 82 85 84 86
REMARK SMILES IDX 77 87 78 88 79 89 80 90 81 91 57 92 58 93 67 94 59 95 60 96
REMARK SMILES IDX 66 97 68 98 61 99 62 100 63 101 64 102 65 103
REMARK H PARENT 1 28 1 29 89 53 55 64
REMARK Flexibility Score: inf
ROOT
ATOM      1  C   UNL A   1      41.314  21.798  26.142  1.00  0.00     0.202 C 
ENDROOT
BRANCH   1   2
ATOM      2  C   UNL A   1      39.908  21.833  26.741  1.00  0.00     0.261 C 
BRANCH   2   3
ATOM      3  O   UNL A   1      38.901  22.154  25.771  1.00  0.00    -0.460 OA
BRANCH   3   4
ATOM      4  C   UNL A   1      38.394  23.404  25.888  1.00  0.00     0.338 C 
ATOM      5  O   UNL A   1      39.014  24.443  26.040  1.00  0.00    -0.246 OA
BRANCH   4   6
ATOM      6  C   UNL A   1      36.939  23.384  25.647  1.00  0.00     0.060 A 
ATOM      7  C   UNL A   1      34.200  22.975  25.409  1.00  0.00     0.053 A 
ATOM      8  C   UNL A   1      34.716  23.459  26.612  1.00  0.00     0.028 A 
ATOM      9  C   UNL A   1      35.042  22.826  24.293  1.00  0.00     0.028 A 
ATOM     10  C   UNL A   1      36.094  23.625  26.740  1.00  0.00     0.018 A 
ATOM     11  C   UNL A   1      36.413  23.051  24.402  1.00  0.00     0.018 A 
BRANCH   7  12
ATOM     12  N   UNL A   1      32.898  22.442  25.374  1.00  0.00    -0.242 N 
ATOM     13  C   UNL A   1      31.743  23.122  25.097  1.00  0.00     0.095 A 
ATOM     14  C   UNL A   1      30.767  22.225  25.161  1.00  0.00     0.228 A 
ATOM     15  O   UNL A   1      31.195  20.931  25.451  1.00  0.00    -0.415 OA
ATOM     16  C   UNL A   1      32.580  21.096  25.531  1.00  0.00     0.424 A 
ATOM     17  O   UNL A   1      33.347  20.161  25.713  1.00  0.00    -0.223 OA
BRANCH  13  18
ATOM     18  C   UNL A   1      31.670  24.497  24.599  1.00  0.00     0.002 A 
ATOM     19  C   UNL A   1      31.429  27.137  23.688  1.00  0.00     0.082 A 
ATOM     20  C   UNL A   1      31.287  26.867  25.048  1.00  0.00     0.022 A 
ATOM     21  C   UNL A   1      31.703  26.107  22.782  1.00  0.00     0.022 A 
ATOM     22  C   UNL A   1      31.416  25.552  25.498  1.00  0.00     0.012 A 
ATOM     23  C   UNL A   1      31.826  24.790  23.241  1.00  0.00     0.012 A 
BRANCH  19  24
ATOM     24  S   UNL A   1      31.253  28.798  23.108  1.00  0.00     0.238 S 
ATOM     25  O   UNL A   1      32.518  29.269  22.609  1.00  0.00    -0.207 OA
ATOM     26  O   UNL A   1      30.471  29.540  24.076  1.00  0.00    -0.207 OA
BRANCH  24  27
ATOM     27  N   UNL A   1      30.276  28.622  21.752  1.00  0.00    -0.225 NA
ATOM     28  H   UNL A   1      29.794  27.723  21.795  1.00  0.00     0.137 HD
ATOM     29  H   UNL A   1      30.852  28.659  20.911  1.00  0.00     0.137 HD
ENDBRANCH  24  27
ENDBRANCH  19  24
ENDBRANCH  13  18
ENDBRANCH   7  12
ENDBRANCH   4   6
ENDBRANCH   3   4
ENDBRANCH   2   3
ENDBRANCH   1   2
BRANCH   1  30
ATOM     30  O   UNL A   1      42.315  21.009  26.785  1.00  0.00    -0.374 OA
BRANCH  30  31
ATOM     31  C   UNL A   1      42.507  19.647  26.415  1.00  0.00     0.202 C 
BRANCH  31  32
ATOM     32  C   UNL A   1      43.461  19.310  25.279  1.00  0.00     0.261 C 
BRANCH  32  33
ATOM     33  O   UNL A   1      43.796  20.453  24.513  1.00  0.00    -0.460 OA
BRANCH  33  34
ATOM     34  C   UNL A   1      45.108  20.774  24.563  1.00  0.00     0.338 C 
ATOM     35  O   UNL A   1      46.053  20.007  24.640  1.00  0.00    -0.246 OA
BRANCH  34  36
ATOM     36  C   UNL A   1      45.222  22.230  24.652  1.00  0.00     0.060 A 
ATOM     37  C   UNL A   1      46.256  22.706  25.458  1.00  0.00     0.016 A 
ATOM     38  C   UNL A   1      44.130  23.026  24.276  1.00  0.00     0.016 A 
ATOM     39  C   UNL A   1      46.045  23.879  26.136  1.00  0.00     0.010 A 
ATOM     40  C   UNL A   1      43.914  24.188  24.966  1.00  0.00     0.010 A 
ATOM     41  C   UNL A   1      44.820  24.532  25.964  1.00  0.00    -0.014 A 
BRANCH  41  42
ATOM     42  C   UNL A   1      44.537  25.680  26.789  1.00  0.00     0.031 A 
ATOM     43  C   UNL A   1      45.551  26.734  26.589  1.00  0.00     0.074 A 
ATOM     44  C   UNL A   1      43.416  25.774  27.528  1.00  0.00     0.049 A 
ATOM     45  N   UNL A   1      46.535  27.035  27.368  1.00  0.00    -0.248 NA
ATOM     46  C   UNL A   1      45.652  27.319  25.240  1.00  0.00     0.031 C 
ATOM     47  C   UNL A   1      42.267  24.866  27.566  1.00  0.00     0.029 A 
ATOM     48  N   UNL A   1      43.036  26.777  28.361  1.00  0.00    -0.354 N 
ATOM     49  C   UNL A   1      47.193  28.068  26.715  1.00  0.00     0.074 A 
ATOM     50  C   UNL A   1      46.810  27.973  25.335  1.00  0.00     0.031 C 
ATOM     51  C   UNL A   1      41.236  25.472  28.203  1.00  0.00     0.029 A 
ATOM     52  C   UNL A   1      41.694  26.744  28.731  1.00  0.00     0.049 A 
ATOM     53  H   UNL A   1      43.659  27.470  28.679  1.00  0.00     0.167 HD
ATOM     54  C   UNL A   1      47.669  29.129  27.423  1.00  0.00     0.037 A 
ATOM     55  C   UNL A   1      41.023  27.742  29.366  1.00  0.00     0.037 A 
ATOM     56  C   UNL A   1      47.820  28.780  28.818  1.00  0.00     0.049 A 
ATOM     57  C   UNL A   1      42.057  28.585  30.031  1.00  0.00     0.074 A 
ATOM     58  C   UNL A   1      48.535  27.825  29.516  1.00  0.00     0.029 A 
ATOM     59  N   UNL A   1      46.848  29.224  29.682  1.00  0.00    -0.354 N 
ATOM     60  N   UNL A   1      42.823  28.154  30.999  1.00  0.00    -0.248 NA
ATOM     61  C   UNL A   1      42.575  29.726  29.292  1.00  0.00     0.031 C 
ATOM     62  C   UNL A   1      47.686  27.431  30.594  1.00  0.00     0.029 A 
ATOM     63  C   UNL A   1      46.528  28.208  30.544  1.00  0.00     0.049 A 
ATOM     64  H   UNL A   1      46.447  30.123  29.681  1.00  0.00     0.167 HD
ATOM     65  C   UNL A   1      44.080  28.679  30.725  1.00  0.00     0.074 A 
ATOM     66  C   UNL A   1      43.846  29.701  29.705  1.00  0.00     0.031 C 
ATOM     67  C   UNL A   1      45.215  28.034  31.134  1.00  0.00     0.037 A 
BRANCH  54  68
ATOM     68  C   UNL A   1      47.526  30.566  26.954  1.00  0.00     0.058 A 
ATOM     69  C   UNL A   1      48.648  31.415  27.056  1.00  0.00     0.135 A 
ATOM     70  C   UNL A   1      46.299  31.224  26.696  1.00  0.00     0.135 A 
ATOM     71  F   UNL A   1      49.870  30.908  27.278  1.00  0.00    -0.206 F 
ATOM     72  C   UNL A   1      48.539  32.806  27.023  1.00  0.00     0.059 A 
ATOM     73  C   UNL A   1      46.177  32.604  26.612  1.00  0.00     0.059 A 
ATOM     74  F   UNL A   1      45.128  30.592  26.595  1.00  0.00    -0.206 F 
ATOM     75  C   UNL A   1      47.292  33.390  26.823  1.00  0.00     0.060 A 
BRANCH  75  76
ATOM     76  S   UNL A   1      47.121  35.177  26.893  1.00  0.00     0.124 S 
ATOM     77  O   UNL A   1      48.506  35.591  27.086  1.00  0.00    -0.237 OA
ATOM     78  O   UNL A   1      46.536  35.470  25.589  1.00  0.00    -0.237 OA
ATOM     79  O   UNL A   1      46.232  35.384  28.033  1.00  0.00    -0.744 OA
ENDBRANCH  75  76
ENDBRANCH  54  68
BRANCH  55  80
ATOM     80  C   UNL A   1      39.646  28.235  29.079  1.00  0.00     0.058 A 
ATOM     81  C   UNL A   1      38.656  28.287  30.079  1.00  0.00     0.135 A 
ATOM     82  C   UNL A   1      39.351  28.930  27.888  1.00  0.00     0.135 A 
ATOM     83  F   UNL A   1      38.861  27.682  31.259  1.00  0.00    -0.206 F 
ATOM     84  C   UNL A   1      37.465  29.013  29.923  1.00  0.00     0.059 A 
ATOM     85  C   UNL A   1      38.172  29.652  27.706  1.00  0.00     0.059 A 
ATOM     86  F   UNL A   1      40.247  29.003  26.892  1.00  0.00    -0.206 F 
ATOM     87  C   UNL A   1      37.241  29.707  28.734  1.00  0.00     0.060 A 
BRANCH  87  88
ATOM     88  S   UNL A   1      35.779  30.765  28.574  1.00  0.00     0.124 S 
ATOM     89  O   UNL A   1      36.312  31.911  27.846  1.00  0.00    -0.237 OA
ATOM     90  O   UNL A   1      34.857  29.912  27.832  1.00  0.00    -0.237 OA
ATOM     91  O   UNL A   1      35.399  31.031  29.960  1.00  0.00    -0.744 OA
ENDBRANCH  87  88
ENDBRANCH  55  80
BRANCH  67  92
ATOM     92  C   UNL A   1      45.068  26.913  32.136  1.00  0.00     0.058 A 
ATOM     93  C   UNL A   1      44.981  27.092  33.529  1.00  0.00     0.135 A 
ATOM     94  C   UNL A   1      44.850  25.618  31.646  1.00  0.00     0.135 A 
ATOM     95  F   UNL A   1      45.084  28.313  34.073  1.00  0.00    -0.206 F 
ATOM     96  C   UNL A   1      44.719  26.027  34.396  1.00  0.00     0.059 A 
ATOM     97  C   UNL A   1      44.559  24.548  32.488  1.00  0.00     0.059 A 
ATOM     98  F   UNL A   1      44.859  25.392  30.322  1.00  0.00    -0.206 F 
ATOM     99  C   UNL A   1      44.505  24.756  33.863  1.00  0.00     0.060 A 
BRANCH  99 100
ATOM    100  S   UNL A   1      44.081  23.392  34.971  1.00  0.00     0.124 S 
ATOM    101  O   UNL A   1      44.484  23.915  36.272  1.00  0.00    -0.237 OA
ATOM    102  O   UNL A   1      42.643  23.249  34.762  1.00  0.00    -0.237 OA
ATOM    103  O   UNL A   1      44.887  22.282  34.468  1.00  0.00    -0.744 OA
ENDBRANCH  99 100
ENDBRANCH  67  92
ENDBRANCH  41  42
ENDBRANCH  34  36
ENDBRANCH  33  34
ENDBRANCH  32  33
ENDBRANCH  31  32
ENDBRANCH  30  31
ENDBRANCH   1  30
TORSDOF 21
ENDMDL
MODEL 3
REMARK VINA RESULT:     -11.3      1.908      2.875
REMARK SMILES NS(=O)(=O)c1ccc(-c2coc(=O)n2-c2ccc(C(=O)OCCOCCOC(=O)c3ccc(-c4c5nc(c(-c6c(F)cc(S(=O)(=O)[O-])cc6F)c6ccc([nH]6)c(-c6c(F)cc(S(=O)(=O)[O-])cc6F)c6nc(c(-c7c(F)cc(S(=O)(=O)[O-])cc7F)c7ccc4[nH]7)C=C6)C=C5)cc3)cc2)cc1
REMARK SMILES IDX 23 1 22 2 21 3 19 4 20 5 18 6 15 7 16 8 97 9 17 10 96 11
REMARK SMILES IDX 14 12 9 13 10 14 11 15 12 16 13 17 8 18 5 19 6 20 99 21 7 22
REMARK SMILES IDX 98 23 2 24 3 25 4 26 1 27 24 30 25 31 26 32 27 33 28 34
REMARK SMILES IDX 29 35 30 36 31 37 95 38 32 39 94 40 33 41 34 42 35 43 88 44
REMARK SMILES IDX 36 45 93 46 87 47 89 48 37 49 92 50 86 51 85 52 38 54 72 55
REMARK SMILES IDX 51 56 71 57 52 58 55 59 70 60 90 61 53 62 54 63 69 65 91 66
REMARK SMILES IDX 56 67 39 68 40 69 49 70 41 71 42 72 48 73 50 74 43 75 44 76
REMARK SMILES IDX 45 77 46 78 47 79 73 80 74 81 83 82 75 83 76 84 82 85 84 86
REMARK SMILES IDX 77 87 78 88 79 89 80 90 81 91 57 92 58 93 67 94 59 95 60 96
REMARK SMILES IDX 66 97 68 98 61 99 62 100 63 101 64 102 65 103
REMARK H PARENT 1 28 1 29 89 53 55 64
REMARK Flexibility Score: inf
ROOT
ATOM      1  C   UNL A   1      40.240  19.491  26.206  1.00  0.00     0.202 C 
ENDROOT
BRANCH   1   2
ATOM      2  C   UNL A   1      38.901  19.814  25.542  1.00  0.00     0.261 C 
BRANCH   2   3
ATOM      3  O   UNL A   1      38.881  21.117  24.942  1.00  0.00    -0.460 OA
BRANCH   3   4
ATOM      4  C   UNL A   1      38.439  22.101  25.760  1.00  0.00     0.338 C 
ATOM      5  O   UNL A   1      38.992  22.542  26.753  1.00  0.00    -0.246 OA
BRANCH   4   6
ATOM      6  C   UNL A   1      37.219  22.713  25.201  1.00  0.00     0.060 A 
ATOM      7  C   UNL A   1      34.711  23.548  24.341  1.00  0.00     0.053 A 
ATOM      8  C   UNL A   1      35.111  23.823  25.650  1.00  0.00     0.028 A 
ATOM      9  C   UNL A   1      35.620  22.975  23.435  1.00  0.00     0.028 A 
ATOM     10  C   UNL A   1      36.352  23.369  26.089  1.00  0.00     0.018 A 
ATOM     11  C   UNL A   1      36.887  22.576  23.856  1.00  0.00     0.018 A 
BRANCH   7  12
ATOM     12  N   UNL A   1      33.351  23.646  23.993  1.00  0.00    -0.242 N 
ATOM     13  C   UNL A   1      32.508  22.613  23.684  1.00  0.00     0.095 A 
ATOM     14  C   UNL A   1      31.328  23.166  23.436  1.00  0.00     0.228 A 
ATOM     15  O   UNL A   1      31.302  24.552  23.581  1.00  0.00    -0.415 OA
ATOM     16  C   UNL A   1      32.609  24.824  23.991  1.00  0.00     0.424 A 
ATOM     17  O   UNL A   1      32.987  25.948  24.291  1.00  0.00    -0.223 OA
BRANCH  13  18
ATOM     18  C   UNL A   1      32.820  21.191  23.844  1.00  0.00     0.002 A 
ATOM     19  C   UNL A   1      33.309  18.449  24.161  1.00  0.00     0.082 A 
ATOM     20  C   UNL A   1      32.480  18.881  23.127  1.00  0.00     0.022 A 
ATOM     21  C   UNL A   1      33.907  19.371  25.027  1.00  0.00     0.022 A 
ATOM     22  C   UNL A   1      32.245  20.248  22.968  1.00  0.00     0.012 A 
ATOM     23  C   UNL A   1      33.663  20.740  24.865  1.00  0.00     0.012 A 
BRANCH  19  24
ATOM     24  S   UNL A   1      33.600  16.719  24.377  1.00  0.00     0.238 S 
ATOM     25  O   UNL A   1      34.037  16.146  23.132  1.00  0.00    -0.207 OA
ATOM     26  O   UNL A   1      32.508  16.165  25.152  1.00  0.00    -0.207 OA
BRANCH  24  27
ATOM     27  N   UNL A   1      34.948  16.687  25.380  1.00  0.00    -0.225 NA
ATOM     28  H   UNL A   1      35.009  15.776  25.839  1.00  0.00     0.137 HD
ATOM     29  H   UNL A   1      34.864  17.418  26.087  1.00  0.00     0.137 HD
ENDBRANCH  24  27
ENDBRANCH  19  24
ENDBRANCH  13  18
ENDBRANCH   7  12
ENDBRANCH   4   6
ENDBRANCH   3   4
ENDBRANCH   2   3
ENDBRANCH   1   2
BRANCH   1  30
ATOM     30  O   UNL A   1      41.384  19.286  25.378  1.00  0.00    -0.374 OA
BRANCH  30  31
ATOM     31  C   UNL A   1      42.637  19.868  25.722  1.00  0.00     0.202 C 
BRANCH  31  32
ATOM     32  C   UNL A   1      42.667  21.109  26.602  1.00  0.00     0.261 C 
BRANCH  32  33
ATOM     33  O   UNL A   1      43.707  21.996  26.230  1.00  0.00    -0.460 OA
BRANCH  33  34
ATOM     34  C   UNL A   1      43.268  23.115  25.611  1.00  0.00     0.338 C 
ATOM     35  O   UNL A   1      43.573  23.512  24.499  1.00  0.00    -0.246 OA
BRANCH  34  36
ATOM     36  C   UNL A   1      42.453  23.875  26.560  1.00  0.00     0.060 A 
ATOM     37  C   UNL A   1      41.624  24.848  26.000  1.00  0.00     0.016 A 
ATOM     38  C   UNL A   1      42.802  23.871  27.918  1.00  0.00     0.016 A 
ATOM     39  C   UNL A   1      41.395  25.985  26.731  1.00  0.00     0.010 A 
ATOM     40  C   UNL A   1      42.586  25.014  28.640  1.00  0.00     0.010 A 
ATOM     41  C   UNL A   1      41.987  26.090  27.994  1.00  0.00    -0.014 A 
BRANCH  41  42
ATOM     42  C   UNL A   1      41.873  27.343  28.698  1.00  0.00     0.031 A 
ATOM     43  C   UNL A   1      43.069  28.180  28.480  1.00  0.00     0.074 A 
ATOM     44  C   UNL A   1      40.750  27.701  29.349  1.00  0.00     0.049 A 
ATOM     45  N   UNL A   1      44.049  28.377  29.296  1.00  0.00    -0.248 NA
ATOM     46  C   UNL A   1      43.344  28.608  27.096  1.00  0.00     0.031 C 
ATOM     47  C   UNL A   1      39.456  27.015  29.385  1.00  0.00     0.029 A 
ATOM     48  N   UNL A   1      40.514  28.829  30.068  1.00  0.00    -0.354 N 
ATOM     49  C   UNL A   1      44.915  29.213  28.605  1.00  0.00     0.074 A 
ATOM     50  C   UNL A   1      44.593  29.056  27.214  1.00  0.00     0.031 C 
ATOM     51  C   UNL A   1      38.519  27.849  29.897  1.00  0.00     0.029 A 
ATOM     52  C   UNL A   1      39.171  29.066  30.347  1.00  0.00     0.049 A 
ATOM     53  H   UNL A   1      41.235  29.430  30.368  1.00  0.00     0.167 HD
ATOM     54  C   UNL A   1      45.537  30.237  29.251  1.00  0.00     0.037 A 
ATOM     55  C   UNL A   1      38.659  30.222  30.849  1.00  0.00     0.037 A 
ATOM     56  C   UNL A   1      45.551  30.000  30.678  1.00  0.00     0.049 A 
ATOM     57  C   UNL A   1      39.791  30.930  31.509  1.00  0.00     0.074 A 
ATOM     58  C   UNL A   1      46.045  29.005  31.500  1.00  0.00     0.029 A 
ATOM     59  N   UNL A   1      44.631  30.687  31.433  1.00  0.00    -0.354 N 
ATOM     60  N   UNL A   1      40.416  30.466  32.560  1.00  0.00    -0.248 NA
ATOM     61  C   UNL A   1      40.544  31.888  30.714  1.00  0.00     0.031 C 
ATOM     62  C   UNL A   1      45.084  28.870  32.548  1.00  0.00     0.029 A 
ATOM     63  C   UNL A   1      44.088  29.828  32.354  1.00  0.00     0.049 A 
ATOM     64  H   UNL A   1      44.399  31.638  31.330  1.00  0.00     0.167 HD
ATOM     65  C   UNL A   1      41.760  30.735  32.329  1.00  0.00     0.074 A 
ATOM     66  C   UNL A   1      41.767  31.680  31.213  1.00  0.00     0.031 C 
ATOM     67  C   UNL A   1      42.738  29.943  32.866  1.00  0.00     0.037 A 
BRANCH  54  68
ATOM     68  C   UNL A   1      45.680  31.626  28.655  1.00  0.00     0.058 A 
ATOM     69  C   UNL A   1      44.506  32.323  28.300  1.00  0.00     0.135 A 
ATOM     70  C   UNL A   1      46.881  32.179  28.147  1.00  0.00     0.135 A 
ATOM     71  F   UNL A   1      43.307  31.909  28.739  1.00  0.00    -0.206 F 
ATOM     72  C   UNL A   1      44.517  33.406  27.420  1.00  0.00     0.059 A 
ATOM     73  C   UNL A   1      46.917  33.284  27.309  1.00  0.00     0.059 A 
ATOM     74  F   UNL A   1      48.087  31.643  28.354  1.00  0.00    -0.206 F 
ATOM     75  C   UNL A   1      45.728  33.863  26.912  1.00  0.00     0.060 A 
BRANCH  75  76
ATOM     76  S   UNL A   1      45.745  35.180  25.690  1.00  0.00     0.124 S 
ATOM     77  O   UNL A   1      44.531  35.910  26.039  1.00  0.00    -0.237 OA
ATOM     78  O   UNL A   1      47.007  35.847  25.990  1.00  0.00    -0.237 OA
ATOM     79  O   UNL A   1      45.708  34.460  24.421  1.00  0.00    -0.744 OA
ENDBRANCH  75  76
ENDBRANCH  54  68
BRANCH  55  80
ATOM     80  C   UNL A   1      37.409  30.918  30.429  1.00  0.00     0.058 A 
ATOM     81  C   UNL A   1      36.500  31.437  31.370  1.00  0.00     0.135 A 
ATOM     82  C   UNL A   1      37.219  31.338  29.096  1.00  0.00     0.135 A 
ATOM     83  F   UNL A   1      36.621  31.118  32.668  1.00  0.00    -0.206 F 
ATOM     84  C   UNL A   1      35.489  32.344  31.019  1.00  0.00     0.059 A 
ATOM     85  C   UNL A   1      36.217  32.234  28.722  1.00  0.00     0.059 A 
ATOM     86  F   UNL A   1      38.064  30.959  28.126  1.00  0.00    -0.206 F 
ATOM     87  C   UNL A   1      35.367  32.750  29.690  1.00  0.00     0.060 A 
BRANCH  87  88
ATOM     88  S   UNL A   1      34.163  34.029  29.248  1.00  0.00     0.124 S 
ATOM     89  O   UNL A   1      33.568  34.346  30.542  1.00  0.00    -0.237 OA
ATOM     90  O   UNL A   1      35.009  35.064  28.666  1.00  0.00    -0.237 OA
ATOM     91  O   UNL A   1      33.277  33.350  28.305  1.00  0.00    -0.744 OA
ENDBRANCH  87  88
ENDBRANCH  55  80
BRANCH  67  92
ATOM     92  C   UNL A   1      42.340  28.965  33.947  1.00  0.00     0.058 A 
ATOM     93  C   UNL A   1      41.726  27.721  33.712  1.00  0.00     0.135 A 
ATOM     94  C   UNL A   1      42.742  29.239  35.261  1.00  0.00     0.135 A 
ATOM     95  F   UNL A   1      41.395  27.340  32.471  1.00  0.00    -0.206 F 
ATOM     96  C   UNL A   1      41.497  26.804  34.743  1.00  0.00     0.059 A 
ATOM     97  C   UNL A   1      42.550  28.330  36.299  1.00  0.00     0.059 A 
ATOM     98  F   UNL A   1      43.387  30.383  35.540  1.00  0.00    -0.206 F 
ATOM     99  C   UNL A   1      41.917  27.118  36.035  1.00  0.00     0.060 A 
BRANCH  99 100
ATOM    100  S   UNL A   1      41.701  25.903  37.356  1.00  0.00     0.124 S 
ATOM    101  O   UNL A   1      41.981  24.647  36.668  1.00  0.00    -0.237 OA
ATOM    102  O   UNL A   1      42.696  26.323  38.340  1.00  0.00    -0.237 OA
ATOM    103  O   UNL A   1      40.312  26.091  37.769  1.00  0.00    -0.744 OA
ENDBRANCH  99 100
ENDBRANCH  67  92
ENDBRANCH  41  42
ENDBRANCH  34  36
ENDBRANCH  33  34
ENDBRANCH  32  33
ENDBRANCH  31  32
ENDBRANCH  30  31
ENDBRANCH   1  30
TORSDOF 21
ENDMDL
