MODEL 1
REMARK VINA RESULT:     -12.2      0.000      0.000
REMARK SMILES CC1=C([C@H](NC(=O)[C@@H]2[C@H](C)c3cc(F)ccc3N2C)C(=O)OCCOCCOC(=O)c2ccc(-c3c4nc(c(-c5c(F)cc(S(=O)(=O)[O-])cc5F)c5ccc([nH]5)c(-c5c(F)cc(S(=O)(=O)[O-])cc5F)c5nc(c(-c6c(F)cc(S(=O)(=O)[O-])cc6F)c6ccc3[nH]6)C=C5)C=C4)cc2)[C@@H](C)N=N1
REMARK SMILES IDX 26 1 25 2 24 3 23 4 22 5 20 6 21 7 4 8 3 9 1 10 2 11 100 12
REMARK SMILES IDX 97 13 99 14 98 15 5 16 6 17 7 19 8 20 9 21 18 22 11 23 10 24
REMARK SMILES IDX 17 25 19 26 12 27 16 28 13 29 15 30 14 31 27 32 28 33 29 34
REMARK SMILES IDX 30 35 31 36 32 37 96 38 33 39 95 40 34 41 35 42 36 43 89 44
REMARK SMILES IDX 37 45 94 46 88 47 90 48 38 49 93 50 87 51 86 52 39 54 73 55
REMARK SMILES IDX 52 56 72 57 53 58 56 59 71 60 91 61 54 62 55 63 70 65 92 66
REMARK SMILES IDX 57 67 40 68 41 69 50 70 42 71 43 72 49 73 51 74 44 75 45 76
REMARK SMILES IDX 46 77 47 78 48 79 74 80 75 81 84 82 76 83 77 84 83 85 85 86
REMARK SMILES IDX 78 87 79 88 80 89 81 90 82 91 58 92 59 93 68 94 60 95 61 96
REMARK SMILES IDX 67 97 69 98 62 99 63 100 64 101 65 102 66 103
REMARK H PARENT 5 18 90 53 56 64
REMARK Flexibility Score: inf
ROOT
ATOM      1  C   UNL A   1      40.832  20.618  26.753  1.00  0.00     0.202 C 
ENDROOT
BRANCH   1   2
ATOM      2  O   UNL A   1      39.691  20.595  25.905  1.00  0.00    -0.374 OA
BRANCH   2   3
ATOM      3  C   UNL A   1      38.876  21.758  25.905  1.00  0.00     0.202 C 
BRANCH   3   4
ATOM      4  C   UNL A   1      37.650  21.850  24.990  1.00  0.00     0.261 C 
BRANCH   4   5
ATOM      5  O   UNL A   1      36.977  23.125  24.941  1.00  0.00    -0.461 OA
BRANCH   5   6
ATOM      6  C   UNL A   1      36.178  23.269  23.838  1.00  0.00     0.333 C 
ATOM      7  O   UNL A   1      36.575  23.080  22.693  1.00  0.00    -0.249 OA
BRANCH   6   8
ATOM      8  C   UNL A   1      34.775  23.833  24.152  1.00  0.00     0.223 C 
BRANCH   8   9
ATOM      9  C   UNL A   1      33.778  22.776  24.527  1.00  0.00     0.012 C 
ATOM     10  C   UNL A   1      32.800  22.140  22.266  1.00  0.00     0.069 C 
ATOM     11  C   UNL A   1      32.993  22.037  23.732  1.00  0.00     0.064 C 
ATOM     12  N   UNL A   1      32.348  21.035  24.409  1.00  0.00    -0.160 NA
ATOM     13  C   UNL A   1      33.433  22.313  25.907  1.00  0.00     0.156 C 
ATOM     14  N   UNL A   1      32.646  21.080  25.633  1.00  0.00    -0.181 NA
ATOM     15  C   UNL A   1      32.506  23.256  26.679  1.00  0.00     0.040 C 
ENDBRANCH   8   9
BRANCH   8  16
ATOM     16  N   UNL A   1      34.179  24.667  23.098  1.00  0.00    -0.337 N 
ATOM     17  C   UNL A   1      33.148  25.561  23.093  1.00  0.00     0.244 C 
ATOM     18  H   UNL A   1      34.611  24.559  22.220  1.00  0.00     0.164 HD
ATOM     19  O   UNL A   1      32.852  26.013  21.973  1.00  0.00    -0.273 OA
BRANCH  17  20
ATOM     20  C   UNL A   1      32.346  26.101  24.332  1.00  0.00     0.178 C 
ATOM     21  C   UNL A   1      30.843  25.742  24.449  1.00  0.00     0.050 C 
ATOM     22  N   UNL A   1      32.397  27.565  24.478  1.00  0.00    -0.362 N 
ATOM     23  C   UNL A   1      30.215  27.025  23.981  1.00  0.00    -0.016 A 
ATOM     24  C   UNL A   1      30.426  24.437  23.815  1.00  0.00     0.015 C 
ATOM     25  C   UNL A   1      31.162  28.060  24.116  1.00  0.00     0.041 A 
ATOM     26  C   UNL A   1      33.593  28.271  24.849  1.00  0.00     0.144 C 
ATOM     27  C   UNL A   1      28.936  27.267  23.507  1.00  0.00     0.045 A 
ATOM     28  C   UNL A   1      30.816  29.360  23.791  1.00  0.00     0.029 A 
ATOM     29  C   UNL A   1      28.624  28.566  23.119  1.00  0.00     0.123 A 
ATOM     30  C   UNL A   1      29.545  29.607  23.259  1.00  0.00     0.041 A 
ATOM     31  F   UNL A   1      27.420  28.821  22.592  1.00  0.00    -0.207 F 
ENDBRANCH  17  20
ENDBRANCH   8  16
ENDBRANCH   6   8
ENDBRANCH   5   6
ENDBRANCH   4   5
ENDBRANCH   3   4
ENDBRANCH   2   3
ENDBRANCH   1   2
BRANCH   1  32
ATOM     32  C   UNL A   1      42.222  20.296  26.179  1.00  0.00     0.261 C 
BRANCH  32  33
ATOM     33  O   UNL A   1      42.752  21.395  25.433  1.00  0.00    -0.460 OA
BRANCH  33  34
ATOM     34  C   UNL A   1      44.051  21.710  25.687  1.00  0.00     0.338 C 
ATOM     35  O   UNL A   1      45.047  21.109  25.319  1.00  0.00    -0.246 OA
BRANCH  34  36
ATOM     36  C   UNL A   1      44.024  23.116  26.137  1.00  0.00     0.060 A 
ATOM     37  C   UNL A   1      44.556  23.459  27.384  1.00  0.00     0.016 A 
ATOM     38  C   UNL A   1      43.117  23.960  25.474  1.00  0.00     0.016 A 
ATOM     39  C   UNL A   1      44.084  24.600  28.018  1.00  0.00     0.010 A 
ATOM     40  C   UNL A   1      42.617  25.080  26.133  1.00  0.00     0.010 A 
ATOM     41  C   UNL A   1      43.069  25.373  27.422  1.00  0.00    -0.014 A 
BRANCH  41  42
ATOM     42  C   UNL A   1      42.687  26.614  28.099  1.00  0.00     0.031 A 
ATOM     43  C   UNL A   1      43.730  27.663  27.933  1.00  0.00     0.074 A 
ATOM     44  C   UNL A   1      41.515  26.893  28.708  1.00  0.00     0.049 A 
ATOM     45  N   UNL A   1      44.478  28.197  28.841  1.00  0.00    -0.248 NA
ATOM     46  C   UNL A   1      44.101  28.023  26.555  1.00  0.00     0.031 C 
ATOM     47  C   UNL A   1      40.277  26.114  28.722  1.00  0.00     0.029 A 
ATOM     48  N   UNL A   1      41.165  28.022  29.395  1.00  0.00    -0.354 N 
ATOM     49  C   UNL A   1      45.290  29.106  28.167  1.00  0.00     0.074 A 
ATOM     50  C   UNL A   1      45.141  28.827  26.763  1.00  0.00     0.031 C 
ATOM     51  C   UNL A   1      39.266  26.884  29.194  1.00  0.00     0.029 A 
ATOM     52  C   UNL A   1      39.799  28.166  29.625  1.00  0.00     0.049 A 
ATOM     53  H   UNL A   1      41.827  28.681  29.704  1.00  0.00     0.167 HD
ATOM     54  C   UNL A   1      45.870  30.162  28.797  1.00  0.00     0.037 A 
ATOM     55  C   UNL A   1      39.158  29.281  30.071  1.00  0.00     0.037 A 
ATOM     56  C   UNL A   1      45.906  29.975  30.222  1.00  0.00     0.049 A 
ATOM     57  C   UNL A   1      40.174  30.134  30.740  1.00  0.00     0.074 A 
ATOM     58  C   UNL A   1      46.499  29.056  31.066  1.00  0.00     0.029 A 
ATOM     59  N   UNL A   1      44.965  30.624  30.982  1.00  0.00    -0.354 N 
ATOM     60  N   UNL A   1      40.774  29.822  31.854  1.00  0.00    -0.248 NA
ATOM     61  C   UNL A   1      40.836  31.151  29.938  1.00  0.00     0.031 C 
ATOM     62  C   UNL A   1      45.569  28.873  32.131  1.00  0.00     0.029 A 
ATOM     63  C   UNL A   1      44.486  29.721  31.896  1.00  0.00     0.049 A 
ATOM     64  H   UNL A   1      44.685  31.563  30.887  1.00  0.00     0.167 HD
ATOM     65  C   UNL A   1      42.075  30.274  31.696  1.00  0.00     0.074 A 
ATOM     66  C   UNL A   1      42.030  31.158  30.533  1.00  0.00     0.031 C 
ATOM     67  C   UNL A   1      43.114  29.684  32.353  1.00  0.00     0.037 A 
BRANCH  54  68
ATOM     68  C   UNL A   1      46.091  31.504  28.142  1.00  0.00     0.058 A 
ATOM     69  C   UNL A   1      47.328  32.158  28.303  1.00  0.00     0.135 A 
ATOM     70  C   UNL A   1      45.051  32.293  27.597  1.00  0.00     0.135 A 
ATOM     71  F   UNL A   1      48.384  31.509  28.819  1.00  0.00    -0.206 F 
ATOM     72  C   UNL A   1      47.498  33.512  28.014  1.00  0.00     0.059 A 
ATOM     73  C   UNL A   1      45.215  33.627  27.248  1.00  0.00     0.059 A 
ATOM     74  F   UNL A   1      43.797  31.841  27.472  1.00  0.00    -0.206 F 
ATOM     75  C   UNL A   1      46.428  34.241  27.502  1.00  0.00     0.060 A 
BRANCH  75  76
ATOM     76  S   UNL A   1      46.606  36.014  27.247  1.00  0.00     0.124 S 
ATOM     77  O   UNL A   1      46.589  36.100  25.792  1.00  0.00    -0.237 OA
ATOM     78  O   UNL A   1      45.430  36.537  27.934  1.00  0.00    -0.237 OA
ATOM     79  O   UNL A   1      47.884  36.318  27.884  1.00  0.00    -0.744 OA
ENDBRANCH  75  76
ENDBRANCH  54  68
BRANCH  55  80
ATOM     80  C   UNL A   1      37.832  29.831  29.660  1.00  0.00     0.058 A 
ATOM     81  C   UNL A   1      36.940  30.379  30.606  1.00  0.00     0.135 A 
ATOM     82  C   UNL A   1      37.544  30.116  28.311  1.00  0.00     0.135 A 
ATOM     83  F   UNL A   1      37.141  30.178  31.918  1.00  0.00    -0.206 F 
ATOM     84  C   UNL A   1      35.871  31.208  30.241  1.00  0.00     0.059 A 
ATOM     85  C   UNL A   1      36.479  30.931  27.923  1.00  0.00     0.059 A 
ATOM     86  F   UNL A   1      38.350  29.691  27.328  1.00  0.00    -0.206 F 
ATOM     87  C   UNL A   1      35.665  31.500  28.895  1.00  0.00     0.060 A 
BRANCH  87  88
ATOM     88  S   UNL A   1      34.412  32.720  28.426  1.00  0.00     0.124 S 
ATOM     89  O   UNL A   1      33.448  31.901  27.698  1.00  0.00    -0.237 OA
ATOM     90  O   UNL A   1      33.970  33.222  29.723  1.00  0.00    -0.237 OA
ATOM     91  O   UNL A   1      35.157  33.676  27.613  1.00  0.00    -0.744 OA
ENDBRANCH  87  88
ENDBRANCH  55  80
BRANCH  67  92
ATOM     92  C   UNL A   1      42.800  28.740  33.486  1.00  0.00     0.058 A 
ATOM     93  C   UNL A   1      42.781  27.338  33.374  1.00  0.00     0.135 A 
ATOM     94  C   UNL A   1      42.660  29.280  34.775  1.00  0.00     0.135 A 
ATOM     95  F   UNL A   1      43.013  26.735  32.199  1.00  0.00    -0.206 F 
ATOM     96  C   UNL A   1      42.589  26.515  34.486  1.00  0.00     0.059 A 
ATOM     97  C   UNL A   1      42.508  28.477  35.901  1.00  0.00     0.059 A 
ATOM     98  F   UNL A   1      42.726  30.609  34.957  1.00  0.00    -0.206 F 
ATOM     99  C   UNL A   1      42.460  27.094  35.749  1.00  0.00     0.060 A 
BRANCH  99 100
ATOM    100  S   UNL A   1      42.300  26.023  37.195  1.00  0.00     0.124 S 
ATOM    101  O   UNL A   1      42.838  24.759  36.701  1.00  0.00    -0.237 OA
ATOM    102  O   UNL A   1      43.116  26.707  38.193  1.00  0.00    -0.237 OA
ATOM    103  O   UNL A   1      40.864  26.025  37.465  1.00  0.00    -0.744 OA
ENDBRANCH  99 100
ENDBRANCH  67  92
ENDBRANCH  41  42
ENDBRANCH  34  36
ENDBRANCH  33  34
ENDBRANCH  32  33
ENDBRANCH   1  32
TORSDOF 20
ENDMDL
MODEL 2
REMARK VINA RESULT:     -12.1      2.752      9.329
REMARK SMILES CC1=C([C@H](NC(=O)[C@@H]2[C@H](C)c3cc(F)ccc3N2C)C(=O)OCCOCCOC(=O)c2ccc(-c3c4nc(c(-c5c(F)cc(S(=O)(=O)[O-])cc5F)c5ccc([nH]5)c(-c5c(F)cc(S(=O)(=O)[O-])cc5F)c5nc(c(-c6c(F)cc(S(=O)(=O)[O-])cc6F)c6ccc3[nH]6)C=C5)C=C4)cc2)[C@@H](C)N=N1
REMARK SMILES IDX 26 1 25 2 24 3 23 4 22 5 20 6 21 7 4 8 3 9 1 10 2 11 100 12
REMARK SMILES IDX 97 13 99 14 98 15 5 16 6 17 7 19 8 20 9 21 18 22 11 23 10 24
REMARK SMILES IDX 17 25 19 26 12 27 16 28 13 29 15 30 14 31 27 32 28 33 29 34
REMARK SMILES IDX 30 35 31 36 32 37 96 38 33 39 95 40 34 41 35 42 36 43 89 44
REMARK SMILES IDX 37 45 94 46 88 47 90 48 38 49 93 50 87 51 86 52 39 54 73 55
REMARK SMILES IDX 52 56 72 57 53 58 56 59 71 60 91 61 54 62 55 63 70 65 92 66
REMARK SMILES IDX 57 67 40 68 41 69 50 70 42 71 43 72 49 73 51 74 44 75 45 76
REMARK SMILES IDX 46 77 47 78 48 79 74 80 75 81 84 82 76 83 77 84 83 85 85 86
REMARK SMILES IDX 78 87 79 88 80 89 81 90 82 91 58 92 59 93 68 94 60 95 61 96
REMARK SMILES IDX 67 97 69 98 62 99 63 100 64 101 65 102 66 103
REMARK H PARENT 5 18 90 53 56 64
REMARK Flexibility Score: inf
ROOT
ATOM      1  C   UNL A   1      34.618  33.221  28.022  1.00  0.00     0.202 C 
ENDROOT
BRANCH   1   2
ATOM      2  O   UNL A   1      33.739  32.116  28.191  1.00  0.00    -0.374 OA
BRANCH   2   3
ATOM      3  C   UNL A   1      34.134  30.892  27.590  1.00  0.00     0.202 C 
BRANCH   3   4
ATOM      4  C   UNL A   1      33.085  29.919  27.041  1.00  0.00     0.261 C 
BRANCH   4   5
ATOM      5  O   UNL A   1      33.306  28.518  27.304  1.00  0.00    -0.461 OA
BRANCH   5   6
ATOM      6  C   UNL A   1      32.195  27.748  27.083  1.00  0.00     0.333 C 
ATOM      7  O   UNL A   1      31.160  27.863  27.729  1.00  0.00    -0.249 OA
BRANCH   6   8
ATOM      8  C   UNL A   1      32.412  26.623  26.046  1.00  0.00     0.223 C 
BRANCH   8   9
ATOM      9  C   UNL A   1      31.843  26.940  24.694  1.00  0.00     0.012 C 
ATOM     10  C   UNL A   1      29.432  26.167  24.936  1.00  0.00     0.069 C 
ATOM     11  C   UNL A   1      30.587  26.795  24.253  1.00  0.00     0.064 C 
ATOM     12  N   UNL A   1      30.388  27.369  23.024  1.00  0.00    -0.160 NA
ATOM     13  C   UNL A   1      32.579  27.497  23.517  1.00  0.00     0.156 C 
ATOM     14  N   UNL A   1      31.465  27.877  22.606  1.00  0.00    -0.181 NA
ATOM     15  C   UNL A   1      33.427  26.473  22.758  1.00  0.00     0.040 C 
ENDBRANCH   8   9
BRANCH   8  16
ATOM     16  N   UNL A   1      31.923  25.295  26.445  1.00  0.00    -0.337 N 
ATOM     17  C   UNL A   1      32.112  24.044  25.932  1.00  0.00     0.244 C 
ATOM     18  H   UNL A   1      31.344  25.311  27.240  1.00  0.00     0.164 HD
ATOM     19  O   UNL A   1      31.447  23.147  26.481  1.00  0.00    -0.273 OA
BRANCH  17  20
ATOM     20  C   UNL A   1      33.094  23.621  24.781  1.00  0.00     0.178 C 
ATOM     21  C   UNL A   1      32.498  22.972  23.507  1.00  0.00     0.050 C 
ATOM     22  N   UNL A   1      34.153  22.696  25.216  1.00  0.00    -0.362 N 
ATOM     23  C   UNL A   1      32.805  21.523  23.764  1.00  0.00    -0.016 A 
ATOM     24  C   UNL A   1      31.088  23.381  23.157  1.00  0.00     0.015 C 
ATOM     25  C   UNL A   1      33.848  21.451  24.709  1.00  0.00     0.041 A 
ATOM     26  C   UNL A   1      35.226  23.092  26.088  1.00  0.00     0.144 C 
ATOM     27  C   UNL A   1      32.245  20.384  23.210  1.00  0.00     0.045 A 
ATOM     28  C   UNL A   1      34.351  20.219  25.090  1.00  0.00     0.029 A 
ATOM     29  C   UNL A   1      32.714  19.151  23.653  1.00  0.00     0.123 A 
ATOM     30  C   UNL A   1      33.756  19.060  24.579  1.00  0.00     0.041 A 
ATOM     31  F   UNL A   1      32.147  18.030  23.189  1.00  0.00    -0.207 F 
ENDBRANCH  17  20
ENDBRANCH   8  16
ENDBRANCH   6   8
ENDBRANCH   5   6
ENDBRANCH   4   5
ENDBRANCH   3   4
ENDBRANCH   2   3
ENDBRANCH   1   2
BRANCH   1  32
ATOM     32  C   UNL A   1      34.553  34.410  28.995  1.00  0.00     0.261 C 
BRANCH  32  33
ATOM     33  O   UNL A   1      34.010  34.025  30.262  1.00  0.00    -0.460 OA
BRANCH  33  34
ATOM     34  C   UNL A   1      34.626  34.553  31.353  1.00  0.00     0.338 C 
ATOM     35  O   UNL A   1      34.175  35.372  32.138  1.00  0.00    -0.246 OA
BRANCH  34  36
ATOM     36  C   UNL A   1      35.764  33.653  31.625  1.00  0.00     0.060 A 
ATOM     37  C   UNL A   1      37.072  34.144  31.562  1.00  0.00     0.016 A 
ATOM     38  C   UNL A   1      35.498  32.276  31.537  1.00  0.00     0.016 A 
ATOM     39  C   UNL A   1      38.104  33.256  31.295  1.00  0.00     0.010 A 
ATOM     40  C   UNL A   1      36.532  31.396  31.228  1.00  0.00     0.010 A 
ATOM     41  C   UNL A   1      37.826  31.895  31.063  1.00  0.00    -0.014 A 
BRANCH  41  42
ATOM     42  C   UNL A   1      38.970  30.999  30.882  1.00  0.00     0.031 A 
ATOM     43  C   UNL A   1      39.686  30.771  32.167  1.00  0.00     0.074 A 
ATOM     44  C   UNL A   1      39.324  30.330  29.764  1.00  0.00     0.049 A 
ATOM     45  N   UNL A   1      40.886  31.130  32.488  1.00  0.00    -0.248 NA
ATOM     46  C   UNL A   1      38.895  30.236  33.286  1.00  0.00     0.031 C 
ATOM     47  C   UNL A   1      38.593  30.193  28.505  1.00  0.00     0.029 A 
ATOM     48  N   UNL A   1      40.420  29.539  29.562  1.00  0.00    -0.354 N 
ATOM     49  C   UNL A   1      41.066  30.693  33.799  1.00  0.00     0.074 A 
ATOM     50  C   UNL A   1      39.766  30.319  34.289  1.00  0.00     0.031 C 
ATOM     51  C   UNL A   1      39.156  29.208  27.763  1.00  0.00     0.029 A 
ATOM     52  C   UNL A   1      40.351  28.724  28.434  1.00  0.00     0.049 A 
ATOM     53  H   UNL A   1      41.197  29.544  30.165  1.00  0.00     0.167 HD
ATOM     54  C   UNL A   1      42.301  30.472  34.322  1.00  0.00     0.037 A 
ATOM     55  C   UNL A   1      41.179  27.689  28.122  1.00  0.00     0.037 A 
ATOM     56  C   UNL A   1      43.326  31.132  33.560  1.00  0.00     0.049 A 
ATOM     57  C   UNL A   1      42.435  27.883  28.891  1.00  0.00     0.074 A 
ATOM     58  C   UNL A   1      43.614  32.448  33.255  1.00  0.00     0.029 A 
ATOM     59  N   UNL A   1      44.064  30.377  32.683  1.00  0.00    -0.354 N 
ATOM     60  N   UNL A   1      43.281  28.852  28.679  1.00  0.00    -0.248 NA
ATOM     61  C   UNL A   1      42.540  27.235  30.189  1.00  0.00     0.031 C 
ATOM     62  C   UNL A   1      44.124  32.420  31.924  1.00  0.00     0.029 A 
ATOM     63  C   UNL A   1      44.157  31.087  31.513  1.00  0.00     0.049 A 
ATOM     64  H   UNL A   1      44.454  29.491  32.861  1.00  0.00     0.167 HD
ATOM     65  C   UNL A   1      43.728  29.215  29.940  1.00  0.00     0.074 A 
ATOM     66  C   UNL A   1      43.302  28.130  30.821  1.00  0.00     0.031 C 
ATOM     67  C   UNL A   1      44.163  30.482  30.199  1.00  0.00     0.037 A 
BRANCH  54  68
ATOM     68  C   UNL A   1      42.599  29.381  35.323  1.00  0.00     0.058 A 
ATOM     69  C   UNL A   1      43.380  29.677  36.457  1.00  0.00     0.135 A 
ATOM     70  C   UNL A   1      42.382  28.006  35.073  1.00  0.00     0.135 A 
ATOM     71  F   UNL A   1      43.658  30.948  36.785  1.00  0.00    -0.206 F 
ATOM     72  C   UNL A   1      43.963  28.680  37.240  1.00  0.00     0.059 A 
ATOM     73  C   UNL A   1      42.904  26.999  35.874  1.00  0.00     0.059 A 
ATOM     74  F   UNL A   1      41.740  27.567  33.983  1.00  0.00    -0.206 F 
ATOM     75  C   UNL A   1      43.731  27.343  36.928  1.00  0.00     0.060 A 
BRANCH  75  76
ATOM     76  S   UNL A   1      44.580  26.056  37.857  1.00  0.00     0.124 S 
ATOM     77  O   UNL A   1      45.976  26.364  37.567  1.00  0.00    -0.237 OA
ATOM     78  O   UNL A   1      44.134  26.324  39.220  1.00  0.00    -0.237 OA
ATOM     79  O   UNL A   1      44.069  24.823  37.267  1.00  0.00    -0.744 OA
ENDBRANCH  75  76
ENDBRANCH  54  68
BRANCH  55  80
ATOM     80  C   UNL A   1      40.846  26.373  27.500  1.00  0.00     0.058 A 
ATOM     81  C   UNL A   1      41.692  25.780  26.539  1.00  0.00     0.135 A 
ATOM     82  C   UNL A   1      39.865  25.528  28.056  1.00  0.00     0.135 A 
ATOM     83  F   UNL A   1      42.670  26.499  25.966  1.00  0.00    -0.206 F 
ATOM     84  C   UNL A   1      41.613  24.423  26.201  1.00  0.00     0.059 A 
ATOM     85  C   UNL A   1      39.760  24.176  27.727  1.00  0.00     0.059 A 
ATOM     86  F   UNL A   1      39.037  25.968  29.014  1.00  0.00    -0.206 F 
ATOM     87  C   UNL A   1      40.657  23.621  26.822  1.00  0.00     0.060 A 
BRANCH  87  88
ATOM     88  S   UNL A   1      40.670  21.833  26.539  1.00  0.00     0.124 S 
ATOM     89  O   UNL A   1      40.784  21.311  27.897  1.00  0.00    -0.237 OA
ATOM     90  O   UNL A   1      39.387  21.616  25.878  1.00  0.00    -0.237 OA
ATOM     91  O   UNL A   1      41.844  21.632  25.694  1.00  0.00    -0.744 OA
ENDBRANCH  87  88
ENDBRANCH  55  80
BRANCH  67  92
ATOM     92  C   UNL A   1      44.445  31.394  29.032  1.00  0.00     0.058 A 
ATOM     93  C   UNL A   1      43.592  32.428  28.604  1.00  0.00     0.135 A 
ATOM     94  C   UNL A   1      45.705  31.308  28.417  1.00  0.00     0.135 A 
ATOM     95  F   UNL A   1      42.416  32.649  29.208  1.00  0.00    -0.206 F 
ATOM     96  C   UNL A   1      43.960  33.307  27.583  1.00  0.00     0.059 A 
ATOM     97  C   UNL A   1      46.106  32.199  27.426  1.00  0.00     0.059 A 
ATOM     98  F   UNL A   1      46.586  30.379  28.820  1.00  0.00    -0.206 F 
ATOM     99  C   UNL A   1      45.224  33.190  27.004  1.00  0.00     0.060 A 
BRANCH  99 100
ATOM    100  S   UNL A   1      45.729  34.385  25.746  1.00  0.00     0.124 S 
ATOM    101  O   UNL A   1      44.915  33.988  24.602  1.00  0.00    -0.237 OA
ATOM    102  O   UNL A   1      45.376  35.663  26.358  1.00  0.00    -0.237 OA
ATOM    103  O   UNL A   1      47.163  34.145  25.604  1.00  0.00    -0.744 OA
ENDBRANCH  99 100
ENDBRANCH  67  92
ENDBRANCH  41  42
ENDBRANCH  34  36
ENDBRANCH  33  34
ENDBRANCH  32  33
ENDBRANCH   1  32
TORSDOF 20
ENDMDL
MODEL 3
REMARK VINA RESULT:     -11.9      2.722      9.468
REMARK SMILES CC1=C([C@H](NC(=O)[C@@H]2[C@H](C)c3cc(F)ccc3N2C)C(=O)OCCOCCOC(=O)c2ccc(-c3c4nc(c(-c5c(F)cc(S(=O)(=O)[O-])cc5F)c5ccc([nH]5)c(-c5c(F)cc(S(=O)(=O)[O-])cc5F)c5nc(c(-c6c(F)cc(S(=O)(=O)[O-])cc6F)c6ccc3[nH]6)C=C5)C=C4)cc2)[C@@H](C)N=N1
REMARK SMILES IDX 26 1 25 2 24 3 23 4 22 5 20 6 21 7 4 8 3 9 1 10 2 11 100 12
REMARK SMILES IDX 97 13 99 14 98 15 5 16 6 17 7 19 8 20 9 21 18 22 11 23 10 24
REMARK SMILES IDX 17 25 19 26 12 27 16 28 13 29 15 30 14 31 27 32 28 33 29 34
REMARK SMILES IDX 30 35 31 36 32 37 96 38 33 39 95 40 34 41 35 42 36 43 89 44
REMARK SMILES IDX 37 45 94 46 88 47 90 48 38 49 93 50 87 51 86 52 39 54 73 55
REMARK SMILES IDX 52 56 72 57 53 58 56 59 71 60 91 61 54 62 55 63 70 65 92 66
REMARK SMILES IDX 57 67 40 68 41 69 50 70 42 71 43 72 49 73 51 74 44 75 45 76
REMARK SMILES IDX 46 77 47 78 48 79 74 80 75 81 84 82 76 83 77 84 83 85 85 86
REMARK SMILES IDX 78 87 79 88 80 89 81 90 82 91 58 92 59 93 68 94 60 95 61 96
REMARK SMILES IDX 67 97 69 98 62 99 63 100 64 101 65 102 66 103
REMARK H PARENT 5 18 90 53 56 64
REMARK Flexibility Score: inf
ROOT
ATOM      1  C   UNL A   1      32.394  30.265  26.721  1.00  0.00     0.202 C 
ENDROOT
BRANCH   1   2
ATOM      2  O   UNL A   1      31.917  29.247  27.592  1.00  0.00    -0.374 OA
BRANCH   2   3
ATOM      3  C   UNL A   1      32.223  27.908  27.232  1.00  0.00     0.202 C 
BRANCH   3   4
ATOM      4  C   UNL A   1      31.111  26.940  26.814  1.00  0.00     0.261 C 
BRANCH   4   5
ATOM      5  O   UNL A   1      31.474  25.547  26.710  1.00  0.00    -0.461 OA
BRANCH   5   6
ATOM      6  C   UNL A   1      31.321  25.046  25.445  1.00  0.00     0.333 C 
ATOM      7  O   UNL A   1      30.543  24.138  25.172  1.00  0.00    -0.249 OA
BRANCH   6   8
ATOM      8  C   UNL A   1      32.322  25.624  24.419  1.00  0.00     0.223 C 
BRANCH   8   9
ATOM      9  C   UNL A   1      31.744  26.723  23.576  1.00  0.00     0.012 C 
ATOM     10  C   UNL A   1      33.513  28.539  23.782  1.00  0.00     0.069 C 
ATOM     11  C   UNL A   1      32.268  27.917  23.273  1.00  0.00     0.064 C 
ATOM     12  N   UNL A   1      31.544  28.586  22.320  1.00  0.00    -0.160 NA
ATOM     13  C   UNL A   1      30.419  26.721  22.881  1.00  0.00     0.156 C 
ATOM     14  N   UNL A   1      30.538  27.904  21.984  1.00  0.00    -0.181 NA
ATOM     15  C   UNL A   1      29.222  26.992  23.797  1.00  0.00     0.040 C 
ENDBRANCH   8   9
BRANCH   8  16
ATOM     16  N   UNL A   1      32.944  24.640  23.521  1.00  0.00    -0.337 N 
ATOM     17  C   UNL A   1      33.658  23.498  23.746  1.00  0.00     0.244 C 
ATOM     18  H   UNL A   1      32.822  24.847  22.567  1.00  0.00     0.164 HD
ATOM     19  O   UNL A   1      34.124  22.963  22.725  1.00  0.00    -0.273 OA
BRANCH  17  20
ATOM     20  C   UNL A   1      33.905  22.782  25.122  1.00  0.00     0.178 C 
ATOM     21  C   UNL A   1      35.323  22.848  25.743  1.00  0.00     0.050 C 
ATOM     22  N   UNL A   1      33.563  21.350  25.114  1.00  0.00    -0.362 N 
ATOM     23  C   UNL A   1      35.845  21.485  25.387  1.00  0.00    -0.016 A 
ATOM     24  C   UNL A   1      36.138  24.070  25.393  1.00  0.00     0.015 C 
ATOM     25  C   UNL A   1      34.746  20.643  25.122  1.00  0.00     0.041 A 
ATOM     26  C   UNL A   1      32.211  20.871  25.022  1.00  0.00     0.144 C 
ATOM     27  C   UNL A   1      37.149  21.021  25.325  1.00  0.00     0.045 A 
ATOM     28  C   UNL A   1      34.956  19.311  24.809  1.00  0.00     0.029 A 
ATOM     29  C   UNL A   1      37.347  19.698  24.942  1.00  0.00     0.123 A 
ATOM     30  C   UNL A   1      36.271  18.845  24.689  1.00  0.00     0.041 A 
ATOM     31  F   UNL A   1      38.597  19.236  24.806  1.00  0.00    -0.207 F 
ENDBRANCH  17  20
ENDBRANCH   8  16
ENDBRANCH   6   8
ENDBRANCH   5   6
ENDBRANCH   4   5
ENDBRANCH   3   4
ENDBRANCH   2   3
ENDBRANCH   1   2
BRANCH   1  32
ATOM     32  C   UNL A   1      33.232  31.425  27.283  1.00  0.00     0.261 C 
BRANCH  32  33
ATOM     33  O   UNL A   1      34.430  30.956  27.909  1.00  0.00    -0.460 OA
BRANCH  33  34
ATOM     34  C   UNL A   1      34.990  31.798  28.818  1.00  0.00     0.338 C 
ATOM     35  O   UNL A   1      34.463  32.747  29.376  1.00  0.00    -0.246 OA
BRANCH  34  36
ATOM     36  C   UNL A   1      36.204  31.102  29.289  1.00  0.00     0.060 A 
ATOM     37  C   UNL A   1      37.331  31.840  29.662  1.00  0.00     0.016 A 
ATOM     38  C   UNL A   1      36.301  29.738  28.961  1.00  0.00     0.016 A 
ATOM     39  C   UNL A   1      38.577  31.233  29.592  1.00  0.00     0.010 A 
ATOM     40  C   UNL A   1      37.557  29.148  28.853  1.00  0.00     0.010 A 
ATOM     41  C   UNL A   1      38.696  29.909  29.125  1.00  0.00    -0.014 A 
BRANCH  41  42
ATOM     42  C   UNL A   1      40.027  29.301  29.168  1.00  0.00     0.031 A 
ATOM     43  C   UNL A   1      40.492  29.117  30.570  1.00  0.00     0.074 A 
ATOM     44  C   UNL A   1      40.750  28.828  28.132  1.00  0.00     0.049 A 
ATOM     45  N   UNL A   1      41.482  29.695  31.166  1.00  0.00    -0.248 NA
ATOM     46  C   UNL A   1      39.629  28.325  31.461  1.00  0.00     0.031 C 
ATOM     47  C   UNL A   1      40.350  28.651  26.736  1.00  0.00     0.029 A 
ATOM     48  N   UNL A   1      42.016  28.312  28.147  1.00  0.00    -0.354 N 
ATOM     49  C   UNL A   1      41.481  29.190  32.465  1.00  0.00     0.074 A 
ATOM     50  C   UNL A   1      40.229  28.502  32.636  1.00  0.00     0.031 C 
ATOM     51  C   UNL A   1      41.267  27.882  26.099  1.00  0.00     0.029 A 
ATOM     52  C   UNL A   1      42.374  27.607  27.000  1.00  0.00     0.049 A 
ATOM     53  H   UNL A   1      42.628  28.431  28.909  1.00  0.00     0.167 HD
ATOM     54  C   UNL A   1      42.596  29.194  33.241  1.00  0.00     0.037 A 
ATOM     55  C   UNL A   1      43.463  26.807  26.839  1.00  0.00     0.037 A 
ATOM     56  C   UNL A   1      43.578  30.125  32.756  1.00  0.00     0.049 A 
ATOM     57  C   UNL A   1      44.453  27.197  27.877  1.00  0.00     0.074 A 
ATOM     58  C   UNL A   1      43.613  31.495  32.578  1.00  0.00     0.029 A 
ATOM     59  N   UNL A   1      44.636  29.630  32.036  1.00  0.00    -0.354 N 
ATOM     60  N   UNL A   1      45.078  28.341  27.899  1.00  0.00    -0.248 NA
ATOM     61  C   UNL A   1      44.430  26.472  29.137  1.00  0.00     0.031 C 
ATOM     62  C   UNL A   1      44.382  31.697  31.395  1.00  0.00     0.029 A 
ATOM     63  C   UNL A   1      44.806  30.446  30.947  1.00  0.00     0.049 A 
ATOM     64  H   UNL A   1      45.173  28.836  32.260  1.00  0.00     0.167 HD
ATOM     65  C   UNL A   1      45.156  28.676  29.242  1.00  0.00     0.074 A 
ATOM     66  C   UNL A   1      44.817  27.449  29.960  1.00  0.00     0.031 C 
ATOM     67  C   UNL A   1      45.225  29.978  29.644  1.00  0.00     0.037 A 
BRANCH  54  68
ATOM     68  C   UNL A   1      42.921  28.107  34.238  1.00  0.00     0.058 A 
ATOM     69  C   UNL A   1      43.035  28.431  35.603  1.00  0.00     0.135 A 
ATOM     70  C   UNL A   1      43.393  26.824  33.873  1.00  0.00     0.135 A 
ATOM     71  F   UNL A   1      42.627  29.625  36.061  1.00  0.00    -0.206 F 
ATOM     72  C   UNL A   1      43.640  27.575  36.525  1.00  0.00     0.059 A 
ATOM     73  C   UNL A   1      43.945  25.933  34.785  1.00  0.00     0.059 A 
ATOM     74  F   UNL A   1      43.438  26.410  32.602  1.00  0.00    -0.206 F 
ATOM     75  C   UNL A   1      44.107  26.333  36.099  1.00  0.00     0.060 A 
BRANCH  75  76
ATOM     76  S   UNL A   1      44.999  25.279  37.254  1.00  0.00     0.124 S 
ATOM     77  O   UNL A   1      44.429  25.700  38.528  1.00  0.00    -0.237 OA
ATOM     78  O   UNL A   1      44.628  23.946  36.794  1.00  0.00    -0.237 OA
ATOM     79  O   UNL A   1      46.395  25.647  37.034  1.00  0.00    -0.744 OA
ENDBRANCH  75  76
ENDBRANCH  54  68
BRANCH  55  80
ATOM     80  C   UNL A   1      43.579  25.512  26.105  1.00  0.00     0.058 A 
ATOM     81  C   UNL A   1      44.686  25.236  25.274  1.00  0.00     0.135 A 
ATOM     82  C   UNL A   1      42.775  24.406  26.441  1.00  0.00     0.135 A 
ATOM     83  F   UNL A   1      45.522  26.222  24.913  1.00  0.00    -0.206 F 
ATOM     84  C   UNL A   1      45.011  23.937  24.860  1.00  0.00     0.059 A 
ATOM     85  C   UNL A   1      43.073  23.105  26.032  1.00  0.00     0.059 A 
ATOM     86  F   UNL A   1      41.725  24.540  27.264  1.00  0.00    -0.206 F 
ATOM     87  C   UNL A   1      44.210  22.872  25.268  1.00  0.00     0.060 A 
BRANCH  87  88
ATOM     88  S   UNL A   1      44.725  21.176  24.903  1.00  0.00     0.124 S 
ATOM     89  O   UNL A   1      44.556  21.112  23.454  1.00  0.00    -0.237 OA
ATOM     90  O   UNL A   1      46.102  21.161  25.385  1.00  0.00    -0.237 OA
ATOM     91  O   UNL A   1      43.789  20.363  25.676  1.00  0.00    -0.744 OA
ENDBRANCH  87  88
ENDBRANCH  55  80
BRANCH  67  92
ATOM     92  C   UNL A   1      45.527  31.031  28.608  1.00  0.00     0.058 A 
ATOM     93  C   UNL A   1      44.563  31.635  27.781  1.00  0.00     0.135 A 
ATOM     94  C   UNL A   1      46.829  31.553  28.559  1.00  0.00     0.135 A 
ATOM     95  F   UNL A   1      43.273  31.270  27.841  1.00  0.00    -0.206 F 
ATOM     96  C   UNL A   1      44.890  32.682  26.916  1.00  0.00     0.059 A 
ATOM     97  C   UNL A   1      47.167  32.622  27.734  1.00  0.00     0.059 A 
ATOM     98  F   UNL A   1      47.782  31.058  29.365  1.00  0.00    -0.206 F 
ATOM     99  C   UNL A   1      46.195  33.175  26.904  1.00  0.00     0.060 A 
BRANCH  99 100
ATOM    100  S   UNL A   1      46.592  34.586  25.849  1.00  0.00     0.124 S 
ATOM    101  O   UNL A   1      46.339  35.714  26.739  1.00  0.00    -0.237 OA
ATOM    102  O   UNL A   1      47.992  34.350  25.512  1.00  0.00    -0.237 OA
ATOM    103  O   UNL A   1      45.658  34.452  24.732  1.00  0.00    -0.744 OA
ENDBRANCH  99 100
ENDBRANCH  67  92
ENDBRANCH  41  42
ENDBRANCH  34  36
ENDBRANCH  33  34
ENDBRANCH  32  33
ENDBRANCH   1  32
TORSDOF 20
ENDMDL
