MODEL 1
REMARK VINA RESULT:     -10.7      0.000      0.000
REMARK SMILES CSc1nc(O)nc(C)c1C(=O)N1C[C@@H](O)C[C@@H]1C(=O)OCCOCCOC(=O)c1ccc(-c2c3nc(c(-c4c(F)cc(S(=O)(=O)[O-])cc4F)c4ccc([nH]4)c(-c4c(F)cc(S(=O)(=O)[O-])cc4F)c4nc(c(-c5c(F)cc(S(=O)(=O)[O-])cc5F)c5ccc2[nH]5)C=C4)C=C3)cc1
REMARK SMILES IDX 24 1 23 2 22 3 21 4 19 5 20 6 18 7 13 8 14 9 15 10 17 11
REMARK SMILES IDX 11 12 12 13 10 14 3 15 4 16 5 17 8 18 7 19 9 20 2 21 1 22
REMARK SMILES IDX 6 23 16 25 25 27 26 28 27 29 28 30 29 31 30 32 31 33 95 34
REMARK SMILES IDX 32 35 94 36 33 37 34 38 35 39 88 40 36 41 93 42 87 43 89 44
REMARK SMILES IDX 37 45 92 46 86 47 85 48 38 50 72 51 51 52 71 53 52 54 55 55
REMARK SMILES IDX 70 56 90 57 53 58 54 59 69 61 91 62 56 63 39 64 40 65 49 66
REMARK SMILES IDX 41 67 42 68 48 69 50 70 43 71 44 72 45 73 46 74 47 75 73 76
REMARK SMILES IDX 74 77 83 78 75 79 76 80 82 81 84 82 77 83 78 84 79 85 80 86
REMARK SMILES IDX 81 87 57 88 58 89 67 90 59 91 60 92 66 93 68 94 61 95 62 96
REMARK SMILES IDX 63 97 64 98 65 99
REMARK H PARENT 6 24 16 26 89 49 55 60
REMARK Flexibility Score: inf
ROOT
ATOM      1  O   UNL A   1      36.844  21.682  25.663  1.00  0.00    -0.374 OA
ENDROOT
BRANCH   1   2
ATOM      2  C   UNL A   1      35.435  21.784  25.850  1.00  0.00     0.202 C 
BRANCH   2   3
ATOM      3  C   UNL A   1      34.526  21.500  24.652  1.00  0.00     0.261 C 
BRANCH   3   4
ATOM      4  O   UNL A   1      34.043  22.727  24.083  1.00  0.00    -0.462 OA
BRANCH   4   5
ATOM      5  C   UNL A   1      32.818  22.654  23.490  1.00  0.00     0.329 C 
ATOM      6  O   UNL A   1      32.536  21.929  22.547  1.00  0.00    -0.250 OA
BRANCH   5   7
ATOM      7  C   UNL A   1      31.839  23.600  24.187  1.00  0.00     0.198 C 
ATOM      8  N   UNL A   1      32.531  24.642  24.984  1.00  0.00    -0.322 N 
ATOM      9  C   UNL A   1      31.934  24.656  26.304  1.00  0.00     0.152 C 
ATOM     10  C   UNL A   1      31.613  23.186  26.540  1.00  0.00     0.136 C 
ATOM     11  C   UNL A   1      30.998  22.803  25.193  1.00  0.00     0.071 C 
BRANCH   8  12
ATOM     12  C   UNL A   1      32.969  25.823  24.416  1.00  0.00     0.259 C 
ATOM     13  O   UNL A   1      34.174  26.052  24.416  1.00  0.00    -0.269 OA
BRANCH  12  14
ATOM     14  C   UNL A   1      31.970  26.836  23.886  1.00  0.00     0.093 A 
ATOM     15  C   UNL A   1      31.449  27.925  24.608  1.00  0.00     0.116 A 
ATOM     16  N   UNL A   1      30.599  28.843  24.081  1.00  0.00    -0.188 NA
ATOM     17  C   UNL A   1      30.302  28.703  22.805  1.00  0.00     0.315 A 
ATOM     18  C   UNL A   1      31.526  26.786  22.547  1.00  0.00     0.058 A 
ATOM     19  N   UNL A   1      30.701  27.729  22.007  1.00  0.00    -0.200 NA
ATOM     20  C   UNL A   1      31.893  25.780  21.492  1.00  0.00     0.068 C 
BRANCH  15  21
ATOM     21  S   UNL A   1      31.797  28.374  26.297  1.00  0.00    -0.109 SA
ATOM     22  C   UNL A   1      31.928  30.164  26.103  1.00  0.00     0.092 C 
ENDBRANCH  15  21
BRANCH  17  23
ATOM     23  O   UNL A   1      29.540  29.658  22.216  1.00  0.00    -0.479 OA
ATOM     24  H   UNL A   1      28.711  29.890  22.586  1.00  0.00     0.297 HD
ENDBRANCH  17  23
ENDBRANCH  12  14
ENDBRANCH   8  12
BRANCH  10  25
ATOM     25  O   UNL A   1      30.746  22.971  27.634  1.00  0.00    -0.391 OA
ATOM     26  H   UNL A   1      31.244  22.580  28.369  1.00  0.00     0.211 HD
ENDBRANCH  10  25
ENDBRANCH   5   7
ENDBRANCH   4   5
ENDBRANCH   3   4
ENDBRANCH   2   3
ENDBRANCH   1   2
BRANCH   1  27
ATOM     27  C   UNL A   1      37.569  22.877  25.399  1.00  0.00     0.202 C 
BRANCH  27  28
ATOM     28  C   UNL A   1      38.699  23.305  26.341  1.00  0.00     0.261 C 
BRANCH  28  29
ATOM     29  O   UNL A   1      38.790  24.721  26.505  1.00  0.00    -0.460 OA
BRANCH  29  30
ATOM     30  C   UNL A   1      40.059  25.191  26.500  1.00  0.00     0.338 C 
ATOM     31  O   UNL A   1      40.875  25.132  25.592  1.00  0.00    -0.246 OA
BRANCH  30  32
ATOM     32  C   UNL A   1      40.259  25.986  27.716  1.00  0.00     0.060 A 
ATOM     33  C   UNL A   1      39.300  25.875  28.731  1.00  0.00     0.016 A 
ATOM     34  C   UNL A   1      41.343  26.855  27.831  1.00  0.00     0.016 A 
ATOM     35  C   UNL A   1      39.405  26.665  29.866  1.00  0.00     0.010 A 
ATOM     36  C   UNL A   1      41.429  27.673  28.955  1.00  0.00     0.010 A 
ATOM     37  C   UNL A   1      40.439  27.604  29.950  1.00  0.00    -0.014 A 
BRANCH  37  38
ATOM     38  C   UNL A   1      40.340  28.670  30.964  1.00  0.00     0.031 A 
ATOM     39  C   UNL A   1      41.280  28.612  32.133  1.00  0.00     0.074 A 
ATOM     40  C   UNL A   1      39.464  29.677  30.817  1.00  0.00     0.049 A 
ATOM     41  N   UNL A   1      41.374  29.413  33.159  1.00  0.00    -0.248 NA
ATOM     42  C   UNL A   1      42.248  27.500  32.144  1.00  0.00     0.031 C 
ATOM     43  C   UNL A   1      38.554  29.845  29.686  1.00  0.00     0.029 A 
ATOM     44  N   UNL A   1      39.202  30.747  31.629  1.00  0.00    -0.354 N 
ATOM     45  C   UNL A   1      42.410  28.909  33.934  1.00  0.00     0.074 A 
ATOM     46  C   UNL A   1      42.892  27.711  33.283  1.00  0.00     0.031 C 
ATOM     47  C   UNL A   1      37.820  30.954  29.884  1.00  0.00     0.029 A 
ATOM     48  C   UNL A   1      38.190  31.551  31.165  1.00  0.00     0.049 A 
ATOM     49  H   UNL A   1      39.691  30.923  32.465  1.00  0.00     0.167 HD
ATOM     50  C   UNL A   1      42.921  29.412  35.080  1.00  0.00     0.037 A 
ATOM     51  C   UNL A   1      37.621  32.633  31.730  1.00  0.00     0.037 A 
ATOM     52  C   UNL A   1      42.419  30.597  35.719  1.00  0.00     0.049 A 
ATOM     53  C   UNL A   1      38.144  33.120  33.056  1.00  0.00     0.074 A 
ATOM     54  C   UNL A   1      42.859  31.197  36.885  1.00  0.00     0.029 A 
ATOM     55  N   UNL A   1      41.357  31.358  35.250  1.00  0.00    -0.354 N 
ATOM     56  N   UNL A   1      39.132  32.645  33.778  1.00  0.00    -0.248 NA
ATOM     57  C   UNL A   1      37.476  34.288  33.646  1.00  0.00     0.031 C 
ATOM     58  C   UNL A   1      42.026  32.288  37.150  1.00  0.00     0.029 A 
ATOM     59  C   UNL A   1      41.107  32.406  36.118  1.00  0.00     0.049 A 
ATOM     60  H   UNL A   1      40.856  31.180  34.422  1.00  0.00     0.167 HD
ATOM     61  C   UNL A   1      39.222  33.471  34.894  1.00  0.00     0.074 A 
ATOM     62  C   UNL A   1      38.194  34.481  34.745  1.00  0.00     0.031 C 
ATOM     63  C   UNL A   1      40.075  33.401  35.947  1.00  0.00     0.037 A 
BRANCH  50  64
ATOM     64  C   UNL A   1      44.059  28.670  35.723  1.00  0.00     0.058 A 
ATOM     65  C   UNL A   1      43.839  27.611  36.618  1.00  0.00     0.135 A 
ATOM     66  C   UNL A   1      45.388  28.997  35.410  1.00  0.00     0.135 A 
ATOM     67  F   UNL A   1      42.588  27.273  36.972  1.00  0.00    -0.206 F 
ATOM     68  C   UNL A   1      44.895  26.912  37.192  1.00  0.00     0.059 A 
ATOM     69  C   UNL A   1      46.460  28.292  35.949  1.00  0.00     0.059 A 
ATOM     70  F   UNL A   1      45.655  30.009  34.569  1.00  0.00    -0.206 F 
ATOM     71  C   UNL A   1      46.203  27.256  36.845  1.00  0.00     0.060 A 
BRANCH  71  72
ATOM     72  S   UNL A   1      47.561  26.321  37.581  1.00  0.00     0.124 S 
ATOM     73  O   UNL A   1      47.227  26.389  39.001  1.00  0.00    -0.237 OA
ATOM     74  O   UNL A   1      47.407  25.012  36.957  1.00  0.00    -0.237 OA
ATOM     75  O   UNL A   1      48.747  27.071  37.181  1.00  0.00    -0.744 OA
ENDBRANCH  71  72
ENDBRANCH  50  64
BRANCH  51  76
ATOM     76  C   UNL A   1      36.502  33.323  31.036  1.00  0.00     0.058 A 
ATOM     77  C   UNL A   1      35.188  33.227  31.513  1.00  0.00     0.135 A 
ATOM     78  C   UNL A   1      36.730  34.119  29.902  1.00  0.00     0.135 A 
ATOM     79  F   UNL A   1      34.918  32.470  32.588  1.00  0.00    -0.206 F 
ATOM     80  C   UNL A   1      34.137  33.893  30.891  1.00  0.00     0.059 A 
ATOM     81  C   UNL A   1      35.700  34.815  29.278  1.00  0.00     0.059 A 
ATOM     82  F   UNL A   1      37.972  34.253  29.411  1.00  0.00    -0.206 F 
ATOM     83  C   UNL A   1      34.405  34.694  29.779  1.00  0.00     0.060 A 
BRANCH  83  84
ATOM     84  S   UNL A   1      33.042  35.606  29.025  1.00  0.00     0.124 S 
ATOM     85  O   UNL A   1      33.746  36.692  28.353  1.00  0.00    -0.237 OA
ATOM     86  O   UNL A   1      32.446  34.595  28.157  1.00  0.00    -0.237 OA
ATOM     87  O   UNL A   1      32.226  35.998  30.172  1.00  0.00    -0.744 OA
ENDBRANCH  83  84
ENDBRANCH  51  76
BRANCH  63  88
ATOM     88  C   UNL A   1      39.952  34.451  37.016  1.00  0.00     0.058 A 
ATOM     89  C   UNL A   1      40.634  35.675  36.926  1.00  0.00     0.135 A 
ATOM     90  C   UNL A   1      39.077  34.267  38.099  1.00  0.00     0.135 A 
ATOM     91  F   UNL A   1      41.486  35.900  35.914  1.00  0.00    -0.206 F 
ATOM     92  C   UNL A   1      40.468  36.671  37.882  1.00  0.00     0.059 A 
ATOM     93  C   UNL A   1      38.870  35.261  39.050  1.00  0.00     0.059 A 
ATOM     94  F   UNL A   1      38.389  33.120  38.225  1.00  0.00    -0.206 F 
ATOM     95  C   UNL A   1      39.576  36.457  38.936  1.00  0.00     0.060 A 
BRANCH  95  96
ATOM     96  S   UNL A   1      39.340  37.777  40.143  1.00  0.00     0.124 S 
ATOM     97  O   UNL A   1      39.105  37.019  41.367  1.00  0.00    -0.237 OA
ATOM     98  O   UNL A   1      40.612  38.490  40.073  1.00  0.00    -0.237 OA
ATOM     99  O   UNL A   1      38.188  38.509  39.628  1.00  0.00    -0.744 OA
ENDBRANCH  95  96
ENDBRANCH  63  88
ENDBRANCH  37  38
ENDBRANCH  30  32
ENDBRANCH  29  30
ENDBRANCH  28  29
ENDBRANCH  27  28
ENDBRANCH   1  27
TORSDOF 22
ENDMDL
MODEL 2
REMARK VINA RESULT:     -10.7      6.669     11.896
REMARK SMILES CSc1nc(O)nc(C)c1C(=O)N1C[C@@H](O)C[C@@H]1C(=O)OCCOCCOC(=O)c1ccc(-c2c3nc(c(-c4c(F)cc(S(=O)(=O)[O-])cc4F)c4ccc([nH]4)c(-c4c(F)cc(S(=O)(=O)[O-])cc4F)c4nc(c(-c5c(F)cc(S(=O)(=O)[O-])cc5F)c5ccc2[nH]5)C=C4)C=C3)cc1
REMARK SMILES IDX 24 1 23 2 22 3 21 4 19 5 20 6 18 7 13 8 14 9 15 10 17 11
REMARK SMILES IDX 11 12 12 13 10 14 3 15 4 16 5 17 8 18 7 19 9 20 2 21 1 22
REMARK SMILES IDX 6 23 16 25 25 27 26 28 27 29 28 30 29 31 30 32 31 33 95 34
REMARK SMILES IDX 32 35 94 36 33 37 34 38 35 39 88 40 36 41 93 42 87 43 89 44
REMARK SMILES IDX 37 45 92 46 86 47 85 48 38 50 72 51 51 52 71 53 52 54 55 55
REMARK SMILES IDX 70 56 90 57 53 58 54 59 69 61 91 62 56 63 39 64 40 65 49 66
REMARK SMILES IDX 41 67 42 68 48 69 50 70 43 71 44 72 45 73 46 74 47 75 73 76
REMARK SMILES IDX 74 77 83 78 75 79 76 80 82 81 84 82 77 83 78 84 79 85 80 86
REMARK SMILES IDX 81 87 57 88 58 89 67 90 59 91 60 92 66 93 68 94 61 95 62 96
REMARK SMILES IDX 63 97 64 98 65 99
REMARK H PARENT 6 24 16 26 89 49 55 60
REMARK Flexibility Score: inf
ROOT
ATOM      1  O   UNL A   1      33.143  30.416  27.462  1.00  0.00    -0.374 OA
ENDROOT
BRANCH   1   2
ATOM      2  C   UNL A   1      32.131  30.514  26.464  1.00  0.00     0.202 C 
BRANCH   2   3
ATOM      3  C   UNL A   1      31.945  29.335  25.507  1.00  0.00     0.261 C 
BRANCH   3   4
ATOM      4  O   UNL A   1      33.204  28.693  25.247  1.00  0.00    -0.462 OA
BRANCH   4   5
ATOM      5  C   UNL A   1      33.370  28.220  23.980  1.00  0.00     0.329 C 
ATOM      6  O   UNL A   1      34.143  28.683  23.154  1.00  0.00    -0.250 OA
BRANCH   5   7
ATOM      7  C   UNL A   1      32.459  27.014  23.745  1.00  0.00     0.198 C 
ATOM      8  N   UNL A   1      33.222  25.750  23.602  1.00  0.00    -0.322 N 
ATOM      9  C   UNL A   1      32.747  25.082  22.407  1.00  0.00     0.152 C 
ATOM     10  C   UNL A   1      32.449  26.246  21.471  1.00  0.00     0.136 C 
ATOM     11  C   UNL A   1      31.714  27.198  22.416  1.00  0.00     0.071 C 
BRANCH   8  12
ATOM     12  C   UNL A   1      33.606  25.004  24.700  1.00  0.00     0.259 C 
ATOM     13  O   UNL A   1      34.355  25.526  25.519  1.00  0.00    -0.269 OA
BRANCH  12  14
ATOM     14  C   UNL A   1      33.173  23.555  24.832  1.00  0.00     0.093 A 
ATOM     15  C   UNL A   1      33.982  22.433  24.570  1.00  0.00     0.116 A 
ATOM     16  N   UNL A   1      33.576  21.151  24.753  1.00  0.00    -0.188 NA
ATOM     17  C   UNL A   1      32.367  20.984  25.250  1.00  0.00     0.315 A 
ATOM     18  C   UNL A   1      31.888  23.221  25.312  1.00  0.00     0.058 A 
ATOM     19  N   UNL A   1      31.493  21.934  25.531  1.00  0.00    -0.200 NA
ATOM     20  C   UNL A   1      30.783  24.158  25.709  1.00  0.00     0.068 C 
BRANCH  15  21
ATOM     21  S   UNL A   1      35.671  22.421  24.006  1.00  0.00    -0.109 SA
ATOM     22  C   UNL A   1      36.508  22.680  25.584  1.00  0.00     0.092 C 
ENDBRANCH  15  21
BRANCH  17  23
ATOM     23  O   UNL A   1      31.964  19.723  25.546  1.00  0.00    -0.479 OA
ATOM     24  H   UNL A   1      32.535  19.147  26.016  1.00  0.00     0.297 HD
ENDBRANCH  17  23
ENDBRANCH  12  14
ENDBRANCH   8  12
BRANCH  10  25
ATOM     25  O   UNL A   1      31.686  25.875  20.343  1.00  0.00    -0.391 OA
ATOM     26  H   UNL A   1      31.989  25.013  20.017  1.00  0.00     0.211 HD
ENDBRANCH  10  25
ENDBRANCH   5   7
ENDBRANCH   4   5
ENDBRANCH   3   4
ENDBRANCH   2   3
ENDBRANCH   1   2
BRANCH   1  27
ATOM     27  C   UNL A   1      33.917  31.577  27.741  1.00  0.00     0.202 C 
BRANCH  27  28
ATOM     28  C   UNL A   1      35.103  31.487  28.706  1.00  0.00     0.261 C 
BRANCH  28  29
ATOM     29  O   UNL A   1      35.705  30.193  28.740  1.00  0.00    -0.460 OA
BRANCH  29  30
ATOM     30  C   UNL A   1      36.384  29.934  29.881  1.00  0.00     0.338 C 
ATOM     31  O   UNL A   1      35.925  29.614  30.968  1.00  0.00    -0.246 OA
BRANCH  30  32
ATOM     32  C   UNL A   1      37.815  29.900  29.566  1.00  0.00     0.060 A 
ATOM     33  C   UNL A   1      38.183  29.769  28.221  1.00  0.00     0.016 A 
ATOM     34  C   UNL A   1      38.771  29.950  30.581  1.00  0.00     0.016 A 
ATOM     35  C   UNL A   1      39.523  29.655  27.882  1.00  0.00     0.010 A 
ATOM     36  C   UNL A   1      40.114  29.800  30.243  1.00  0.00     0.010 A 
ATOM     37  C   UNL A   1      40.483  29.613  28.900  1.00  0.00    -0.014 A 
BRANCH  37  38
ATOM     38  C   UNL A   1      41.838  29.135  28.569  1.00  0.00     0.031 A 
ATOM     39  C   UNL A   1      42.961  30.131  28.612  1.00  0.00     0.074 A 
ATOM     40  C   UNL A   1      42.057  27.842  28.281  1.00  0.00     0.049 A 
ATOM     41  N   UNL A   1      44.226  29.962  28.344  1.00  0.00    -0.248 NA
ATOM     42  C   UNL A   1      42.606  31.504  29.017  1.00  0.00     0.031 C 
ATOM     43  C   UNL A   1      41.038  26.795  28.272  1.00  0.00     0.029 A 
ATOM     44  N   UNL A   1      43.215  27.196  27.941  1.00  0.00    -0.354 N 
ATOM     45  C   UNL A   1      44.821  31.200  28.551  1.00  0.00     0.074 A 
ATOM     46  C   UNL A   1      43.774  32.123  28.930  1.00  0.00     0.031 C 
ATOM     47  C   UNL A   1      41.618  25.632  27.929  1.00  0.00     0.029 A 
ATOM     48  C   UNL A   1      43.037  25.862  27.667  1.00  0.00     0.049 A 
ATOM     49  H   UNL A   1      44.090  27.644  27.896  1.00  0.00     0.167 HD
ATOM     50  C   UNL A   1      46.127  31.530  28.445  1.00  0.00     0.037 A 
ATOM     51  C   UNL A   1      43.923  24.945  27.234  1.00  0.00     0.037 A 
ATOM     52  C   UNL A   1      47.151  30.601  28.053  1.00  0.00     0.049 A 
ATOM     53  C   UNL A   1      45.357  25.359  27.031  1.00  0.00     0.074 A 
ATOM     54  C   UNL A   1      48.508  30.826  27.911  1.00  0.00     0.029 A 
ATOM     55  N   UNL A   1      46.928  29.269  27.730  1.00  0.00    -0.354 N 
ATOM     56  N   UNL A   1      45.915  26.529  27.240  1.00  0.00    -0.248 NA
ATOM     57  C   UNL A   1      46.282  24.333  26.534  1.00  0.00     0.031 C 
ATOM     58  C   UNL A   1      49.096  29.646  27.447  1.00  0.00     0.029 A 
ATOM     59  C   UNL A   1      48.118  28.666  27.360  1.00  0.00     0.049 A 
ATOM     60  H   UNL A   1      46.053  28.819  27.761  1.00  0.00     0.167 HD
ATOM     61  C   UNL A   1      47.261  26.373  26.924  1.00  0.00     0.074 A 
ATOM     62  C   UNL A   1      47.433  24.992  26.521  1.00  0.00     0.031 C 
ATOM     63  C   UNL A   1      48.263  27.287  26.962  1.00  0.00     0.037 A 
BRANCH  50  64
ATOM     64  C   UNL A   1      46.514  32.953  28.733  1.00  0.00     0.058 A 
ATOM     65  C   UNL A   1      46.904  33.367  30.017  1.00  0.00     0.135 A 
ATOM     66  C   UNL A   1      46.532  33.908  27.704  1.00  0.00     0.135 A 
ATOM     67  F   UNL A   1      46.880  32.501  31.043  1.00  0.00    -0.206 F 
ATOM     68  C   UNL A   1      47.283  34.680  30.274  1.00  0.00     0.059 A 
ATOM     69  C   UNL A   1      46.937  35.220  27.932  1.00  0.00     0.059 A 
ATOM     70  F   UNL A   1      46.158  33.569  26.461  1.00  0.00    -0.206 F 
ATOM     71  C   UNL A   1      47.304  35.598  29.223  1.00  0.00     0.060 A 
BRANCH  71  72
ATOM     72  S   UNL A   1      47.823  37.291  29.571  1.00  0.00     0.124 S 
ATOM     73  O   UNL A   1      47.059  38.042  28.579  1.00  0.00    -0.237 OA
ATOM     74  O   UNL A   1      47.403  37.463  30.957  1.00  0.00    -0.237 OA
ATOM     75  O   UNL A   1      49.266  37.257  29.354  1.00  0.00    -0.744 OA
ENDBRANCH  71  72
ENDBRANCH  50  64
BRANCH  51  76
ATOM     76  C   UNL A   1      43.473  23.552  26.974  1.00  0.00     0.058 A 
ATOM     77  C   UNL A   1      43.327  22.632  28.021  1.00  0.00     0.135 A 
ATOM     78  C   UNL A   1      43.149  23.123  25.677  1.00  0.00     0.135 A 
ATOM     79  F   UNL A   1      43.635  22.993  29.278  1.00  0.00    -0.206 F 
ATOM     80  C   UNL A   1      42.877  21.336  27.795  1.00  0.00     0.059 A 
ATOM     81  C   UNL A   1      42.673  21.840  25.429  1.00  0.00     0.059 A 
ATOM     82  F   UNL A   1      43.261  23.967  24.640  1.00  0.00    -0.206 F 
ATOM     83  C   UNL A   1      42.542  20.952  26.495  1.00  0.00     0.060 A 
BRANCH  83  84
ATOM     84  S   UNL A   1      41.895  19.288  26.228  1.00  0.00     0.124 S 
ATOM     85  O   UNL A   1      40.473  19.550  26.038  1.00  0.00    -0.237 OA
ATOM     86  O   UNL A   1      42.632  18.864  25.042  1.00  0.00    -0.237 OA
ATOM     87  O   UNL A   1      42.248  18.588  27.461  1.00  0.00    -0.744 OA
ENDBRANCH  83  84
ENDBRANCH  51  76
BRANCH  63  88
ATOM     88  C   UNL A   1      49.642  26.827  26.578  1.00  0.00     0.058 A 
ATOM     89  C   UNL A   1      50.516  26.258  27.517  1.00  0.00     0.135 A 
ATOM     90  C   UNL A   1      50.062  26.878  25.238  1.00  0.00     0.135 A 
ATOM     91  F   UNL A   1      50.165  26.189  28.811  1.00  0.00    -0.206 F 
ATOM     92  C   UNL A   1      51.765  25.773  27.146  1.00  0.00     0.059 A 
ATOM     93  C   UNL A   1      51.294  26.370  24.839  1.00  0.00     0.059 A 
ATOM     94  F   UNL A   1      49.259  27.401  24.297  1.00  0.00    -0.206 F 
ATOM     95  C   UNL A   1      52.142  25.826  25.802  1.00  0.00     0.060 A 
BRANCH  95  96
ATOM     96  S   UNL A   1      53.748  25.153  25.332  1.00  0.00     0.124 S 
ATOM     97  O   UNL A   1      53.487  23.717  25.364  1.00  0.00    -0.237 OA
ATOM     98  O   UNL A   1      53.949  25.731  24.006  1.00  0.00    -0.237 OA
ATOM     99  O   UNL A   1      54.645  25.650  26.370  1.00  0.00    -0.744 OA
ENDBRANCH  95  96
ENDBRANCH  63  88
ENDBRANCH  37  38
ENDBRANCH  30  32
ENDBRANCH  29  30
ENDBRANCH  28  29
ENDBRANCH  27  28
ENDBRANCH   1  27
TORSDOF 22
ENDMDL
MODEL 3
REMARK VINA RESULT:     -10.5      4.773      9.878
REMARK SMILES CSc1nc(O)nc(C)c1C(=O)N1C[C@@H](O)C[C@@H]1C(=O)OCCOCCOC(=O)c1ccc(-c2c3nc(c(-c4c(F)cc(S(=O)(=O)[O-])cc4F)c4ccc([nH]4)c(-c4c(F)cc(S(=O)(=O)[O-])cc4F)c4nc(c(-c5c(F)cc(S(=O)(=O)[O-])cc5F)c5ccc2[nH]5)C=C4)C=C3)cc1
REMARK SMILES IDX 24 1 23 2 22 3 21 4 19 5 20 6 18 7 13 8 14 9 15 10 17 11
REMARK SMILES IDX 11 12 12 13 10 14 3 15 4 16 5 17 8 18 7 19 9 20 2 21 1 22
REMARK SMILES IDX 6 23 16 25 25 27 26 28 27 29 28 30 29 31 30 32 31 33 95 34
REMARK SMILES IDX 32 35 94 36 33 37 34 38 35 39 88 40 36 41 93 42 87 43 89 44
REMARK SMILES IDX 37 45 92 46 86 47 85 48 38 50 72 51 51 52 71 53 52 54 55 55
REMARK SMILES IDX 70 56 90 57 53 58 54 59 69 61 91 62 56 63 39 64 40 65 49 66
REMARK SMILES IDX 41 67 42 68 48 69 50 70 43 71 44 72 45 73 46 74 47 75 73 76
REMARK SMILES IDX 74 77 83 78 75 79 76 80 82 81 84 82 77 83 78 84 79 85 80 86
REMARK SMILES IDX 81 87 57 88 58 89 67 90 59 91 60 92 66 93 68 94 61 95 62 96
REMARK SMILES IDX 63 97 64 98 65 99
REMARK H PARENT 6 24 16 26 89 49 55 60
REMARK Flexibility Score: inf
ROOT
ATOM      1  O   UNL A   1      31.383  28.767  25.648  1.00  0.00    -0.374 OA
ENDROOT
BRANCH   1   2
ATOM      2  C   UNL A   1      31.305  28.314  24.299  1.00  0.00     0.202 C 
BRANCH   2   3
ATOM      3  C   UNL A   1      30.227  27.287  23.945  1.00  0.00     0.261 C 
BRANCH   3   4
ATOM      4  O   UNL A   1      30.457  26.053  24.643  1.00  0.00    -0.462 OA
BRANCH   4   5
ATOM      5  C   UNL A   1      31.244  25.150  23.992  1.00  0.00     0.329 C 
ATOM      6  O   UNL A   1      31.435  25.128  22.784  1.00  0.00    -0.250 OA
BRANCH   5   7
ATOM      7  C   UNL A   1      31.871  24.180  24.993  1.00  0.00     0.198 C 
ATOM      8  N   UNL A   1      31.635  22.761  24.629  1.00  0.00    -0.322 N 
ATOM      9  C   UNL A   1      31.128  22.082  25.804  1.00  0.00     0.152 C 
ATOM     10  C   UNL A   1      30.276  23.157  26.467  1.00  0.00     0.136 C 
ATOM     11  C   UNL A   1      31.203  24.369  26.362  1.00  0.00     0.071 C 
BRANCH   8  12
ATOM     12  C   UNL A   1      32.464  22.088  23.751  1.00  0.00     0.259 C 
ATOM     13  O   UNL A   1      32.032  21.832  22.632  1.00  0.00    -0.269 OA
BRANCH  12  14
ATOM     14  C   UNL A   1      33.834  21.613  24.200  1.00  0.00     0.093 A 
ATOM     15  C   UNL A   1      34.120  20.353  24.757  1.00  0.00     0.116 A 
ATOM     16  N   UNL A   1      35.369  19.944  25.095  1.00  0.00    -0.188 NA
ATOM     17  C   UNL A   1      36.352  20.780  24.830  1.00  0.00     0.315 A 
ATOM     18  C   UNL A   1      34.978  22.421  24.019  1.00  0.00     0.058 A 
ATOM     19  N   UNL A   1      36.237  21.995  24.325  1.00  0.00    -0.200 NA
ATOM     20  C   UNL A   1      35.045  23.804  23.436  1.00  0.00     0.068 C 
BRANCH  15  21
ATOM     21  S   UNL A   1      32.975  19.031  25.096  1.00  0.00    -0.109 SA
ATOM     22  C   UNL A   1      32.750  18.403  23.419  1.00  0.00     0.092 C 
ENDBRANCH  15  21
BRANCH  17  23
ATOM     23  O   UNL A   1      37.624  20.367  25.057  1.00  0.00    -0.479 OA
ATOM     24  H   UNL A   1      38.205  20.223  24.335  1.00  0.00     0.297 HD
ENDBRANCH  17  23
ENDBRANCH  12  14
ENDBRANCH   8  12
BRANCH  10  25
ATOM     25  O   UNL A   1      29.911  22.842  27.794  1.00  0.00    -0.391 OA
ATOM     26  H   UNL A   1      30.400  23.413  28.408  1.00  0.00     0.211 HD
ENDBRANCH  10  25
ENDBRANCH   5   7
ENDBRANCH   4   5
ENDBRANCH   3   4
ENDBRANCH   2   3
ENDBRANCH   1   2
BRANCH   1  27
ATOM     27  C   UNL A   1      31.995  30.028  25.892  1.00  0.00     0.202 C 
BRANCH  27  28
ATOM     28  C   UNL A   1      32.697  30.287  27.228  1.00  0.00     0.261 C 
BRANCH  28  29
ATOM     29  O   UNL A   1      34.120  30.195  27.144  1.00  0.00    -0.460 OA
BRANCH  29  30
ATOM     30  C   UNL A   1      34.770  30.823  28.152  1.00  0.00     0.338 C 
ATOM     31  O   UNL A   1      34.320  31.653  28.928  1.00  0.00    -0.246 OA
BRANCH  30  32
ATOM     32  C   UNL A   1      36.085  30.197  28.311  1.00  0.00     0.060 A 
ATOM     33  C   UNL A   1      36.457  29.778  29.595  1.00  0.00     0.016 A 
ATOM     34  C   UNL A   1      36.950  30.066  27.224  1.00  0.00     0.016 A 
ATOM     35  C   UNL A   1      37.721  29.251  29.808  1.00  0.00     0.010 A 
ATOM     36  C   UNL A   1      38.233  29.570  27.446  1.00  0.00     0.010 A 
ATOM     37  C   UNL A   1      38.628  29.201  28.743  1.00  0.00    -0.014 A 
BRANCH  37  38
ATOM     38  C   UNL A   1      40.055  28.987  29.045  1.00  0.00     0.031 A 
ATOM     39  C   UNL A   1      40.645  27.645  28.720  1.00  0.00     0.074 A 
ATOM     40  C   UNL A   1      40.804  29.979  29.553  1.00  0.00     0.049 A 
ATOM     41  N   UNL A   1      41.860  27.209  28.909  1.00  0.00    -0.248 NA
ATOM     42  C   UNL A   1      39.740  26.663  28.094  1.00  0.00     0.031 C 
ATOM     43  C   UNL A   1      40.330  31.330  29.844  1.00  0.00     0.029 A 
ATOM     44  N   UNL A   1      42.125  29.995  29.911  1.00  0.00    -0.354 N 
ATOM     45  C   UNL A   1      41.870  25.908  28.423  1.00  0.00     0.074 A 
ATOM     46  C   UNL A   1      40.532  25.609  27.964  1.00  0.00     0.031 C 
ATOM     47  C   UNL A   1      41.349  32.045  30.352  1.00  0.00     0.029 A 
ATOM     48  C   UNL A   1      42.533  31.192  30.447  1.00  0.00     0.049 A 
ATOM     49  H   UNL A   1      42.725  29.223  29.797  1.00  0.00     0.167 HD
ATOM     50  C   UNL A   1      42.910  25.046  28.356  1.00  0.00     0.037 A 
ATOM     51  C   UNL A   1      43.723  31.542  30.970  1.00  0.00     0.037 A 
ATOM     52  C   UNL A   1      44.230  25.358  28.829  1.00  0.00     0.049 A 
ATOM     53  C   UNL A   1      44.841  30.533  30.971  1.00  0.00     0.074 A 
ATOM     54  C   UNL A   1      45.360  24.561  28.813  1.00  0.00     0.029 A 
ATOM     55  N   UNL A   1      44.595  26.563  29.415  1.00  0.00    -0.354 N 
ATOM     56  N   UNL A   1      44.847  29.307  30.499  1.00  0.00    -0.248 NA
ATOM     57  C   UNL A   1      46.113  30.950  31.574  1.00  0.00     0.031 C 
ATOM     58  C   UNL A   1      46.393  25.262  29.440  1.00  0.00     0.029 A 
ATOM     59  C   UNL A   1      45.926  26.520  29.792  1.00  0.00     0.049 A 
ATOM     60  H   UNL A   1      43.997  27.333  29.544  1.00  0.00     0.167 HD
ATOM     61  C   UNL A   1      46.129  28.816  30.725  1.00  0.00     0.074 A 
ATOM     62  C   UNL A   1      46.873  29.882  31.366  1.00  0.00     0.031 C 
ATOM     63  C   UNL A   1      46.645  27.597  30.431  1.00  0.00     0.037 A 
BRANCH  50  64
ATOM     64  C   UNL A   1      42.653  23.686  27.772  1.00  0.00     0.058 A 
ATOM     65  C   UNL A   1      42.611  23.473  26.384  1.00  0.00     0.135 A 
ATOM     66  C   UNL A   1      42.484  22.572  28.610  1.00  0.00     0.135 A 
ATOM     67  F   UNL A   1      42.740  24.507  25.537  1.00  0.00    -0.206 F 
ATOM     68  C   UNL A   1      42.396  22.208  25.849  1.00  0.00     0.059 A 
ATOM     69  C   UNL A   1      42.298  21.293  28.095  1.00  0.00     0.059 A 
ATOM     70  F   UNL A   1      42.503  22.721  29.944  1.00  0.00    -0.206 F 
ATOM     71  C   UNL A   1      42.248  21.122  26.713  1.00  0.00     0.060 A 
BRANCH  71  72
ATOM     72  S   UNL A   1      41.996  19.484  25.999  1.00  0.00     0.124 S 
ATOM     73  O   UNL A   1      42.445  18.618  27.085  1.00  0.00    -0.237 OA
ATOM     74  O   UNL A   1      40.560  19.480  25.738  1.00  0.00    -0.237 OA
ATOM     75  O   UNL A   1      42.847  19.493  24.814  1.00  0.00    -0.744 OA
ENDBRANCH  71  72
ENDBRANCH  50  64
BRANCH  51  76
ATOM     76  C   UNL A   1      43.910  32.908  31.525  1.00  0.00     0.058 A 
ATOM     77  C   UNL A   1      44.308  33.973  30.706  1.00  0.00     0.135 A 
ATOM     78  C   UNL A   1      43.663  33.182  32.880  1.00  0.00     0.135 A 
ATOM     79  F   UNL A   1      44.567  33.758  29.406  1.00  0.00    -0.206 F 
ATOM     80  C   UNL A   1      44.457  35.262  31.207  1.00  0.00     0.059 A 
ATOM     81  C   UNL A   1      43.778  34.468  33.399  1.00  0.00     0.059 A 
ATOM     82  F   UNL A   1      43.268  32.200  33.705  1.00  0.00    -0.206 F 
ATOM     83  C   UNL A   1      44.179  35.502  32.555  1.00  0.00     0.060 A 
BRANCH  83  84
ATOM     84  S   UNL A   1      44.309  37.192  33.174  1.00  0.00     0.124 S 
ATOM     85  O   UNL A   1      45.381  37.067  34.155  1.00  0.00    -0.237 OA
ATOM     86  O   UNL A   1      44.636  37.934  31.959  1.00  0.00    -0.237 OA
ATOM     87  O   UNL A   1      42.980  37.453  33.721  1.00  0.00    -0.744 OA
ENDBRANCH  83  84
ENDBRANCH  51  76
BRANCH  63  88
ATOM     88  C   UNL A   1      48.086  27.346  30.779  1.00  0.00     0.058 A 
ATOM     89  C   UNL A   1      48.457  26.772  32.006  1.00  0.00     0.135 A 
ATOM     90  C   UNL A   1      49.101  27.603  29.843  1.00  0.00     0.135 A 
ATOM     91  F   UNL A   1      47.527  26.510  32.938  1.00  0.00    -0.206 F 
ATOM     92  C   UNL A   1      49.784  26.480  32.298  1.00  0.00     0.059 A 
ATOM     93  C   UNL A   1      50.431  27.290  30.101  1.00  0.00     0.059 A 
ATOM     94  F   UNL A   1      48.798  28.139  28.649  1.00  0.00    -0.206 F 
ATOM     95  C   UNL A   1      50.764  26.735  31.336  1.00  0.00     0.060 A 
BRANCH  95  96
ATOM     96  S   UNL A   1      52.475  26.310  31.716  1.00  0.00     0.124 S 
ATOM     97  O   UNL A   1      52.761  27.205  32.832  1.00  0.00    -0.237 OA
ATOM     98  O   UNL A   1      52.374  24.892  32.051  1.00  0.00    -0.237 OA
ATOM     99  O   UNL A   1      53.185  26.607  30.476  1.00  0.00    -0.744 OA
ENDBRANCH  95  96
ENDBRANCH  63  88
ENDBRANCH  37  38
ENDBRANCH  30  32
ENDBRANCH  29  30
ENDBRANCH  28  29
ENDBRANCH  27  28
ENDBRANCH   1  27
TORSDOF 22
ENDMDL
