MODEL 1
REMARK VINA RESULT:     -10.7      0.000      0.000
REMARK SMILES O=C(N[C@@H](Cc1c[nH]c2ccccc12)C(=O)N[C@@H](CS)C(=O)N[C@@H](CO)C(=O)OCCOCCOC(=O)c1ccc(-c2c3nc(c(-c4c(F)cc(S(=O)(=O)[O-])cc4F)c4ccc([nH]4)c(-c4c(F)cc(S(=O)(=O)[O-])cc4F)c4nc(c(-c5c(F)cc(S(=O)(=O)[O-])cc5F)c5ccc2[nH]5)C=C4)C=C3)cc1)c1ccc(F)cc1
REMARK SMILES IDX 30 1 29 2 27 3 28 4 24 5 23 6 21 7 22 8 18 10 17 11 15 12
REMARK SMILES IDX 16 13 4 15 3 16 1 17 2 18 104 20 105 21 110 22 106 23 109 24
REMARK SMILES IDX 107 25 108 26 5 27 6 28 7 29 14 30 8 31 9 32 13 33 10 35
REMARK SMILES IDX 12 36 11 37 19 38 20 39 25 41 26 42 31 44 32 45 33 46 34 47
REMARK SMILES IDX 35 48 36 49 37 50 38 51 39 52 103 53 40 54 102 55 41 56
REMARK SMILES IDX 42 57 43 58 96 59 44 60 101 61 95 62 97 63 45 64 100 65
REMARK SMILES IDX 94 66 93 67 46 69 80 70 59 71 79 72 60 73 63 74 78 75 98 76
REMARK SMILES IDX 61 77 62 78 77 80 99 81 64 82 47 83 48 84 57 85 49 86 50 87
REMARK SMILES IDX 56 88 58 89 51 90 52 91 53 92 54 93 55 94 81 95 82 96 91 97
REMARK SMILES IDX 83 98 84 99 90 100 92 101 85 102 86 103 87 104 88 105 89 106
REMARK SMILES IDX 65 107 66 108 75 109 67 110 68 111 74 112 76 113 69 114
REMARK SMILES IDX 70 115 71 116 72 117 73 118
REMARK H PARENT 23 9 17 14 3 19 8 34 20 40 26 43 97 68 63 79
REMARK Flexibility Score: inf
ROOT
ATOM      1  C   UNL A   1      36.065  21.821  25.273  1.00  0.00     0.261 C 
ENDROOT
BRANCH   1   2
ATOM      2  O   UNL A   1      35.010  21.336  24.429  1.00  0.00    -0.462 OA
BRANCH   2   3
ATOM      3  C   UNL A   1      34.483  20.130  24.777  1.00  0.00     0.331 C 
ATOM      4  O   UNL A   1      35.059  19.055  24.670  1.00  0.00    -0.250 OA
BRANCH   3   5
ATOM      5  C   UNL A   1      33.048  20.275  25.290  1.00  0.00     0.218 C 
BRANCH   5   6
ATOM      6  N   UNL A   1      32.285  21.344  24.599  1.00  0.00    -0.339 N 
ATOM      7  C   UNL A   1      31.558  22.234  25.331  1.00  0.00     0.244 C 
ATOM      8  O   UNL A   1      30.464  21.847  25.751  1.00  0.00    -0.273 OA
ATOM      9  H   UNL A   1      32.306  21.410  23.617  1.00  0.00     0.164 HD
BRANCH   7  10
ATOM     10  C   UNL A   1      32.146  23.640  25.680  1.00  0.00     0.181 C 
BRANCH  10  11
ATOM     11  N   UNL A   1      31.031  24.467  26.152  1.00  0.00    -0.342 N 
ATOM     12  C   UNL A   1      30.545  25.645  25.665  1.00  0.00     0.243 C 
ATOM     13  O   UNL A   1      29.330  25.832  25.812  1.00  0.00    -0.273 OA
ATOM     14  H   UNL A   1      30.559  24.118  26.944  1.00  0.00     0.164 HD
BRANCH  12  15
ATOM     15  C   UNL A   1      31.413  26.752  25.009  1.00  0.00     0.176 C 
BRANCH  15  16
ATOM     16  N   UNL A   1      31.500  26.591  23.555  1.00  0.00    -0.340 N 
ATOM     17  O   UNL A   1      31.022  27.043  21.393  1.00  0.00    -0.269 OA
ATOM     18  C   UNL A   1      30.832  27.298  22.579  1.00  0.00     0.251 C 
ATOM     19  H   UNL A   1      32.111  25.889  23.236  1.00  0.00     0.164 HD
BRANCH  18  20
ATOM     20  C   UNL A   1      29.808  28.311  22.941  1.00  0.00     0.040 A 
ATOM     21  C   UNL A   1      28.460  27.978  23.128  1.00  0.00     0.017 A 
ATOM     22  C   UNL A   1      30.228  29.641  23.092  1.00  0.00     0.017 A 
ATOM     23  C   UNL A   1      27.525  28.984  23.388  1.00  0.00     0.040 A 
ATOM     24  C   UNL A   1      29.292  30.642  23.366  1.00  0.00     0.040 A 
ATOM     25  C   UNL A   1      27.948  30.307  23.497  1.00  0.00     0.123 A 
ATOM     26  F   UNL A   1      27.048  31.270  23.732  1.00  0.00    -0.207 F 
ENDBRANCH  18  20
ENDBRANCH  15  16
BRANCH  15  27
ATOM     27  C   UNL A   1      31.307  28.205  25.502  1.00  0.00     0.072 C 
BRANCH  27  28
ATOM     28  C   UNL A   1      32.497  28.821  26.159  1.00  0.00    -0.020 A 
ATOM     29  C   UNL A   1      33.732  28.217  26.266  1.00  0.00     0.087 A 
ATOM     30  C   UNL A   1      32.660  30.152  26.668  1.00  0.00     0.003 A 
ATOM     31  N   UNL A   1      34.554  29.024  27.002  1.00  0.00    -0.361 N 
ATOM     32  C   UNL A   1      33.930  30.224  27.246  1.00  0.00     0.046 A 
ATOM     33  C   UNL A   1      31.861  31.314  26.678  1.00  0.00     0.010 A 
ATOM     34  H   UNL A   1      35.457  28.783  27.311  1.00  0.00     0.166 HD
ATOM     35  C   UNL A   1      34.412  31.365  27.898  1.00  0.00     0.026 A 
ATOM     36  C   UNL A   1      32.357  32.488  27.264  1.00  0.00     0.001 A 
ATOM     37  C   UNL A   1      33.604  32.504  27.883  1.00  0.00     0.002 A 
ENDBRANCH  27  28
ENDBRANCH  15  27
ENDBRANCH  12  15
ENDBRANCH  10  11
BRANCH  10  38
ATOM     38  C   UNL A   1      33.407  23.705  26.549  1.00  0.00     0.101 C 
BRANCH  38  39
ATOM     39  S   UNL A   1      33.507  22.566  27.962  1.00  0.00    -0.177 SA
ATOM     40  H   UNL A   1      32.296  22.496  28.574  1.00  0.00     0.102 HD
ENDBRANCH  38  39
ENDBRANCH  10  38
ENDBRANCH   7  10
ENDBRANCH   5   6
BRANCH   5  41
ATOM     41  C   UNL A   1      32.362  18.905  25.163  1.00  0.00     0.193 C 
BRANCH  41  42
ATOM     42  O   UNL A   1      32.555  18.133  26.349  1.00  0.00    -0.394 OA
ATOM     43  H   UNL A   1      31.779  18.224  26.924  1.00  0.00     0.210 HD
ENDBRANCH  41  42
ENDBRANCH   5  41
ENDBRANCH   3   5
ENDBRANCH   2   3
ENDBRANCH   1   2
BRANCH   1  44
ATOM     44  C   UNL A   1      37.418  21.554  24.608  1.00  0.00     0.202 C 
BRANCH  44  45
ATOM     45  O   UNL A   1      38.102  20.367  25.021  1.00  0.00    -0.374 OA
BRANCH  45  46
ATOM     46  C   UNL A   1      39.307  20.527  25.764  1.00  0.00     0.202 C 
BRANCH  46  47
ATOM     47  C   UNL A   1      40.292  19.347  25.776  1.00  0.00     0.261 C 
BRANCH  47  48
ATOM     48  O   UNL A   1      41.433  19.562  26.621  1.00  0.00    -0.460 OA
BRANCH  48  49
ATOM     49  C   UNL A   1      42.480  20.152  25.993  1.00  0.00     0.338 C 
ATOM     50  O   UNL A   1      43.126  19.704  25.052  1.00  0.00    -0.246 OA
BRANCH  49  51
ATOM     51  C   UNL A   1      42.665  21.527  26.483  1.00  0.00     0.060 A 
ATOM     52  C   UNL A   1      42.650  22.554  25.532  1.00  0.00     0.016 A 
ATOM     53  C   UNL A   1      42.941  21.801  27.824  1.00  0.00     0.016 A 
ATOM     54  C   UNL A   1      42.947  23.858  25.914  1.00  0.00     0.010 A 
ATOM     55  C   UNL A   1      43.249  23.114  28.204  1.00  0.00     0.010 A 
ATOM     56  C   UNL A   1      43.287  24.140  27.244  1.00  0.00    -0.014 A 
BRANCH  56  57
ATOM     57  C   UNL A   1      43.812  25.487  27.573  1.00  0.00     0.031 A 
ATOM     58  C   UNL A   1      45.226  25.836  27.195  1.00  0.00     0.074 A 
ATOM     59  C   UNL A   1      43.009  26.415  28.123  1.00  0.00     0.049 A 
ATOM     60  N   UNL A   1      45.856  26.977  27.303  1.00  0.00    -0.248 NA
ATOM     61  C   UNL A   1      46.035  24.753  26.614  1.00  0.00     0.031 C 
ATOM     62  C   UNL A   1      41.611  26.203  28.497  1.00  0.00     0.029 A 
ATOM     63  N   UNL A   1      43.250  27.726  28.444  1.00  0.00    -0.354 N 
ATOM     64  C   UNL A   1      47.131  26.755  26.793  1.00  0.00     0.074 A 
ATOM     65  C   UNL A   1      47.197  25.357  26.421  1.00  0.00     0.031 C 
ATOM     66  C   UNL A   1      41.111  27.354  28.980  1.00  0.00     0.029 A 
ATOM     67  C   UNL A   1      42.158  28.374  28.969  1.00  0.00     0.049 A 
ATOM     68  H   UNL A   1      44.123  28.162  28.310  1.00  0.00     0.167 HD
ATOM     69  C   UNL A   1      48.147  27.638  26.634  1.00  0.00     0.037 A 
ATOM     70  C   UNL A   1      42.019  29.647  29.386  1.00  0.00     0.037 A 
ATOM     71  C   UNL A   1      48.082  29.023  27.024  1.00  0.00     0.049 A 
ATOM     72  C   UNL A   1      43.185  30.592  29.267  1.00  0.00     0.074 A 
ATOM     73  C   UNL A   1      49.056  29.999  26.913  1.00  0.00     0.029 A 
ATOM     74  N   UNL A   1      46.979  29.626  27.614  1.00  0.00    -0.354 N 
ATOM     75  N   UNL A   1      44.380  30.373  28.769  1.00  0.00    -0.248 NA
ATOM     76  C   UNL A   1      42.977  31.961  29.759  1.00  0.00     0.031 C 
ATOM     77  C   UNL A   1      48.559  31.181  27.476  1.00  0.00     0.029 A 
ATOM     78  C   UNL A   1      47.256  30.956  27.893  1.00  0.00     0.049 A 
ATOM     79  H   UNL A   1      46.125  29.176  27.805  1.00  0.00     0.167 HD
ATOM     80  C   UNL A   1      45.059  31.583  28.866  1.00  0.00     0.074 A 
ATOM     81  C   UNL A   1      44.135  32.532  29.455  1.00  0.00     0.031 C 
ATOM     82  C   UNL A   1      46.330  31.884  28.495  1.00  0.00     0.037 A 
BRANCH  69  83
ATOM     83  C   UNL A   1      49.425  27.107  26.039  1.00  0.00     0.058 A 
ATOM     84  C   UNL A   1      50.407  26.489  26.831  1.00  0.00     0.135 A 
ATOM     85  C   UNL A   1      49.682  27.240  24.666  1.00  0.00     0.135 A 
ATOM     86  F   UNL A   1      50.222  26.350  28.154  1.00  0.00    -0.206 F 
ATOM     87  C   UNL A   1      51.619  26.066  26.290  1.00  0.00     0.059 A 
ATOM     88  C   UNL A   1      50.875  26.798  24.099  1.00  0.00     0.059 A 
ATOM     89  F   UNL A   1      48.779  27.822  23.861  1.00  0.00    -0.206 F 
ATOM     90  C   UNL A   1      51.847  26.235  24.924  1.00  0.00     0.060 A 
BRANCH  90  91
ATOM     91  S   UNL A   1      53.441  25.727  24.244  1.00  0.00     0.124 S 
ATOM     92  O   UNL A   1      53.639  24.439  24.902  1.00  0.00    -0.237 OA
ATOM     93  O   UNL A   1      53.168  25.671  22.811  1.00  0.00    -0.237 OA
ATOM     94  O   UNL A   1      54.344  26.793  24.664  1.00  0.00    -0.744 OA
ENDBRANCH  90  91
ENDBRANCH  69  83
BRANCH  70  95
ATOM     95  C   UNL A   1      40.713  30.107  29.930  1.00  0.00     0.058 A 
ATOM     96  C   UNL A   1      39.594  30.245  29.097  1.00  0.00     0.135 A 
ATOM     97  C   UNL A   1      40.553  30.389  31.295  1.00  0.00     0.135 A 
ATOM     98  F   UNL A   1      39.701  29.998  27.782  1.00  0.00    -0.206 F 
ATOM     99  C   UNL A   1      38.360  30.647  29.597  1.00  0.00     0.059 A 
ATOM    100  C   UNL A   1      39.323  30.770  31.823  1.00  0.00     0.059 A 
ATOM    101  F   UNL A   1      41.592  30.263  32.134  1.00  0.00    -0.206 F 
ATOM    102  C   UNL A   1      38.233  30.900  30.964  1.00  0.00     0.060 A 
BRANCH 102 103
ATOM    103  S   UNL A   1      36.608  31.346  31.614  1.00  0.00     0.124 S 
ATOM    104  O   UNL A   1      36.190  32.383  30.678  1.00  0.00    -0.237 OA
ATOM    105  O   UNL A   1      35.887  30.080  31.529  1.00  0.00    -0.237 OA
ATOM    106  O   UNL A   1      36.903  31.800  32.969  1.00  0.00    -0.744 OA
ENDBRANCH 102 103
ENDBRANCH  70  95
BRANCH  82 107
ATOM    107  C   UNL A   1      46.782  33.305  28.701  1.00  0.00     0.058 A 
ATOM    108  C   UNL A   1      47.478  33.700  29.854  1.00  0.00     0.135 A 
ATOM    109  C   UNL A   1      46.517  34.284  27.729  1.00  0.00     0.135 A 
ATOM    110  F   UNL A   1      47.757  32.805  30.815  1.00  0.00    -0.206 F 
ATOM    111  C   UNL A   1      47.854  35.024  30.059  1.00  0.00     0.059 A 
ATOM    112  C   UNL A   1      46.908  35.608  27.900  1.00  0.00     0.059 A 
ATOM    113  F   UNL A   1      45.868  33.959  26.601  1.00  0.00    -0.206 F 
ATOM    114  C   UNL A   1      47.557  35.973  29.079  1.00  0.00     0.060 A 
BRANCH 114 115
ATOM    115  S   UNL A   1      48.035  37.691  29.361  1.00  0.00     0.124 S 
ATOM    116  O   UNL A   1      46.970  38.150  30.247  1.00  0.00    -0.237 OA
ATOM    117  O   UNL A   1      49.354  37.555  29.972  1.00  0.00    -0.237 OA
ATOM    118  O   UNL A   1      48.030  38.268  28.019  1.00  0.00    -0.744 OA
ENDBRANCH 114 115
ENDBRANCH  82 107
ENDBRANCH  56  57
ENDBRANCH  49  51
ENDBRANCH  48  49
ENDBRANCH  47  48
ENDBRANCH  46  47
ENDBRANCH  45  46
ENDBRANCH  44  45
ENDBRANCH   1  44
TORSDOF 29
ENDMDL
MODEL 2
REMARK VINA RESULT:     -10.3      0.581      7.621
REMARK SMILES O=C(N[C@@H](Cc1c[nH]c2ccccc12)C(=O)N[C@@H](CS)C(=O)N[C@@H](CO)C(=O)OCCOCCOC(=O)c1ccc(-c2c3nc(c(-c4c(F)cc(S(=O)(=O)[O-])cc4F)c4ccc([nH]4)c(-c4c(F)cc(S(=O)(=O)[O-])cc4F)c4nc(c(-c5c(F)cc(S(=O)(=O)[O-])cc5F)c5ccc2[nH]5)C=C4)C=C3)cc1)c1ccc(F)cc1
REMARK SMILES IDX 30 1 29 2 27 3 28 4 24 5 23 6 21 7 22 8 18 10 17 11 15 12
REMARK SMILES IDX 16 13 4 15 3 16 1 17 2 18 104 20 105 21 110 22 106 23 109 24
REMARK SMILES IDX 107 25 108 26 5 27 6 28 7 29 14 30 8 31 9 32 13 33 10 35
REMARK SMILES IDX 12 36 11 37 19 38 20 39 25 41 26 42 31 44 32 45 33 46 34 47
REMARK SMILES IDX 35 48 36 49 37 50 38 51 39 52 103 53 40 54 102 55 41 56
REMARK SMILES IDX 42 57 43 58 96 59 44 60 101 61 95 62 97 63 45 64 100 65
REMARK SMILES IDX 94 66 93 67 46 69 80 70 59 71 79 72 60 73 63 74 78 75 98 76
REMARK SMILES IDX 61 77 62 78 77 80 99 81 64 82 47 83 48 84 57 85 49 86 50 87
REMARK SMILES IDX 56 88 58 89 51 90 52 91 53 92 54 93 55 94 81 95 82 96 91 97
REMARK SMILES IDX 83 98 84 99 90 100 92 101 85 102 86 103 87 104 88 105 89 106
REMARK SMILES IDX 65 107 66 108 75 109 67 110 68 111 74 112 76 113 69 114
REMARK SMILES IDX 70 115 71 116 72 117 73 118
REMARK H PARENT 23 9 17 14 3 19 8 34 20 40 26 43 97 68 63 79
REMARK Flexibility Score: inf
ROOT
ATOM      1  C   UNL A   1      36.036  21.970  25.113  1.00  0.00     0.261 C 
ENDROOT
BRANCH   1   2
ATOM      2  O   UNL A   1      34.927  21.500  24.331  1.00  0.00    -0.462 OA
BRANCH   2   3
ATOM      3  C   UNL A   1      34.430  20.283  24.684  1.00  0.00     0.331 C 
ATOM      4  O   UNL A   1      35.055  19.231  24.647  1.00  0.00    -0.250 OA
BRANCH   3   5
ATOM      5  C   UNL A   1      32.961  20.381  25.104  1.00  0.00     0.218 C 
BRANCH   5   6
ATOM      6  N   UNL A   1      32.283  21.593  24.581  1.00  0.00    -0.339 N 
ATOM      7  C   UNL A   1      31.621  22.419  25.439  1.00  0.00     0.244 C 
ATOM      8  O   UNL A   1      30.499  22.057  25.805  1.00  0.00    -0.273 OA
ATOM      9  H   UNL A   1      32.313  21.799  23.619  1.00  0.00     0.164 HD
BRANCH   7  10
ATOM     10  C   UNL A   1      32.311  23.711  25.985  1.00  0.00     0.181 C 
BRANCH  10  11
ATOM     11  N   UNL A   1      31.242  24.617  26.419  1.00  0.00    -0.342 N 
ATOM     12  C   UNL A   1      30.761  25.750  25.831  1.00  0.00     0.243 C 
ATOM     13  O   UNL A   1      29.560  25.989  26.016  1.00  0.00    -0.273 OA
ATOM     14  H   UNL A   1      30.804  24.370  27.266  1.00  0.00     0.164 HD
BRANCH  12  15
ATOM     15  C   UNL A   1      31.621  26.754  25.017  1.00  0.00     0.176 C 
BRANCH  15  16
ATOM     16  N   UNL A   1      31.741  26.358  23.611  1.00  0.00    -0.340 N 
ATOM     17  O   UNL A   1      31.308  26.445  21.395  1.00  0.00    -0.269 OA
ATOM     18  C   UNL A   1      31.090  26.888  22.519  1.00  0.00     0.251 C 
ATOM     19  H   UNL A   1      32.365  25.620  23.424  1.00  0.00     0.164 HD
BRANCH  18  20
ATOM     20  C   UNL A   1      30.050  27.935  22.689  1.00  0.00     0.040 A 
ATOM     21  C   UNL A   1      28.757  27.638  23.141  1.00  0.00     0.017 A 
ATOM     22  C   UNL A   1      30.395  29.258  22.377  1.00  0.00     0.017 A 
ATOM     23  C   UNL A   1      27.794  28.649  23.205  1.00  0.00     0.040 A 
ATOM     24  C   UNL A   1      29.433  30.268  22.456  1.00  0.00     0.040 A 
ATOM     25  C   UNL A   1      28.139  29.952  22.855  1.00  0.00     0.123 A 
ATOM     26  F   UNL A   1      27.210  30.916  22.904  1.00  0.00    -0.207 F 
ENDBRANCH  18  20
ENDBRANCH  15  16
BRANCH  15  27
ATOM     27  C   UNL A   1      31.477  28.266  25.262  1.00  0.00     0.072 C 
BRANCH  27  28
ATOM     28  C   UNL A   1      32.601  28.988  25.926  1.00  0.00    -0.020 A 
ATOM     29  C   UNL A   1      33.896  28.520  26.003  1.00  0.00     0.087 A 
ATOM     30  C   UNL A   1      32.624  30.313  26.474  1.00  0.00     0.003 A 
ATOM     31  N   UNL A   1      34.634  29.390  26.755  1.00  0.00    -0.361 N 
ATOM     32  C   UNL A   1      33.887  30.506  27.042  1.00  0.00     0.046 A 
ATOM     33  C   UNL A   1      31.704  31.381  26.527  1.00  0.00     0.010 A 
ATOM     34  H   UNL A   1      35.562  29.239  27.047  1.00  0.00     0.166 HD
ATOM     35  C   UNL A   1      34.250  31.673  27.723  1.00  0.00     0.026 A 
ATOM     36  C   UNL A   1      32.077  32.584  27.144  1.00  0.00     0.001 A 
ATOM     37  C   UNL A   1      33.323  32.718  27.751  1.00  0.00     0.002 A 
ENDBRANCH  27  28
ENDBRANCH  15  27
ENDBRANCH  12  15
ENDBRANCH  10  11
BRANCH  10  38
ATOM     38  C   UNL A   1      33.463  23.554  26.983  1.00  0.00     0.101 C 
BRANCH  38  39
ATOM     39  S   UNL A   1      33.513  22.028  27.969  1.00  0.00    -0.177 SA
ATOM     40  H   UNL A   1      32.302  21.826  28.552  1.00  0.00     0.102 HD
ENDBRANCH  38  39
ENDBRANCH  10  38
ENDBRANCH   7  10
ENDBRANCH   5   6
BRANCH   5  41
ATOM     41  C   UNL A   1      32.256  19.090  24.657  1.00  0.00     0.193 C 
BRANCH  41  42
ATOM     42  O   UNL A   1      32.490  18.843  23.270  1.00  0.00    -0.394 OA
ATOM     43  H   UNL A   1      32.216  19.616  22.753  1.00  0.00     0.210 HD
ENDBRANCH  41  42
ENDBRANCH   5  41
ENDBRANCH   3   5
ENDBRANCH   2   3
ENDBRANCH   1   2
BRANCH   1  44
ATOM     44  C   UNL A   1      37.348  21.522  24.464  1.00  0.00     0.202 C 
BRANCH  44  45
ATOM     45  O   UNL A   1      37.984  20.380  25.046  1.00  0.00    -0.374 OA
BRANCH  45  46
ATOM     46  C   UNL A   1      39.211  20.592  25.737  1.00  0.00     0.202 C 
BRANCH  46  47
ATOM     47  C   UNL A   1      40.157  19.389  25.883  1.00  0.00     0.261 C 
BRANCH  47  48
ATOM     48  O   UNL A   1      41.270  19.638  26.756  1.00  0.00    -0.460 OA
BRANCH  48  49
ATOM     49  C   UNL A   1      42.374  20.105  26.121  1.00  0.00     0.338 C 
ATOM     50  O   UNL A   1      43.035  19.527  25.265  1.00  0.00    -0.246 OA
BRANCH  49  51
ATOM     51  C   UNL A   1      42.610  21.514  26.470  1.00  0.00     0.060 A 
ATOM     52  C   UNL A   1      42.588  22.447  25.427  1.00  0.00     0.016 A 
ATOM     53  C   UNL A   1      42.939  21.906  27.770  1.00  0.00     0.016 A 
ATOM     54  C   UNL A   1      42.931  23.772  25.672  1.00  0.00     0.010 A 
ATOM     55  C   UNL A   1      43.293  23.240  28.012  1.00  0.00     0.010 A 
ATOM     56  C   UNL A   1      43.323  24.170  26.957  1.00  0.00    -0.014 A 
BRANCH  56  57
ATOM     57  C   UNL A   1      43.893  25.526  27.139  1.00  0.00     0.031 A 
ATOM     58  C   UNL A   1      43.069  26.584  27.820  1.00  0.00     0.074 A 
ATOM     59  C   UNL A   1      45.163  25.785  26.779  1.00  0.00     0.049 A 
ATOM     60  N   UNL A   1      43.399  27.801  28.164  1.00  0.00    -0.248 NA
ATOM     61  C   UNL A   1      41.685  26.216  28.162  1.00  0.00     0.031 C 
ATOM     62  C   UNL A   1      46.071  24.827  26.147  1.00  0.00     0.029 A 
ATOM     63  N   UNL A   1      45.914  26.924  26.914  1.00  0.00    -0.354 N 
ATOM     64  C   UNL A   1      42.273  28.342  28.774  1.00  0.00     0.074 A 
ATOM     65  C   UNL A   1      41.235  27.335  28.708  1.00  0.00     0.031 C 
ATOM     66  C   UNL A   1      47.265  25.416  25.965  1.00  0.00     0.029 A 
ATOM     67  C   UNL A   1      47.201  26.793  26.449  1.00  0.00     0.049 A 
ATOM     68  H   UNL A   1      45.565  27.756  27.308  1.00  0.00     0.167 HD
ATOM     69  C   UNL A   1      42.121  29.560  29.349  1.00  0.00     0.037 A 
ATOM     70  C   UNL A   1      48.211  27.685  26.422  1.00  0.00     0.037 A 
ATOM     71  C   UNL A   1      43.151  30.566  29.393  1.00  0.00     0.049 A 
ATOM     72  C   UNL A   1      47.997  29.057  27.003  1.00  0.00     0.074 A 
ATOM     73  C   UNL A   1      43.099  31.833  29.946  1.00  0.00     0.029 A 
ATOM     74  N   UNL A   1      44.421  30.420  28.851  1.00  0.00    -0.354 N 
ATOM     75  N   UNL A   1      46.931  29.550  27.589  1.00  0.00    -0.248 NA
ATOM     76  C   UNL A   1      49.130  29.990  26.925  1.00  0.00     0.031 C 
ATOM     77  C   UNL A   1      44.322  32.471  29.699  1.00  0.00     0.029 A 
ATOM     78  C   UNL A   1      45.155  31.583  29.037  1.00  0.00     0.049 A 
ATOM     79  H   UNL A   1      44.753  29.610  28.402  1.00  0.00     0.167 HD
ATOM     80  C   UNL A   1      47.273  30.844  27.972  1.00  0.00     0.074 A 
ATOM     81  C   UNL A   1      48.649  31.047  27.563  1.00  0.00     0.031 C 
ATOM     82  C   UNL A   1      46.519  31.776  28.609  1.00  0.00     0.037 A 
BRANCH  69  83
ATOM     83  C   UNL A   1      40.773  29.870  29.945  1.00  0.00     0.058 A 
ATOM     84  C   UNL A   1      39.647  30.112  29.140  1.00  0.00     0.135 A 
ATOM     85  C   UNL A   1      40.610  29.952  31.337  1.00  0.00     0.135 A 
ATOM     86  F   UNL A   1      39.749  30.063  27.802  1.00  0.00    -0.206 F 
ATOM     87  C   UNL A   1      38.420  30.470  29.692  1.00  0.00     0.059 A 
ATOM     88  C   UNL A   1      39.384  30.281  31.911  1.00  0.00     0.059 A 
ATOM     89  F   UNL A   1      41.650  29.730  32.155  1.00  0.00    -0.206 F 
ATOM     90  C   UNL A   1      38.303  30.563  31.079  1.00  0.00     0.060 A 
BRANCH  90  91
ATOM     91  S   UNL A   1      36.720  31.076  31.781  1.00  0.00     0.124 S 
ATOM     92  O   UNL A   1      37.154  31.847  32.942  1.00  0.00    -0.237 OA
ATOM     93  O   UNL A   1      36.128  31.848  30.693  1.00  0.00    -0.237 OA
ATOM     94  O   UNL A   1      36.056  29.811  32.080  1.00  0.00    -0.744 OA
ENDBRANCH  90  91
ENDBRANCH  69  83
BRANCH  70  95
ATOM     95  C   UNL A   1      49.525  27.291  25.848  1.00  0.00     0.058 A 
ATOM     96  C   UNL A   1      50.549  26.793  26.666  1.00  0.00     0.135 A 
ATOM     97  C   UNL A   1      49.772  27.380  24.469  1.00  0.00     0.135 A 
ATOM     98  F   UNL A   1      50.364  26.701  27.992  1.00  0.00    -0.206 F 
ATOM     99  C   UNL A   1      51.773  26.396  26.138  1.00  0.00     0.059 A 
ATOM    100  C   UNL A   1      50.980  26.968  23.916  1.00  0.00     0.059 A 
ATOM    101  F   UNL A   1      48.820  27.843  23.644  1.00  0.00    -0.206 F 
ATOM    102  C   UNL A   1      51.977  26.480  24.760  1.00  0.00     0.060 A 
BRANCH 102 103
ATOM    103  S   UNL A   1      53.541  25.890  24.078  1.00  0.00     0.124 S 
ATOM    104  O   UNL A   1      54.491  26.826  24.666  1.00  0.00    -0.237 OA
ATOM    105  O   UNL A   1      53.597  24.522  24.582  1.00  0.00    -0.237 OA
ATOM    106  O   UNL A   1      53.345  26.010  22.637  1.00  0.00    -0.744 OA
ENDBRANCH 102 103
ENDBRANCH  70  95
BRANCH  82 107
ATOM    107  C   UNL A   1      47.180  33.092  28.918  1.00  0.00     0.058 A 
ATOM    108  C   UNL A   1      47.120  34.177  28.029  1.00  0.00     0.135 A 
ATOM    109  C   UNL A   1      47.881  33.271  30.123  1.00  0.00     0.135 A 
ATOM    110  F   UNL A   1      46.465  34.059  26.863  1.00  0.00    -0.206 F 
ATOM    111  C   UNL A   1      47.772  35.376  28.300  1.00  0.00     0.059 A 
ATOM    112  C   UNL A   1      48.515  34.471  30.427  1.00  0.00     0.059 A 
ATOM    113  F   UNL A   1      47.957  32.273  31.016  1.00  0.00    -0.206 F 
ATOM    114  C   UNL A   1      48.474  35.511  29.499  1.00  0.00     0.060 A 
BRANCH 114 115
ATOM    115  S   UNL A   1      49.328  37.066  29.835  1.00  0.00     0.124 S 
ATOM    116  O   UNL A   1      50.423  36.620  30.689  1.00  0.00    -0.237 OA
ATOM    117  O   UNL A   1      49.708  37.512  28.498  1.00  0.00    -0.237 OA
ATOM    118  O   UNL A   1      48.307  37.877  30.492  1.00  0.00    -0.744 OA
ENDBRANCH 114 115
ENDBRANCH  82 107
ENDBRANCH  56  57
ENDBRANCH  49  51
ENDBRANCH  48  49
ENDBRANCH  47  48
ENDBRANCH  46  47
ENDBRANCH  45  46
ENDBRANCH  44  45
ENDBRANCH   1  44
TORSDOF 29
ENDMDL
MODEL 3
REMARK VINA RESULT:     -10.0      4.099      8.694
REMARK SMILES O=C(N[C@@H](Cc1c[nH]c2ccccc12)C(=O)N[C@@H](CS)C(=O)N[C@@H](CO)C(=O)OCCOCCOC(=O)c1ccc(-c2c3nc(c(-c4c(F)cc(S(=O)(=O)[O-])cc4F)c4ccc([nH]4)c(-c4c(F)cc(S(=O)(=O)[O-])cc4F)c4nc(c(-c5c(F)cc(S(=O)(=O)[O-])cc5F)c5ccc2[nH]5)C=C4)C=C3)cc1)c1ccc(F)cc1
REMARK SMILES IDX 30 1 29 2 27 3 28 4 24 5 23 6 21 7 22 8 18 10 17 11 15 12
REMARK SMILES IDX 16 13 4 15 3 16 1 17 2 18 104 20 105 21 110 22 106 23 109 24
REMARK SMILES IDX 107 25 108 26 5 27 6 28 7 29 14 30 8 31 9 32 13 33 10 35
REMARK SMILES IDX 12 36 11 37 19 38 20 39 25 41 26 42 31 44 32 45 33 46 34 47
REMARK SMILES IDX 35 48 36 49 37 50 38 51 39 52 103 53 40 54 102 55 41 56
REMARK SMILES IDX 42 57 43 58 96 59 44 60 101 61 95 62 97 63 45 64 100 65
REMARK SMILES IDX 94 66 93 67 46 69 80 70 59 71 79 72 60 73 63 74 78 75 98 76
REMARK SMILES IDX 61 77 62 78 77 80 99 81 64 82 47 83 48 84 57 85 49 86 50 87
REMARK SMILES IDX 56 88 58 89 51 90 52 91 53 92 54 93 55 94 81 95 82 96 91 97
REMARK SMILES IDX 83 98 84 99 90 100 92 101 85 102 86 103 87 104 88 105 89 106
REMARK SMILES IDX 65 107 66 108 75 109 67 110 68 111 74 112 76 113 69 114
REMARK SMILES IDX 70 115 71 116 72 117 73 118
REMARK H PARENT 23 9 17 14 3 19 8 34 20 40 26 43 97 68 63 79
REMARK Flexibility Score: inf
ROOT
ATOM      1  C   UNL A   1      33.814  20.890  26.563  1.00  0.00     0.261 C 
ENDROOT
BRANCH   1   2
ATOM      2  O   UNL A   1      33.295  20.328  25.349  1.00  0.00    -0.462 OA
BRANCH   2   3
ATOM      3  C   UNL A   1      32.032  20.708  25.015  1.00  0.00     0.331 C 
ATOM      4  O   UNL A   1      31.166  21.046  25.812  1.00  0.00    -0.250 OA
BRANCH   3   5
ATOM      5  C   UNL A   1      31.805  20.626  23.503  1.00  0.00     0.218 C 
BRANCH   5   6
ATOM      6  N   UNL A   1      32.173  21.874  22.788  1.00  0.00    -0.339 N 
ATOM      7  C   UNL A   1      31.654  23.065  23.199  1.00  0.00     0.244 C 
ATOM      8  O   UNL A   1      30.496  23.315  22.856  1.00  0.00    -0.273 OA
ATOM      9  H   UNL A   1      32.791  21.841  22.022  1.00  0.00     0.164 HD
BRANCH   7  10
ATOM     10  C   UNL A   1      32.479  24.008  24.134  1.00  0.00     0.181 C 
BRANCH  10  11
ATOM     11  N   UNL A   1      31.874  23.926  25.468  1.00  0.00    -0.342 N 
ATOM     12  C   UNL A   1      30.979  24.756  26.077  1.00  0.00     0.243 C 
ATOM     13  O   UNL A   1      30.198  24.219  26.874  1.00  0.00    -0.273 OA
ATOM     14  H   UNL A   1      32.158  23.152  26.008  1.00  0.00     0.164 HD
BRANCH  12  15
ATOM     15  C   UNL A   1      30.923  26.294  25.875  1.00  0.00     0.176 C 
BRANCH  15  16
ATOM     16  N   UNL A   1      29.883  26.684  24.920  1.00  0.00    -0.340 N 
ATOM     17  O   UNL A   1      29.059  27.500  22.979  1.00  0.00    -0.269 OA
ATOM     18  C   UNL A   1      30.042  27.233  23.666  1.00  0.00     0.251 C 
ATOM     19  H   UNL A   1      28.954  26.536  25.211  1.00  0.00     0.164 HD
BRANCH  18  20
ATOM     20  C   UNL A   1      31.391  27.595  23.161  1.00  0.00     0.040 A 
ATOM     21  C   UNL A   1      32.118  26.759  22.304  1.00  0.00     0.017 A 
ATOM     22  C   UNL A   1      31.937  28.819  23.574  1.00  0.00     0.017 A 
ATOM     23  C   UNL A   1      33.417  27.112  21.925  1.00  0.00     0.040 A 
ATOM     24  C   UNL A   1      33.230  29.174  23.182  1.00  0.00     0.040 A 
ATOM     25  C   UNL A   1      33.963  28.312  22.373  1.00  0.00     0.123 A 
ATOM     26  F   UNL A   1      35.213  28.640  22.020  1.00  0.00    -0.207 F 
ENDBRANCH  18  20
ENDBRANCH  15  16
BRANCH  15  27
ATOM     27  C   UNL A   1      31.092  27.234  27.081  1.00  0.00     0.072 C 
BRANCH  27  28
ATOM     28  C   UNL A   1      32.268  28.152  27.105  1.00  0.00    -0.020 A 
ATOM     29  C   UNL A   1      33.583  27.743  27.043  1.00  0.00     0.087 A 
ATOM     30  C   UNL A   1      32.295  29.586  27.057  1.00  0.00     0.003 A 
ATOM     31  N   UNL A   1      34.391  28.837  27.182  1.00  0.00    -0.361 N 
ATOM     32  C   UNL A   1      33.631  29.981  27.174  1.00  0.00     0.046 A 
ATOM     33  C   UNL A   1      31.318  30.591  26.904  1.00  0.00     0.010 A 
ATOM     34  H   UNL A   1      35.371  28.809  27.274  1.00  0.00     0.166 HD
ATOM     35  C   UNL A   1      34.032  31.320  27.223  1.00  0.00     0.026 A 
ATOM     36  C   UNL A   1      31.710  31.938  26.880  1.00  0.00     0.001 A 
ATOM     37  C   UNL A   1      33.045  32.295  27.059  1.00  0.00     0.002 A 
ENDBRANCH  27  28
ENDBRANCH  15  27
ENDBRANCH  12  15
ENDBRANCH  10  11
BRANCH  10  38
ATOM     38  C   UNL A   1      34.007  23.896  24.115  1.00  0.00     0.101 C 
BRANCH  38  39
ATOM     39  S   UNL A   1      34.940  25.009  25.208  1.00  0.00    -0.177 SA
ATOM     40  H   UNL A   1      36.272  24.850  24.987  1.00  0.00     0.102 HD
ENDBRANCH  38  39
ENDBRANCH  10  38
ENDBRANCH   7  10
ENDBRANCH   5   6
BRANCH   5  41
ATOM     41  C   UNL A   1      32.582  19.411  22.974  1.00  0.00     0.193 C 
BRANCH  41  42
ATOM     42  O   UNL A   1      32.171  18.219  23.644  1.00  0.00    -0.394 OA
ATOM     43  H   UNL A   1      31.504  17.760  23.108  1.00  0.00     0.210 HD
ENDBRANCH  41  42
ENDBRANCH   5  41
ENDBRANCH   3   5
ENDBRANCH   2   3
ENDBRANCH   1   2
BRANCH   1  44
ATOM     44  C   UNL A   1      35.213  21.457  26.309  1.00  0.00     0.202 C 
BRANCH  44  45
ATOM     45  O   UNL A   1      35.963  20.843  25.256  1.00  0.00    -0.374 OA
BRANCH  45  46
ATOM     46  C   UNL A   1      37.361  21.109  25.202  1.00  0.00     0.202 C 
BRANCH  46  47
ATOM     47  C   UNL A   1      37.794  22.535  24.824  1.00  0.00     0.261 C 
BRANCH  47  48
ATOM     48  O   UNL A   1      37.905  23.418  25.952  1.00  0.00    -0.460 OA
BRANCH  48  49
ATOM     49  C   UNL A   1      39.138  23.438  26.517  1.00  0.00     0.338 C 
ATOM     50  O   UNL A   1      40.026  22.604  26.382  1.00  0.00    -0.246 OA
BRANCH  49  51
ATOM     51  C   UNL A   1      39.362  24.713  27.215  1.00  0.00     0.060 A 
ATOM     52  C   UNL A   1      40.089  25.698  26.534  1.00  0.00     0.016 A 
ATOM     53  C   UNL A   1      38.957  24.912  28.536  1.00  0.00     0.016 A 
ATOM     54  C   UNL A   1      40.445  26.874  27.186  1.00  0.00     0.010 A 
ATOM     55  C   UNL A   1      39.326  26.093  29.193  1.00  0.00     0.010 A 
ATOM     56  C   UNL A   1      40.100  27.063  28.531  1.00  0.00    -0.014 A 
BRANCH  56  57
ATOM     57  C   UNL A   1      40.681  28.217  29.259  1.00  0.00     0.031 A 
ATOM     58  C   UNL A   1      39.815  29.411  29.551  1.00  0.00     0.074 A 
ATOM     59  C   UNL A   1      41.940  28.161  29.729  1.00  0.00     0.049 A 
ATOM     60  N   UNL A   1      40.086  30.483  30.249  1.00  0.00    -0.248 NA
ATOM     61  C   UNL A   1      38.457  29.391  28.983  1.00  0.00     0.031 C 
ATOM     62  C   UNL A   1      42.860  27.040  29.541  1.00  0.00     0.029 A 
ATOM     63  N   UNL A   1      42.652  29.062  30.478  1.00  0.00    -0.354 N 
ATOM     64  C   UNL A   1      38.934  31.260  30.216  1.00  0.00     0.074 A 
ATOM     65  C   UNL A   1      37.977  30.556  29.388  1.00  0.00     0.031 C 
ATOM     66  C   UNL A   1      44.012  27.312  30.177  1.00  0.00     0.029 A 
ATOM     67  C   UNL A   1      43.918  28.632  30.797  1.00  0.00     0.049 A 
ATOM     68  H   UNL A   1      42.291  29.933  30.761  1.00  0.00     0.167 HD
ATOM     69  C   UNL A   1      38.688  32.443  30.830  1.00  0.00     0.037 A 
ATOM     70  C   UNL A   1      44.887  29.236  31.512  1.00  0.00     0.037 A 
ATOM     71  C   UNL A   1      39.652  33.149  31.637  1.00  0.00     0.049 A 
ATOM     72  C   UNL A   1      44.617  30.584  32.127  1.00  0.00     0.074 A 
ATOM     73  C   UNL A   1      39.507  34.355  32.298  1.00  0.00     0.029 A 
ATOM     74  N   UNL A   1      40.947  32.713  31.881  1.00  0.00    -0.354 N 
ATOM     75  N   UNL A   1      43.518  31.300  32.099  1.00  0.00    -0.248 NA
ATOM     76  C   UNL A   1      45.720  31.199  32.877  1.00  0.00     0.031 C 
ATOM     77  C   UNL A   1      40.729  34.671  32.906  1.00  0.00     0.029 A 
ATOM     78  C   UNL A   1      41.621  33.637  32.666  1.00  0.00     0.049 A 
ATOM     79  H   UNL A   1      41.331  31.870  31.548  1.00  0.00     0.167 HD
ATOM     80  C   UNL A   1      43.789  32.440  32.849  1.00  0.00     0.074 A 
ATOM     81  C   UNL A   1      45.150  32.308  33.328  1.00  0.00     0.031 C 
ATOM     82  C   UNL A   1      42.982  33.498  33.121  1.00  0.00     0.037 A 
BRANCH  69  83
ATOM     83  C   UNL A   1      37.329  33.054  30.617  1.00  0.00     0.058 A 
ATOM     84  C   UNL A   1      36.995  33.714  29.423  1.00  0.00     0.135 A 
ATOM     85  C   UNL A   1      36.356  33.002  31.628  1.00  0.00     0.135 A 
ATOM     86  F   UNL A   1      37.892  33.809  28.428  1.00  0.00    -0.206 F 
ATOM     87  C   UNL A   1      35.763  34.342  29.258  1.00  0.00     0.059 A 
ATOM     88  C   UNL A   1      35.107  33.598  31.473  1.00  0.00     0.059 A 
ATOM     89  F   UNL A   1      36.620  32.383  32.790  1.00  0.00    -0.206 F 
ATOM     90  C   UNL A   1      34.830  34.287  30.294  1.00  0.00     0.060 A 
BRANCH  90  91
ATOM     91  S   UNL A   1      33.255  35.146  30.086  1.00  0.00     0.124 S 
ATOM     92  O   UNL A   1      32.663  34.988  31.412  1.00  0.00    -0.237 OA
ATOM     93  O   UNL A   1      33.678  36.499  29.738  1.00  0.00    -0.237 OA
ATOM     94  O   UNL A   1      32.602  34.401  29.014  1.00  0.00    -0.744 OA
ENDBRANCH  90  91
ENDBRANCH  69  83
BRANCH  70  95
ATOM     95  C   UNL A   1      46.193  28.552  31.708  1.00  0.00     0.058 A 
ATOM     96  C   UNL A   1      46.402  27.695  32.799  1.00  0.00     0.135 A 
ATOM     97  C   UNL A   1      47.246  28.720  30.795  1.00  0.00     0.135 A 
ATOM     98  F   UNL A   1      45.429  27.513  33.704  1.00  0.00    -0.206 F 
ATOM     99  C   UNL A   1      47.609  27.028  32.979  1.00  0.00     0.059 A 
ATOM    100  C   UNL A   1      48.454  28.045  30.942  1.00  0.00     0.059 A 
ATOM    101  F   UNL A   1      47.091  29.522  29.731  1.00  0.00    -0.206 F 
ATOM    102  C   UNL A   1      48.627  27.204  32.040  1.00  0.00     0.060 A 
BRANCH 102 103
ATOM    103  S   UNL A   1      50.161  26.273  32.242  1.00  0.00     0.124 S 
ATOM    104  O   UNL A   1      50.267  26.192  33.694  1.00  0.00    -0.237 OA
ATOM    105  O   UNL A   1      49.853  25.024  31.553  1.00  0.00    -0.237 OA
ATOM    106  O   UNL A   1      51.153  27.115  31.582  1.00  0.00    -0.744 OA
ENDBRANCH 102 103
ENDBRANCH  70  95
BRANCH  82 107
ATOM    107  C   UNL A   1      43.553  34.583  33.995  1.00  0.00     0.058 A 
ATOM    108  C   UNL A   1      43.443  34.541  35.394  1.00  0.00     0.135 A 
ATOM    109  C   UNL A   1      44.220  35.680  33.424  1.00  0.00     0.135 A 
ATOM    110  F   UNL A   1      42.814  33.517  35.991  1.00  0.00    -0.206 F 
ATOM    111  C   UNL A   1      43.933  35.570  36.193  1.00  0.00     0.059 A 
ATOM    112  C   UNL A   1      44.742  36.705  34.205  1.00  0.00     0.059 A 
ATOM    113  F   UNL A   1      44.366  35.764  32.093  1.00  0.00    -0.206 F 
ATOM    114  C   UNL A   1      44.574  36.652  35.588  1.00  0.00     0.060 A 
BRANCH 114 115
ATOM    115  S   UNL A   1      45.192  37.989  36.633  1.00  0.00     0.124 S 
ATOM    116  O   UNL A   1      46.631  37.891  36.412  1.00  0.00    -0.237 OA
ATOM    117  O   UNL A   1      44.541  39.164  36.060  1.00  0.00    -0.237 OA
ATOM    118  O   UNL A   1      44.733  37.615  37.968  1.00  0.00    -0.744 OA
ENDBRANCH 114 115
ENDBRANCH  82 107
ENDBRANCH  56  57
ENDBRANCH  49  51
ENDBRANCH  48  49
ENDBRANCH  47  48
ENDBRANCH  46  47
ENDBRANCH  45  46
ENDBRANCH  44  45
ENDBRANCH   1  44
TORSDOF 29
ENDMDL
