MODEL 1
REMARK VINA RESULT:      -9.8      0.000      0.000
REMARK SMILES COCCCC(=O)N[C@H]1CC[C@@H](C(=O)OCCOCCOC(=O)c2ccc(-c3c4nc(c(-c5c(F)cc(S(=O)(=O)[O-])cc5F)c5ccc([nH]5)c(-c5c(F)cc(S(=O)(=O)[O-])cc5F)c5nc(c(-c6c(F)cc(S(=O)(=O)[O-])cc6F)c6ccc3[nH]6)C=C5)C=C4)cc2)CC1
REMARK SMILES IDX 17 1 16 2 15 3 13 4 14 5 12 6 9 7 10 8 91 9 11 10 90 11 8 12
REMARK SMILES IDX 6 13 7 14 5 16 4 17 3 18 2 19 1 20 18 21 19 22 20 23 21 24
REMARK SMILES IDX 22 25 23 26 24 27 25 28 89 29 26 30 88 31 27 32 28 33 29 34
REMARK SMILES IDX 82 35 30 36 87 37 81 38 83 39 31 40 86 41 80 42 79 43 32 45
REMARK SMILES IDX 66 46 45 47 65 48 46 49 49 50 64 51 84 52 47 53 48 54 63 56
REMARK SMILES IDX 85 57 50 58 33 59 34 60 43 61 35 62 36 63 42 64 44 65 37 66
REMARK SMILES IDX 38 67 39 68 40 69 41 70 67 71 68 72 77 73 69 74 70 75 76 76
REMARK SMILES IDX 78 77 71 78 72 79 73 80 74 81 75 82 51 83 52 84 61 85 53 86
REMARK SMILES IDX 54 87 60 88 62 89 55 90 56 91 57 92 58 93 59 94
REMARK H PARENT 8 15 83 44 49 55
REMARK Flexibility Score: inf
ROOT
ATOM      1  C   UNL A   1      34.905  30.843  27.774  1.00  0.00     0.202 C 
ENDROOT
BRANCH   1   2
ATOM      2  C   UNL A   1      33.490  30.714  27.203  1.00  0.00     0.261 C 
BRANCH   2   3
ATOM      3  O   UNL A   1      33.519  29.960  25.976  1.00  0.00    -0.463 OA
BRANCH   3   4
ATOM      4  C   UNL A   1      32.349  29.751  25.328  1.00  0.00     0.309 C 
ATOM      5  O   UNL A   1      31.357  30.462  25.410  1.00  0.00    -0.252 OA
BRANCH   4   6
ATOM      6  C   UNL A   1      32.405  28.507  24.447  1.00  0.00     0.099 C 
ATOM      7  C   UNL A   1      31.781  25.864  25.745  1.00  0.00     0.082 C 
ATOM      8  C   UNL A   1      30.654  26.846  25.372  1.00  0.00     0.026 C 
ATOM      9  C   UNL A   1      33.027  26.667  26.077  1.00  0.00     0.026 C 
ATOM     10  C   UNL A   1      31.047  27.825  24.259  1.00  0.00     0.017 C 
ATOM     11  C   UNL A   1      33.474  27.516  24.894  1.00  0.00     0.017 C 
BRANCH   7  12
ATOM     12  N   UNL A   1      31.316  24.946  26.787  1.00  0.00    -0.353 N 
ATOM     13  C   UNL A   1      31.334  23.591  26.896  1.00  0.00     0.220 C 
ATOM     14  O   UNL A   1      30.423  23.062  27.540  1.00  0.00    -0.275 OA
ATOM     15  H   UNL A   1      30.911  25.399  27.562  1.00  0.00     0.163 HD
BRANCH  13  16
ATOM     16  C   UNL A   1      32.456  22.738  26.342  1.00  0.00     0.102 C 
BRANCH  16  17
ATOM     17  C   UNL A   1      32.244  22.245  24.911  1.00  0.00     0.038 C 
BRANCH  17  18
ATOM     18  C   UNL A   1      32.162  20.734  24.670  1.00  0.00     0.160 C 
BRANCH  18  19
ATOM     19  O   UNL A   1      33.263  20.036  24.087  1.00  0.00    -0.385 OA
ATOM     20  C   UNL A   1      34.452  19.891  24.843  1.00  0.00     0.194 C 
ENDBRANCH  18  19
ENDBRANCH  17  18
ENDBRANCH  16  17
ENDBRANCH  13  16
ENDBRANCH   7  12
ENDBRANCH   4   6
ENDBRANCH   3   4
ENDBRANCH   2   3
ENDBRANCH   1   2
BRANCH   1  21
ATOM     21  O   UNL A   1      35.316  32.205  27.919  1.00  0.00    -0.374 OA
BRANCH  21  22
ATOM     22  C   UNL A   1      34.879  32.841  29.121  1.00  0.00     0.202 C 
BRANCH  22  23
ATOM     23  C   UNL A   1      35.025  31.964  30.368  1.00  0.00     0.261 C 
BRANCH  23  24
ATOM     24  O   UNL A   1      36.410  31.878  30.758  1.00  0.00    -0.460 OA
BRANCH  24  25
ATOM     25  C   UNL A   1      36.866  30.622  30.972  1.00  0.00     0.338 C 
ATOM     26  O   UNL A   1      36.205  29.656  31.331  1.00  0.00    -0.246 OA
BRANCH  25  27
ATOM     27  C   UNL A   1      38.278  30.506  30.549  1.00  0.00     0.060 A 
ATOM     28  C   UNL A   1      38.540  30.614  29.179  1.00  0.00     0.016 A 
ATOM     29  C   UNL A   1      39.320  30.245  31.446  1.00  0.00     0.016 A 
ATOM     30  C   UNL A   1      39.825  30.386  28.691  1.00  0.00     0.010 A 
ATOM     31  C   UNL A   1      40.614  30.025  30.954  1.00  0.00     0.010 A 
ATOM     32  C   UNL A   1      40.862  30.043  29.569  1.00  0.00    -0.014 A 
BRANCH  32  33
ATOM     33  C   UNL A   1      42.136  29.525  29.004  1.00  0.00     0.031 A 
ATOM     34  C   UNL A   1      43.327  30.445  28.931  1.00  0.00     0.074 A 
ATOM     35  C   UNL A   1      42.265  28.234  28.644  1.00  0.00     0.049 A 
ATOM     36  N   UNL A   1      44.547  30.196  28.526  1.00  0.00    -0.248 NA
ATOM     37  C   UNL A   1      43.117  31.831  29.378  1.00  0.00     0.031 C 
ATOM     38  C   UNL A   1      41.203  27.230  28.699  1.00  0.00     0.029 A 
ATOM     39  N   UNL A   1      43.354  27.545  28.169  1.00  0.00    -0.354 N 
ATOM     40  C   UNL A   1      45.245  31.390  28.665  1.00  0.00     0.074 A 
ATOM     41  C   UNL A   1      44.305  32.374  29.155  1.00  0.00     0.031 C 
ATOM     42  C   UNL A   1      41.695  26.051  28.279  1.00  0.00     0.029 A 
ATOM     43  C   UNL A   1      43.099  26.221  27.903  1.00  0.00     0.049 A 
ATOM     44  H   UNL A   1      44.235  27.961  28.032  1.00  0.00     0.167 HD
ATOM     45  C   UNL A   1      46.553  31.643  28.425  1.00  0.00     0.037 A 
ATOM     46  C   UNL A   1      43.901  25.259  27.405  1.00  0.00     0.037 A 
ATOM     47  C   UNL A   1      47.495  30.666  27.947  1.00  0.00     0.049 A 
ATOM     48  C   UNL A   1      45.342  25.577  27.095  1.00  0.00     0.074 A 
ATOM     49  C   UNL A   1      48.843  30.828  27.681  1.00  0.00     0.029 A 
ATOM     50  N   UNL A   1      47.188  29.344  27.660  1.00  0.00    -0.354 N 
ATOM     51  N   UNL A   1      45.991  26.707  27.250  1.00  0.00    -0.248 NA
ATOM     52  C   UNL A   1      46.162  24.485  26.552  1.00  0.00     0.031 C 
ATOM     53  C   UNL A   1      49.343  29.615  27.195  1.00  0.00     0.029 A 
ATOM     54  C   UNL A   1      48.318  28.683  27.206  1.00  0.00     0.049 A 
ATOM     55  H   UNL A   1      46.298  28.935  27.764  1.00  0.00     0.167 HD
ATOM     56  C   UNL A   1      47.302  26.450  26.857  1.00  0.00     0.074 A 
ATOM     57  C   UNL A   1      47.354  25.059  26.462  1.00  0.00     0.031 C 
ATOM     58  C   UNL A   1      48.366  27.291  26.831  1.00  0.00     0.037 A 
BRANCH  45  59
ATOM     59  C   UNL A   1      47.041  33.047  28.658  1.00  0.00     0.058 A 
ATOM     60  C   UNL A   1      47.557  33.453  29.899  1.00  0.00     0.135 A 
ATOM     61  C   UNL A   1      47.012  33.992  27.619  1.00  0.00     0.135 A 
ATOM     62  F   UNL A   1      47.589  32.596  30.932  1.00  0.00    -0.206 F 
ATOM     63  C   UNL A   1      47.999  34.756  30.110  1.00  0.00     0.059 A 
ATOM     64  C   UNL A   1      47.475  35.291  27.801  1.00  0.00     0.059 A 
ATOM     65  F   UNL A   1      46.527  33.656  26.414  1.00  0.00    -0.206 F 
ATOM     66  C   UNL A   1      47.952  35.668  29.055  1.00  0.00     0.060 A 
BRANCH  66  67
ATOM     67  S   UNL A   1      48.524  37.355  29.345  1.00  0.00     0.124 S 
ATOM     68  O   UNL A   1      49.972  37.172  29.363  1.00  0.00    -0.237 OA
ATOM     69  O   UNL A   1      47.990  38.071  28.190  1.00  0.00    -0.237 OA
ATOM     70  O   UNL A   1      47.920  37.702  30.628  1.00  0.00    -0.744 OA
ENDBRANCH  66  67
ENDBRANCH  45  59
BRANCH  46  71
ATOM     71  C   UNL A   1      43.363  23.891  27.169  1.00  0.00     0.058 A 
ATOM     72  C   UNL A   1      42.937  23.486  25.896  1.00  0.00     0.135 A 
ATOM     73  C   UNL A   1      43.256  22.966  28.218  1.00  0.00     0.135 A 
ATOM     74  F   UNL A   1      43.006  24.339  24.862  1.00  0.00    -0.206 F 
ATOM     75  C   UNL A   1      42.410  22.217  25.672  1.00  0.00     0.059 A 
ATOM     76  C   UNL A   1      42.759  21.683  28.015  1.00  0.00     0.059 A 
ATOM     77  F   UNL A   1      43.657  23.301  29.455  1.00  0.00    -0.206 F 
ATOM     78  C   UNL A   1      42.328  21.321  26.740  1.00  0.00     0.060 A 
BRANCH  78  79
ATOM     79  S   UNL A   1      41.690  19.660  26.430  1.00  0.00     0.124 S 
ATOM     80  O   UNL A   1      42.106  18.956  27.637  1.00  0.00    -0.237 OA
ATOM     81  O   UNL A   1      40.257  19.902  26.292  1.00  0.00    -0.237 OA
ATOM     82  O   UNL A   1      42.371  19.263  25.201  1.00  0.00    -0.744 OA
ENDBRANCH  78  79
ENDBRANCH  46  71
BRANCH  58  83
ATOM     83  C   UNL A   1      49.696  26.724  26.416  1.00  0.00     0.058 A 
ATOM     84  C   UNL A   1      50.151  26.790  25.090  1.00  0.00     0.135 A 
ATOM     85  C   UNL A   1      50.551  26.152  27.372  1.00  0.00     0.135 A 
ATOM     86  F   UNL A   1      49.373  27.325  24.134  1.00  0.00    -0.206 F 
ATOM     87  C   UNL A   1      51.394  26.281  24.721  1.00  0.00     0.059 A 
ATOM     88  C   UNL A   1      51.808  25.662  27.031  1.00  0.00     0.059 A 
ATOM     89  F   UNL A   1      50.172  26.075  28.658  1.00  0.00    -0.206 F 
ATOM     90  C   UNL A   1      52.215  25.719  25.700  1.00  0.00     0.060 A 
BRANCH  90  91
ATOM     91  S   UNL A   1      53.836  25.085  25.215  1.00  0.00     0.124 S 
ATOM     92  O   UNL A   1      54.583  25.208  26.462  1.00  0.00    -0.237 OA
ATOM     93  O   UNL A   1      53.527  23.723  24.793  1.00  0.00    -0.237 OA
ATOM     94  O   UNL A   1      54.247  25.988  24.144  1.00  0.00    -0.744 OA
ENDBRANCH  90  91
ENDBRANCH  58  83
ENDBRANCH  32  33
ENDBRANCH  25  27
ENDBRANCH  24  25
ENDBRANCH  23  24
ENDBRANCH  22  23
ENDBRANCH  21  22
ENDBRANCH   1  21
TORSDOF 22
ENDMDL
MODEL 2
REMARK VINA RESULT:      -9.7      1.911      3.537
REMARK SMILES COCCCC(=O)N[C@H]1CC[C@@H](C(=O)OCCOCCOC(=O)c2ccc(-c3c4nc(c(-c5c(F)cc(S(=O)(=O)[O-])cc5F)c5ccc([nH]5)c(-c5c(F)cc(S(=O)(=O)[O-])cc5F)c5nc(c(-c6c(F)cc(S(=O)(=O)[O-])cc6F)c6ccc3[nH]6)C=C5)C=C4)cc2)CC1
REMARK SMILES IDX 17 1 16 2 15 3 13 4 14 5 12 6 9 7 10 8 91 9 11 10 90 11 8 12
REMARK SMILES IDX 6 13 7 14 5 16 4 17 3 18 2 19 1 20 18 21 19 22 20 23 21 24
REMARK SMILES IDX 22 25 23 26 24 27 25 28 89 29 26 30 88 31 27 32 28 33 29 34
REMARK SMILES IDX 82 35 30 36 87 37 81 38 83 39 31 40 86 41 80 42 79 43 32 45
REMARK SMILES IDX 66 46 45 47 65 48 46 49 49 50 64 51 84 52 47 53 48 54 63 56
REMARK SMILES IDX 85 57 50 58 33 59 34 60 43 61 35 62 36 63 42 64 44 65 37 66
REMARK SMILES IDX 38 67 39 68 40 69 41 70 67 71 68 72 77 73 69 74 70 75 76 76
REMARK SMILES IDX 78 77 71 78 72 79 73 80 74 81 75 82 51 83 52 84 61 85 53 86
REMARK SMILES IDX 54 87 60 88 62 89 55 90 56 91 57 92 58 93 59 94
REMARK H PARENT 8 15 83 44 49 55
REMARK Flexibility Score: inf
ROOT
ATOM      1  C   UNL A   1      34.620  29.536  27.638  1.00  0.00     0.202 C 
ENDROOT
BRANCH   1   2
ATOM      2  C   UNL A   1      33.280  29.037  27.090  1.00  0.00     0.261 C 
BRANCH   2   3
ATOM      3  O   UNL A   1      33.502  28.026  26.088  1.00  0.00    -0.463 OA
BRANCH   3   4
ATOM      4  C   UNL A   1      33.161  28.310  24.809  1.00  0.00     0.309 C 
ATOM      5  O   UNL A   1      33.318  29.390  24.257  1.00  0.00    -0.252 OA
BRANCH   4   6
ATOM      6  C   UNL A   1      32.557  27.100  24.103  1.00  0.00     0.099 C 
ATOM      7  C   UNL A   1      29.696  27.316  23.192  1.00  0.00     0.082 C 
ATOM      8  C   UNL A   1      30.830  28.001  22.405  1.00  0.00     0.026 C 
ATOM      9  C   UNL A   1      30.089  27.273  24.659  1.00  0.00     0.026 C 
ATOM     10  C   UNL A   1      32.203  27.358  22.635  1.00  0.00     0.017 C 
ATOM     11  C   UNL A   1      31.384  26.497  24.866  1.00  0.00     0.017 C 
BRANCH   7  12
ATOM     12  N   UNL A   1      28.419  27.965  22.891  1.00  0.00    -0.353 N 
ATOM     13  C   UNL A   1      27.924  29.200  23.170  1.00  0.00     0.220 C 
ATOM     14  O   UNL A   1      26.703  29.300  23.322  1.00  0.00    -0.275 OA
ATOM     15  H   UNL A   1      27.794  27.394  22.386  1.00  0.00     0.163 HD
BRANCH  13  16
ATOM     16  C   UNL A   1      28.791  30.440  23.213  1.00  0.00     0.102 C 
BRANCH  16  17
ATOM     17  C   UNL A   1      28.959  31.157  21.873  1.00  0.00     0.038 C 
BRANCH  17  18
ATOM     18  C   UNL A   1      28.038  32.342  21.565  1.00  0.00     0.160 C 
BRANCH  18  19
ATOM     19  O   UNL A   1      28.191  33.575  22.270  1.00  0.00    -0.385 OA
ATOM     20  C   UNL A   1      29.203  33.673  23.256  1.00  0.00     0.194 C 
ENDBRANCH  18  19
ENDBRANCH  17  18
ENDBRANCH  16  17
ENDBRANCH  13  16
ENDBRANCH   7  12
ENDBRANCH   4   6
ENDBRANCH   3   4
ENDBRANCH   2   3
ENDBRANCH   1   2
BRANCH   1  21
ATOM     21  O   UNL A   1      34.889  30.894  27.277  1.00  0.00    -0.374 OA
BRANCH  21  22
ATOM     22  C   UNL A   1      34.162  31.871  28.022  1.00  0.00     0.202 C 
BRANCH  22  23
ATOM     23  C   UNL A   1      34.814  32.233  29.360  1.00  0.00     0.261 C 
BRANCH  23  24
ATOM     24  O   UNL A   1      36.250  32.173  29.247  1.00  0.00    -0.460 OA
BRANCH  24  25
ATOM     25  C   UNL A   1      36.879  31.574  30.286  1.00  0.00     0.338 C 
ATOM     26  O   UNL A   1      36.523  31.580  31.457  1.00  0.00    -0.246 OA
BRANCH  25  27
ATOM     27  C   UNL A   1      38.001  30.743  29.799  1.00  0.00     0.060 A 
ATOM     28  C   UNL A   1      38.996  30.416  30.726  1.00  0.00     0.016 A 
ATOM     29  C   UNL A   1      38.120  30.334  28.466  1.00  0.00     0.016 A 
ATOM     30  C   UNL A   1      40.147  29.749  30.313  1.00  0.00     0.010 A 
ATOM     31  C   UNL A   1      39.275  29.654  28.054  1.00  0.00     0.010 A 
ATOM     32  C   UNL A   1      40.317  29.405  28.965  1.00  0.00    -0.014 A 
BRANCH  32  33
ATOM     33  C   UNL A   1      41.660  28.964  28.502  1.00  0.00     0.031 A 
ATOM     34  C   UNL A   1      42.786  29.966  28.476  1.00  0.00     0.074 A 
ATOM     35  C   UNL A   1      41.903  27.676  28.196  1.00  0.00     0.049 A 
ATOM     36  N   UNL A   1      44.044  29.794  28.159  1.00  0.00    -0.248 NA
ATOM     37  C   UNL A   1      42.449  31.346  28.861  1.00  0.00     0.031 C 
ATOM     38  C   UNL A   1      40.913  26.600  28.216  1.00  0.00     0.029 A 
ATOM     39  N   UNL A   1      43.067  27.054  27.816  1.00  0.00    -0.354 N 
ATOM     40  C   UNL A   1      44.646  31.038  28.303  1.00  0.00     0.074 A 
ATOM     41  C   UNL A   1      43.608  31.965  28.698  1.00  0.00     0.031 C 
ATOM     42  C   UNL A   1      41.514  25.448  27.869  1.00  0.00     0.029 A 
ATOM     43  C   UNL A   1      42.924  25.707  27.579  1.00  0.00     0.049 A 
ATOM     44  H   UNL A   1      43.924  27.528  27.723  1.00  0.00     0.167 HD
ATOM     45  C   UNL A   1      45.947  31.378  28.140  1.00  0.00     0.037 A 
ATOM     46  C   UNL A   1      43.823  24.792  27.168  1.00  0.00     0.037 A 
ATOM     47  C   UNL A   1      46.984  30.458  27.759  1.00  0.00     0.049 A 
ATOM     48  C   UNL A   1      45.256  25.204  26.942  1.00  0.00     0.074 A 
ATOM     49  C   UNL A   1      48.333  30.709  27.576  1.00  0.00     0.029 A 
ATOM     50  N   UNL A   1      46.791  29.110  27.498  1.00  0.00    -0.354 N 
ATOM     51  N   UNL A   1      45.812  26.382  27.100  1.00  0.00    -0.248 NA
ATOM     52  C   UNL A   1      46.186  24.159  26.491  1.00  0.00     0.031 C 
ATOM     53  C   UNL A   1      48.948  29.522  27.164  1.00  0.00     0.029 A 
ATOM     54  C   UNL A   1      47.993  28.519  27.141  1.00  0.00     0.049 A 
ATOM     55  H   UNL A   1      45.927  28.640  27.557  1.00  0.00     0.167 HD
ATOM     56  C   UNL A   1      47.161  26.209  26.802  1.00  0.00     0.074 A 
ATOM     57  C   UNL A   1      47.338  24.814  26.459  1.00  0.00     0.031 C 
ATOM     58  C   UNL A   1      48.163  27.124  26.818  1.00  0.00     0.037 A 
BRANCH  45  59
ATOM     59  C   UNL A   1      46.318  32.820  28.357  1.00  0.00     0.058 A 
ATOM     60  C   UNL A   1      46.747  33.292  29.607  1.00  0.00     0.135 A 
ATOM     61  C   UNL A   1      46.263  33.735  27.293  1.00  0.00     0.135 A 
ATOM     62  F   UNL A   1      46.798  32.464  30.663  1.00  0.00    -0.206 F 
ATOM     63  C   UNL A   1      47.082  34.629  29.802  1.00  0.00     0.059 A 
ATOM     64  C   UNL A   1      46.620  35.070  27.460  1.00  0.00     0.059 A 
ATOM     65  F   UNL A   1      45.858  33.336  26.078  1.00  0.00    -0.206 F 
ATOM     66  C   UNL A   1      47.013  35.511  28.723  1.00  0.00     0.060 A 
BRANCH  66  67
ATOM     67  S   UNL A   1      47.444  37.242  28.993  1.00  0.00     0.124 S 
ATOM     68  O   UNL A   1      48.901  37.172  29.056  1.00  0.00    -0.237 OA
ATOM     69  O   UNL A   1      46.891  37.892  27.808  1.00  0.00    -0.237 OA
ATOM     70  O   UNL A   1      46.777  37.567  30.250  1.00  0.00    -0.744 OA
ENDBRANCH  66  67
ENDBRANCH  45  59
BRANCH  46  71
ATOM     71  C   UNL A   1      43.400  23.383  26.944  1.00  0.00     0.058 A 
ATOM     72  C   UNL A   1      43.108  22.906  25.658  1.00  0.00     0.135 A 
ATOM     73  C   UNL A   1      43.270  22.488  28.017  1.00  0.00     0.135 A 
ATOM     74  F   UNL A   1      43.203  23.726  24.600  1.00  0.00    -0.206 F 
ATOM     75  C   UNL A   1      42.688  21.596  25.444  1.00  0.00     0.059 A 
ATOM     76  C   UNL A   1      42.879  21.167  27.826  1.00  0.00     0.059 A 
ATOM     77  F   UNL A   1      43.546  22.892  29.268  1.00  0.00    -0.206 F 
ATOM     78  C   UNL A   1      42.579  20.733  26.536  1.00  0.00     0.060 A 
BRANCH  78  79
ATOM     79  S   UNL A   1      42.082  19.021  26.242  1.00  0.00     0.124 S 
ATOM     80  O   UNL A   1      42.269  18.430  27.562  1.00  0.00    -0.237 OA
ATOM     81  O   UNL A   1      40.699  19.175  25.800  1.00  0.00    -0.237 OA
ATOM     82  O   UNL A   1      43.014  18.574  25.211  1.00  0.00    -0.744 OA
ENDBRANCH  78  79
ENDBRANCH  46  71
BRANCH  58  83
ATOM     83  C   UNL A   1      49.555  26.643  26.509  1.00  0.00     0.058 A 
ATOM     84  C   UNL A   1      50.391  26.101  27.497  1.00  0.00     0.135 A 
ATOM     85  C   UNL A   1      50.039  26.678  25.191  1.00  0.00     0.135 A 
ATOM     86  F   UNL A   1      49.979  26.045  28.774  1.00  0.00    -0.206 F 
ATOM     87  C   UNL A   1      51.669  25.638  27.195  1.00  0.00     0.059 A 
ATOM     88  C   UNL A   1      51.303  26.196  24.862  1.00  0.00     0.059 A 
ATOM     89  F   UNL A   1      49.276  27.173  24.204  1.00  0.00    -0.206 F 
ATOM     90  C   UNL A   1      52.116  25.690  25.874  1.00  0.00     0.060 A 
BRANCH  90  91
ATOM     91  S   UNL A   1      53.766  25.064  25.489  1.00  0.00     0.124 S 
ATOM     92  O   UNL A   1      54.513  25.456  26.679  1.00  0.00    -0.237 OA
ATOM     93  O   UNL A   1      53.529  23.632  25.333  1.00  0.00    -0.237 OA
ATOM     94  O   UNL A   1      54.120  25.771  24.262  1.00  0.00    -0.744 OA
ENDBRANCH  90  91
ENDBRANCH  58  83
ENDBRANCH  32  33
ENDBRANCH  25  27
ENDBRANCH  24  25
ENDBRANCH  23  24
ENDBRANCH  22  23
ENDBRANCH  21  22
ENDBRANCH   1  21
TORSDOF 22
ENDMDL
MODEL 3
REMARK VINA RESULT:      -9.7      0.942      1.820
REMARK SMILES COCCCC(=O)N[C@H]1CC[C@@H](C(=O)OCCOCCOC(=O)c2ccc(-c3c4nc(c(-c5c(F)cc(S(=O)(=O)[O-])cc5F)c5ccc([nH]5)c(-c5c(F)cc(S(=O)(=O)[O-])cc5F)c5nc(c(-c6c(F)cc(S(=O)(=O)[O-])cc6F)c6ccc3[nH]6)C=C5)C=C4)cc2)CC1
REMARK SMILES IDX 17 1 16 2 15 3 13 4 14 5 12 6 9 7 10 8 91 9 11 10 90 11 8 12
REMARK SMILES IDX 6 13 7 14 5 16 4 17 3 18 2 19 1 20 18 21 19 22 20 23 21 24
REMARK SMILES IDX 22 25 23 26 24 27 25 28 89 29 26 30 88 31 27 32 28 33 29 34
REMARK SMILES IDX 82 35 30 36 87 37 81 38 83 39 31 40 86 41 80 42 79 43 32 45
REMARK SMILES IDX 66 46 45 47 65 48 46 49 49 50 64 51 84 52 47 53 48 54 63 56
REMARK SMILES IDX 85 57 50 58 33 59 34 60 43 61 35 62 36 63 42 64 44 65 37 66
REMARK SMILES IDX 38 67 39 68 40 69 41 70 67 71 68 72 77 73 69 74 70 75 76 76
REMARK SMILES IDX 78 77 71 78 72 79 73 80 74 81 75 82 51 83 52 84 61 85 53 86
REMARK SMILES IDX 54 87 60 88 62 89 55 90 56 91 57 92 58 93 59 94
REMARK H PARENT 8 15 83 44 49 55
REMARK Flexibility Score: inf
ROOT
ATOM      1  C   UNL A   1      33.304  30.140  26.858  1.00  0.00     0.202 C 
ENDROOT
BRANCH   1   2
ATOM      2  C   UNL A   1      31.971  30.048  26.109  1.00  0.00     0.261 C 
BRANCH   2   3
ATOM      3  O   UNL A   1      32.167  29.412  24.831  1.00  0.00    -0.463 OA
BRANCH   3   4
ATOM      4  C   UNL A   1      31.078  29.188  24.058  1.00  0.00     0.309 C 
ATOM      5  O   UNL A   1      30.170  29.985  23.865  1.00  0.00    -0.252 OA
BRANCH   4   6
ATOM      6  C   UNL A   1      31.113  27.802  23.422  1.00  0.00     0.099 C 
ATOM      7  C   UNL A   1      30.522  25.448  25.203  1.00  0.00     0.082 C 
ATOM      8  C   UNL A   1      29.386  26.349  24.682  1.00  0.00     0.026 C 
ATOM      9  C   UNL A   1      31.776  26.293  25.349  1.00  0.00     0.026 C 
ATOM     10  C   UNL A   1      29.750  27.103  23.397  1.00  0.00     0.017 C 
ATOM     11  C   UNL A   1      32.192  26.906  24.018  1.00  0.00     0.017 C 
BRANCH   7  12
ATOM     12  N   UNL A   1      30.084  24.741  26.408  1.00  0.00    -0.353 N 
ATOM     13  C   UNL A   1      30.322  23.488  26.879  1.00  0.00     0.220 C 
ATOM     14  O   UNL A   1      29.436  22.961  27.558  1.00  0.00    -0.275 OA
ATOM     15  H   UNL A   1      29.502  25.279  26.993  1.00  0.00     0.163 HD
BRANCH  13  16
ATOM     16  C   UNL A   1      31.640  22.772  26.676  1.00  0.00     0.102 C 
BRANCH  16  17
ATOM     17  C   UNL A   1      31.738  21.954  25.389  1.00  0.00     0.038 C 
BRANCH  17  18
ATOM     18  C   UNL A   1      32.850  20.905  25.280  1.00  0.00     0.160 C 
BRANCH  18  19
ATOM     19  O   UNL A   1      34.181  21.298  24.946  1.00  0.00    -0.385 OA
ATOM     20  C   UNL A   1      35.129  21.443  25.988  1.00  0.00     0.194 C 
ENDBRANCH  18  19
ENDBRANCH  17  18
ENDBRANCH  16  17
ENDBRANCH  13  16
ENDBRANCH   7  12
ENDBRANCH   4   6
ENDBRANCH   3   4
ENDBRANCH   2   3
ENDBRANCH   1   2
BRANCH   1  21
ATOM     21  O   UNL A   1      33.415  31.337  27.634  1.00  0.00    -0.374 OA
BRANCH  21  22
ATOM     22  C   UNL A   1      34.753  31.751  27.915  1.00  0.00     0.202 C 
BRANCH  22  23
ATOM     23  C   UNL A   1      34.977  32.154  29.375  1.00  0.00     0.261 C 
BRANCH  23  24
ATOM     24  O   UNL A   1      36.385  32.316  29.637  1.00  0.00    -0.460 OA
BRANCH  24  25
ATOM     25  C   UNL A   1      36.885  31.501  30.596  1.00  0.00     0.338 C 
ATOM     26  O   UNL A   1      36.433  31.336  31.723  1.00  0.00    -0.246 OA
BRANCH  25  27
ATOM     27  C   UNL A   1      37.985  30.678  30.052  1.00  0.00     0.060 A 
ATOM     28  C   UNL A   1      38.988  30.290  30.947  1.00  0.00     0.016 A 
ATOM     29  C   UNL A   1      38.078  30.334  28.699  1.00  0.00     0.016 A 
ATOM     30  C   UNL A   1      40.122  29.626  30.484  1.00  0.00     0.010 A 
ATOM     31  C   UNL A   1      39.216  29.657  28.236  1.00  0.00     0.010 A 
ATOM     32  C   UNL A   1      40.267  29.347  29.118  1.00  0.00    -0.014 A 
BRANCH  32  33
ATOM     33  C   UNL A   1      41.595  28.908  28.614  1.00  0.00     0.031 A 
ATOM     34  C   UNL A   1      42.720  29.910  28.559  1.00  0.00     0.074 A 
ATOM     35  C   UNL A   1      41.829  27.621  28.294  1.00  0.00     0.049 A 
ATOM     36  N   UNL A   1      43.969  29.740  28.204  1.00  0.00    -0.248 NA
ATOM     37  C   UNL A   1      42.395  31.288  28.960  1.00  0.00     0.031 C 
ATOM     38  C   UNL A   1      40.841  26.545  28.339  1.00  0.00     0.029 A 
ATOM     39  N   UNL A   1      42.982  27.001  27.877  1.00  0.00    -0.354 N 
ATOM     40  C   UNL A   1      44.574  30.984  28.336  1.00  0.00     0.074 A 
ATOM     41  C   UNL A   1      43.548  31.909  28.765  1.00  0.00     0.031 C 
ATOM     42  C   UNL A   1      41.431  25.395  27.969  1.00  0.00     0.029 A 
ATOM     43  C   UNL A   1      42.832  25.656  27.638  1.00  0.00     0.049 A 
ATOM     44  H   UNL A   1      43.836  27.477  27.761  1.00  0.00     0.167 HD
ATOM     45  C   UNL A   1      45.869  31.325  28.136  1.00  0.00     0.037 A 
ATOM     46  C   UNL A   1      43.719  24.743  27.196  1.00  0.00     0.037 A 
ATOM     47  C   UNL A   1      46.895  30.407  27.719  1.00  0.00     0.049 A 
ATOM     48  C   UNL A   1      45.144  25.156  26.930  1.00  0.00     0.074 A 
ATOM     49  C   UNL A   1      48.238  30.659  27.498  1.00  0.00     0.029 A 
ATOM     50  N   UNL A   1      46.694  29.060  27.458  1.00  0.00    -0.354 N 
ATOM     51  N   UNL A   1      45.705  26.333  27.077  1.00  0.00    -0.248 NA
ATOM     52  C   UNL A   1      46.060  24.113  26.446  1.00  0.00     0.031 C 
ATOM     53  C   UNL A   1      48.841  29.474  27.063  1.00  0.00     0.029 A 
ATOM     54  C   UNL A   1      47.885  28.471  27.063  1.00  0.00     0.049 A 
ATOM     55  H   UNL A   1      45.832  28.590  27.541  1.00  0.00     0.167 HD
ATOM     56  C   UNL A   1      47.044  26.163  26.738  1.00  0.00     0.074 A 
ATOM     57  C   UNL A   1      47.211  24.769  26.384  1.00  0.00     0.031 C 
ATOM     58  C   UNL A   1      48.046  27.078  26.728  1.00  0.00     0.037 A 
BRANCH  45  59
ATOM     59  C   UNL A   1      46.246  32.766  28.348  1.00  0.00     0.058 A 
ATOM     60  C   UNL A   1      46.149  33.715  27.317  1.00  0.00     0.135 A 
ATOM     61  C   UNL A   1      46.690  33.207  29.605  1.00  0.00     0.135 A 
ATOM     62  F   UNL A   1      45.749  33.342  26.091  1.00  0.00    -0.206 F 
ATOM     63  C   UNL A   1      46.507  35.044  27.518  1.00  0.00     0.059 A 
ATOM     64  C   UNL A   1      47.027  34.538  29.835  1.00  0.00     0.059 A 
ATOM     65  F   UNL A   1      46.804  32.341  30.624  1.00  0.00    -0.206 F 
ATOM     66  C   UNL A   1      46.947  35.446  28.780  1.00  0.00     0.060 A 
BRANCH  66  67
ATOM     67  S   UNL A   1      47.413  37.172  29.024  1.00  0.00     0.124 S 
ATOM     68  O   UNL A   1      47.921  37.525  27.702  1.00  0.00    -0.237 OA
ATOM     69  O   UNL A   1      46.144  37.789  29.401  1.00  0.00    -0.237 OA
ATOM     70  O   UNL A   1      48.414  37.107  30.084  1.00  0.00    -0.744 OA
ENDBRANCH  66  67
ENDBRANCH  45  59
BRANCH  46  71
ATOM     71  C   UNL A   1      43.289  23.334  26.979  1.00  0.00     0.058 A 
ATOM     72  C   UNL A   1      43.089  22.460  28.056  1.00  0.00     0.135 A 
ATOM     73  C   UNL A   1      43.079  22.835  25.684  1.00  0.00     0.135 A 
ATOM     74  F   UNL A   1      43.290  22.885  29.313  1.00  0.00    -0.206 F 
ATOM     75  C   UNL A   1      42.711  21.134  27.859  1.00  0.00     0.059 A 
ATOM     76  C   UNL A   1      42.675  21.523  25.462  1.00  0.00     0.059 A 
ATOM     77  F   UNL A   1      43.250  23.634  24.618  1.00  0.00    -0.206 F 
ATOM     78  C   UNL A   1      42.504  20.676  26.556  1.00  0.00     0.060 A 
BRANCH  78  79
ATOM     79  S   UNL A   1      41.964  18.970  26.312  1.00  0.00     0.124 S 
ATOM     80  O   UNL A   1      40.633  19.160  25.749  1.00  0.00    -0.237 OA
ATOM     81  O   UNL A   1      42.978  18.455  25.397  1.00  0.00    -0.237 OA
ATOM     82  O   UNL A   1      42.006  18.409  27.660  1.00  0.00    -0.744 OA
ENDBRANCH  78  79
ENDBRANCH  46  71
BRANCH  58  83
ATOM     83  C   UNL A   1      49.428  26.598  26.376  1.00  0.00     0.058 A 
ATOM     84  C   UNL A   1      49.944  26.705  25.076  1.00  0.00     0.135 A 
ATOM     85  C   UNL A   1      50.268  26.070  27.371  1.00  0.00     0.135 A 
ATOM     86  F   UNL A   1      49.183  27.201  24.086  1.00  0.00    -0.206 F 
ATOM     87  C   UNL A   1      51.232  26.278  24.767  1.00  0.00     0.059 A 
ATOM     88  C   UNL A   1      51.569  25.662  27.090  1.00  0.00     0.059 A 
ATOM     89  F   UNL A   1      49.831  25.957  28.635  1.00  0.00    -0.206 F 
ATOM     90  C   UNL A   1      52.037  25.757  25.782  1.00  0.00     0.060 A 
BRANCH  90  91
ATOM     91  S   UNL A   1      53.717  25.230  25.375  1.00  0.00     0.124 S 
ATOM     92  O   UNL A   1      53.570  23.779  25.348  1.00  0.00    -0.237 OA
ATOM     93  O   UNL A   1      53.941  25.868  24.081  1.00  0.00    -0.237 OA
ATOM     94  O   UNL A   1      54.515  25.762  26.475  1.00  0.00    -0.744 OA
ENDBRANCH  90  91
ENDBRANCH  58  83
ENDBRANCH  32  33
ENDBRANCH  25  27
ENDBRANCH  24  25
ENDBRANCH  23  24
ENDBRANCH  22  23
ENDBRANCH  21  22
ENDBRANCH   1  21
TORSDOF 22
ENDMDL
