MODEL 1
REMARK VINA RESULT:     -12.0      0.000      0.000
REMARK SMILES Cc1ccccc1NC(=O)CSc1nc(C(=O)OCCOCCOC(=O)c2ccc(-c3c4nc(c(-c5c(F)cc(S(=O)(=O)[O-])cc5F)c5ccc([nH]5)c(-c5c(F)cc(S(=O)(=O)[O-])cc5F)c5nc(c(-c6c(F)cc(S(=O)(=O)[O-])cc6F)c6ccc3[nH]6)C=C5)C=C4)cc2)c2ccccc2n1
REMARK SMILES IDX 20 1 19 2 18 3 16 4 17 5 15 6 13 7 14 8 99 9 98 10 93 11
REMARK SMILES IDX 97 12 94 13 96 14 95 15 12 16 11 17 9 18 8 19 10 21 7 22
REMARK SMILES IDX 1 23 2 24 3 25 4 26 6 27 5 28 21 29 22 30 23 31 24 32 25 33
REMARK SMILES IDX 26 34 27 35 28 36 92 37 29 38 91 39 30 40 31 41 32 42 85 43
REMARK SMILES IDX 33 44 90 45 84 46 86 47 34 48 89 49 83 50 82 51 35 53 69 54
REMARK SMILES IDX 48 55 68 56 49 57 52 58 67 59 87 60 50 61 51 62 66 64 88 65
REMARK SMILES IDX 53 66 36 67 37 68 46 69 38 70 39 71 45 72 47 73 40 74 41 75
REMARK SMILES IDX 42 76 43 77 44 78 70 79 71 80 80 81 72 82 73 83 79 84 81 85
REMARK SMILES IDX 74 86 75 87 76 88 77 89 78 90 54 91 55 92 64 93 56 94 57 95
REMARK SMILES IDX 63 96 65 97 58 98 59 99 60 100 61 101 62 102
REMARK H PARENT 8 20 86 52 52 63
REMARK Flexibility Score: inf
ROOT
ATOM      1  C   UNL A   1      33.842  28.758  24.212  1.00  0.00     0.202 C 
ENDROOT
BRANCH   1   2
ATOM      2  C   UNL A   1      33.790  28.432  22.754  1.00  0.00     0.261 C 
BRANCH   2   3
ATOM      3  O   UNL A   1      33.802  27.016  22.508  1.00  0.00    -0.458 OA
BRANCH   3   4
ATOM      4  C   UNL A   1      33.003  26.385  21.626  1.00  0.00     0.357 C 
ATOM      5  O   UNL A   1      33.252  26.036  20.497  1.00  0.00    -0.244 OA
BRANCH   4   6
ATOM      6  C   UNL A   1      31.744  26.046  22.346  1.00  0.00     0.160 A 
ATOM      7  C   UNL A   1      30.904  24.493  23.764  1.00  0.00     0.189 A 
ATOM      8  N   UNL A   1      31.853  24.834  22.920  1.00  0.00    -0.215 NA
ATOM      9  N   UNL A   1      29.828  25.236  24.047  1.00  0.00    -0.222 NA
ATOM     10  C   UNL A   1      29.716  26.429  23.445  1.00  0.00     0.076 A 
ATOM     11  C   UNL A   1      30.672  26.941  22.568  1.00  0.00     0.034 A 
ATOM     12  C   UNL A   1      28.611  27.218  23.753  1.00  0.00     0.029 A 
ATOM     13  C   UNL A   1      30.476  28.268  22.055  1.00  0.00     0.013 A 
ATOM     14  C   UNL A   1      28.446  28.520  23.263  1.00  0.00     0.002 A 
ATOM     15  C   UNL A   1      29.397  29.056  22.422  1.00  0.00     0.001 A 
BRANCH   7  16
ATOM     16  S   UNL A   1      31.274  23.106  24.781  1.00  0.00    -0.076 SA
BRANCH  16  17
ATOM     17  C   UNL A   1      31.668  23.975  26.340  1.00  0.00     0.178 C 
BRANCH  17  18
ATOM     18  C   UNL A   1      32.623  25.139  26.153  1.00  0.00     0.234 C 
ATOM     19  N   UNL A   1      33.895  25.025  25.669  1.00  0.00    -0.325 N 
ATOM     20  H   UNL A   1      34.383  25.880  25.663  1.00  0.00     0.169 HD
ATOM     21  O   UNL A   1      32.263  26.286  26.447  1.00  0.00    -0.274 OA
BRANCH  19  22
ATOM     22  C   UNL A   1      34.658  23.949  25.178  1.00  0.00     0.044 A 
ATOM     23  C   UNL A   1      34.663  22.825  27.507  1.00  0.00     0.046 C 
ATOM     24  C   UNL A   1      35.111  22.959  26.075  1.00  0.00    -0.027 A 
ATOM     25  C   UNL A   1      36.062  22.016  25.630  1.00  0.00     0.005 A 
ATOM     26  C   UNL A   1      36.530  22.024  24.319  1.00  0.00     0.000 A 
ATOM     27  C   UNL A   1      35.031  23.842  23.835  1.00  0.00     0.026 A 
ATOM     28  C   UNL A   1      35.991  22.921  23.412  1.00  0.00     0.002 A 
ENDBRANCH  19  22
ENDBRANCH  17  18
ENDBRANCH  16  17
ENDBRANCH   7  16
ENDBRANCH   4   6
ENDBRANCH   3   4
ENDBRANCH   2   3
ENDBRANCH   1   2
BRANCH   1  29
ATOM     29  O   UNL A   1      32.546  29.228  24.527  1.00  0.00    -0.374 OA
BRANCH  29  30
ATOM     30  C   UNL A   1      32.384  29.886  25.756  1.00  0.00     0.202 C 
BRANCH  30  31
ATOM     31  C   UNL A   1      33.690  29.911  26.545  1.00  0.00     0.261 C 
BRANCH  31  32
ATOM     32  O   UNL A   1      33.710  31.015  27.483  1.00  0.00    -0.460 OA
BRANCH  32  33
ATOM     33  C   UNL A   1      34.926  31.597  27.726  1.00  0.00     0.338 C 
ATOM     34  O   UNL A   1      35.148  32.785  27.567  1.00  0.00    -0.246 OA
BRANCH  33  35
ATOM     35  C   UNL A   1      35.916  30.586  28.210  1.00  0.00     0.060 A 
ATOM     36  C   UNL A   1      35.748  29.903  29.431  1.00  0.00     0.016 A 
ATOM     37  C   UNL A   1      37.132  30.504  27.547  1.00  0.00     0.016 A 
ATOM     38  C   UNL A   1      36.848  29.289  30.069  1.00  0.00     0.010 A 
ATOM     39  C   UNL A   1      38.224  30.018  28.231  1.00  0.00     0.010 A 
ATOM     40  C   UNL A   1      38.112  29.432  29.508  1.00  0.00    -0.014 A 
BRANCH  40  41
ATOM     41  C   UNL A   1      39.419  29.073  30.090  1.00  0.00     0.031 A 
ATOM     42  C   UNL A   1      40.013  27.805  29.603  1.00  0.00     0.074 A 
ATOM     43  C   UNL A   1      40.229  30.003  30.660  1.00  0.00     0.049 A 
ATOM     44  N   UNL A   1      41.207  27.417  29.859  1.00  0.00    -0.248 NA
ATOM     45  C   UNL A   1      39.285  26.835  28.782  1.00  0.00     0.031 C 
ATOM     46  C   UNL A   1      41.690  30.115  30.540  1.00  0.00     0.029 A 
ATOM     47  N   UNL A   1      39.912  31.108  31.447  1.00  0.00    -0.354 N 
ATOM     48  C   UNL A   1      41.526  26.407  28.985  1.00  0.00     0.074 A 
ATOM     49  C   UNL A   1      40.264  25.994  28.434  1.00  0.00     0.031 C 
ATOM     50  C   UNL A   1      42.156  31.047  31.390  1.00  0.00     0.029 A 
ATOM     51  C   UNL A   1      41.036  31.478  32.201  1.00  0.00     0.049 A 
ATOM     52  H   UNL A   1      39.036  31.558  31.472  1.00  0.00     0.167 HD
ATOM     53  C   UNL A   1      42.848  26.152  28.777  1.00  0.00     0.037 A 
ATOM     54  C   UNL A   1      40.959  31.499  33.558  1.00  0.00     0.037 A 
ATOM     55  C   UNL A   1      43.653  26.895  29.764  1.00  0.00     0.049 A 
ATOM     56  C   UNL A   1      41.840  30.397  34.083  1.00  0.00     0.074 A 
ATOM     57  C   UNL A   1      44.484  28.001  29.704  1.00  0.00     0.029 A 
ATOM     58  N   UNL A   1      43.380  26.694  31.119  1.00  0.00    -0.354 N 
ATOM     59  N   UNL A   1      42.176  29.361  33.357  1.00  0.00    -0.248 NA
ATOM     60  C   UNL A   1      42.547  30.435  35.356  1.00  0.00     0.031 C 
ATOM     61  C   UNL A   1      44.650  28.492  31.038  1.00  0.00     0.029 A 
ATOM     62  C   UNL A   1      43.943  27.675  31.912  1.00  0.00     0.049 A 
ATOM     63  H   UNL A   1      42.849  25.941  31.469  1.00  0.00     0.167 HD
ATOM     64  C   UNL A   1      43.181  28.674  33.966  1.00  0.00     0.074 A 
ATOM     65  C   UNL A   1      43.353  29.363  35.236  1.00  0.00     0.031 C 
ATOM     66  C   UNL A   1      43.815  27.621  33.371  1.00  0.00     0.037 A 
BRANCH  53  67
ATOM     67  C   UNL A   1      43.446  25.350  27.630  1.00  0.00     0.058 A 
ATOM     68  C   UNL A   1      43.364  23.938  27.635  1.00  0.00     0.135 A 
ATOM     69  C   UNL A   1      44.168  25.875  26.533  1.00  0.00     0.135 A 
ATOM     70  F   UNL A   1      42.737  23.281  28.621  1.00  0.00    -0.206 F 
ATOM     71  C   UNL A   1      43.929  23.130  26.640  1.00  0.00     0.059 A 
ATOM     72  C   UNL A   1      44.712  25.091  25.509  1.00  0.00     0.059 A 
ATOM     73  F   UNL A   1      44.430  27.177  26.399  1.00  0.00    -0.206 F 
ATOM     74  C   UNL A   1      44.595  23.714  25.572  1.00  0.00     0.060 A 
BRANCH  74  75
ATOM     75  S   UNL A   1      45.302  22.670  24.285  1.00  0.00     0.124 S 
ATOM     76  O   UNL A   1      44.144  22.403  23.439  1.00  0.00    -0.237 OA
ATOM     77  O   UNL A   1      46.324  23.538  23.710  1.00  0.00    -0.237 OA
ATOM     78  O   UNL A   1      45.812  21.516  25.021  1.00  0.00    -0.744 OA
ENDBRANCH  74  75
ENDBRANCH  53  67
BRANCH  54  79
ATOM     79  C   UNL A   1      39.625  32.024  34.014  1.00  0.00     0.058 A 
ATOM     80  C   UNL A   1      39.420  33.413  33.833  1.00  0.00     0.135 A 
ATOM     81  C   UNL A   1      38.476  31.214  33.960  1.00  0.00     0.135 A 
ATOM     82  F   UNL A   1      40.470  34.252  33.875  1.00  0.00    -0.206 F 
ATOM     83  C   UNL A   1      38.192  33.945  33.429  1.00  0.00     0.059 A 
ATOM     84  C   UNL A   1      37.240  31.725  33.526  1.00  0.00     0.059 A 
ATOM     85  F   UNL A   1      38.584  29.886  34.116  1.00  0.00    -0.206 F 
ATOM     86  C   UNL A   1      37.120  33.082  33.212  1.00  0.00     0.060 A 
BRANCH  86  87
ATOM     87  S   UNL A   1      35.677  33.693  32.279  1.00  0.00     0.124 S 
ATOM     88  O   UNL A   1      34.685  32.659  32.539  1.00  0.00    -0.237 OA
ATOM     89  O   UNL A   1      35.405  34.989  32.900  1.00  0.00    -0.237 OA
ATOM     90  O   UNL A   1      36.186  33.773  30.915  1.00  0.00    -0.744 OA
ENDBRANCH  86  87
ENDBRANCH  54  79
BRANCH  66  91
ATOM     91  C   UNL A   1      44.430  26.467  34.136  1.00  0.00     0.058 A 
ATOM     92  C   UNL A   1      45.815  26.240  34.230  1.00  0.00     0.135 A 
ATOM     93  C   UNL A   1      43.632  25.634  34.962  1.00  0.00     0.135 A 
ATOM     94  F   UNL A   1      46.712  27.034  33.635  1.00  0.00    -0.206 F 
ATOM     95  C   UNL A   1      46.356  25.208  34.991  1.00  0.00     0.059 A 
ATOM     96  C   UNL A   1      44.160  24.655  35.797  1.00  0.00     0.059 A 
ATOM     97  F   UNL A   1      42.298  25.750  35.022  1.00  0.00    -0.206 F 
ATOM     98  C   UNL A   1      45.522  24.421  35.771  1.00  0.00     0.060 A 
BRANCH  98  99
ATOM     99  S   UNL A   1      46.247  23.115  36.764  1.00  0.00     0.124 S 
ATOM    100  O   UNL A   1      45.965  23.594  38.114  1.00  0.00    -0.237 OA
ATOM    101  O   UNL A   1      45.489  21.941  36.339  1.00  0.00    -0.237 OA
ATOM    102  O   UNL A   1      47.652  23.124  36.369  1.00  0.00    -0.744 OA
ENDBRANCH  98  99
ENDBRANCH  66  91
ENDBRANCH  40  41
ENDBRANCH  33  35
ENDBRANCH  32  33
ENDBRANCH  31  32
ENDBRANCH  30  31
ENDBRANCH  29  30
ENDBRANCH   1  29
TORSDOF 21
ENDMDL
MODEL 2
REMARK VINA RESULT:     -11.8      1.567      1.986
REMARK SMILES Cc1ccccc1NC(=O)CSc1nc(C(=O)OCCOCCOC(=O)c2ccc(-c3c4nc(c(-c5c(F)cc(S(=O)(=O)[O-])cc5F)c5ccc([nH]5)c(-c5c(F)cc(S(=O)(=O)[O-])cc5F)c5nc(c(-c6c(F)cc(S(=O)(=O)[O-])cc6F)c6ccc3[nH]6)C=C5)C=C4)cc2)c2ccccc2n1
REMARK SMILES IDX 20 1 19 2 18 3 16 4 17 5 15 6 13 7 14 8 99 9 98 10 93 11
REMARK SMILES IDX 97 12 94 13 96 14 95 15 12 16 11 17 9 18 8 19 10 21 7 22
REMARK SMILES IDX 1 23 2 24 3 25 4 26 6 27 5 28 21 29 22 30 23 31 24 32 25 33
REMARK SMILES IDX 26 34 27 35 28 36 92 37 29 38 91 39 30 40 31 41 32 42 85 43
REMARK SMILES IDX 33 44 90 45 84 46 86 47 34 48 89 49 83 50 82 51 35 53 69 54
REMARK SMILES IDX 48 55 68 56 49 57 52 58 67 59 87 60 50 61 51 62 66 64 88 65
REMARK SMILES IDX 53 66 36 67 37 68 46 69 38 70 39 71 45 72 47 73 40 74 41 75
REMARK SMILES IDX 42 76 43 77 44 78 70 79 71 80 80 81 72 82 73 83 79 84 81 85
REMARK SMILES IDX 74 86 75 87 76 88 77 89 78 90 54 91 55 92 64 93 56 94 57 95
REMARK SMILES IDX 63 96 65 97 58 98 59 99 60 100 61 101 62 102
REMARK H PARENT 8 20 86 52 52 63
REMARK Flexibility Score: inf
ROOT
ATOM      1  C   UNL A   1      33.294  29.351  24.648  1.00  0.00     0.202 C 
ENDROOT
BRANCH   1   2
ATOM      2  C   UNL A   1      33.735  27.975  25.031  1.00  0.00     0.261 C 
BRANCH   2   3
ATOM      3  O   UNL A   1      33.886  27.111  23.892  1.00  0.00    -0.458 OA
BRANCH   3   4
ATOM      4  C   UNL A   1      33.253  27.279  22.715  1.00  0.00     0.357 C 
ATOM      5  O   UNL A   1      33.699  27.685  21.668  1.00  0.00    -0.244 OA
BRANCH   4   6
ATOM      6  C   UNL A   1      31.879  26.729  22.880  1.00  0.00     0.160 A 
ATOM      7  C   UNL A   1      30.819  24.847  23.562  1.00  0.00     0.189 A 
ATOM      8  N   UNL A   1      31.940  25.419  23.181  1.00  0.00    -0.215 NA
ATOM      9  N   UNL A   1      29.630  25.458  23.621  1.00  0.00    -0.222 NA
ATOM     10  C   UNL A   1      29.577  26.756  23.289  1.00  0.00     0.076 A 
ATOM     11  C   UNL A   1      30.695  27.501  22.916  1.00  0.00     0.034 A 
ATOM     12  C   UNL A   1      28.347  27.404  23.371  1.00  0.00     0.029 A 
ATOM     13  C   UNL A   1      30.519  28.904  22.667  1.00  0.00     0.013 A 
ATOM     14  C   UNL A   1      28.196  28.779  23.148  1.00  0.00     0.002 A 
ATOM     15  C   UNL A   1      29.296  29.538  22.812  1.00  0.00     0.001 A 
BRANCH   7  16
ATOM     16  S   UNL A   1      31.006  23.270  24.319  1.00  0.00    -0.076 SA
BRANCH  16  17
ATOM     17  C   UNL A   1      31.022  23.780  26.074  1.00  0.00     0.178 C 
BRANCH  17  18
ATOM     18  C   UNL A   1      32.031  24.874  26.371  1.00  0.00     0.234 C 
ATOM     19  N   UNL A   1      33.378  24.756  26.176  1.00  0.00    -0.325 N 
ATOM     20  H   UNL A   1      33.881  25.550  26.471  1.00  0.00     0.169 HD
ATOM     21  O   UNL A   1      31.648  25.961  26.821  1.00  0.00    -0.274 OA
BRANCH  19  22
ATOM     22  C   UNL A   1      34.202  23.745  25.647  1.00  0.00     0.044 A 
ATOM     23  C   UNL A   1      33.875  22.300  27.766  1.00  0.00     0.046 C 
ATOM     24  C   UNL A   1      34.522  22.628  26.446  1.00  0.00    -0.027 A 
ATOM     25  C   UNL A   1      35.524  21.738  26.007  1.00  0.00     0.005 A 
ATOM     26  C   UNL A   1      36.174  21.923  24.790  1.00  0.00     0.000 A 
ATOM     27  C   UNL A   1      34.760  23.823  24.368  1.00  0.00     0.026 A 
ATOM     28  C   UNL A   1      35.769  22.951  23.955  1.00  0.00     0.002 A 
ENDBRANCH  19  22
ENDBRANCH  17  18
ENDBRANCH  16  17
ENDBRANCH   7  16
ENDBRANCH   4   6
ENDBRANCH   3   4
ENDBRANCH   2   3
ENDBRANCH   1   2
BRANCH   1  29
ATOM     29  O   UNL A   1      32.176  29.617  25.471  1.00  0.00    -0.374 OA
BRANCH  29  30
ATOM     30  C   UNL A   1      32.404  29.707  26.854  1.00  0.00     0.202 C 
BRANCH  30  31
ATOM     31  C   UNL A   1      33.885  29.913  27.156  1.00  0.00     0.261 C 
BRANCH  31  32
ATOM     32  O   UNL A   1      34.119  31.212  27.754  1.00  0.00    -0.460 OA
BRANCH  32  33
ATOM     33  C   UNL A   1      35.418  31.641  27.809  1.00  0.00     0.338 C 
ATOM     34  O   UNL A   1      35.764  32.778  27.540  1.00  0.00    -0.246 OA
BRANCH  33  35
ATOM     35  C   UNL A   1      36.329  30.538  28.245  1.00  0.00     0.060 A 
ATOM     36  C   UNL A   1      36.132  29.842  29.454  1.00  0.00     0.016 A 
ATOM     37  C   UNL A   1      37.518  30.369  27.550  1.00  0.00     0.016 A 
ATOM     38  C   UNL A   1      37.190  29.121  30.050  1.00  0.00     0.010 A 
ATOM     39  C   UNL A   1      38.580  29.775  28.195  1.00  0.00     0.010 A 
ATOM     40  C   UNL A   1      38.448  29.169  29.461  1.00  0.00    -0.014 A 
BRANCH  40  41
ATOM     41  C   UNL A   1      39.732  28.686  30.001  1.00  0.00     0.031 A 
ATOM     42  C   UNL A   1      40.178  27.361  29.509  1.00  0.00     0.074 A 
ATOM     43  C   UNL A   1      40.651  29.535  30.531  1.00  0.00     0.049 A 
ATOM     44  N   UNL A   1      41.336  26.858  29.729  1.00  0.00    -0.248 NA
ATOM     45  C   UNL A   1      39.329  26.462  28.726  1.00  0.00     0.031 C 
ATOM     46  C   UNL A   1      42.111  29.499  30.359  1.00  0.00     0.029 A 
ATOM     47  N   UNL A   1      40.474  30.673  31.316  1.00  0.00    -0.354 N 
ATOM     48  C   UNL A   1      41.521  25.813  28.856  1.00  0.00     0.074 A 
ATOM     49  C   UNL A   1      40.205  25.524  28.354  1.00  0.00     0.031 C 
ATOM     50  C   UNL A   1      42.697  30.387  31.181  1.00  0.00     0.029 A 
ATOM     51  C   UNL A   1      41.656  30.935  32.026  1.00  0.00     0.049 A 
ATOM     52  H   UNL A   1      39.649  31.209  31.365  1.00  0.00     0.167 HD
ATOM     53  C   UNL A   1      42.803  25.425  28.606  1.00  0.00     0.037 A 
ATOM     54  C   UNL A   1      41.630  30.975  33.384  1.00  0.00     0.037 A 
ATOM     55  C   UNL A   1      43.713  26.092  29.555  1.00  0.00     0.049 A 
ATOM     56  C   UNL A   1      42.415  29.795  33.891  1.00  0.00     0.074 A 
ATOM     57  C   UNL A   1      44.648  27.108  29.453  1.00  0.00     0.029 A 
ATOM     58  N   UNL A   1      43.470  25.931  30.921  1.00  0.00    -0.354 N 
ATOM     59  N   UNL A   1      42.620  28.725  33.167  1.00  0.00    -0.248 NA
ATOM     60  C   UNL A   1      43.167  29.773  35.139  1.00  0.00     0.031 C 
ATOM     61  C   UNL A   1      44.910  27.592  30.775  1.00  0.00     0.029 A 
ATOM     62  C   UNL A   1      44.157  26.857  31.682  1.00  0.00     0.049 A 
ATOM     63  H   UNL A   1      42.879  25.239  31.298  1.00  0.00     0.167 HD
ATOM     64  C   UNL A   1      43.571  27.946  33.749  1.00  0.00     0.074 A 
ATOM     65  C   UNL A   1      43.857  28.625  35.004  1.00  0.00     0.031 C 
ATOM     66  C   UNL A   1      44.076  26.829  33.145  1.00  0.00     0.037 A 
BRANCH  53  67
ATOM     67  C   UNL A   1      43.277  24.557  27.448  1.00  0.00     0.058 A 
ATOM     68  C   UNL A   1      44.084  23.423  27.698  1.00  0.00     0.135 A 
ATOM     69  C   UNL A   1      43.044  24.800  26.075  1.00  0.00     0.135 A 
ATOM     70  F   UNL A   1      44.421  23.070  28.947  1.00  0.00    -0.206 F 
ATOM     71  C   UNL A   1      44.596  22.603  26.684  1.00  0.00     0.059 A 
ATOM     72  C   UNL A   1      43.515  23.976  25.046  1.00  0.00     0.059 A 
ATOM     73  F   UNL A   1      42.380  25.871  25.634  1.00  0.00    -0.206 F 
ATOM     74  C   UNL A   1      44.299  22.881  25.357  1.00  0.00     0.060 A 
BRANCH  74  75
ATOM     75  S   UNL A   1      44.943  21.810  24.058  1.00  0.00     0.124 S 
ATOM     76  O   UNL A   1      44.409  20.508  24.443  1.00  0.00    -0.237 OA
ATOM     77  O   UNL A   1      44.370  22.404  22.856  1.00  0.00    -0.237 OA
ATOM     78  O   UNL A   1      46.392  21.949  24.186  1.00  0.00    -0.744 OA
ENDBRANCH  74  75
ENDBRANCH  53  67
BRANCH  54  79
ATOM     79  C   UNL A   1      40.372  31.635  33.879  1.00  0.00     0.058 A 
ATOM     80  C   UNL A   1      39.346  30.756  34.304  1.00  0.00     0.135 A 
ATOM     81  C   UNL A   1      40.420  32.889  34.516  1.00  0.00     0.135 A 
ATOM     82  F   UNL A   1      39.234  29.541  33.739  1.00  0.00    -0.206 F 
ATOM     83  C   UNL A   1      38.545  31.020  35.419  1.00  0.00     0.059 A 
ATOM     84  C   UNL A   1      39.644  33.160  35.657  1.00  0.00     0.059 A 
ATOM     85  F   UNL A   1      41.365  33.777  34.176  1.00  0.00    -0.206 F 
ATOM     86  C   UNL A   1      38.746  32.198  36.133  1.00  0.00     0.060 A 
BRANCH  86  87
ATOM     87  S   UNL A   1      38.033  32.344  37.805  1.00  0.00     0.124 S 
ATOM     88  O   UNL A   1      37.155  33.497  37.663  1.00  0.00    -0.237 OA
ATOM     89  O   UNL A   1      37.356  31.062  37.989  1.00  0.00    -0.237 OA
ATOM     90  O   UNL A   1      39.213  32.530  38.642  1.00  0.00    -0.744 OA
ENDBRANCH  86  87
ENDBRANCH  54  79
BRANCH  66  91
ATOM     91  C   UNL A   1      44.599  25.626  33.902  1.00  0.00     0.058 A 
ATOM     92  C   UNL A   1      45.957  25.263  33.952  1.00  0.00     0.135 A 
ATOM     93  C   UNL A   1      43.752  24.884  34.765  1.00  0.00     0.135 A 
ATOM     94  F   UNL A   1      46.908  25.958  33.317  1.00  0.00    -0.206 F 
ATOM     95  C   UNL A   1      46.420  24.188  34.706  1.00  0.00     0.059 A 
ATOM     96  C   UNL A   1      44.209  23.864  35.593  1.00  0.00     0.059 A 
ATOM     97  F   UNL A   1      42.439  25.132  34.869  1.00  0.00    -0.206 F 
ATOM     98  C   UNL A   1      45.539  23.495  35.523  1.00  0.00     0.060 A 
BRANCH  98  99
ATOM     99  S   UNL A   1      46.165  22.131  36.507  1.00  0.00     0.124 S 
ATOM    100  O   UNL A   1      45.557  20.990  35.830  1.00  0.00    -0.237 OA
ATOM    101  O   UNL A   1      47.610  22.266  36.344  1.00  0.00    -0.237 OA
ATOM    102  O   UNL A   1      45.661  22.415  37.846  1.00  0.00    -0.744 OA
ENDBRANCH  98  99
ENDBRANCH  66  91
ENDBRANCH  40  41
ENDBRANCH  33  35
ENDBRANCH  32  33
ENDBRANCH  31  32
ENDBRANCH  30  31
ENDBRANCH  29  30
ENDBRANCH   1  29
TORSDOF 21
ENDMDL
MODEL 3
REMARK VINA RESULT:     -11.7      4.613     10.699
REMARK SMILES Cc1ccccc1NC(=O)CSc1nc(C(=O)OCCOCCOC(=O)c2ccc(-c3c4nc(c(-c5c(F)cc(S(=O)(=O)[O-])cc5F)c5ccc([nH]5)c(-c5c(F)cc(S(=O)(=O)[O-])cc5F)c5nc(c(-c6c(F)cc(S(=O)(=O)[O-])cc6F)c6ccc3[nH]6)C=C5)C=C4)cc2)c2ccccc2n1
REMARK SMILES IDX 20 1 19 2 18 3 16 4 17 5 15 6 13 7 14 8 99 9 98 10 93 11
REMARK SMILES IDX 97 12 94 13 96 14 95 15 12 16 11 17 9 18 8 19 10 21 7 22
REMARK SMILES IDX 1 23 2 24 3 25 4 26 6 27 5 28 21 29 22 30 23 31 24 32 25 33
REMARK SMILES IDX 26 34 27 35 28 36 92 37 29 38 91 39 30 40 31 41 32 42 85 43
REMARK SMILES IDX 33 44 90 45 84 46 86 47 34 48 89 49 83 50 82 51 35 53 69 54
REMARK SMILES IDX 48 55 68 56 49 57 52 58 67 59 87 60 50 61 51 62 66 64 88 65
REMARK SMILES IDX 53 66 36 67 37 68 46 69 38 70 39 71 45 72 47 73 40 74 41 75
REMARK SMILES IDX 42 76 43 77 44 78 70 79 71 80 80 81 72 82 73 83 79 84 81 85
REMARK SMILES IDX 74 86 75 87 76 88 77 89 78 90 54 91 55 92 64 93 56 94 57 95
REMARK SMILES IDX 63 96 65 97 58 98 59 99 60 100 61 101 62 102
REMARK H PARENT 8 20 86 52 52 63
REMARK Flexibility Score: inf
ROOT
ATOM      1  C   UNL A   1      41.876  27.857  25.702  1.00  0.00     0.202 C 
ENDROOT
BRANCH   1   2
ATOM      2  C   UNL A   1      41.594  26.973  26.874  1.00  0.00     0.261 C 
BRANCH   2   3
ATOM      3  O   UNL A   1      40.349  26.266  26.739  1.00  0.00    -0.458 OA
BRANCH   3   4
ATOM      4  C   UNL A   1      39.693  25.671  27.754  1.00  0.00     0.357 C 
ATOM      5  O   UNL A   1      39.288  26.159  28.781  1.00  0.00    -0.244 OA
BRANCH   4   6
ATOM      6  C   UNL A   1      39.411  24.273  27.325  1.00  0.00     0.160 A 
ATOM      7  C   UNL A   1      37.967  23.096  26.036  1.00  0.00     0.189 A 
ATOM      8  N   UNL A   1      38.244  24.222  26.657  1.00  0.00    -0.215 NA
ATOM      9  N   UNL A   1      38.731  21.997  26.067  1.00  0.00    -0.222 NA
ATOM     10  C   UNL A   1      39.877  22.052  26.761  1.00  0.00     0.076 A 
ATOM     11  C   UNL A   1      40.321  23.195  27.425  1.00  0.00     0.034 A 
ATOM     12  C   UNL A   1      40.688  20.921  26.777  1.00  0.00     0.029 A 
ATOM     13  C   UNL A   1      41.607  23.149  28.062  1.00  0.00     0.013 A 
ATOM     14  C   UNL A   1      41.951  20.899  27.383  1.00  0.00     0.002 A 
ATOM     15  C   UNL A   1      42.422  22.030  28.015  1.00  0.00     0.001 A 
BRANCH   7  16
ATOM     16  S   UNL A   1      36.658  23.192  24.865  1.00  0.00    -0.076 SA
BRANCH  16  17
ATOM     17  C   UNL A   1      36.165  21.433  24.822  1.00  0.00     0.178 C 
BRANCH  17  18
ATOM     18  C   UNL A   1      35.066  21.094  25.811  1.00  0.00     0.234 C 
ATOM     19  N   UNL A   1      34.079  20.177  25.586  1.00  0.00    -0.325 N 
ATOM     20  H   UNL A   1      33.425  20.125  26.321  1.00  0.00     0.169 HD
ATOM     21  O   UNL A   1      35.025  21.666  26.908  1.00  0.00    -0.274 OA
BRANCH  19  22
ATOM     22  C   UNL A   1      33.794  19.290  24.530  1.00  0.00     0.044 A 
ATOM     23  C   UNL A   1      32.132  20.979  23.495  1.00  0.00     0.046 C 
ATOM     24  C   UNL A   1      32.792  19.629  23.597  1.00  0.00    -0.027 A 
ATOM     25  C   UNL A   1      32.348  18.649  22.685  1.00  0.00     0.005 A 
ATOM     26  C   UNL A   1      32.903  17.373  22.666  1.00  0.00     0.000 A 
ATOM     27  C   UNL A   1      34.434  18.056  24.391  1.00  0.00     0.026 A 
ATOM     28  C   UNL A   1      33.969  17.086  23.502  1.00  0.00     0.002 A 
ENDBRANCH  19  22
ENDBRANCH  17  18
ENDBRANCH  16  17
ENDBRANCH   7  16
ENDBRANCH   4   6
ENDBRANCH   3   4
ENDBRANCH   2   3
ENDBRANCH   1   2
BRANCH   1  29
ATOM     29  O   UNL A   1      42.634  27.057  24.816  1.00  0.00    -0.374 OA
BRANCH  29  30
ATOM     30  C   UNL A   1      43.720  26.352  25.359  1.00  0.00     0.202 C 
BRANCH  30  31
ATOM     31  C   UNL A   1      44.935  27.259  25.536  1.00  0.00     0.261 C 
BRANCH  31  32
ATOM     32  O   UNL A   1      45.486  27.136  26.870  1.00  0.00    -0.460 OA
BRANCH  32  33
ATOM     33  C   UNL A   1      46.172  25.984  27.150  1.00  0.00     0.338 C 
ATOM     34  O   UNL A   1      46.975  25.475  26.387  1.00  0.00    -0.246 OA
BRANCH  33  35
ATOM     35  C   UNL A   1      45.806  25.457  28.501  1.00  0.00     0.060 A 
ATOM     36  C   UNL A   1      44.497  25.035  28.808  1.00  0.00     0.016 A 
ATOM     37  C   UNL A   1      46.728  25.612  29.527  1.00  0.00     0.016 A 
ATOM     38  C   UNL A   1      44.067  24.943  30.150  1.00  0.00     0.010 A 
ATOM     39  C   UNL A   1      46.270  25.645  30.825  1.00  0.00     0.010 A 
ATOM     40  C   UNL A   1      44.934  25.343  31.159  1.00  0.00    -0.014 A 
BRANCH  40  41
ATOM     41  C   UNL A   1      44.645  25.539  32.592  1.00  0.00     0.031 A 
ATOM     42  C   UNL A   1      44.108  26.870  32.964  1.00  0.00     0.074 A 
ATOM     43  C   UNL A   1      44.443  24.490  33.432  1.00  0.00     0.049 A 
ATOM     44  N   UNL A   1      43.640  27.167  34.119  1.00  0.00    -0.248 NA
ATOM     45  C   UNL A   1      44.071  28.011  32.047  1.00  0.00     0.031 C 
ATOM     46  C   UNL A   1      43.440  24.376  34.501  1.00  0.00     0.029 A 
ATOM     47  N   UNL A   1      45.070  23.247  33.482  1.00  0.00    -0.354 N 
ATOM     48  C   UNL A   1      42.929  28.337  34.005  1.00  0.00     0.074 A 
ATOM     49  C   UNL A   1      43.339  28.887  32.741  1.00  0.00     0.031 C 
ATOM     50  C   UNL A   1      43.665  23.272  35.234  1.00  0.00     0.029 A 
ATOM     51  C   UNL A   1      44.910  22.698  34.764  1.00  0.00     0.049 A 
ATOM     52  H   UNL A   1      45.552  22.821  32.736  1.00  0.00     0.167 HD
ATOM     53  C   UNL A   1      42.002  28.603  34.967  1.00  0.00     0.037 A 
ATOM     54  C   UNL A   1      46.006  22.383  35.503  1.00  0.00     0.037 A 
ATOM     55  C   UNL A   1      42.157  27.646  36.078  1.00  0.00     0.049 A 
ATOM     56  C   UNL A   1      46.051  23.324  36.676  1.00  0.00     0.074 A 
ATOM     57  C   UNL A   1      41.425  26.563  36.535  1.00  0.00     0.029 A 
ATOM     58  N   UNL A   1      43.407  27.552  36.694  1.00  0.00    -0.354 N 
ATOM     59  N   UNL A   1      45.449  24.486  36.667  1.00  0.00    -0.248 NA
ATOM     60  C   UNL A   1      46.601  22.994  37.984  1.00  0.00     0.031 C 
ATOM     61  C   UNL A   1      42.280  25.788  37.383  1.00  0.00     0.029 A 
ATOM     62  C   UNL A   1      43.520  26.410  37.463  1.00  0.00     0.049 A 
ATOM     63  H   UNL A   1      44.123  28.221  36.593  1.00  0.00     0.167 HD
ATOM     64  C   UNL A   1      45.419  25.002  37.926  1.00  0.00     0.074 A 
ATOM     65  C   UNL A   1      46.188  24.049  38.712  1.00  0.00     0.031 C 
ATOM     66  C   UNL A   1      44.739  26.146  38.234  1.00  0.00     0.037 A 
BRANCH  53  67
ATOM     67  C   UNL A   1      40.876  29.624  34.881  1.00  0.00     0.058 A 
ATOM     68  C   UNL A   1      40.813  30.688  35.811  1.00  0.00     0.135 A 
ATOM     69  C   UNL A   1      39.794  29.596  33.972  1.00  0.00     0.135 A 
ATOM     70  F   UNL A   1      41.748  30.840  36.759  1.00  0.00    -0.206 F 
ATOM     71  C   UNL A   1      39.783  31.638  35.825  1.00  0.00     0.059 A 
ATOM     72  C   UNL A   1      38.773  30.554  33.944  1.00  0.00     0.059 A 
ATOM     73  F   UNL A   1      39.628  28.619  33.076  1.00  0.00    -0.206 F 
ATOM     74  C   UNL A   1      38.769  31.571  34.880  1.00  0.00     0.060 A 
BRANCH  74  75
ATOM     75  S   UNL A   1      37.460  32.808  34.890  1.00  0.00     0.124 S 
ATOM     76  O   UNL A   1      36.567  32.317  33.846  1.00  0.00    -0.237 OA
ATOM     77  O   UNL A   1      36.955  32.715  36.256  1.00  0.00    -0.237 OA
ATOM     78  O   UNL A   1      38.160  34.051  34.573  1.00  0.00    -0.744 OA
ENDBRANCH  74  75
ENDBRANCH  53  67
BRANCH  54  79
ATOM     79  C   UNL A   1      47.089  21.799  34.638  1.00  0.00     0.058 A 
ATOM     80  C   UNL A   1      48.235  22.612  34.459  1.00  0.00     0.135 A 
ATOM     81  C   UNL A   1      47.300  20.409  34.588  1.00  0.00     0.135 A 
ATOM     82  F   UNL A   1      48.113  23.951  34.491  1.00  0.00    -0.206 F 
ATOM     83  C   UNL A   1      49.531  22.088  34.433  1.00  0.00     0.059 A 
ATOM     84  C   UNL A   1      48.596  19.864  34.591  1.00  0.00     0.059 A 
ATOM     85  F   UNL A   1      46.267  19.568  34.753  1.00  0.00    -0.206 F 
ATOM     86  C   UNL A   1      49.707  20.713  34.566  1.00  0.00     0.060 A 
BRANCH  86  87
ATOM     87  S   UNL A   1      51.368  20.077  34.971  1.00  0.00     0.124 S 
ATOM     88  O   UNL A   1      51.068  18.752  35.496  1.00  0.00    -0.237 OA
ATOM     89  O   UNL A   1      52.053  20.095  33.679  1.00  0.00    -0.237 OA
ATOM     90  O   UNL A   1      51.863  21.057  35.930  1.00  0.00    -0.744 OA
ENDBRANCH  86  87
ENDBRANCH  54  79
BRANCH  66  91
ATOM     91  C   UNL A   1      45.142  27.092  39.346  1.00  0.00     0.058 A 
ATOM     92  C   UNL A   1      44.866  26.864  40.706  1.00  0.00     0.135 A 
ATOM     93  C   UNL A   1      45.993  28.199  39.089  1.00  0.00     0.135 A 
ATOM     94  F   UNL A   1      44.206  25.779  41.130  1.00  0.00    -0.206 F 
ATOM     95  C   UNL A   1      45.301  27.718  41.714  1.00  0.00     0.059 A 
ATOM     96  C   UNL A   1      46.511  29.012  40.089  1.00  0.00     0.059 A 
ATOM     97  F   UNL A   1      46.387  28.527  37.850  1.00  0.00    -0.206 F 
ATOM     98  C   UNL A   1      46.124  28.790  41.398  1.00  0.00     0.060 A 
BRANCH  98  99
ATOM     99  S   UNL A   1      46.695  29.860  42.719  1.00  0.00     0.124 S 
ATOM    100  O   UNL A   1      45.741  30.961  42.626  1.00  0.00    -0.237 OA
ATOM    101  O   UNL A   1      46.560  29.005  43.895  1.00  0.00    -0.237 OA
ATOM    102  O   UNL A   1      48.067  30.176  42.335  1.00  0.00    -0.744 OA
ENDBRANCH  98  99
ENDBRANCH  66  91
ENDBRANCH  40  41
ENDBRANCH  33  35
ENDBRANCH  32  33
ENDBRANCH  31  32
ENDBRANCH  30  31
ENDBRANCH  29  30
ENDBRANCH   1  29
TORSDOF 21
ENDMDL
