MODEL 1
REMARK VINA RESULT:     -11.0      0.000      0.000
REMARK SMILES Cc1cc(C(=O)OCCOCCOC(=O)c2ccc(-c3c4nc(c(-c5c(F)cc(S(=O)(=O)[O-])cc5F)c5ccc([nH]5)c(-c5c(F)cc(S(=O)(=O)[O-])cc5F)c5nc(c(-c6c(F)cc(S(=O)(=O)[O-])cc6F)c6ccc3[nH]6)C=C5)C=C4)cc2)nc(N2CCN(c3ccccc3Cl)CC2)n1
REMARK SMILES IDX 11 1 10 2 9 3 8 4 7 5 5 6 6 7 4 8 1 9 2 10 3 11 97 12 83 13
REMARK SMILES IDX 82 14 84 15 85 16 96 17 86 18 95 19 87 20 88 21 89 22 93 23
REMARK SMILES IDX 90 24 92 25 94 26 91 27 12 28 13 29 14 30 15 31 16 32 17 33
REMARK SMILES IDX 81 34 18 35 80 36 19 37 20 38 21 39 74 40 22 41 79 42 73 43
REMARK SMILES IDX 75 44 23 45 78 46 72 47 71 48 24 50 58 51 37 52 57 53 38 54
REMARK SMILES IDX 41 55 56 56 76 57 39 58 40 59 55 61 77 62 42 63 25 64 26 65
REMARK SMILES IDX 35 66 27 67 28 68 34 69 36 70 29 71 30 72 31 73 32 74 33 75
REMARK SMILES IDX 59 76 60 77 69 78 61 79 62 80 68 81 70 82 63 83 64 84 65 85
REMARK SMILES IDX 66 86 67 87 43 88 44 89 53 90 45 91 46 92 52 93 54 94 47 95
REMARK SMILES IDX 48 96 49 97 50 98 51 99
REMARK H PARENT 75 49 41 60
REMARK Flexibility Score: inf
ROOT
ATOM      1  C   UNL A   1      44.970  24.262  25.452  1.00  0.00     0.202 C 
ENDROOT
BRANCH   1   2
ATOM      2  O   UNL A   1      45.675  23.165  24.867  1.00  0.00    -0.374 OA
BRANCH   2   3
ATOM      3  C   UNL A   1      44.946  22.344  23.953  1.00  0.00     0.202 C 
BRANCH   3   4
ATOM      4  C   UNL A   1      44.967  20.841  24.247  1.00  0.00     0.261 C 
BRANCH   4   5
ATOM      5  O   UNL A   1      44.436  20.573  25.556  1.00  0.00    -0.459 OA
BRANCH   5   6
ATOM      6  C   UNL A   1      43.140  20.171  25.568  1.00  0.00     0.357 C 
ATOM      7  O   UNL A   1      42.699  19.122  25.120  1.00  0.00    -0.244 OA
BRANCH   6   8
ATOM      8  C   UNL A   1      42.329  21.130  26.359  1.00  0.00     0.154 A 
ATOM      9  C   UNL A   1      42.379  23.548  29.189  1.00  0.00     0.067 C 
ATOM     10  C   UNL A   1      41.959  22.711  28.017  1.00  0.00     0.044 A 
ATOM     11  C   UNL A   1      42.833  21.818  27.437  1.00  0.00     0.059 A 
ATOM     12  N   UNL A   1      40.710  22.918  27.538  1.00  0.00    -0.218 NA
ATOM     13  C   UNL A   1      40.298  22.161  26.513  1.00  0.00     0.226 A 
ATOM     14  N   UNL A   1      41.064  21.255  25.919  1.00  0.00    -0.206 NA
BRANCH  13  15
ATOM     15  N   UNL A   1      39.045  22.299  25.996  1.00  0.00    -0.337 N 
ATOM     16  C   UNL A   1      38.231  23.451  26.354  1.00  0.00     0.141 C 
ATOM     17  C   UNL A   1      38.338  21.065  25.654  1.00  0.00     0.141 C 
ATOM     18  C   UNL A   1      37.238  23.738  25.199  1.00  0.00     0.138 C 
ATOM     19  C   UNL A   1      37.296  21.334  24.546  1.00  0.00     0.138 C 
ATOM     20  N   UNL A   1      36.484  22.516  24.883  1.00  0.00    -0.367 N 
BRANCH  20  21
ATOM     21  C   UNL A   1      35.145  22.558  24.558  1.00  0.00     0.056 A 
ATOM     22  C   UNL A   1      34.735  22.964  23.279  1.00  0.00     0.027 A 
ATOM     23  C   UNL A   1      34.135  22.232  25.489  1.00  0.00     0.064 A 
ATOM     24  C   UNL A   1      33.382  23.045  22.936  1.00  0.00     0.002 A 
ATOM     25  C   UNL A   1      32.780  22.320  25.152  1.00  0.00     0.023 A 
ATOM     26  Cl  UNL A   1      34.513  21.783  27.122  1.00  0.00    -0.082 Cl
ATOM     27  C   UNL A   1      32.404  22.729  23.875  1.00  0.00     0.002 A 
ENDBRANCH  20  21
ENDBRANCH  13  15
ENDBRANCH   6   8
ENDBRANCH   5   6
ENDBRANCH   4   5
ENDBRANCH   3   4
ENDBRANCH   2   3
ENDBRANCH   1   2
BRANCH   1  28
ATOM     28  C   UNL A   1      43.503  24.416  25.035  1.00  0.00     0.261 C 
BRANCH  28  29
ATOM     29  O   UNL A   1      43.038  25.771  25.194  1.00  0.00    -0.460 OA
BRANCH  29  30
ATOM     30  C   UNL A   1      41.762  25.887  25.633  1.00  0.00     0.338 C 
ATOM     31  O   UNL A   1      40.765  25.373  25.144  1.00  0.00    -0.246 OA
BRANCH  30  32
ATOM     32  C   UNL A   1      41.735  26.592  26.928  1.00  0.00     0.060 A 
ATOM     33  C   UNL A   1      40.674  26.307  27.798  1.00  0.00     0.016 A 
ATOM     34  C   UNL A   1      42.690  27.553  27.269  1.00  0.00     0.016 A 
ATOM     35  C   UNL A   1      40.535  27.017  28.990  1.00  0.00     0.010 A 
ATOM     36  C   UNL A   1      42.545  28.271  28.462  1.00  0.00     0.010 A 
ATOM     37  C   UNL A   1      41.449  28.029  29.312  1.00  0.00    -0.014 A 
BRANCH  37  38
ATOM     38  C   UNL A   1      41.179  28.920  30.467  1.00  0.00     0.031 A 
ATOM     39  C   UNL A   1      42.039  28.801  31.699  1.00  0.00     0.074 A 
ATOM     40  C   UNL A   1      40.201  29.842  30.412  1.00  0.00     0.049 A 
ATOM     41  N   UNL A   1      41.958  29.449  32.830  1.00  0.00    -0.248 NA
ATOM     42  C   UNL A   1      43.134  27.819  31.643  1.00  0.00     0.031 C 
ATOM     43  C   UNL A   1      39.326  30.078  29.264  1.00  0.00     0.029 A 
ATOM     44  N   UNL A   1      39.776  30.749  31.350  1.00  0.00    -0.354 N 
ATOM     45  C   UNL A   1      42.986  28.955  33.625  1.00  0.00     0.074 A 
ATOM     46  C   UNL A   1      43.660  27.931  32.855  1.00  0.00     0.031 C 
ATOM     47  C   UNL A   1      38.458  31.058  29.571  1.00  0.00     0.029 A 
ATOM     48  C   UNL A   1      38.697  31.499  30.945  1.00  0.00     0.049 A 
ATOM     49  H   UNL A   1      40.204  30.855  32.231  1.00  0.00     0.167 HD
ATOM     50  C   UNL A   1      43.344  29.328  34.876  1.00  0.00     0.037 A 
ATOM     51  C   UNL A   1      37.972  32.417  31.613  1.00  0.00     0.037 A 
ATOM     52  C   UNL A   1      42.675  30.350  35.637  1.00  0.00     0.049 A 
ATOM     53  C   UNL A   1      38.352  32.772  33.028  1.00  0.00     0.074 A 
ATOM     54  C   UNL A   1      42.972  30.809  36.909  1.00  0.00     0.029 A 
ATOM     55  N   UNL A   1      41.573  31.071  35.200  1.00  0.00    -0.354 N 
ATOM     56  N   UNL A   1      39.338  32.309  33.758  1.00  0.00    -0.248 NA
ATOM     57  C   UNL A   1      37.521  33.775  33.710  1.00  0.00     0.031 C 
ATOM     58  C   UNL A   1      42.024  31.777  37.258  1.00  0.00     0.029 A 
ATOM     59  C   UNL A   1      41.165  31.955  36.185  1.00  0.00     0.049 A 
ATOM     60  H   UNL A   1      41.143  30.967  34.321  1.00  0.00     0.167 HD
ATOM     61  C   UNL A   1      39.262  32.984  34.973  1.00  0.00     0.074 A 
ATOM     62  C   UNL A   1      38.140  33.894  34.875  1.00  0.00     0.031 C 
ATOM     63  C   UNL A   1      40.051  32.862  36.069  1.00  0.00     0.037 A 
BRANCH  50  64
ATOM     64  C   UNL A   1      44.504  28.615  35.513  1.00  0.00     0.058 A 
ATOM     65  C   UNL A   1      45.819  29.088  35.384  1.00  0.00     0.135 A 
ATOM     66  C   UNL A   1      44.293  27.472  36.299  1.00  0.00     0.135 A 
ATOM     67  F   UNL A   1      46.079  30.167  34.628  1.00  0.00    -0.206 F 
ATOM     68  C   UNL A   1      46.888  28.444  35.999  1.00  0.00     0.059 A 
ATOM     69  C   UNL A   1      45.343  26.825  36.944  1.00  0.00     0.059 A 
ATOM     70  F   UNL A   1      43.055  26.976  36.452  1.00  0.00    -0.206 F 
ATOM     71  C   UNL A   1      46.639  27.313  36.779  1.00  0.00     0.060 A 
BRANCH  71  72
ATOM     72  S   UNL A   1      48.032  26.497  37.586  1.00  0.00     0.124 S 
ATOM     73  O   UNL A   1      48.657  27.615  38.287  1.00  0.00    -0.237 OA
ATOM     74  O   UNL A   1      47.370  25.510  38.432  1.00  0.00    -0.237 OA
ATOM     75  O   UNL A   1      48.799  25.949  36.471  1.00  0.00    -0.744 OA
ENDBRANCH  71  72
ENDBRANCH  50  64
BRANCH  51  76
ATOM     76  C   UNL A   1      36.798  33.059  30.963  1.00  0.00     0.058 A 
ATOM     77  C   UNL A   1      36.961  34.042  29.976  1.00  0.00     0.135 A 
ATOM     78  C   UNL A   1      35.489  32.710  31.329  1.00  0.00     0.135 A 
ATOM     79  F   UNL A   1      38.193  34.418  29.601  1.00  0.00    -0.206 F 
ATOM     80  C   UNL A   1      35.868  34.672  29.388  1.00  0.00     0.059 A 
ATOM     81  C   UNL A   1      34.381  33.307  30.738  1.00  0.00     0.059 A 
ATOM     82  F   UNL A   1      35.279  31.766  32.260  1.00  0.00    -0.206 F 
ATOM     83  C   UNL A   1      34.580  34.297  29.778  1.00  0.00     0.060 A 
BRANCH  83  84
ATOM     84  S   UNL A   1      33.166  35.093  28.984  1.00  0.00     0.124 S 
ATOM     85  O   UNL A   1      33.800  36.228  28.326  1.00  0.00    -0.237 OA
ATOM     86  O   UNL A   1      32.673  34.037  28.106  1.00  0.00    -0.237 OA
ATOM     87  O   UNL A   1      32.293  35.419  30.109  1.00  0.00    -0.744 OA
ENDBRANCH  83  84
ENDBRANCH  51  76
BRANCH  63  88
ATOM     88  C   UNL A   1      39.754  33.757  37.242  1.00  0.00     0.058 A 
ATOM     89  C   UNL A   1      38.921  33.345  38.293  1.00  0.00     0.135 A 
ATOM     90  C   UNL A   1      40.357  35.023  37.340  1.00  0.00     0.135 A 
ATOM     91  F   UNL A   1      38.317  32.148  38.246  1.00  0.00    -0.206 F 
ATOM     92  C   UNL A   1      38.677  34.166  39.390  1.00  0.00     0.059 A 
ATOM     93  C   UNL A   1      40.147  35.849  38.440  1.00  0.00     0.059 A 
ATOM     94  F   UNL A   1      41.172  35.460  36.367  1.00  0.00    -0.206 F 
ATOM     95  C   UNL A   1      39.295  35.416  39.455  1.00  0.00     0.060 A 
BRANCH  95  96
ATOM     96  S   UNL A   1      38.997  36.457  40.899  1.00  0.00     0.124 S 
ATOM     97  O   UNL A   1      38.580  37.709  40.277  1.00  0.00    -0.237 OA
ATOM     98  O   UNL A   1      37.953  35.721  41.606  1.00  0.00    -0.237 OA
ATOM     99  O   UNL A   1      40.294  36.489  41.568  1.00  0.00    -0.744 OA
ENDBRANCH  95  96
ENDBRANCH  63  88
ENDBRANCH  37  38
ENDBRANCH  30  32
ENDBRANCH  29  30
ENDBRANCH  28  29
ENDBRANCH   1  28
TORSDOF 19
ENDMDL
MODEL 2
REMARK VINA RESULT:     -10.9      6.132     13.037
REMARK SMILES Cc1cc(C(=O)OCCOCCOC(=O)c2ccc(-c3c4nc(c(-c5c(F)cc(S(=O)(=O)[O-])cc5F)c5ccc([nH]5)c(-c5c(F)cc(S(=O)(=O)[O-])cc5F)c5nc(c(-c6c(F)cc(S(=O)(=O)[O-])cc6F)c6ccc3[nH]6)C=C5)C=C4)cc2)nc(N2CCN(c3ccccc3Cl)CC2)n1
REMARK SMILES IDX 11 1 10 2 9 3 8 4 7 5 5 6 6 7 4 8 1 9 2 10 3 11 97 12 83 13
REMARK SMILES IDX 82 14 84 15 85 16 96 17 86 18 95 19 87 20 88 21 89 22 93 23
REMARK SMILES IDX 90 24 92 25 94 26 91 27 12 28 13 29 14 30 15 31 16 32 17 33
REMARK SMILES IDX 81 34 18 35 80 36 19 37 20 38 21 39 74 40 22 41 79 42 73 43
REMARK SMILES IDX 75 44 23 45 78 46 72 47 71 48 24 50 58 51 37 52 57 53 38 54
REMARK SMILES IDX 41 55 56 56 76 57 39 58 40 59 55 61 77 62 42 63 25 64 26 65
REMARK SMILES IDX 35 66 27 67 28 68 34 69 36 70 29 71 30 72 31 73 32 74 33 75
REMARK SMILES IDX 59 76 60 77 69 78 61 79 62 80 68 81 70 82 63 83 64 84 65 85
REMARK SMILES IDX 66 86 67 87 43 88 44 89 53 90 45 91 46 92 52 93 54 94 47 95
REMARK SMILES IDX 48 96 49 97 50 98 51 99
REMARK H PARENT 75 49 41 60
REMARK Flexibility Score: inf
ROOT
ATOM      1  C   UNL A   1      34.522  32.702  32.114  1.00  0.00     0.202 C 
ENDROOT
BRANCH   1   2
ATOM      2  O   UNL A   1      33.664  33.628  32.786  1.00  0.00    -0.374 OA
BRANCH   2   3
ATOM      3  C   UNL A   1      34.045  35.005  32.748  1.00  0.00     0.202 C 
BRANCH   3   4
ATOM      4  C   UNL A   1      33.376  35.851  31.662  1.00  0.00     0.261 C 
BRANCH   4   5
ATOM      5  O   UNL A   1      32.676  35.013  30.726  1.00  0.00    -0.459 OA
BRANCH   5   6
ATOM      6  C   UNL A   1      32.927  35.292  29.422  1.00  0.00     0.357 C 
ATOM      7  O   UNL A   1      32.523  36.260  28.794  1.00  0.00    -0.244 OA
BRANCH   6   8
ATOM      8  C   UNL A   1      33.914  34.320  28.887  1.00  0.00     0.154 A 
ATOM      9  C   UNL A   1      37.530  33.460  28.673  1.00  0.00     0.067 C 
ATOM     10  C   UNL A   1      36.036  33.443  28.545  1.00  0.00     0.044 A 
ATOM     11  C   UNL A   1      35.270  34.470  29.054  1.00  0.00     0.059 A 
ATOM     12  N   UNL A   1      35.488  32.355  27.955  1.00  0.00    -0.218 NA
ATOM     13  C   UNL A   1      34.158  32.329  27.797  1.00  0.00     0.226 A 
ATOM     14  N   UNL A   1      33.352  33.291  28.228  1.00  0.00    -0.206 NA
BRANCH  13  15
ATOM     15  N   UNL A   1      33.542  31.276  27.192  1.00  0.00    -0.337 N 
ATOM     16  C   UNL A   1      32.104  31.303  26.967  1.00  0.00     0.141 C 
ATOM     17  C   UNL A   1      34.164  29.964  27.367  1.00  0.00     0.141 C 
ATOM     18  C   UNL A   1      31.774  30.416  25.740  1.00  0.00     0.138 C 
ATOM     19  C   UNL A   1      33.801  29.036  26.185  1.00  0.00     0.138 C 
ATOM     20  N   UNL A   1      32.350  29.077  25.930  1.00  0.00    -0.367 N 
BRANCH  20  21
ATOM     21  C   UNL A   1      31.680  27.939  25.533  1.00  0.00     0.056 A 
ATOM     22  C   UNL A   1      31.114  27.078  26.484  1.00  0.00     0.027 A 
ATOM     23  C   UNL A   1      31.562  27.574  24.175  1.00  0.00     0.064 A 
ATOM     24  C   UNL A   1      30.458  25.902  26.106  1.00  0.00     0.002 A 
ATOM     25  C   UNL A   1      30.914  26.394  23.794  1.00  0.00     0.023 A 
ATOM     26  Cl  UNL A   1      32.281  28.521  22.911  1.00  0.00    -0.082 Cl
ATOM     27  C   UNL A   1      30.364  25.557  24.761  1.00  0.00     0.002 A 
ENDBRANCH  20  21
ENDBRANCH  13  15
ENDBRANCH   6   8
ENDBRANCH   5   6
ENDBRANCH   4   5
ENDBRANCH   3   4
ENDBRANCH   2   3
ENDBRANCH   1   2
BRANCH   1  28
ATOM     28  C   UNL A   1      36.026  32.906  32.329  1.00  0.00     0.261 C 
BRANCH  28  29
ATOM     29  O   UNL A   1      36.807  31.917  31.631  1.00  0.00    -0.460 OA
BRANCH  29  30
ATOM     30  C   UNL A   1      37.606  31.160  32.421  1.00  0.00     0.338 C 
ATOM     31  O   UNL A   1      37.403  30.843  33.586  1.00  0.00    -0.246 OA
BRANCH  30  32
ATOM     32  C   UNL A   1      38.710  30.590  31.626  1.00  0.00     0.060 A 
ATOM     33  C   UNL A   1      39.766  29.989  32.323  1.00  0.00     0.016 A 
ATOM     34  C   UNL A   1      38.747  30.688  30.233  1.00  0.00     0.016 A 
ATOM     35  C   UNL A   1      40.886  29.526  31.634  1.00  0.00     0.010 A 
ATOM     36  C   UNL A   1      39.877  30.231  29.543  1.00  0.00     0.010 A 
ATOM     37  C   UNL A   1      40.965  29.678  30.244  1.00  0.00    -0.014 A 
BRANCH  37  38
ATOM     38  C   UNL A   1      42.241  29.382  29.545  1.00  0.00     0.031 A 
ATOM     39  C   UNL A   1      42.451  28.010  28.959  1.00  0.00     0.074 A 
ATOM     40  C   UNL A   1      43.187  30.329  29.408  1.00  0.00     0.049 A 
ATOM     41  N   UNL A   1      43.497  27.525  28.343  1.00  0.00    -0.248 NA
ATOM     42  C   UNL A   1      41.333  27.062  29.088  1.00  0.00     0.031 C 
ATOM     43  C   UNL A   1      43.085  31.702  29.900  1.00  0.00     0.029 A 
ATOM     44  N   UNL A   1      44.425  30.273  28.818  1.00  0.00    -0.354 N 
ATOM     45  C   UNL A   1      43.167  26.216  28.011  1.00  0.00     0.074 A 
ATOM     46  C   UNL A   1      41.835  25.972  28.522  1.00  0.00     0.031 C 
ATOM     47  C   UNL A   1      44.221  32.357  29.603  1.00  0.00     0.029 A 
ATOM     48  C   UNL A   1      45.140  31.442  28.926  1.00  0.00     0.049 A 
ATOM     49  H   UNL A   1      44.769  29.472  28.361  1.00  0.00     0.167 HD
ATOM     50  C   UNL A   1      43.903  25.303  27.333  1.00  0.00     0.037 A 
ATOM     51  C   UNL A   1      46.399  31.734  28.542  1.00  0.00     0.037 A 
ATOM     52  C   UNL A   1      45.226  25.549  26.823  1.00  0.00     0.049 A 
ATOM     53  C   UNL A   1      47.221  30.681  27.844  1.00  0.00     0.074 A 
ATOM     54  C   UNL A   1      46.046  24.691  26.111  1.00  0.00     0.029 A 
ATOM     55  N   UNL A   1      45.924  26.739  26.971  1.00  0.00    -0.354 N 
ATOM     56  N   UNL A   1      46.889  29.454  27.523  1.00  0.00    -0.248 NA
ATOM     57  C   UNL A   1      48.590  31.053  27.456  1.00  0.00     0.031 C 
ATOM     58  C   UNL A   1      47.257  25.347  25.865  1.00  0.00     0.029 A 
ATOM     59  C   UNL A   1      47.173  26.630  26.383  1.00  0.00     0.049 A 
ATOM     60  H   UNL A   1      45.583  27.541  27.428  1.00  0.00     0.167 HD
ATOM     61  C   UNL A   1      47.996  28.918  26.871  1.00  0.00     0.074 A 
ATOM     62  C   UNL A   1      49.003  29.957  26.835  1.00  0.00     0.031 C 
ATOM     63  C   UNL A   1      48.162  27.678  26.347  1.00  0.00     0.037 A 
BRANCH  50  64
ATOM     64  C   UNL A   1      43.301  23.942  27.118  1.00  0.00     0.058 A 
ATOM     65  C   UNL A   1      43.294  22.972  28.132  1.00  0.00     0.135 A 
ATOM     66  C   UNL A   1      42.684  23.621  25.899  1.00  0.00     0.135 A 
ATOM     67  F   UNL A   1      43.886  23.221  29.310  1.00  0.00    -0.206 F 
ATOM     68  C   UNL A   1      42.709  21.724  27.939  1.00  0.00     0.059 A 
ATOM     69  C   UNL A   1      42.072  22.389  25.692  1.00  0.00     0.059 A 
ATOM     70  F   UNL A   1      42.667  24.512  24.894  1.00  0.00    -0.206 F 
ATOM     71  C   UNL A   1      42.099  21.442  26.715  1.00  0.00     0.060 A 
BRANCH  71  72
ATOM     72  S   UNL A   1      41.330  19.826  26.486  1.00  0.00     0.124 S 
ATOM     73  O   UNL A   1      39.961  20.202  26.143  1.00  0.00    -0.237 OA
ATOM     74  O   UNL A   1      42.120  19.254  25.400  1.00  0.00    -0.237 OA
ATOM     75  O   UNL A   1      41.496  19.182  27.785  1.00  0.00    -0.744 OA
ENDBRANCH  71  72
ENDBRANCH  50  64
BRANCH  51  76
ATOM     76  C   UNL A   1      46.973  33.077  28.825  1.00  0.00     0.058 A 
ATOM     77  C   UNL A   1      47.606  33.355  30.045  1.00  0.00     0.135 A 
ATOM     78  C   UNL A   1      46.885  34.113  27.881  1.00  0.00     0.135 A 
ATOM     79  F   UNL A   1      47.704  32.401  30.982  1.00  0.00    -0.206 F 
ATOM     80  C   UNL A   1      48.114  34.619  30.330  1.00  0.00     0.059 A 
ATOM     81  C   UNL A   1      47.407  35.377  28.134  1.00  0.00     0.059 A 
ATOM     82  F   UNL A   1      46.299  33.895  26.694  1.00  0.00    -0.206 F 
ATOM     83  C   UNL A   1      48.008  35.625  29.367  1.00  0.00     0.060 A 
BRANCH  83  84
ATOM     84  S   UNL A   1      48.703  37.252  29.729  1.00  0.00     0.124 S 
ATOM     85  O   UNL A   1      49.679  37.398  28.657  1.00  0.00    -0.237 OA
ATOM     86  O   UNL A   1      47.527  38.113  29.645  1.00  0.00    -0.237 OA
ATOM     87  O   UNL A   1      49.254  37.088  31.071  1.00  0.00    -0.744 OA
ENDBRANCH  83  84
ENDBRANCH  51  76
BRANCH  63  88
ATOM     88  C   UNL A   1      49.467  27.384  25.659  1.00  0.00     0.058 A 
ATOM     89  C   UNL A   1      50.605  26.980  26.375  1.00  0.00     0.135 A 
ATOM     90  C   UNL A   1      49.564  27.453  24.259  1.00  0.00     0.135 A 
ATOM     91  F   UNL A   1      50.568  26.903  27.714  1.00  0.00    -0.206 F 
ATOM     92  C   UNL A   1      51.800  26.678  25.729  1.00  0.00     0.059 A 
ATOM     93  C   UNL A   1      50.741  27.131  23.591  1.00  0.00     0.059 A 
ATOM     94  F   UNL A   1      48.501  27.823  23.526  1.00  0.00    -0.206 F 
ATOM     95  C   UNL A   1      51.858  26.756  24.336  1.00  0.00     0.060 A 
BRANCH  95  96
ATOM     96  S   UNL A   1      53.404  26.329  23.507  1.00  0.00     0.124 S 
ATOM     97  O   UNL A   1      53.827  25.155  24.263  1.00  0.00    -0.237 OA
ATOM     98  O   UNL A   1      52.966  26.077  22.137  1.00  0.00    -0.237 OA
ATOM     99  O   UNL A   1      54.226  27.521  23.686  1.00  0.00    -0.744 OA
ENDBRANCH  95  96
ENDBRANCH  63  88
ENDBRANCH  37  38
ENDBRANCH  30  32
ENDBRANCH  29  30
ENDBRANCH  28  29
ENDBRANCH   1  28
TORSDOF 19
ENDMDL
MODEL 3
REMARK VINA RESULT:     -10.8      4.517     12.109
REMARK SMILES Cc1cc(C(=O)OCCOCCOC(=O)c2ccc(-c3c4nc(c(-c5c(F)cc(S(=O)(=O)[O-])cc5F)c5ccc([nH]5)c(-c5c(F)cc(S(=O)(=O)[O-])cc5F)c5nc(c(-c6c(F)cc(S(=O)(=O)[O-])cc6F)c6ccc3[nH]6)C=C5)C=C4)cc2)nc(N2CCN(c3ccccc3Cl)CC2)n1
REMARK SMILES IDX 11 1 10 2 9 3 8 4 7 5 5 6 6 7 4 8 1 9 2 10 3 11 97 12 83 13
REMARK SMILES IDX 82 14 84 15 85 16 96 17 86 18 95 19 87 20 88 21 89 22 93 23
REMARK SMILES IDX 90 24 92 25 94 26 91 27 12 28 13 29 14 30 15 31 16 32 17 33
REMARK SMILES IDX 81 34 18 35 80 36 19 37 20 38 21 39 74 40 22 41 79 42 73 43
REMARK SMILES IDX 75 44 23 45 78 46 72 47 71 48 24 50 58 51 37 52 57 53 38 54
REMARK SMILES IDX 41 55 56 56 76 57 39 58 40 59 55 61 77 62 42 63 25 64 26 65
REMARK SMILES IDX 35 66 27 67 28 68 34 69 36 70 29 71 30 72 31 73 32 74 33 75
REMARK SMILES IDX 59 76 60 77 69 78 61 79 62 80 68 81 70 82 63 83 64 84 65 85
REMARK SMILES IDX 66 86 67 87 43 88 44 89 53 90 45 91 46 92 52 93 54 94 47 95
REMARK SMILES IDX 48 96 49 97 50 98 51 99
REMARK H PARENT 75 49 41 60
REMARK Flexibility Score: inf
ROOT
ATOM      1  C   UNL A   1      35.009  34.007  30.006  1.00  0.00     0.202 C 
ENDROOT
BRANCH   1   2
ATOM      2  O   UNL A   1      34.628  33.549  31.306  1.00  0.00    -0.374 OA
BRANCH   2   3
ATOM      3  C   UNL A   1      35.451  33.958  32.400  1.00  0.00     0.202 C 
BRANCH   3   4
ATOM      4  C   UNL A   1      35.426  33.045  33.629  1.00  0.00     0.261 C 
BRANCH   4   5
ATOM      5  O   UNL A   1      36.739  32.928  34.202  1.00  0.00    -0.459 OA
BRANCH   5   6
ATOM      6  C   UNL A   1      37.376  31.764  33.921  1.00  0.00     0.357 C 
ATOM      7  O   UNL A   1      37.114  30.992  33.009  1.00  0.00    -0.244 OA
BRANCH   6   8
ATOM      8  C   UNL A   1      38.568  31.624  34.796  1.00  0.00     0.154 A 
ATOM      9  C   UNL A   1      40.348  33.011  37.757  1.00  0.00     0.067 C 
ATOM     10  C   UNL A   1      39.948  32.173  36.579  1.00  0.00     0.044 A 
ATOM     11  C   UNL A   1      38.832  32.486  35.834  1.00  0.00     0.059 A 
ATOM     12  N   UNL A   1      40.705  31.079  36.326  1.00  0.00    -0.218 NA
ATOM     13  C   UNL A   1      40.391  30.331  35.260  1.00  0.00     0.226 A 
ATOM     14  N   UNL A   1      39.353  30.582  34.471  1.00  0.00    -0.206 NA
BRANCH  13  15
ATOM     15  N   UNL A   1      41.123  29.230  34.933  1.00  0.00    -0.337 N 
ATOM     16  C   UNL A   1      40.905  28.562  33.659  1.00  0.00     0.141 C 
ATOM     17  C   UNL A   1      41.601  28.407  36.043  1.00  0.00     0.141 C 
ATOM     18  C   UNL A   1      42.216  27.851  33.237  1.00  0.00     0.138 C 
ATOM     19  C   UNL A   1      42.876  27.638  35.631  1.00  0.00     0.138 C 
ATOM     20  N   UNL A   1      42.676  26.979  34.328  1.00  0.00    -0.367 N 
BRANCH  20  21
ATOM     21  C   UNL A   1      43.237  25.745  34.078  1.00  0.00     0.056 A 
ATOM     22  C   UNL A   1      44.261  25.607  33.129  1.00  0.00     0.027 A 
ATOM     23  C   UNL A   1      42.794  24.573  34.728  1.00  0.00     0.064 A 
ATOM     24  C   UNL A   1      44.822  24.360  32.835  1.00  0.00     0.002 A 
ATOM     25  C   UNL A   1      43.347  23.323  34.430  1.00  0.00     0.023 A 
ATOM     26  Cl  UNL A   1      41.487  24.604  35.869  1.00  0.00    -0.082 Cl
ATOM     27  C   UNL A   1      44.361  23.218  33.482  1.00  0.00     0.002 A 
ENDBRANCH  20  21
ENDBRANCH  13  15
ENDBRANCH   6   8
ENDBRANCH   5   6
ENDBRANCH   4   5
ENDBRANCH   3   4
ENDBRANCH   2   3
ENDBRANCH   1   2
BRANCH   1  28
ATOM     28  C   UNL A   1      34.532  33.152  28.827  1.00  0.00     0.261 C 
BRANCH  28  29
ATOM     29  O   UNL A   1      34.414  31.761  29.184  1.00  0.00    -0.460 OA
BRANCH  29  30
ATOM     30  C   UNL A   1      34.624  30.892  28.167  1.00  0.00     0.338 C 
ATOM     31  O   UNL A   1      33.928  30.742  27.171  1.00  0.00    -0.246 OA
BRANCH  30  32
ATOM     32  C   UNL A   1      35.940  30.244  28.318  1.00  0.00     0.060 A 
ATOM     33  C   UNL A   1      36.274  29.746  29.585  1.00  0.00     0.016 A 
ATOM     34  C   UNL A   1      36.856  30.171  27.266  1.00  0.00     0.016 A 
ATOM     35  C   UNL A   1      37.543  29.218  29.817  1.00  0.00     0.010 A 
ATOM     36  C   UNL A   1      38.133  29.649  27.503  1.00  0.00     0.010 A 
ATOM     37  C   UNL A   1      38.493  29.200  28.788  1.00  0.00    -0.014 A 
BRANCH  37  38
ATOM     38  C   UNL A   1      39.899  28.837  29.093  1.00  0.00     0.031 A 
ATOM     39  C   UNL A   1      40.782  29.847  29.779  1.00  0.00     0.074 A 
ATOM     40  C   UNL A   1      40.377  27.617  28.790  1.00  0.00     0.049 A 
ATOM     41  N   UNL A   1      42.044  29.757  30.106  1.00  0.00    -0.248 NA
ATOM     42  C   UNL A   1      40.154  31.128  30.143  1.00  0.00     0.031 C 
ATOM     43  C   UNL A   1      39.613  26.543  28.158  1.00  0.00     0.029 A 
ATOM     44  N   UNL A   1      41.627  27.079  28.969  1.00  0.00    -0.354 N 
ATOM     45  C   UNL A   1      42.365  30.967  30.712  1.00  0.00     0.074 A 
ATOM     46  C   UNL A   1      41.173  31.787  30.679  1.00  0.00     0.031 C 
ATOM     47  C   UNL A   1      40.414  25.477  27.990  1.00  0.00     0.029 A 
ATOM     48  C   UNL A   1      41.755  25.802  28.476  1.00  0.00     0.049 A 
ATOM     49  H   UNL A   1      42.364  27.561  29.410  1.00  0.00     0.167 HD
ATOM     50  C   UNL A   1      43.544  31.355  31.255  1.00  0.00     0.037 A 
ATOM     51  C   UNL A   1      42.834  24.998  28.404  1.00  0.00     0.037 A 
ATOM     52  C   UNL A   1      44.727  30.536  31.289  1.00  0.00     0.049 A 
ATOM     53  C   UNL A   1      44.151  25.477  28.959  1.00  0.00     0.074 A 
ATOM     54  C   UNL A   1      45.965  30.837  31.830  1.00  0.00     0.029 A 
ATOM     55  N   UNL A   1      44.821  29.258  30.759  1.00  0.00    -0.354 N 
ATOM     56  N   UNL A   1      44.434  26.615  29.544  1.00  0.00    -0.248 NA
ATOM     57  C   UNL A   1      45.294  24.560  28.846  1.00  0.00     0.031 C 
ATOM     58  C   UNL A   1      46.821  29.756  31.589  1.00  0.00     0.029 A 
ATOM     59  C   UNL A   1      46.103  28.764  30.941  1.00  0.00     0.049 A 
ATOM     60  H   UNL A   1      44.087  28.773  30.318  1.00  0.00     0.167 HD
ATOM     61  C   UNL A   1      45.780  26.540  29.893  1.00  0.00     0.074 A 
ATOM     62  C   UNL A   1      46.250  25.240  29.463  1.00  0.00     0.031 C 
ATOM     63  C   UNL A   1      46.554  27.464  30.515  1.00  0.00     0.037 A 
BRANCH  50  64
ATOM     64  C   UNL A   1      43.620  32.736  31.843  1.00  0.00     0.058 A 
ATOM     65  C   UNL A   1      43.903  33.859  31.050  1.00  0.00     0.135 A 
ATOM     66  C   UNL A   1      43.361  32.945  33.206  1.00  0.00     0.135 A 
ATOM     67  F   UNL A   1      44.177  33.713  29.744  1.00  0.00    -0.206 F 
ATOM     68  C   UNL A   1      43.943  35.140  31.592  1.00  0.00     0.059 A 
ATOM     69  C   UNL A   1      43.372  34.220  33.766  1.00  0.00     0.059 A 
ATOM     70  F   UNL A   1      43.088  31.905  34.010  1.00  0.00    -0.206 F 
ATOM     71  C   UNL A   1      43.674  35.311  32.951  1.00  0.00     0.060 A 
BRANCH  71  72
ATOM     72  S   UNL A   1      43.713  36.980  33.636  1.00  0.00     0.124 S 
ATOM     73  O   UNL A   1      44.973  36.962  34.373  1.00  0.00    -0.237 OA
ATOM     74  O   UNL A   1      43.692  37.811  32.437  1.00  0.00    -0.237 OA
ATOM     75  O   UNL A   1      42.508  37.039  34.458  1.00  0.00    -0.744 OA
ENDBRANCH  71  72
ENDBRANCH  50  64
BRANCH  51  76
ATOM     76  C   UNL A   1      42.725  23.659  27.764  1.00  0.00     0.058 A 
ATOM     77  C   UNL A   1      42.488  22.506  28.526  1.00  0.00     0.135 A 
ATOM     78  C   UNL A   1      42.874  23.508  26.376  1.00  0.00     0.135 A 
ATOM     79  F   UNL A   1      42.350  22.599  29.856  1.00  0.00    -0.206 F 
ATOM     80  C   UNL A   1      42.420  21.246  27.938  1.00  0.00     0.059 A 
ATOM     81  C   UNL A   1      42.786  22.262  25.763  1.00  0.00     0.059 A 
ATOM     82  F   UNL A   1      43.092  24.581  25.601  1.00  0.00    -0.206 F 
ATOM     83  C   UNL A   1      42.572  21.135  26.555  1.00  0.00     0.060 A 
BRANCH  83  84
ATOM     84  S   UNL A   1      42.447  19.501  25.795  1.00  0.00     0.124 S 
ATOM     85  O   UNL A   1      41.036  19.455  25.433  1.00  0.00    -0.237 OA
ATOM     86  O   UNL A   1      43.389  19.606  24.685  1.00  0.00    -0.237 OA
ATOM     87  O   UNL A   1      42.855  18.602  26.870  1.00  0.00    -0.744 OA
ENDBRANCH  83  84
ENDBRANCH  51  76
BRANCH  63  88
ATOM     88  C   UNL A   1      47.984  27.091  30.801  1.00  0.00     0.058 A 
ATOM     89  C   UNL A   1      49.004  27.301  29.860  1.00  0.00     0.135 A 
ATOM     90  C   UNL A   1      48.345  26.570  32.055  1.00  0.00     0.135 A 
ATOM     91  F   UNL A   1      48.711  27.792  28.645  1.00  0.00    -0.206 F 
ATOM     92  C   UNL A   1      50.328  26.985  30.143  1.00  0.00     0.059 A 
ATOM     93  C   UNL A   1      49.667  26.271  32.368  1.00  0.00     0.059 A 
ATOM     94  F   UNL A   1      47.409  26.361  32.994  1.00  0.00    -0.206 F 
ATOM     95  C   UNL A   1      50.651  26.471  31.401  1.00  0.00     0.060 A 
BRANCH  95  96
ATOM     96  S   UNL A   1      52.378  26.097  31.768  1.00  0.00     0.124 S 
ATOM     97  O   UNL A   1      53.003  26.283  30.462  1.00  0.00    -0.237 OA
ATOM     98  O   UNL A   1      52.708  27.098  32.777  1.00  0.00    -0.237 OA
ATOM     99  O   UNL A   1      52.333  24.721  32.252  1.00  0.00    -0.744 OA
ENDBRANCH  95  96
ENDBRANCH  63  88
ENDBRANCH  37  38
ENDBRANCH  30  32
ENDBRANCH  29  30
ENDBRANCH  28  29
ENDBRANCH   1  28
TORSDOF 19
ENDMDL
