MODEL 1
REMARK VINA RESULT:      -9.6      0.000      0.000
REMARK SMILES CC[NH+](CC)CC[N@H+]1CC[C@@H](C(=O)OCCOCCOC(=O)c2ccc(-c3c4nc(c(-c5c(F)cc(S(=O)(=O)[O-])cc5F)c5ccc([nH]5)c(-c5c(F)cc(S(=O)(=O)[O-])cc5F)c5nc(c(-c6c(F)cc(S(=O)(=O)[O-])cc6F)c6ccc3[nH]6)C=C5)C=C4)cc2)[C@@H]1C
REMARK SMILES IDX 16 1 15 2 14 3 12 4 13 5 11 6 8 7 9 8 89 9 10 11 90 12 7 13
REMARK SMILES IDX 6 14 3 15 2 17 1 18 4 19 5 20 17 21 18 22 19 23 20 24 21 25
REMARK SMILES IDX 22 26 23 27 24 28 88 29 25 30 87 31 26 32 27 33 28 34 81 35
REMARK SMILES IDX 29 36 86 37 80 38 82 39 30 40 85 41 79 42 78 43 31 45 65 46
REMARK SMILES IDX 44 47 64 48 45 49 48 50 63 51 83 52 46 53 47 54 62 56 84 57
REMARK SMILES IDX 49 58 32 59 33 60 42 61 34 62 35 63 41 64 43 65 36 66 37 67
REMARK SMILES IDX 38 68 39 69 40 70 66 71 67 72 76 73 68 74 69 75 75 76 77 77
REMARK SMILES IDX 70 78 71 79 72 80 73 81 74 82 50 83 51 84 60 85 52 86 53 87
REMARK SMILES IDX 59 88 61 89 54 90 55 91 56 92 57 93 58 94
REMARK H PARENT 8 10 3 16 82 44 48 55
REMARK Flexibility Score: inf
ROOT
ATOM      1  C   UNL A   1      31.375  27.171  26.396  1.00  0.00     0.202 C 
ENDROOT
BRANCH   1   2
ATOM      2  C   UNL A   1      30.634  25.892  25.985  1.00  0.00     0.261 C 
BRANCH   2   3
ATOM      3  O   UNL A   1      30.894  24.787  26.869  1.00  0.00    -0.463 OA
BRANCH   3   4
ATOM      4  C   UNL A   1      31.076  23.599  26.241  1.00  0.00     0.315 C 
ATOM      5  O   UNL A   1      30.332  22.628  26.361  1.00  0.00    -0.252 OA
BRANCH   4   6
ATOM      6  C   UNL A   1      32.194  23.610  25.217  1.00  0.00     0.162 C 
ATOM      7  N   UNL A   1      33.895  21.964  24.702  1.00  0.00    -0.327 N 
ATOM      8  C   UNL A   1      33.110  22.238  23.508  1.00  0.00     0.263 C 
ATOM      9  C   UNL A   1      33.591  23.106  25.610  1.00  0.00     0.195 C 
ATOM     10  H   UNL A   1      34.894  21.913  24.505  1.00  0.00     0.348 HD
ATOM     11  C   UNL A   1      31.795  22.698  24.078  1.00  0.00     0.083 C 
ATOM     12  C   UNL A   1      34.625  24.213  25.292  1.00  0.00     0.076 C 
BRANCH   7  13
ATOM     13  C   UNL A   1      33.664  20.615  25.280  1.00  0.00     0.324 C 
BRANCH  13  14
ATOM     14  C   UNL A   1      34.300  19.241  24.794  1.00  0.00     0.324 C 
BRANCH  14  15
ATOM     15  N   UNL A   1      33.580  17.991  24.510  1.00  0.00    -0.331 N 
ATOM     16  H   UNL A   1      34.405  17.615  24.977  1.00  0.00     0.348 HD
BRANCH  15  17
ATOM     17  C   UNL A   1      32.674  17.327  25.444  1.00  0.00     0.258 C 
ATOM     18  C   UNL A   1      32.663  15.796  25.518  1.00  0.00     0.071 C 
ENDBRANCH  15  17
BRANCH  15  19
ATOM     19  C   UNL A   1      33.469  17.551  23.123  1.00  0.00     0.258 C 
ATOM     20  C   UNL A   1      32.271  18.055  22.335  1.00  0.00     0.071 C 
ENDBRANCH  15  19
ENDBRANCH  14  15
ENDBRANCH  13  14
ENDBRANCH   7  13
ENDBRANCH   4   6
ENDBRANCH   3   4
ENDBRANCH   2   3
ENDBRANCH   1   2
BRANCH   1  21
ATOM     21  O   UNL A   1      31.455  28.243  25.463  1.00  0.00    -0.374 OA
BRANCH  21  22
ATOM     22  C   UNL A   1      31.704  29.563  25.936  1.00  0.00     0.202 C 
BRANCH  22  23
ATOM     23  C   UNL A   1      33.145  30.018  26.198  1.00  0.00     0.261 C 
BRANCH  23  24
ATOM     24  O   UNL A   1      33.404  30.357  27.572  1.00  0.00    -0.460 OA
BRANCH  24  25
ATOM     25  C   UNL A   1      34.478  31.170  27.742  1.00  0.00     0.338 C 
ATOM     26  O   UNL A   1      34.474  32.388  27.793  1.00  0.00    -0.246 OA
BRANCH  25  27
ATOM     27  C   UNL A   1      35.688  30.395  28.062  1.00  0.00     0.060 A 
ATOM     28  C   UNL A   1      35.705  29.715  29.288  1.00  0.00     0.016 A 
ATOM     29  C   UNL A   1      36.839  30.482  27.279  1.00  0.00     0.016 A 
ATOM     30  C   UNL A   1      36.892  29.175  29.769  1.00  0.00     0.010 A 
ATOM     31  C   UNL A   1      38.036  29.947  27.771  1.00  0.00     0.010 A 
ATOM     32  C   UNL A   1      38.075  29.335  29.038  1.00  0.00    -0.014 A 
BRANCH  32  33
ATOM     33  C   UNL A   1      39.367  29.017  29.692  1.00  0.00     0.031 A 
ATOM     34  C   UNL A   1      39.801  29.829  30.882  1.00  0.00     0.074 A 
ATOM     35  C   UNL A   1      40.111  27.981  29.264  1.00  0.00     0.049 A 
ATOM     36  N   UNL A   1      40.894  29.737  31.593  1.00  0.00    -0.248 NA
ATOM     37  C   UNL A   1      38.880  30.887  31.333  1.00  0.00     0.031 C 
ATOM     38  C   UNL A   1      39.765  27.099  28.150  1.00  0.00     0.029 A 
ATOM     39  N   UNL A   1      41.314  27.502  29.714  1.00  0.00    -0.354 N 
ATOM     40  C   UNL A   1      40.803  30.732  32.561  1.00  0.00     0.074 A 
ATOM     41  C   UNL A   1      39.556  31.428  32.336  1.00  0.00     0.031 C 
ATOM     42  C   UNL A   1      40.747  26.196  27.990  1.00  0.00     0.029 A 
ATOM     43  C   UNL A   1      41.802  26.456  28.967  1.00  0.00     0.049 A 
ATOM     44  H   UNL A   1      41.784  27.870  30.496  1.00  0.00     0.167 HD
ATOM     45  C   UNL A   1      41.680  31.033  33.548  1.00  0.00     0.037 A 
ATOM     46  C   UNL A   1      42.979  25.805  29.045  1.00  0.00     0.037 A 
ATOM     47  C   UNL A   1      42.911  30.319  33.773  1.00  0.00     0.049 A 
ATOM     48  C   UNL A   1      43.959  26.187  30.124  1.00  0.00     0.074 A 
ATOM     49  C   UNL A   1      43.849  30.519  34.771  1.00  0.00     0.029 A 
ATOM     50  N   UNL A   1      43.378  29.276  32.987  1.00  0.00    -0.354 N 
ATOM     51  N   UNL A   1      43.845  27.109  31.053  1.00  0.00    -0.248 NA
ATOM     52  C   UNL A   1      45.222  25.440  30.173  1.00  0.00     0.031 C 
ATOM     53  C   UNL A   1      44.911  29.636  34.554  1.00  0.00     0.029 A 
ATOM     54  C   UNL A   1      44.606  28.844  33.458  1.00  0.00     0.049 A 
ATOM     55  H   UNL A   1      42.906  28.900  32.210  1.00  0.00     0.167 HD
ATOM     56  C   UNL A   1      45.009  27.032  31.811  1.00  0.00     0.074 A 
ATOM     57  C   UNL A   1      45.808  25.966  31.240  1.00  0.00     0.031 C 
ATOM     58  C   UNL A   1      45.384  27.774  32.882  1.00  0.00     0.037 A 
BRANCH  45  59
ATOM     59  C   UNL A   1      41.364  32.200  34.443  1.00  0.00     0.058 A 
ATOM     60  C   UNL A   1      41.738  33.513  34.118  1.00  0.00     0.135 A 
ATOM     61  C   UNL A   1      40.619  32.004  35.617  1.00  0.00     0.135 A 
ATOM     62  F   UNL A   1      42.467  33.755  33.017  1.00  0.00    -0.206 F 
ATOM     63  C   UNL A   1      41.398  34.588  34.934  1.00  0.00     0.059 A 
ATOM     64  C   UNL A   1      40.244  33.066  36.434  1.00  0.00     0.059 A 
ATOM     65  F   UNL A   1      40.237  30.767  35.977  1.00  0.00    -0.206 F 
ATOM     66  C   UNL A   1      40.648  34.355  36.089  1.00  0.00     0.060 A 
BRANCH  66  67
ATOM     67  S   UNL A   1      40.191  35.764  37.121  1.00  0.00     0.124 S 
ATOM     68  O   UNL A   1      41.451  36.046  37.802  1.00  0.00    -0.237 OA
ATOM     69  O   UNL A   1      39.771  36.752  36.133  1.00  0.00    -0.237 OA
ATOM     70  O   UNL A   1      39.126  35.235  37.968  1.00  0.00    -0.744 OA
ENDBRANCH  66  67
ENDBRANCH  45  59
BRANCH  46  71
ATOM     71  C   UNL A   1      43.310  24.749  28.052  1.00  0.00     0.058 A 
ATOM     72  C   UNL A   1      44.037  25.039  26.888  1.00  0.00     0.135 A 
ATOM     73  C   UNL A   1      42.895  23.421  28.248  1.00  0.00     0.135 A 
ATOM     74  F   UNL A   1      44.449  26.294  26.651  1.00  0.00    -0.206 F 
ATOM     75  C   UNL A   1      44.325  24.057  25.946  1.00  0.00     0.059 A 
ATOM     76  C   UNL A   1      43.196  22.417  27.334  1.00  0.00     0.059 A 
ATOM     77  F   UNL A   1      42.208  23.087  29.351  1.00  0.00    -0.206 F 
ATOM     78  C   UNL A   1      43.901  22.748  26.179  1.00  0.00     0.060 A 
BRANCH  78  79
ATOM     79  S   UNL A   1      44.311  21.474  24.968  1.00  0.00     0.124 S 
ATOM     80  O   UNL A   1      45.679  21.140  25.346  1.00  0.00    -0.237 OA
ATOM     81  O   UNL A   1      43.304  20.453  25.243  1.00  0.00    -0.237 OA
ATOM     82  O   UNL A   1      44.160  22.164  23.690  1.00  0.00    -0.744 OA
ENDBRANCH  78  79
ENDBRANCH  46  71
BRANCH  58  83
ATOM     83  C   UNL A   1      46.698  27.440  33.535  1.00  0.00     0.058 A 
ATOM     84  C   UNL A   1      47.900  28.041  33.132  1.00  0.00     0.135 A 
ATOM     85  C   UNL A   1      46.743  26.546  34.620  1.00  0.00     0.135 A 
ATOM     86  F   UNL A   1      47.914  28.898  32.099  1.00  0.00    -0.206 F 
ATOM     87  C   UNL A   1      49.104  27.750  33.764  1.00  0.00     0.059 A 
ATOM     88  C   UNL A   1      47.931  26.264  35.285  1.00  0.00     0.059 A 
ATOM     89  F   UNL A   1      45.619  25.953  35.053  1.00  0.00    -0.206 F 
ATOM     90  C   UNL A   1      49.110  26.862  34.841  1.00  0.00     0.060 A 
BRANCH  90  91
ATOM     91  S   UNL A   1      50.675  26.519  35.673  1.00  0.00     0.124 S 
ATOM     92  O   UNL A   1      50.802  27.679  36.549  1.00  0.00    -0.237 OA
ATOM     93  O   UNL A   1      50.404  25.248  36.338  1.00  0.00    -0.237 OA
ATOM     94  O   UNL A   1      51.636  26.453  34.576  1.00  0.00    -0.744 OA
ENDBRANCH  90  91
ENDBRANCH  58  83
ENDBRANCH  32  33
ENDBRANCH  25  27
ENDBRANCH  24  25
ENDBRANCH  23  24
ENDBRANCH  22  23
ENDBRANCH  21  22
ENDBRANCH   1  21
TORSDOF 22
ENDMDL
MODEL 2
REMARK VINA RESULT:      -9.3      5.354     10.695
REMARK SMILES CC[NH+](CC)CC[N@H+]1CC[C@@H](C(=O)OCCOCCOC(=O)c2ccc(-c3c4nc(c(-c5c(F)cc(S(=O)(=O)[O-])cc5F)c5ccc([nH]5)c(-c5c(F)cc(S(=O)(=O)[O-])cc5F)c5nc(c(-c6c(F)cc(S(=O)(=O)[O-])cc6F)c6ccc3[nH]6)C=C5)C=C4)cc2)[C@@H]1C
REMARK SMILES IDX 16 1 15 2 14 3 12 4 13 5 11 6 8 7 9 8 89 9 10 11 90 12 7 13
REMARK SMILES IDX 6 14 3 15 2 17 1 18 4 19 5 20 17 21 18 22 19 23 20 24 21 25
REMARK SMILES IDX 22 26 23 27 24 28 88 29 25 30 87 31 26 32 27 33 28 34 81 35
REMARK SMILES IDX 29 36 86 37 80 38 82 39 30 40 85 41 79 42 78 43 31 45 65 46
REMARK SMILES IDX 44 47 64 48 45 49 48 50 63 51 83 52 46 53 47 54 62 56 84 57
REMARK SMILES IDX 49 58 32 59 33 60 42 61 34 62 35 63 41 64 43 65 36 66 37 67
REMARK SMILES IDX 38 68 39 69 40 70 66 71 67 72 76 73 68 74 69 75 75 76 77 77
REMARK SMILES IDX 70 78 71 79 72 80 73 81 74 82 50 83 51 84 60 85 52 86 53 87
REMARK SMILES IDX 59 88 61 89 54 90 55 91 56 92 57 93 58 94
REMARK H PARENT 8 10 3 16 82 44 48 55
REMARK Flexibility Score: inf
ROOT
ATOM      1  C   UNL A   1      36.536  22.414  25.663  1.00  0.00     0.202 C 
ENDROOT
BRANCH   1   2
ATOM      2  C   UNL A   1      35.459  21.914  24.692  1.00  0.00     0.261 C 
BRANCH   2   3
ATOM      3  O   UNL A   1      34.333  22.804  24.601  1.00  0.00    -0.463 OA
BRANCH   3   4
ATOM      4  C   UNL A   1      34.313  23.569  23.481  1.00  0.00     0.315 C 
ATOM      5  O   UNL A   1      35.283  23.752  22.748  1.00  0.00    -0.252 OA
BRANCH   4   6
ATOM      6  C   UNL A   1      32.931  24.052  23.092  1.00  0.00     0.162 C 
ATOM      7  N   UNL A   1      31.801  26.152  23.522  1.00  0.00    -0.327 N 
ATOM      8  C   UNL A   1      31.875  25.929  22.086  1.00  0.00     0.263 C 
ATOM      9  C   UNL A   1      32.074  24.813  24.117  1.00  0.00     0.195 C 
ATOM     10  H   UNL A   1      30.887  26.499  23.813  1.00  0.00     0.348 HD
ATOM     11  C   UNL A   1      33.082  25.039  21.955  1.00  0.00     0.083 C 
ATOM     12  C   UNL A   1      30.707  24.099  24.247  1.00  0.00     0.076 C 
BRANCH   7  13
ATOM     13  C   UNL A   1      32.674  27.252  24.008  1.00  0.00     0.324 C 
BRANCH  13  14
ATOM     14  C   UNL A   1      32.401  28.814  23.898  1.00  0.00     0.324 C 
BRANCH  14  15
ATOM     15  N   UNL A   1      31.281  29.555  24.497  1.00  0.00    -0.331 N 
ATOM     16  H   UNL A   1      31.280  28.727  25.093  1.00  0.00     0.348 HD
BRANCH  15  17
ATOM     17  C   UNL A   1      31.401  30.455  25.642  1.00  0.00     0.258 C 
ATOM     18  C   UNL A   1      32.219  30.012  26.861  1.00  0.00     0.071 C 
ENDBRANCH  15  17
BRANCH  15  19
ATOM     19  C   UNL A   1      30.048  29.695  23.728  1.00  0.00     0.258 C 
ATOM     20  C   UNL A   1      29.365  31.052  23.764  1.00  0.00     0.071 C 
ENDBRANCH  15  19
ENDBRANCH  14  15
ENDBRANCH  13  14
ENDBRANCH   7  13
ENDBRANCH   4   6
ENDBRANCH   3   4
ENDBRANCH   2   3
ENDBRANCH   1   2
BRANCH   1  21
ATOM     21  O   UNL A   1      37.893  22.418  25.232  1.00  0.00    -0.374 OA
BRANCH  21  22
ATOM     22  C   UNL A   1      38.891  21.832  26.064  1.00  0.00     0.202 C 
BRANCH  22  23
ATOM     23  C   UNL A   1      39.400  20.417  25.758  1.00  0.00     0.261 C 
BRANCH  23  24
ATOM     24  O   UNL A   1      40.265  19.883  26.776  1.00  0.00    -0.460 OA
BRANCH  24  25
ATOM     25  C   UNL A   1      41.516  19.592  26.334  1.00  0.00     0.338 C 
ATOM     26  O   UNL A   1      41.866  18.590  25.735  1.00  0.00    -0.246 OA
BRANCH  25  27
ATOM     27  C   UNL A   1      42.418  20.745  26.491  1.00  0.00     0.060 A 
ATOM     28  C   UNL A   1      42.565  21.269  27.783  1.00  0.00     0.016 A 
ATOM     29  C   UNL A   1      42.954  21.408  25.387  1.00  0.00     0.016 A 
ATOM     30  C   UNL A   1      43.192  22.495  27.970  1.00  0.00     0.010 A 
ATOM     31  C   UNL A   1      43.577  22.648  25.577  1.00  0.00     0.010 A 
ATOM     32  C   UNL A   1      43.653  23.216  26.862  1.00  0.00    -0.014 A 
BRANCH  32  33
ATOM     33  C   UNL A   1      44.050  24.633  27.047  1.00  0.00     0.031 A 
ATOM     34  C   UNL A   1      45.486  25.023  26.822  1.00  0.00     0.074 A 
ATOM     35  C   UNL A   1      43.129  25.564  27.353  1.00  0.00     0.049 A 
ATOM     36  N   UNL A   1      46.055  26.194  26.943  1.00  0.00    -0.248 NA
ATOM     37  C   UNL A   1      46.406  23.951  26.404  1.00  0.00     0.031 C 
ATOM     38  C   UNL A   1      41.703  25.307  27.548  1.00  0.00     0.029 A 
ATOM     39  N   UNL A   1      43.260  26.914  27.558  1.00  0.00    -0.354 N 
ATOM     40  C   UNL A   1      47.397  25.998  26.636  1.00  0.00     0.074 A 
ATOM     41  C   UNL A   1      47.563  24.593  26.340  1.00  0.00     0.031 C 
ATOM     42  C   UNL A   1      41.092  26.461  27.866  1.00  0.00     0.029 A 
ATOM     43  C   UNL A   1      42.088  27.529  27.928  1.00  0.00     0.049 A 
ATOM     44  H   UNL A   1      44.111  27.396  27.452  1.00  0.00     0.167 HD
ATOM     45  C   UNL A   1      48.397  26.911  26.602  1.00  0.00     0.037 A 
ATOM     46  C   UNL A   1      41.853  28.802  28.302  1.00  0.00     0.037 A 
ATOM     47  C   UNL A   1      48.215  28.312  26.880  1.00  0.00     0.049 A 
ATOM     48  C   UNL A   1      42.991  29.789  28.299  1.00  0.00     0.074 A 
ATOM     49  C   UNL A   1      49.155  29.326  26.834  1.00  0.00     0.029 A 
ATOM     50  N   UNL A   1      47.016  28.895  27.266  1.00  0.00    -0.354 N 
ATOM     51  N   UNL A   1      44.249  29.597  27.975  1.00  0.00    -0.248 NA
ATOM     52  C   UNL A   1      42.680  31.166  28.705  1.00  0.00     0.031 C 
ATOM     53  C   UNL A   1      48.540  30.512  27.246  1.00  0.00     0.029 A 
ATOM     54  C   UNL A   1      47.201  30.249  27.491  1.00  0.00     0.049 A 
ATOM     55  H   UNL A   1      46.162  28.417  27.365  1.00  0.00     0.167 HD
ATOM     56  C   UNL A   1      44.871  30.834  28.112  1.00  0.00     0.074 A 
ATOM     57  C   UNL A   1      43.849  31.769  28.536  1.00  0.00     0.031 C 
ATOM     58  C   UNL A   1      46.169  31.167  27.905  1.00  0.00     0.037 A 
BRANCH  45  59
ATOM     59  C   UNL A   1      49.785  26.426  26.283  1.00  0.00     0.058 A 
ATOM     60  C   UNL A   1      50.309  26.468  24.982  1.00  0.00     0.135 A 
ATOM     61  C   UNL A   1      50.623  25.967  27.312  1.00  0.00     0.135 A 
ATOM     62  F   UNL A   1      49.546  26.881  23.958  1.00  0.00    -0.206 F 
ATOM     63  C   UNL A   1      51.611  26.058  24.710  1.00  0.00     0.059 A 
ATOM     64  C   UNL A   1      51.937  25.578  27.068  1.00  0.00     0.059 A 
ATOM     65  F   UNL A   1      50.171  25.903  28.574  1.00  0.00    -0.206 F 
ATOM     66  C   UNL A   1      52.419  25.617  25.761  1.00  0.00     0.060 A 
BRANCH  66  67
ATOM     67  S   UNL A   1      54.115  25.115  25.395  1.00  0.00     0.124 S 
ATOM     68  O   UNL A   1      54.452  26.013  24.294  1.00  0.00    -0.237 OA
ATOM     69  O   UNL A   1      54.796  25.378  26.658  1.00  0.00    -0.237 OA
ATOM     70  O   UNL A   1      53.983  23.706  25.037  1.00  0.00    -0.744 OA
ENDBRANCH  66  67
ENDBRANCH  45  59
BRANCH  46  71
ATOM     71  C   UNL A   1      40.491  29.206  28.743  1.00  0.00     0.058 A 
ATOM     72  C   UNL A   1      39.465  29.454  27.819  1.00  0.00     0.135 A 
ATOM     73  C   UNL A   1      40.192  29.358  30.108  1.00  0.00     0.135 A 
ATOM     74  F   UNL A   1      39.703  29.330  26.505  1.00  0.00    -0.206 F 
ATOM     75  C   UNL A   1      38.199  29.856  28.229  1.00  0.00     0.059 A 
ATOM     76  C   UNL A   1      38.926  29.732  30.542  1.00  0.00     0.059 A 
ATOM     77  F   UNL A   1      41.135  29.122  31.033  1.00  0.00    -0.206 F 
ATOM     78  C   UNL A   1      37.938  29.992  29.594  1.00  0.00     0.060 A 
BRANCH  78  79
ATOM     79  S   UNL A   1      36.281  30.480  30.118  1.00  0.00     0.124 S 
ATOM     80  O   UNL A   1      36.174  29.816  31.411  1.00  0.00    -0.237 OA
ATOM     81  O   UNL A   1      36.386  31.936  30.152  1.00  0.00    -0.237 OA
ATOM     82  O   UNL A   1      35.425  29.947  29.062  1.00  0.00    -0.744 OA
ENDBRANCH  78  79
ENDBRANCH  46  71
BRANCH  58  83
ATOM     83  C   UNL A   1      46.556  32.609  28.096  1.00  0.00     0.058 A 
ATOM     84  C   UNL A   1      47.096  33.077  29.303  1.00  0.00     0.135 A 
ATOM     85  C   UNL A   1      46.439  33.521  27.033  1.00  0.00     0.135 A 
ATOM     86  F   UNL A   1      47.225  32.249  30.353  1.00  0.00    -0.206 F 
ATOM     87  C   UNL A   1      47.482  34.405  29.460  1.00  0.00     0.059 A 
ATOM     88  C   UNL A   1      46.846  34.845  27.158  1.00  0.00     0.059 A 
ATOM     89  F   UNL A   1      45.940  33.122  25.852  1.00  0.00    -0.206 F 
ATOM     90  C   UNL A   1      47.356  35.280  28.380  1.00  0.00     0.060 A 
BRANCH  90  91
ATOM     91  S   UNL A   1      47.892  36.992  28.587  1.00  0.00     0.124 S 
ATOM     92  O   UNL A   1      48.767  37.167  27.432  1.00  0.00    -0.237 OA
ATOM     93  O   UNL A   1      46.629  37.723  28.544  1.00  0.00    -0.237 OA
ATOM     94  O   UNL A   1      48.561  36.985  29.885  1.00  0.00    -0.744 OA
ENDBRANCH  90  91
ENDBRANCH  58  83
ENDBRANCH  32  33
ENDBRANCH  25  27
ENDBRANCH  24  25
ENDBRANCH  23  24
ENDBRANCH  22  23
ENDBRANCH  21  22
ENDBRANCH   1  21
TORSDOF 22
ENDMDL
MODEL 3
REMARK VINA RESULT:      -9.2      1.230      2.140
REMARK SMILES CC[NH+](CC)CC[N@H+]1CC[C@@H](C(=O)OCCOCCOC(=O)c2ccc(-c3c4nc(c(-c5c(F)cc(S(=O)(=O)[O-])cc5F)c5ccc([nH]5)c(-c5c(F)cc(S(=O)(=O)[O-])cc5F)c5nc(c(-c6c(F)cc(S(=O)(=O)[O-])cc6F)c6ccc3[nH]6)C=C5)C=C4)cc2)[C@@H]1C
REMARK SMILES IDX 16 1 15 2 14 3 12 4 13 5 11 6 8 7 9 8 89 9 10 11 90 12 7 13
REMARK SMILES IDX 6 14 3 15 2 17 1 18 4 19 5 20 17 21 18 22 19 23 20 24 21 25
REMARK SMILES IDX 22 26 23 27 24 28 88 29 25 30 87 31 26 32 27 33 28 34 81 35
REMARK SMILES IDX 29 36 86 37 80 38 82 39 30 40 85 41 79 42 78 43 31 45 65 46
REMARK SMILES IDX 44 47 64 48 45 49 48 50 63 51 83 52 46 53 47 54 62 56 84 57
REMARK SMILES IDX 49 58 32 59 33 60 42 61 34 62 35 63 41 64 43 65 36 66 37 67
REMARK SMILES IDX 38 68 39 69 40 70 66 71 67 72 76 73 68 74 69 75 75 76 77 77
REMARK SMILES IDX 70 78 71 79 72 80 73 81 74 82 50 83 51 84 60 85 52 86 53 87
REMARK SMILES IDX 59 88 61 89 54 90 55 91 56 92 57 93 58 94
REMARK H PARENT 8 10 3 16 82 44 48 55
REMARK Flexibility Score: inf
ROOT
ATOM      1  C   UNL A   1      31.687  27.186  26.256  1.00  0.00     0.202 C 
ENDROOT
BRANCH   1   2
ATOM      2  C   UNL A   1      30.724  26.015  26.023  1.00  0.00     0.261 C 
BRANCH   2   3
ATOM      3  O   UNL A   1      31.123  24.818  26.712  1.00  0.00    -0.463 OA
BRANCH   3   4
ATOM      4  C   UNL A   1      31.178  23.713  25.927  1.00  0.00     0.315 C 
ATOM      5  O   UNL A   1      30.560  22.673  26.148  1.00  0.00    -0.252 OA
BRANCH   4   6
ATOM      6  C   UNL A   1      31.937  23.916  24.632  1.00  0.00     0.162 C 
ATOM      7  N   UNL A   1      33.845  22.745  23.706  1.00  0.00    -0.327 N 
ATOM      8  C   UNL A   1      32.732  22.669  22.772  1.00  0.00     0.263 C 
ATOM      9  C   UNL A   1      33.473  23.852  24.632  1.00  0.00     0.195 C 
ATOM     10  H   UNL A   1      34.729  22.944  23.238  1.00  0.00     0.348 HD
ATOM     11  C   UNL A   1      31.536  22.815  23.675  1.00  0.00     0.083 C 
ATOM     12  C   UNL A   1      34.023  25.156  24.007  1.00  0.00     0.076 C 
BRANCH   7  13
ATOM     13  C   UNL A   1      34.172  21.452  24.362  1.00  0.00     0.324 C 
BRANCH  13  14
ATOM     14  C   UNL A   1      35.146  21.223  25.598  1.00  0.00     0.324 C 
BRANCH  14  15
ATOM     15  N   UNL A   1      36.472  21.827  25.796  1.00  0.00    -0.331 N 
ATOM     16  H   UNL A   1      36.540  21.041  26.443  1.00  0.00     0.348 HD
BRANCH  15  17
ATOM     17  C   UNL A   1      37.681  21.422  25.081  1.00  0.00     0.258 C 
ATOM     18  C   UNL A   1      38.986  21.232  25.863  1.00  0.00     0.071 C 
ENDBRANCH  15  17
BRANCH  15  19
ATOM     19  C   UNL A   1      36.556  23.118  26.470  1.00  0.00     0.258 C 
ATOM     20  C   UNL A   1      37.451  24.169  25.834  1.00  0.00     0.071 C 
ENDBRANCH  15  19
ENDBRANCH  14  15
ENDBRANCH  13  14
ENDBRANCH   7  13
ENDBRANCH   4   6
ENDBRANCH   3   4
ENDBRANCH   2   3
ENDBRANCH   1   2
BRANCH   1  21
ATOM     21  O   UNL A   1      31.930  28.093  25.186  1.00  0.00    -0.374 OA
BRANCH  21  22
ATOM     22  C   UNL A   1      32.029  29.487  25.462  1.00  0.00     0.202 C 
BRANCH  22  23
ATOM     23  C   UNL A   1      33.367  30.076  25.930  1.00  0.00     0.261 C 
BRANCH  23  24
ATOM     24  O   UNL A   1      33.436  30.296  27.350  1.00  0.00    -0.460 OA
BRANCH  24  25
ATOM     25  C   UNL A   1      34.462  31.100  27.730  1.00  0.00     0.338 C 
ATOM     26  O   UNL A   1      34.417  32.302  27.922  1.00  0.00    -0.246 OA
BRANCH  25  27
ATOM     27  C   UNL A   1      35.654  30.312  28.085  1.00  0.00     0.060 A 
ATOM     28  C   UNL A   1      35.686  29.746  29.367  1.00  0.00     0.016 A 
ATOM     29  C   UNL A   1      36.782  30.284  27.265  1.00  0.00     0.016 A 
ATOM     30  C   UNL A   1      36.868  29.207  29.862  1.00  0.00     0.010 A 
ATOM     31  C   UNL A   1      37.974  29.750  27.770  1.00  0.00     0.010 A 
ATOM     32  C   UNL A   1      38.032  29.256  29.086  1.00  0.00    -0.014 A 
BRANCH  32  33
ATOM     33  C   UNL A   1      39.332  28.950  29.729  1.00  0.00     0.031 A 
ATOM     34  C   UNL A   1      39.773  29.774  30.910  1.00  0.00     0.074 A 
ATOM     35  C   UNL A   1      40.077  27.915  29.302  1.00  0.00     0.049 A 
ATOM     36  N   UNL A   1      40.874  29.694  31.611  1.00  0.00    -0.248 NA
ATOM     37  C   UNL A   1      38.851  30.830  31.362  1.00  0.00     0.031 C 
ATOM     38  C   UNL A   1      39.726  27.023  28.199  1.00  0.00     0.029 A 
ATOM     39  N   UNL A   1      41.288  27.446  29.744  1.00  0.00    -0.354 N 
ATOM     40  C   UNL A   1      40.786  30.695  32.571  1.00  0.00     0.074 A 
ATOM     41  C   UNL A   1      39.533  31.383  32.354  1.00  0.00     0.031 C 
ATOM     42  C   UNL A   1      40.711  26.124  28.035  1.00  0.00     0.029 A 
ATOM     43  C   UNL A   1      41.775  26.397  29.000  1.00  0.00     0.049 A 
ATOM     44  H   UNL A   1      41.763  27.823  30.518  1.00  0.00     0.167 HD
ATOM     45  C   UNL A   1      41.672  31.008  33.547  1.00  0.00     0.037 A 
ATOM     46  C   UNL A   1      42.956  25.754  29.072  1.00  0.00     0.037 A 
ATOM     47  C   UNL A   1      42.908  30.303  33.766  1.00  0.00     0.049 A 
ATOM     48  C   UNL A   1      43.944  26.149  30.138  1.00  0.00     0.074 A 
ATOM     49  C   UNL A   1      43.856  30.516  34.752  1.00  0.00     0.029 A 
ATOM     50  N   UNL A   1      43.374  29.257  32.983  1.00  0.00    -0.354 N 
ATOM     51  N   UNL A   1      43.834  27.077  31.061  1.00  0.00    -0.248 NA
ATOM     52  C   UNL A   1      45.212  25.410  30.180  1.00  0.00     0.031 C 
ATOM     53  C   UNL A   1      44.920  29.637  34.532  1.00  0.00     0.029 A 
ATOM     54  C   UNL A   1      44.609  28.835  33.445  1.00  0.00     0.049 A 
ATOM     55  H   UNL A   1      42.897  28.872  32.213  1.00  0.00     0.167 HD
ATOM     56  C   UNL A   1      45.006  27.013  31.808  1.00  0.00     0.074 A 
ATOM     57  C   UNL A   1      45.805  25.947  31.237  1.00  0.00     0.031 C 
ATOM     58  C   UNL A   1      45.388  27.766  32.869  1.00  0.00     0.037 A 
BRANCH  45  59
ATOM     59  C   UNL A   1      41.357  32.180  34.436  1.00  0.00     0.058 A 
ATOM     60  C   UNL A   1      41.766  33.486  34.123  1.00  0.00     0.135 A 
ATOM     61  C   UNL A   1      40.581  31.997  35.593  1.00  0.00     0.135 A 
ATOM     62  F   UNL A   1      42.525  33.715  33.040  1.00  0.00    -0.206 F 
ATOM     63  C   UNL A   1      41.428  34.566  34.932  1.00  0.00     0.059 A 
ATOM     64  C   UNL A   1      40.209  33.066  36.401  1.00  0.00     0.059 A 
ATOM     65  F   UNL A   1      40.166  30.769  35.941  1.00  0.00    -0.206 F 
ATOM     66  C   UNL A   1      40.646  34.347  36.068  1.00  0.00     0.060 A 
BRANCH  66  67
ATOM     67  S   UNL A   1      40.193  35.764  37.092  1.00  0.00     0.124 S 
ATOM     68  O   UNL A   1      39.079  35.221  37.863  1.00  0.00    -0.237 OA
ATOM     69  O   UNL A   1      41.420  36.013  37.841  1.00  0.00    -0.237 OA
ATOM     70  O   UNL A   1      39.839  36.790  36.116  1.00  0.00    -0.744 OA
ENDBRANCH  66  67
ENDBRANCH  45  59
BRANCH  46  71
ATOM     71  C   UNL A   1      43.283  24.691  28.083  1.00  0.00     0.058 A 
ATOM     72  C   UNL A   1      43.949  24.986  26.885  1.00  0.00     0.135 A 
ATOM     73  C   UNL A   1      42.926  23.353  28.320  1.00  0.00     0.135 A 
ATOM     74  F   UNL A   1      44.304  26.251  26.608  1.00  0.00    -0.206 F 
ATOM     75  C   UNL A   1      44.233  23.998  25.948  1.00  0.00     0.059 A 
ATOM     76  C   UNL A   1      43.225  22.344  27.411  1.00  0.00     0.059 A 
ATOM     77  F   UNL A   1      42.298  23.015  29.457  1.00  0.00    -0.206 F 
ATOM     78  C   UNL A   1      43.867  22.679  26.221  1.00  0.00     0.060 A 
BRANCH  78  79
ATOM     79  S   UNL A   1      44.272  21.398  25.015  1.00  0.00     0.124 S 
ATOM     80  O   UNL A   1      44.094  22.112  23.757  1.00  0.00    -0.237 OA
ATOM     81  O   UNL A   1      45.648  21.065  25.372  1.00  0.00    -0.237 OA
ATOM     82  O   UNL A   1      43.291  20.353  25.293  1.00  0.00    -0.744 OA
ENDBRANCH  78  79
ENDBRANCH  46  71
BRANCH  58  83
ATOM     83  C   UNL A   1      46.709  27.443  33.512  1.00  0.00     0.058 A 
ATOM     84  C   UNL A   1      46.820  26.501  34.546  1.00  0.00     0.135 A 
ATOM     85  C   UNL A   1      47.890  28.046  33.045  1.00  0.00     0.135 A 
ATOM     86  F   UNL A   1      45.722  25.900  35.033  1.00  0.00    -0.206 F 
ATOM     87  C   UNL A   1      48.051  26.185  35.112  1.00  0.00     0.059 A 
ATOM     88  C   UNL A   1      49.134  27.722  33.576  1.00  0.00     0.059 A 
ATOM     89  F   UNL A   1      47.842  28.945  32.050  1.00  0.00    -0.206 F 
ATOM     90  C   UNL A   1      49.203  26.799  34.619  1.00  0.00     0.060 A 
BRANCH  90  91
ATOM     91  S   UNL A   1      50.797  26.355  35.340  1.00  0.00     0.124 S 
ATOM     92  O   UNL A   1      51.095  25.106  34.648  1.00  0.00    -0.237 OA
ATOM     93  O   UNL A   1      51.633  27.496  34.978  1.00  0.00    -0.237 OA
ATOM     94  O   UNL A   1      50.503  26.229  36.765  1.00  0.00    -0.744 OA
ENDBRANCH  90  91
ENDBRANCH  58  83
ENDBRANCH  32  33
ENDBRANCH  25  27
ENDBRANCH  24  25
ENDBRANCH  23  24
ENDBRANCH  22  23
ENDBRANCH  21  22
ENDBRANCH   1  21
TORSDOF 22
ENDMDL
