MODEL 1
REMARK VINA RESULT:     -11.8      0.000      0.000
REMARK SMILES Cc1ccc2nc3c(c(C(=O)OCCOCCOC(=O)c4ccc(-c5c6nc(c(-c7c(F)cc(S(=O)(=O)[O-])cc7F)c7ccc([nH]7)c(-c7c(F)cc(S(=O)(=O)[O-])cc7F)c7nc(c(-c8c(F)cc(S(=O)(=O)[O-])cc8F)c8ccc5[nH]8)C=C7)C=C6)cc4)c2c1)C[C@H](C)CC3
REMARK SMILES IDX 16 1 15 2 14 3 13 4 12 5 10 6 11 7 9 8 1 9 2 10 3 11 88 12
REMARK SMILES IDX 4 13 87 14 5 15 6 16 8 17 7 18 89 19 93 20 90 21 92 22 91 23
REMARK SMILES IDX 17 24 18 25 19 26 20 27 21 28 22 29 86 30 23 31 85 32 24 33
REMARK SMILES IDX 25 34 26 35 79 36 27 37 84 38 78 39 80 40 28 41 83 42 77 43
REMARK SMILES IDX 76 44 29 46 63 47 42 48 62 49 43 50 46 51 61 52 81 53 44 54
REMARK SMILES IDX 45 55 60 57 82 58 47 59 30 60 31 61 40 62 32 63 33 64 39 65
REMARK SMILES IDX 41 66 34 67 35 68 36 69 37 70 38 71 64 72 65 73 74 74 66 75
REMARK SMILES IDX 67 76 73 77 75 78 68 79 69 80 70 81 71 82 72 83 48 84 49 85
REMARK SMILES IDX 58 86 50 87 51 88 57 89 59 90 52 91 53 92 54 93 55 94 56 95
REMARK H PARENT 80 45 46 56
REMARK Flexibility Score: inf
ROOT
ATOM      1  C   UNL A   1      40.702  22.122  27.021  1.00  0.00     0.202 C 
ENDROOT
BRANCH   1   2
ATOM      2  O   UNL A   1      39.354  22.502  26.749  1.00  0.00    -0.374 OA
BRANCH   2   3
ATOM      3  C   UNL A   1      38.633  21.759  25.765  1.00  0.00     0.202 C 
BRANCH   3   4
ATOM      4  C   UNL A   1      37.201  22.210  25.479  1.00  0.00     0.261 C 
BRANCH   4   5
ATOM      5  O   UNL A   1      36.304  21.102  25.645  1.00  0.00    -0.460 OA
BRANCH   5   6
ATOM      6  C   UNL A   1      35.062  21.413  26.077  1.00  0.00     0.339 C 
ATOM      7  O   UNL A   1      34.768  21.842  27.181  1.00  0.00    -0.246 OA
BRANCH   6   8
ATOM      8  C   UNL A   1      34.084  21.327  24.963  1.00  0.00     0.074 A 
ATOM      9  C   UNL A   1      34.694  16.375  24.149  1.00  0.00     0.044 C 
ATOM     10  C   UNL A   1      33.920  17.651  23.991  1.00  0.00    -0.050 A 
ATOM     11  C   UNL A   1      32.810  17.711  23.158  1.00  0.00     0.005 A 
ATOM     12  C   UNL A   1      34.349  18.828  24.618  1.00  0.00     0.014 A 
ATOM     13  C   UNL A   1      32.165  18.931  22.943  1.00  0.00     0.029 A 
ATOM     14  C   UNL A   1      33.708  20.080  24.395  1.00  0.00     0.015 A 
ATOM     15  C   UNL A   1      32.607  20.114  23.521  1.00  0.00     0.071 A 
ATOM     16  N   UNL A   1      31.951  21.243  23.209  1.00  0.00    -0.253 NA
ATOM     17  C   UNL A   1      33.481  22.532  24.540  1.00  0.00    -0.011 A 
ATOM     18  C   UNL A   1      32.380  22.427  23.701  1.00  0.00     0.045 A 
ATOM     19  C   UNL A   1      33.995  23.890  24.973  1.00  0.00     0.041 C 
ATOM     20  C   UNL A   1      31.601  23.636  23.245  1.00  0.00     0.057 C 
ATOM     21  C   UNL A   1      33.490  25.037  24.082  1.00  0.00    -0.009 C 
ATOM     22  C   UNL A   1      31.969  24.927  23.978  1.00  0.00     0.010 C 
ATOM     23  C   UNL A   1      33.930  26.391  24.634  1.00  0.00     0.008 C 
ENDBRANCH   6   8
ENDBRANCH   5   6
ENDBRANCH   4   5
ENDBRANCH   3   4
ENDBRANCH   2   3
ENDBRANCH   1   2
BRANCH   1  24
ATOM     24  C   UNL A   1      41.816  22.771  26.192  1.00  0.00     0.261 C 
BRANCH  24  25
ATOM     25  O   UNL A   1      42.420  23.898  26.842  1.00  0.00    -0.460 OA
BRANCH  25  26
ATOM     26  C   UNL A   1      42.127  25.100  26.286  1.00  0.00     0.338 C 
ATOM     27  O   UNL A   1      42.029  25.360  25.097  1.00  0.00    -0.246 OA
BRANCH  26  28
ATOM     28  C   UNL A   1      41.737  26.036  27.356  1.00  0.00     0.060 A 
ATOM     29  C   UNL A   1      40.670  25.753  28.210  1.00  0.00     0.016 A 
ATOM     30  C   UNL A   1      42.481  27.213  27.508  1.00  0.00     0.016 A 
ATOM     31  C   UNL A   1      40.364  26.647  29.236  1.00  0.00     0.010 A 
ATOM     32  C   UNL A   1      42.170  28.106  28.531  1.00  0.00     0.010 A 
ATOM     33  C   UNL A   1      41.121  27.820  29.414  1.00  0.00    -0.014 A 
BRANCH  33  34
ATOM     34  C   UNL A   1      40.890  28.684  30.596  1.00  0.00     0.031 A 
ATOM     35  C   UNL A   1      41.717  28.545  31.838  1.00  0.00     0.074 A 
ATOM     36  C   UNL A   1      39.898  29.593  30.536  1.00  0.00     0.049 A 
ATOM     37  N   UNL A   1      41.674  29.257  32.935  1.00  0.00    -0.248 NA
ATOM     38  C   UNL A   1      42.716  27.468  31.856  1.00  0.00     0.031 C 
ATOM     39  C   UNL A   1      39.007  29.787  29.388  1.00  0.00     0.029 A 
ATOM     40  N   UNL A   1      39.475  30.525  31.447  1.00  0.00    -0.354 N 
ATOM     41  C   UNL A   1      42.653  28.731  33.768  1.00  0.00     0.074 A 
ATOM     42  C   UNL A   1      43.237  27.604  33.069  1.00  0.00     0.031 C 
ATOM     43  C   UNL A   1      38.166  30.798  29.653  1.00  0.00     0.029 A 
ATOM     44  C   UNL A   1      38.433  31.302  30.996  1.00  0.00     0.049 A 
ATOM     45  H   UNL A   1      39.878  30.629  32.340  1.00  0.00     0.167 HD
ATOM     46  C   UNL A   1      43.038  29.165  34.993  1.00  0.00     0.037 A 
ATOM     47  C   UNL A   1      37.769  32.307  31.597  1.00  0.00     0.037 A 
ATOM     48  C   UNL A   1      42.430  30.275  35.686  1.00  0.00     0.049 A 
ATOM     49  C   UNL A   1      38.183  32.735  32.978  1.00  0.00     0.074 A 
ATOM     50  C   UNL A   1      42.770  30.809  36.918  1.00  0.00     0.029 A 
ATOM     51  N   UNL A   1      41.352  31.013  35.219  1.00  0.00    -0.354 N 
ATOM     52  N   UNL A   1      39.156  32.272  33.726  1.00  0.00    -0.248 NA
ATOM     53  C   UNL A   1      37.411  33.820  33.596  1.00  0.00     0.031 C 
ATOM     54  C   UNL A   1      41.863  31.830  37.220  1.00  0.00     0.029 A 
ATOM     55  C   UNL A   1      40.993  31.975  36.150  1.00  0.00     0.049 A 
ATOM     56  H   UNL A   1      40.906  30.873  34.352  1.00  0.00     0.167 HD
ATOM     57  C   UNL A   1      39.125  33.021  34.897  1.00  0.00     0.074 A 
ATOM     58  C   UNL A   1      38.050  33.981  34.746  1.00  0.00     0.031 C 
ATOM     59  C   UNL A   1      39.913  32.919  35.996  1.00  0.00     0.037 A 
BRANCH  46  60
ATOM     60  C   UNL A   1      44.174  28.444  35.667  1.00  0.00     0.058 A 
ATOM     61  C   UNL A   1      43.942  27.362  36.532  1.00  0.00     0.135 A 
ATOM     62  C   UNL A   1      45.508  28.792  35.401  1.00  0.00     0.135 A 
ATOM     63  F   UNL A   1      42.687  26.994  36.835  1.00  0.00    -0.206 F 
ATOM     64  C   UNL A   1      44.990  26.666  37.126  1.00  0.00     0.059 A 
ATOM     65  C   UNL A   1      46.574  28.092  35.961  1.00  0.00     0.059 A 
ATOM     66  F   UNL A   1      45.789  29.817  34.580  1.00  0.00    -0.206 F 
ATOM     67  C   UNL A   1      46.304  27.037  36.831  1.00  0.00     0.060 A 
BRANCH  67  68
ATOM     68  S   UNL A   1      47.648  26.114  37.605  1.00  0.00     0.124 S 
ATOM     69  O   UNL A   1      46.965  24.887  38.004  1.00  0.00    -0.237 OA
ATOM     70  O   UNL A   1      48.603  25.982  36.510  1.00  0.00    -0.237 OA
ATOM     71  O   UNL A   1      48.070  26.980  38.703  1.00  0.00    -0.744 OA
ENDBRANCH  67  68
ENDBRANCH  46  60
BRANCH  47  72
ATOM     72  C   UNL A   1      36.667  32.996  30.874  1.00  0.00     0.058 A 
ATOM     73  C   UNL A   1      35.329  32.787  31.236  1.00  0.00     0.135 A 
ATOM     74  C   UNL A   1      36.931  33.905  29.838  1.00  0.00     0.135 A 
ATOM     75  F   UNL A   1      35.025  31.924  32.217  1.00  0.00    -0.206 F 
ATOM     76  C   UNL A   1      34.289  33.450  30.592  1.00  0.00     0.059 A 
ATOM     77  C   UNL A   1      35.911  34.601  29.197  1.00  0.00     0.059 A 
ATOM     78  F   UNL A   1      38.196  34.151  29.465  1.00  0.00    -0.206 F 
ATOM     79  C   UNL A   1      34.591  34.363  29.580  1.00  0.00     0.060 A 
BRANCH  79  80
ATOM     80  S   UNL A   1      33.235  35.261  28.797  1.00  0.00     0.124 S 
ATOM     81  O   UNL A   1      32.594  34.209  28.019  1.00  0.00    -0.237 OA
ATOM     82  O   UNL A   1      32.488  35.748  29.954  1.00  0.00    -0.237 OA
ATOM     83  O   UNL A   1      33.918  36.293  28.021  1.00  0.00    -0.744 OA
ENDBRANCH  79  80
ENDBRANCH  47  72
BRANCH  59  84
ATOM     84  C   UNL A   1      39.646  33.873  37.131  1.00  0.00     0.058 A 
ATOM     85  C   UNL A   1      38.834  33.511  38.218  1.00  0.00     0.135 A 
ATOM     86  C   UNL A   1      40.251  35.140  37.159  1.00  0.00     0.135 A 
ATOM     87  F   UNL A   1      38.226  32.316  38.240  1.00  0.00    -0.206 F 
ATOM     88  C   UNL A   1      38.616  34.380  39.283  1.00  0.00     0.059 A 
ATOM     89  C   UNL A   1      40.071  36.013  38.228  1.00  0.00     0.059 A 
ATOM     90  F   UNL A   1      41.043  35.534  36.150  1.00  0.00    -0.206 F 
ATOM     91  C   UNL A   1      39.242  35.628  39.281  1.00  0.00     0.060 A 
BRANCH  91  92
ATOM     92  S   UNL A   1      38.973  36.728  40.686  1.00  0.00     0.124 S 
ATOM     93  O   UNL A   1      38.107  35.916  41.535  1.00  0.00    -0.237 OA
ATOM     94  O   UNL A   1      40.329  36.938  41.181  1.00  0.00    -0.237 OA
ATOM     95  O   UNL A   1      38.341  37.900  40.087  1.00  0.00    -0.744 OA
ENDBRANCH  91  92
ENDBRANCH  59  84
ENDBRANCH  33  34
ENDBRANCH  26  28
ENDBRANCH  25  26
ENDBRANCH  24  25
ENDBRANCH   1  24
TORSDOF 17
ENDMDL
MODEL 2
REMARK VINA RESULT:     -11.7      0.806      2.787
REMARK SMILES Cc1ccc2nc3c(c(C(=O)OCCOCCOC(=O)c4ccc(-c5c6nc(c(-c7c(F)cc(S(=O)(=O)[O-])cc7F)c7ccc([nH]7)c(-c7c(F)cc(S(=O)(=O)[O-])cc7F)c7nc(c(-c8c(F)cc(S(=O)(=O)[O-])cc8F)c8ccc5[nH]8)C=C7)C=C6)cc4)c2c1)C[C@H](C)CC3
REMARK SMILES IDX 16 1 15 2 14 3 13 4 12 5 10 6 11 7 9 8 1 9 2 10 3 11 88 12
REMARK SMILES IDX 4 13 87 14 5 15 6 16 8 17 7 18 89 19 93 20 90 21 92 22 91 23
REMARK SMILES IDX 17 24 18 25 19 26 20 27 21 28 22 29 86 30 23 31 85 32 24 33
REMARK SMILES IDX 25 34 26 35 79 36 27 37 84 38 78 39 80 40 28 41 83 42 77 43
REMARK SMILES IDX 76 44 29 46 63 47 42 48 62 49 43 50 46 51 61 52 81 53 44 54
REMARK SMILES IDX 45 55 60 57 82 58 47 59 30 60 31 61 40 62 32 63 33 64 39 65
REMARK SMILES IDX 41 66 34 67 35 68 36 69 37 70 38 71 64 72 65 73 74 74 66 75
REMARK SMILES IDX 67 76 73 77 75 78 68 79 69 80 70 81 71 82 72 83 48 84 49 85
REMARK SMILES IDX 58 86 50 87 51 88 57 89 59 90 52 91 53 92 54 93 55 94 56 95
REMARK H PARENT 80 45 46 56
REMARK Flexibility Score: inf
ROOT
ATOM      1  C   UNL A   1      40.653  21.344  26.136  1.00  0.00     0.202 C 
ENDROOT
BRANCH   1   2
ATOM      2  O   UNL A   1      39.327  21.540  26.624  1.00  0.00    -0.374 OA
BRANCH   2   3
ATOM      3  C   UNL A   1      38.293  21.794  25.671  1.00  0.00     0.202 C 
BRANCH   3   4
ATOM      4  C   UNL A   1      37.428  23.031  25.912  1.00  0.00     0.261 C 
BRANCH   4   5
ATOM      5  O   UNL A   1      36.319  23.030  25.001  1.00  0.00    -0.460 OA
BRANCH   5   6
ATOM      6  C   UNL A   1      35.095  23.123  25.567  1.00  0.00     0.339 C 
ATOM      7  O   UNL A   1      34.858  23.294  26.752  1.00  0.00    -0.246 OA
BRANCH   6   8
ATOM      8  C   UNL A   1      34.038  23.159  24.524  1.00  0.00     0.074 A 
ATOM      9  C   UNL A   1      34.040  28.187  23.992  1.00  0.00     0.044 C 
ATOM     10  C   UNL A   1      33.694  26.809  23.505  1.00  0.00    -0.050 A 
ATOM     11  C   UNL A   1      32.894  26.632  22.383  1.00  0.00     0.005 A 
ATOM     12  C   UNL A   1      34.105  25.677  24.218  1.00  0.00     0.014 A 
ATOM     13  C   UNL A   1      32.498  25.347  22.006  1.00  0.00     0.029 A 
ATOM     14  C   UNL A   1      33.695  24.363  23.851  1.00  0.00     0.015 A 
ATOM     15  C   UNL A   1      32.859  24.219  22.730  1.00  0.00     0.071 A 
ATOM     16  N   UNL A   1      32.382  23.034  22.315  1.00  0.00    -0.253 NA
ATOM     17  C   UNL A   1      33.438  21.930  24.172  1.00  0.00    -0.011 A 
ATOM     18  C   UNL A   1      32.660  21.914  23.022  1.00  0.00     0.045 A 
ATOM     19  C   UNL A   1      33.626  20.672  24.994  1.00  0.00     0.041 C 
ATOM     20  C   UNL A   1      32.031  20.647  22.497  1.00  0.00     0.057 C 
ATOM     21  C   UNL A   1      32.572  19.593  24.694  1.00  0.00    -0.009 C 
ATOM     22  C   UNL A   1      32.530  19.374  23.182  1.00  0.00     0.010 C 
ATOM     23  C   UNL A   1      32.879  18.304  25.451  1.00  0.00     0.008 C 
ENDBRANCH   6   8
ENDBRANCH   5   6
ENDBRANCH   4   5
ENDBRANCH   3   4
ENDBRANCH   2   3
ENDBRANCH   1   2
BRANCH   1  24
ATOM     24  C   UNL A   1      41.674  22.467  26.349  1.00  0.00     0.261 C 
BRANCH  24  25
ATOM     25  O   UNL A   1      41.072  23.761  26.481  1.00  0.00    -0.460 OA
BRANCH  25  26
ATOM     26  C   UNL A   1      41.934  24.803  26.372  1.00  0.00     0.338 C 
ATOM     27  O   UNL A   1      42.743  25.003  25.481  1.00  0.00    -0.246 OA
BRANCH  26  28
ATOM     28  C   UNL A   1      41.611  25.798  27.412  1.00  0.00     0.060 A 
ATOM     29  C   UNL A   1      40.534  25.612  28.280  1.00  0.00     0.016 A 
ATOM     30  C   UNL A   1      42.431  26.928  27.522  1.00  0.00     0.016 A 
ATOM     31  C   UNL A   1      40.293  26.557  29.278  1.00  0.00     0.010 A 
ATOM     32  C   UNL A   1      42.185  27.873  28.516  1.00  0.00     0.010 A 
ATOM     33  C   UNL A   1      41.125  27.684  29.413  1.00  0.00    -0.014 A 
BRANCH  33  34
ATOM     34  C   UNL A   1      40.957  28.600  30.566  1.00  0.00     0.031 A 
ATOM     35  C   UNL A   1      41.853  28.516  31.765  1.00  0.00     0.074 A 
ATOM     36  C   UNL A   1      39.961  29.505  30.521  1.00  0.00     0.049 A 
ATOM     37  N   UNL A   1      41.869  29.276  32.830  1.00  0.00    -0.248 NA
ATOM     38  C   UNL A   1      42.855  27.441  31.775  1.00  0.00     0.031 C 
ATOM     39  C   UNL A   1      39.008  29.647  29.418  1.00  0.00     0.029 A 
ATOM     40  N   UNL A   1      39.587  30.476  31.413  1.00  0.00    -0.354 N 
ATOM     41  C   UNL A   1      42.895  28.788  33.630  1.00  0.00     0.074 A 
ATOM     42  C   UNL A   1      43.442  27.631  32.950  1.00  0.00     0.031 C 
ATOM     43  C   UNL A   1      38.180  30.669  29.684  1.00  0.00     0.029 A 
ATOM     44  C   UNL A   1      38.520  31.232  30.987  1.00  0.00     0.049 A 
ATOM     45  H   UNL A   1      40.039  30.620  32.276  1.00  0.00     0.167 HD
ATOM     46  C   UNL A   1      43.346  29.275  34.811  1.00  0.00     0.037 A 
ATOM     47  C   UNL A   1      37.887  32.262  31.578  1.00  0.00     0.037 A 
ATOM     48  C   UNL A   1      42.775  30.415  35.487  1.00  0.00     0.049 A 
ATOM     49  C   UNL A   1      38.376  32.751  32.914  1.00  0.00     0.074 A 
ATOM     50  C   UNL A   1      43.181  31.004  36.673  1.00  0.00     0.029 A 
ATOM     51  N   UNL A   1      41.670  31.132  35.048  1.00  0.00    -0.354 N 
ATOM     52  N   UNL A   1      39.391  32.322  33.626  1.00  0.00    -0.248 NA
ATOM     53  C   UNL A   1      37.637  33.862  33.525  1.00  0.00     0.031 C 
ATOM     54  C   UNL A   1      42.289  32.037  36.980  1.00  0.00     0.029 A 
ATOM     55  C   UNL A   1      41.361  32.134  35.955  1.00  0.00     0.049 A 
ATOM     56  H   UNL A   1      41.176  30.953  34.215  1.00  0.00     0.167 HD
ATOM     57  C   UNL A   1      39.423  33.122  34.763  1.00  0.00     0.074 A 
ATOM     58  C   UNL A   1      38.338  34.075  34.630  1.00  0.00     0.031 C 
ATOM     59  C   UNL A   1      40.271  33.070  35.820  1.00  0.00     0.037 A 
BRANCH  46  60
ATOM     60  C   UNL A   1      44.519  28.586  35.452  1.00  0.00     0.058 A 
ATOM     61  C   UNL A   1      44.339  27.545  36.378  1.00  0.00     0.135 A 
ATOM     62  C   UNL A   1      45.836  28.921  35.095  1.00  0.00     0.135 A 
ATOM     63  F   UNL A   1      43.104  27.191  36.767  1.00  0.00    -0.206 F 
ATOM     64  C   UNL A   1      45.421  26.876  36.942  1.00  0.00     0.059 A 
ATOM     65  C   UNL A   1      46.933  28.246  35.626  1.00  0.00     0.059 A 
ATOM     66  F   UNL A   1      46.068  29.907  34.214  1.00  0.00    -0.206 F 
ATOM     67  C   UNL A   1      46.715  27.232  36.556  1.00  0.00     0.060 A 
BRANCH  67  68
ATOM     68  S   UNL A   1      48.103  26.345  37.295  1.00  0.00     0.124 S 
ATOM     69  O   UNL A   1      48.581  27.318  38.274  1.00  0.00    -0.237 OA
ATOM     70  O   UNL A   1      47.455  25.159  37.844  1.00  0.00    -0.237 OA
ATOM     71  O   UNL A   1      48.995  26.105  36.165  1.00  0.00    -0.744 OA
ENDBRANCH  67  68
ENDBRANCH  46  60
BRANCH  47  72
ATOM     72  C   UNL A   1      36.745  32.918  30.889  1.00  0.00     0.058 A 
ATOM     73  C   UNL A   1      35.428  32.717  31.327  1.00  0.00     0.135 A 
ATOM     74  C   UNL A   1      36.949  33.788  29.806  1.00  0.00     0.135 A 
ATOM     75  F   UNL A   1      35.181  31.890  32.354  1.00  0.00    -0.206 F 
ATOM     76  C   UNL A   1      34.352  33.350  30.713  1.00  0.00     0.059 A 
ATOM     77  C   UNL A   1      35.892  34.455  29.194  1.00  0.00     0.059 A 
ATOM     78  F   UNL A   1      38.191  34.026  29.359  1.00  0.00    -0.206 F 
ATOM     79  C   UNL A   1      34.596  34.225  29.653  1.00  0.00     0.060 A 
BRANCH  79  80
ATOM     80  S   UNL A   1      33.195  35.087  28.908  1.00  0.00     0.124 S 
ATOM     81  O   UNL A   1      32.694  34.085  27.976  1.00  0.00    -0.237 OA
ATOM     82  O   UNL A   1      32.354  35.356  30.072  1.00  0.00    -0.237 OA
ATOM     83  O   UNL A   1      33.808  36.264  28.301  1.00  0.00    -0.744 OA
ENDBRANCH  79  80
ENDBRANCH  47  72
BRANCH  59  84
ATOM     84  C   UNL A   1      40.065  34.073  36.925  1.00  0.00     0.058 A 
ATOM     85  C   UNL A   1      40.579  35.376  36.838  1.00  0.00     0.135 A 
ATOM     86  C   UNL A   1      39.299  33.745  38.056  1.00  0.00     0.135 A 
ATOM     87  F   UNL A   1      41.324  35.741  35.783  1.00  0.00    -0.206 F 
ATOM     88  C   UNL A   1      40.359  36.312  37.844  1.00  0.00     0.059 A 
ATOM     89  C   UNL A   1      39.041  34.675  39.058  1.00  0.00     0.059 A 
ATOM     90  F   UNL A   1      38.776  32.516  38.186  1.00  0.00    -0.206 F 
ATOM     91  C   UNL A   1      39.585  35.954  38.949  1.00  0.00     0.060 A 
BRANCH  91  92
ATOM     92  S   UNL A   1      39.284  37.192  40.227  1.00  0.00     0.124 S 
ATOM     93  O   UNL A   1      40.640  37.489  40.676  1.00  0.00    -0.237 OA
ATOM     94  O   UNL A   1      38.617  38.253  39.479  1.00  0.00    -0.237 OA
ATOM     95  O   UNL A   1      38.444  36.490  41.192  1.00  0.00    -0.744 OA
ENDBRANCH  91  92
ENDBRANCH  59  84
ENDBRANCH  33  34
ENDBRANCH  26  28
ENDBRANCH  25  26
ENDBRANCH  24  25
ENDBRANCH   1  24
TORSDOF 17
ENDMDL
MODEL 3
REMARK VINA RESULT:     -11.5      6.400     11.906
REMARK SMILES Cc1ccc2nc3c(c(C(=O)OCCOCCOC(=O)c4ccc(-c5c6nc(c(-c7c(F)cc(S(=O)(=O)[O-])cc7F)c7ccc([nH]7)c(-c7c(F)cc(S(=O)(=O)[O-])cc7F)c7nc(c(-c8c(F)cc(S(=O)(=O)[O-])cc8F)c8ccc5[nH]8)C=C7)C=C6)cc4)c2c1)C[C@H](C)CC3
REMARK SMILES IDX 16 1 15 2 14 3 13 4 12 5 10 6 11 7 9 8 1 9 2 10 3 11 88 12
REMARK SMILES IDX 4 13 87 14 5 15 6 16 8 17 7 18 89 19 93 20 90 21 92 22 91 23
REMARK SMILES IDX 17 24 18 25 19 26 20 27 21 28 22 29 86 30 23 31 85 32 24 33
REMARK SMILES IDX 25 34 26 35 79 36 27 37 84 38 78 39 80 40 28 41 83 42 77 43
REMARK SMILES IDX 76 44 29 46 63 47 42 48 62 49 43 50 46 51 61 52 81 53 44 54
REMARK SMILES IDX 45 55 60 57 82 58 47 59 30 60 31 61 40 62 32 63 33 64 39 65
REMARK SMILES IDX 41 66 34 67 35 68 36 69 37 70 38 71 64 72 65 73 74 74 66 75
REMARK SMILES IDX 67 76 73 77 75 78 68 79 69 80 70 81 71 82 72 83 48 84 49 85
REMARK SMILES IDX 58 86 50 87 51 88 57 89 59 90 52 91 53 92 54 93 55 94 56 95
REMARK H PARENT 80 45 46 56
REMARK Flexibility Score: inf
ROOT
ATOM      1  C   UNL A   1      34.887  31.654  28.208  1.00  0.00     0.202 C 
ENDROOT
BRANCH   1   2
ATOM      2  O   UNL A   1      33.586  31.549  27.633  1.00  0.00    -0.374 OA
BRANCH   2   3
ATOM      3  C   UNL A   1      33.245  30.334  26.964  1.00  0.00     0.202 C 
BRANCH   3   4
ATOM      4  C   UNL A   1      33.497  29.036  27.731  1.00  0.00     0.261 C 
BRANCH   4   5
ATOM      5  O   UNL A   1      33.819  27.984  26.809  1.00  0.00    -0.460 OA
BRANCH   5   6
ATOM      6  C   UNL A   1      32.834  27.091  26.572  1.00  0.00     0.339 C 
ATOM      7  O   UNL A   1      31.929  26.794  27.335  1.00  0.00    -0.246 OA
BRANCH   6   8
ATOM      8  C   UNL A   1      32.885  26.618  25.164  1.00  0.00     0.074 A 
ATOM      9  C   UNL A   1      36.800  23.490  25.832  1.00  0.00     0.044 C 
ATOM     10  C   UNL A   1      35.618  23.974  25.042  1.00  0.00    -0.050 A 
ATOM     11  C   UNL A   1      35.357  23.470  23.774  1.00  0.00     0.005 A 
ATOM     12  C   UNL A   1      34.802  24.999  25.535  1.00  0.00     0.014 A 
ATOM     13  C   UNL A   1      34.315  24.006  23.013  1.00  0.00     0.029 A 
ATOM     14  C   UNL A   1      33.747  25.563  24.762  1.00  0.00     0.015 A 
ATOM     15  C   UNL A   1      33.528  25.054  23.470  1.00  0.00     0.071 A 
ATOM     16  N   UNL A   1      32.587  25.533  22.640  1.00  0.00    -0.253 NA
ATOM     17  C   UNL A   1      31.983  27.211  24.253  1.00  0.00    -0.011 A 
ATOM     18  C   UNL A   1      31.834  26.592  23.019  1.00  0.00     0.045 A 
ATOM     19  C   UNL A   1      31.200  28.463  24.587  1.00  0.00     0.041 C 
ATOM     20  C   UNL A   1      30.844  27.080  21.990  1.00  0.00     0.057 C 
ATOM     21  C   UNL A   1      30.628  29.167  23.344  1.00  0.00    -0.009 C 
ATOM     22  C   UNL A   1      29.866  28.131  22.518  1.00  0.00     0.010 C 
ATOM     23  C   UNL A   1      29.744  30.346  23.742  1.00  0.00     0.008 C 
ENDBRANCH   6   8
ENDBRANCH   5   6
ENDBRANCH   4   5
ENDBRANCH   3   4
ENDBRANCH   2   3
ENDBRANCH   1   2
BRANCH   1  24
ATOM     24  C   UNL A   1      35.059  32.537  29.449  1.00  0.00     0.261 C 
BRANCH  24  25
ATOM     25  O   UNL A   1      36.384  32.494  29.994  1.00  0.00    -0.460 OA
BRANCH  25  26
ATOM     26  C   UNL A   1      36.664  31.386  30.725  1.00  0.00     0.338 C 
ATOM     27  O   UNL A   1      35.942  30.839  31.543  1.00  0.00    -0.246 OA
BRANCH  26  28
ATOM     28  C   UNL A   1      37.926  30.799  30.237  1.00  0.00     0.060 A 
ATOM     29  C   UNL A   1      38.140  30.577  28.876  1.00  0.00     0.016 A 
ATOM     30  C   UNL A   1      38.917  30.490  31.176  1.00  0.00     0.016 A 
ATOM     31  C   UNL A   1      39.366  30.061  28.455  1.00  0.00     0.010 A 
ATOM     32  C   UNL A   1      40.139  29.970  30.754  1.00  0.00     0.010 A 
ATOM     33  C   UNL A   1      40.379  29.770  29.388  1.00  0.00    -0.014 A 
BRANCH  33  34
ATOM     34  C   UNL A   1      41.728  29.370  28.923  1.00  0.00     0.031 A 
ATOM     35  C   UNL A   1      42.861  30.351  28.880  1.00  0.00     0.074 A 
ATOM     36  C   UNL A   1      41.911  28.099  28.517  1.00  0.00     0.049 A 
ATOM     37  N   UNL A   1      44.110  30.146  28.548  1.00  0.00    -0.248 NA
ATOM     38  C   UNL A   1      42.555  31.740  29.250  1.00  0.00     0.031 C 
ATOM     39  C   UNL A   1      40.867  27.072  28.483  1.00  0.00     0.029 A 
ATOM     40  N   UNL A   1      43.031  27.451  28.066  1.00  0.00    -0.354 N 
ATOM     41  C   UNL A   1      44.747  31.372  28.689  1.00  0.00     0.074 A 
ATOM     42  C   UNL A   1      43.732  32.328  29.085  1.00  0.00     0.031 C 
ATOM     43  C   UNL A   1      41.404  25.915  28.067  1.00  0.00     0.029 A 
ATOM     44  C   UNL A   1      42.819  26.124  27.774  1.00  0.00     0.049 A 
ATOM     45  H   UNL A   1      43.905  27.893  27.962  1.00  0.00     0.167 HD
ATOM     46  C   UNL A   1      46.060  31.663  28.522  1.00  0.00     0.037 A 
ATOM     47  C   UNL A   1      43.667  25.182  27.320  1.00  0.00     0.037 A 
ATOM     48  C   UNL A   1      47.054  30.704  28.104  1.00  0.00     0.049 A 
ATOM     49  C   UNL A   1      45.109  25.545  27.094  1.00  0.00     0.074 A 
ATOM     50  C   UNL A   1      48.415  30.896  27.935  1.00  0.00     0.029 A 
ATOM     51  N   UNL A   1      46.797  29.380  27.777  1.00  0.00    -0.354 N 
ATOM     52  N   UNL A   1      45.711  26.693  27.298  1.00  0.00    -0.248 NA
ATOM     53  C   UNL A   1      45.986  24.487  26.578  1.00  0.00     0.031 C 
ATOM     54  C   UNL A   1      48.970  29.706  27.452  1.00  0.00     0.029 A 
ATOM     55  C   UNL A   1      47.967  28.753  27.377  1.00  0.00     0.049 A 
ATOM     56  H   UNL A   1      45.912  28.949  27.822  1.00  0.00     0.167 HD
ATOM     57  C   UNL A   1      47.042  26.490  26.950  1.00  0.00     0.074 A 
ATOM     58  C   UNL A   1      47.159  25.104  26.546  1.00  0.00     0.031 C 
ATOM     59  C   UNL A   1      48.071  27.374  26.963  1.00  0.00     0.037 A 
BRANCH  46  60
ATOM     60  C   UNL A   1      46.506  33.074  28.794  1.00  0.00     0.058 A 
ATOM     61  C   UNL A   1      46.957  33.466  30.066  1.00  0.00     0.135 A 
ATOM     62  C   UNL A   1      46.546  34.030  27.765  1.00  0.00     0.135 A 
ATOM     63  F   UNL A   1      46.928  32.598  31.091  1.00  0.00    -0.206 F 
ATOM     64  C   UNL A   1      47.410  34.757  30.312  1.00  0.00     0.059 A 
ATOM     65  C   UNL A   1      47.022  35.321  27.982  1.00  0.00     0.059 A 
ATOM     66  F   UNL A   1      46.128  33.710  26.529  1.00  0.00    -0.206 F 
ATOM     67  C   UNL A   1      47.442  35.677  29.262  1.00  0.00     0.060 A 
BRANCH  67  68
ATOM     68  S   UNL A   1      48.041  37.345  29.604  1.00  0.00     0.124 S 
ATOM     69  O   UNL A   1      49.292  37.066  30.305  1.00  0.00    -0.237 OA
ATOM     70  O   UNL A   1      48.177  37.905  28.263  1.00  0.00    -0.237 OA
ATOM     71  O   UNL A   1      46.982  37.929  30.422  1.00  0.00    -0.744 OA
ENDBRANCH  67  68
ENDBRANCH  46  60
BRANCH  47  72
ATOM     72  C   UNL A   1      43.174  23.799  27.087  1.00  0.00     0.058 A 
ATOM     73  C   UNL A   1      42.798  23.376  25.805  1.00  0.00     0.135 A 
ATOM     74  C   UNL A   1      43.108  22.863  28.131  1.00  0.00     0.135 A 
ATOM     75  F   UNL A   1      42.838  24.236  24.775  1.00  0.00    -0.206 F 
ATOM     76  C   UNL A   1      42.366  22.076  25.564  1.00  0.00     0.059 A 
ATOM     77  C   UNL A   1      42.707  21.549  27.911  1.00  0.00     0.059 A 
ATOM     78  F   UNL A   1      43.472  23.214  29.374  1.00  0.00    -0.206 F 
ATOM     79  C   UNL A   1      42.334  21.166  26.623  1.00  0.00     0.060 A 
BRANCH  79  80
ATOM     80  S   UNL A   1      41.832  19.466  26.283  1.00  0.00     0.124 S 
ATOM     81  O   UNL A   1      42.631  19.152  25.105  1.00  0.00    -0.237 OA
ATOM     82  O   UNL A   1      42.217  18.786  27.517  1.00  0.00    -0.237 OA
ATOM     83  O   UNL A   1      40.394  19.577  26.060  1.00  0.00    -0.744 OA
ENDBRANCH  79  80
ENDBRANCH  47  72
BRANCH  59  84
ATOM     84  C   UNL A   1      49.422  26.871  26.527  1.00  0.00     0.058 A 
ATOM     85  C   UNL A   1      50.301  26.252  27.429  1.00  0.00     0.135 A 
ATOM     86  C   UNL A   1      49.819  26.960  25.183  1.00  0.00     0.135 A 
ATOM     87  F   UNL A   1      49.975  26.147  28.727  1.00  0.00    -0.206 F 
ATOM     88  C   UNL A   1      51.535  25.757  27.019  1.00  0.00     0.059 A 
ATOM     89  C   UNL A   1      51.035  26.444  24.744  1.00  0.00     0.059 A 
ATOM     90  F   UNL A   1      49.014  27.535  24.276  1.00  0.00    -0.206 F 
ATOM     91  C   UNL A   1      51.892  25.854  25.672  1.00  0.00     0.060 A 
BRANCH  91  92
ATOM     92  S   UNL A   1      53.482  25.177  25.153  1.00  0.00     0.124 S 
ATOM     93  O   UNL A   1      53.553  25.621  23.765  1.00  0.00    -0.237 OA
ATOM     94  O   UNL A   1      54.410  25.825  26.074  1.00  0.00    -0.237 OA
ATOM     95  O   UNL A   1      53.320  23.739  25.343  1.00  0.00    -0.744 OA
ENDBRANCH  91  92
ENDBRANCH  59  84
ENDBRANCH  33  34
ENDBRANCH  26  28
ENDBRANCH  25  26
ENDBRANCH  24  25
ENDBRANCH   1  24
TORSDOF 17
ENDMDL
