MODEL 1
REMARK VINA RESULT:     -10.0      0.000      0.000
REMARK SMILES C[C@@H](C(=O)OCCOCCOC(=O)c1ccc(-c2c3nc(c(-c4c(F)cc(S(=O)(=O)[O-])cc4F)c4ccc([nH]4)c(-c4c(F)cc(S(=O)(=O)[O-])cc4F)c4nc(c(-c5c(F)cc(S(=O)(=O)[O-])cc5F)c5ccc2[nH]5)C=C4)C=C3)cc1)[C@@H](C)C(=O)c1ccc(Br)cc1
REMARK SMILES IDX 8 1 7 2 6 3 5 4 3 5 4 6 2 7 1 8 80 9 81 10 82 11 83 12 84 13
REMARK SMILES IDX 85 14 90 15 86 16 89 17 87 18 88 19 9 20 10 21 11 22 12 23
REMARK SMILES IDX 13 24 14 25 15 26 79 27 16 28 78 29 17 30 18 31 19 32 72 33
REMARK SMILES IDX 20 34 77 35 71 36 73 37 21 38 76 39 70 40 69 41 22 43 56 44
REMARK SMILES IDX 35 45 55 46 36 47 39 48 54 49 74 50 37 51 38 52 53 54 75 55
REMARK SMILES IDX 40 56 23 57 24 58 33 59 25 60 26 61 32 62 34 63 27 64 28 65
REMARK SMILES IDX 29 66 30 67 31 68 57 69 58 70 67 71 59 72 60 73 66 74 68 75
REMARK SMILES IDX 61 76 62 77 63 78 64 79 65 80 41 81 42 82 51 83 43 84 44 85
REMARK SMILES IDX 50 86 52 87 45 88 46 89 47 90 48 91 49 92
REMARK H PARENT 73 42 39 53
REMARK Flexibility Score: inf
ROOT
ATOM      1  O   UNL A   1      31.798  29.156  25.083  1.00  0.00    -0.374 OA
ENDROOT
BRANCH   1   2
ATOM      2  C   UNL A   1      30.917  29.018  23.973  1.00  0.00     0.202 C 
BRANCH   2   3
ATOM      3  C   UNL A   1      31.516  28.701  22.598  1.00  0.00     0.261 C 
BRANCH   3   4
ATOM      4  O   UNL A   1      31.434  27.312  22.238  1.00  0.00    -0.463 OA
BRANCH   4   5
ATOM      5  C   UNL A   1      32.625  26.658  22.248  1.00  0.00     0.309 C 
ATOM      6  O   UNL A   1      33.665  27.136  21.814  1.00  0.00    -0.252 OA
BRANCH   5   7
ATOM      7  C   UNL A   1      32.535  25.239  22.819  1.00  0.00     0.106 C 
ATOM      8  C   UNL A   1      31.359  25.040  23.793  1.00  0.00     0.021 C 
BRANCH   7   9
ATOM      9  C   UNL A   1      33.881  24.843  23.480  1.00  0.00     0.072 C 
ATOM     10  C   UNL A   1      33.925  25.087  24.990  1.00  0.00     0.017 C 
BRANCH   9  11
ATOM     11  C   UNL A   1      34.518  23.462  23.222  1.00  0.00     0.166 C 
ATOM     12  O   UNL A   1      35.600  23.429  22.622  1.00  0.00    -0.294 OA
BRANCH  11  13
ATOM     13  C   UNL A   1      34.000  22.159  23.779  1.00  0.00     0.018 A 
ATOM     14  C   UNL A   1      34.889  21.406  24.568  1.00  0.00     0.013 A 
ATOM     15  C   UNL A   1      32.733  21.623  23.533  1.00  0.00     0.013 A 
ATOM     16  C   UNL A   1      34.525  20.157  25.083  1.00  0.00     0.016 A 
ATOM     17  C   UNL A   1      32.371  20.363  24.028  1.00  0.00     0.016 A 
ATOM     18  C   UNL A   1      33.267  19.637  24.803  1.00  0.00     0.018 A 
ATOM     19  Br  UNL A   1      32.776  17.938  25.465  1.00  0.00    -0.051 Br
ENDBRANCH  11  13
ENDBRANCH   9  11
ENDBRANCH   7   9
ENDBRANCH   5   7
ENDBRANCH   4   5
ENDBRANCH   3   4
ENDBRANCH   2   3
ENDBRANCH   1   2
BRANCH   1  20
ATOM     20  C   UNL A   1      32.062  28.013  25.894  1.00  0.00     0.202 C 
BRANCH  20  21
ATOM     21  C   UNL A   1      32.637  28.226  27.299  1.00  0.00     0.261 C 
BRANCH  21  22
ATOM     22  O   UNL A   1      34.056  28.474  27.293  1.00  0.00    -0.460 OA
BRANCH  22  23
ATOM     23  C   UNL A   1      34.408  29.720  27.692  1.00  0.00     0.338 C 
ATOM     24  O   UNL A   1      33.665  30.687  27.831  1.00  0.00    -0.246 OA
BRANCH  23  25
ATOM     25  C   UNL A   1      35.809  29.747  28.143  1.00  0.00     0.060 A 
ATOM     26  C   UNL A   1      36.792  30.036  27.188  1.00  0.00     0.016 A 
ATOM     27  C   UNL A   1      36.165  29.378  29.442  1.00  0.00     0.016 A 
ATOM     28  C   UNL A   1      38.140  29.909  27.512  1.00  0.00     0.010 A 
ATOM     29  C   UNL A   1      37.521  29.240  29.762  1.00  0.00     0.010 A 
ATOM     30  C   UNL A   1      38.511  29.467  28.788  1.00  0.00    -0.014 A 
BRANCH  30  31
ATOM     31  C   UNL A   1      39.923  29.088  29.038  1.00  0.00     0.031 A 
ATOM     32  C   UNL A   1      40.852  30.103  29.649  1.00  0.00     0.074 A 
ATOM     33  C   UNL A   1      40.359  27.845  28.770  1.00  0.00     0.049 A 
ATOM     34  N   UNL A   1      42.121  29.995  29.941  1.00  0.00    -0.248 NA
ATOM     35  C   UNL A   1      40.268  31.415  29.976  1.00  0.00     0.031 C 
ATOM     36  C   UNL A   1      39.543  26.765  28.217  1.00  0.00     0.029 A 
ATOM     37  N   UNL A   1      41.602  27.283  28.926  1.00  0.00    -0.354 N 
ATOM     38  C   UNL A   1      42.490  31.221  30.485  1.00  0.00     0.074 A 
ATOM     39  C   UNL A   1      41.317  32.067  30.453  1.00  0.00     0.031 C 
ATOM     40  C   UNL A   1      40.311  25.673  28.066  1.00  0.00     0.029 A 
ATOM     41  C   UNL A   1      41.677  25.984  28.488  1.00  0.00     0.049 A 
ATOM     42  H   UNL A   1      42.366  27.766  29.315  1.00  0.00     0.167 HD
ATOM     43  C   UNL A   1      43.694  31.601  30.975  1.00  0.00     0.037 A 
ATOM     44  C   UNL A   1      42.732  25.148  28.415  1.00  0.00     0.037 A 
ATOM     45  C   UNL A   1      44.859  30.755  31.002  1.00  0.00     0.049 A 
ATOM     46  C   UNL A   1      44.078  25.613  28.908  1.00  0.00     0.074 A 
ATOM     47  C   UNL A   1      46.123  31.047  31.482  1.00  0.00     0.029 A 
ATOM     48  N   UNL A   1      44.902  29.454  30.524  1.00  0.00    -0.354 N 
ATOM     49  N   UNL A   1      44.409  26.770  29.430  1.00  0.00    -0.248 NA
ATOM     50  C   UNL A   1      45.191  24.659  28.806  1.00  0.00     0.031 C 
ATOM     51  C   UNL A   1      46.943  29.934  31.258  1.00  0.00     0.029 A 
ATOM     52  C   UNL A   1      46.177  28.935  30.679  1.00  0.00     0.049 A 
ATOM     53  H   UNL A   1      44.140  28.970  30.133  1.00  0.00     0.167 HD
ATOM     54  C   UNL A   1      45.761  26.675  29.741  1.00  0.00     0.074 A 
ATOM     55  C   UNL A   1      46.185  25.344  29.356  1.00  0.00     0.031 C 
ATOM     56  C   UNL A   1      46.580  27.605  30.295  1.00  0.00     0.037 A 
BRANCH  43  57
ATOM     57  C   UNL A   1      43.817  33.004  31.499  1.00  0.00     0.058 A 
ATOM     58  C   UNL A   1      44.076  34.089  30.646  1.00  0.00     0.135 A 
ATOM     59  C   UNL A   1      43.652  33.271  32.867  1.00  0.00     0.135 A 
ATOM     60  F   UNL A   1      44.262  33.888  29.332  1.00  0.00    -0.206 F 
ATOM     61  C   UNL A   1      44.192  35.387  31.135  1.00  0.00     0.059 A 
ATOM     62  C   UNL A   1      43.739  34.564  33.375  1.00  0.00     0.059 A 
ATOM     63  F   UNL A   1      43.407  32.270  33.726  1.00  0.00    -0.206 F 
ATOM     64  C   UNL A   1      44.024  35.614  32.503  1.00  0.00     0.060 A 
BRANCH  64  65
ATOM     65  S   UNL A   1      44.178  37.302  33.125  1.00  0.00     0.124 S 
ATOM     66  O   UNL A   1      44.300  38.058  31.882  1.00  0.00    -0.237 OA
ATOM     67  O   UNL A   1      42.927  37.482  33.855  1.00  0.00    -0.237 OA
ATOM     68  O   UNL A   1      45.380  37.252  33.950  1.00  0.00    -0.744 OA
ENDBRANCH  64  65
ENDBRANCH  43  57
BRANCH  44  69
ATOM     69  C   UNL A   1      42.561  23.790  27.836  1.00  0.00     0.058 A 
ATOM     70  C   UNL A   1      42.428  22.660  28.655  1.00  0.00     0.135 A 
ATOM     71  C   UNL A   1      42.521  23.599  26.445  1.00  0.00     0.135 A 
ATOM     72  F   UNL A   1      42.472  22.791  29.989  1.00  0.00    -0.206 F 
ATOM     73  C   UNL A   1      42.271  21.386  28.117  1.00  0.00     0.059 A 
ATOM     74  C   UNL A   1      42.342  22.339  25.885  1.00  0.00     0.059 A 
ATOM     75  F   UNL A   1      42.634  24.651  25.618  1.00  0.00    -0.206 F 
ATOM     76  C   UNL A   1      42.226  21.236  26.730  1.00  0.00     0.060 A 
BRANCH  76  77
ATOM     77  S   UNL A   1      41.964  19.589  26.040  1.00  0.00     0.124 S 
ATOM     78  O   UNL A   1      42.845  19.614  24.879  1.00  0.00    -0.237 OA
ATOM     79  O   UNL A   1      42.381  18.725  27.141  1.00  0.00    -0.237 OA
ATOM     80  O   UNL A   1      40.534  19.572  25.749  1.00  0.00    -0.744 OA
ENDBRANCH  76  77
ENDBRANCH  44  69
BRANCH  56  81
ATOM     81  C   UNL A   1      48.009  27.209  30.547  1.00  0.00     0.058 A 
ATOM     82  C   UNL A   1      49.036  27.548  29.655  1.00  0.00     0.135 A 
ATOM     83  C   UNL A   1      48.359  26.529  31.726  1.00  0.00     0.135 A 
ATOM     84  F   UNL A   1      48.752  28.194  28.512  1.00  0.00    -0.206 F 
ATOM     85  C   UNL A   1      50.362  27.211  29.910  1.00  0.00     0.059 A 
ATOM     86  C   UNL A   1      49.682  26.203  32.013  1.00  0.00     0.059 A 
ATOM     87  F   UNL A   1      47.416  26.191  32.618  1.00  0.00    -0.206 F 
ATOM     88  C   UNL A   1      50.674  26.538  31.093  1.00  0.00     0.060 A 
BRANCH  88  89
ATOM     89  S   UNL A   1      52.401  26.134  31.431  1.00  0.00     0.124 S 
ATOM     90  O   UNL A   1      52.980  26.178  30.093  1.00  0.00    -0.237 OA
ATOM     91  O   UNL A   1      52.805  27.209  32.333  1.00  0.00    -0.237 OA
ATOM     92  O   UNL A   1      52.326  24.809  32.040  1.00  0.00    -0.744 OA
ENDBRANCH  88  89
ENDBRANCH  56  81
ENDBRANCH  30  31
ENDBRANCH  23  25
ENDBRANCH  22  23
ENDBRANCH  21  22
ENDBRANCH  20  21
ENDBRANCH   1  20
TORSDOF 20
ENDMDL
MODEL 2
REMARK VINA RESULT:      -9.7      3.428      4.790
REMARK SMILES C[C@@H](C(=O)OCCOCCOC(=O)c1ccc(-c2c3nc(c(-c4c(F)cc(S(=O)(=O)[O-])cc4F)c4ccc([nH]4)c(-c4c(F)cc(S(=O)(=O)[O-])cc4F)c4nc(c(-c5c(F)cc(S(=O)(=O)[O-])cc5F)c5ccc2[nH]5)C=C4)C=C3)cc1)[C@@H](C)C(=O)c1ccc(Br)cc1
REMARK SMILES IDX 8 1 7 2 6 3 5 4 3 5 4 6 2 7 1 8 80 9 81 10 82 11 83 12 84 13
REMARK SMILES IDX 85 14 90 15 86 16 89 17 87 18 88 19 9 20 10 21 11 22 12 23
REMARK SMILES IDX 13 24 14 25 15 26 79 27 16 28 78 29 17 30 18 31 19 32 72 33
REMARK SMILES IDX 20 34 77 35 71 36 73 37 21 38 76 39 70 40 69 41 22 43 56 44
REMARK SMILES IDX 35 45 55 46 36 47 39 48 54 49 74 50 37 51 38 52 53 54 75 55
REMARK SMILES IDX 40 56 23 57 24 58 33 59 25 60 26 61 32 62 34 63 27 64 28 65
REMARK SMILES IDX 29 66 30 67 31 68 57 69 58 70 67 71 59 72 60 73 66 74 68 75
REMARK SMILES IDX 61 76 62 77 63 78 64 79 65 80 41 81 42 82 51 83 43 84 44 85
REMARK SMILES IDX 50 86 52 87 45 88 46 89 47 90 48 91 49 92
REMARK H PARENT 73 42 39 53
REMARK Flexibility Score: inf
ROOT
ATOM      1  O   UNL A   1      33.943  30.500  28.019  1.00  0.00    -0.374 OA
ENDROOT
BRANCH   1   2
ATOM      2  C   UNL A   1      34.079  29.977  26.702  1.00  0.00     0.202 C 
BRANCH   2   3
ATOM      3  C   UNL A   1      33.046  28.958  26.208  1.00  0.00     0.261 C 
BRANCH   3   4
ATOM      4  O   UNL A   1      33.251  27.632  26.719  1.00  0.00    -0.463 OA
BRANCH   4   5
ATOM      5  C   UNL A   1      32.246  26.761  26.443  1.00  0.00     0.309 C 
ATOM      6  O   UNL A   1      31.142  26.810  26.971  1.00  0.00    -0.252 OA
BRANCH   5   7
ATOM      7  C   UNL A   1      32.639  25.677  25.434  1.00  0.00     0.106 C 
ATOM      8  C   UNL A   1      34.125  25.283  25.500  1.00  0.00     0.021 C 
BRANCH   7   9
ATOM      9  C   UNL A   1      32.238  26.113  24.000  1.00  0.00     0.072 C 
ATOM     10  C   UNL A   1      33.009  25.387  22.894  1.00  0.00     0.017 C 
BRANCH   9  11
ATOM     11  C   UNL A   1      30.758  26.163  23.567  1.00  0.00     0.166 C 
ATOM     12  O   UNL A   1      30.153  25.088  23.460  1.00  0.00    -0.294 OA
BRANCH  11  13
ATOM     13  C   UNL A   1      29.950  27.427  23.414  1.00  0.00     0.018 A 
ATOM     14  C   UNL A   1      30.650  28.645  23.502  1.00  0.00     0.013 A 
ATOM     15  C   UNL A   1      28.564  27.484  23.242  1.00  0.00     0.013 A 
ATOM     16  C   UNL A   1      29.985  29.874  23.430  1.00  0.00     0.016 A 
ATOM     17  C   UNL A   1      27.890  28.711  23.191  1.00  0.00     0.016 A 
ATOM     18  C   UNL A   1      28.603  29.900  23.283  1.00  0.00     0.018 A 
ATOM     19  Br  UNL A   1      27.689  31.551  23.218  1.00  0.00    -0.051 Br
ENDBRANCH  11  13
ENDBRANCH   9  11
ENDBRANCH   7   9
ENDBRANCH   5   7
ENDBRANCH   4   5
ENDBRANCH   3   4
ENDBRANCH   2   3
ENDBRANCH   1   2
BRANCH   1  20
ATOM     20  C   UNL A   1      34.750  31.612  28.402  1.00  0.00     0.202 C 
BRANCH  20  21
ATOM     21  C   UNL A   1      34.795  32.012  29.881  1.00  0.00     0.261 C 
BRANCH  21  22
ATOM     22  O   UNL A   1      36.124  31.962  30.436  1.00  0.00    -0.460 OA
BRANCH  22  23
ATOM     23  C   UNL A   1      36.600  30.710  30.636  1.00  0.00     0.338 C 
ATOM     24  O   UNL A   1      35.952  29.718  30.959  1.00  0.00    -0.246 OA
BRANCH  23  25
ATOM     25  C   UNL A   1      38.010  30.617  30.226  1.00  0.00     0.060 A 
ATOM     26  C   UNL A   1      38.280  30.470  28.859  1.00  0.00     0.016 A 
ATOM     27  C   UNL A   1      39.041  30.552  31.166  1.00  0.00     0.016 A 
ATOM     28  C   UNL A   1      39.577  30.206  28.428  1.00  0.00     0.010 A 
ATOM     29  C   UNL A   1      40.342  30.275  30.731  1.00  0.00     0.010 A 
ATOM     30  C   UNL A   1      40.607  30.062  29.365  1.00  0.00    -0.014 A 
BRANCH  30  31
ATOM     31  C   UNL A   1      41.918  29.528  28.920  1.00  0.00     0.031 A 
ATOM     32  C   UNL A   1      43.102  30.457  28.866  1.00  0.00     0.074 A 
ATOM     33  C   UNL A   1      42.063  28.226  28.615  1.00  0.00     0.049 A 
ATOM     34  N   UNL A   1      44.331  30.212  28.497  1.00  0.00    -0.248 NA
ATOM     35  C   UNL A   1      42.865  31.848  29.287  1.00  0.00     0.031 C 
ATOM     36  C   UNL A   1      41.000  27.224  28.670  1.00  0.00     0.029 A 
ATOM     37  N   UNL A   1      43.166  27.527  28.195  1.00  0.00    -0.354 N 
ATOM     38  C   UNL A   1      45.016  31.413  28.640  1.00  0.00     0.074 A 
ATOM     39  C   UNL A   1      44.057  32.394  29.100  1.00  0.00     0.031 C 
ATOM     40  C   UNL A   1      41.501  26.038  28.284  1.00  0.00     0.029 A 
ATOM     41  C   UNL A   1      42.910  26.204  27.930  1.00  0.00     0.049 A 
ATOM     42  H   UNL A   1      44.056  27.935  28.094  1.00  0.00     0.167 HD
ATOM     43  C   UNL A   1      46.327  31.672  28.418  1.00  0.00     0.037 A 
ATOM     44  C   UNL A   1      43.716  25.242  27.438  1.00  0.00     0.037 A 
ATOM     45  C   UNL A   1      47.277  30.692  27.958  1.00  0.00     0.049 A 
ATOM     46  C   UNL A   1      45.157  25.567  27.138  1.00  0.00     0.074 A 
ATOM     47  C   UNL A   1      48.628  30.855  27.708  1.00  0.00     0.029 A 
ATOM     48  N   UNL A   1      46.974  29.369  27.675  1.00  0.00    -0.354 N 
ATOM     49  N   UNL A   1      45.793  26.705  27.290  1.00  0.00    -0.248 NA
ATOM     50  C   UNL A   1      45.989  24.479  26.606  1.00  0.00     0.031 C 
ATOM     51  C   UNL A   1      49.133  29.638  27.235  1.00  0.00     0.029 A 
ATOM     52  C   UNL A   1      48.108  28.707  27.234  1.00  0.00     0.049 A 
ATOM     53  H   UNL A   1      46.084  28.959  27.775  1.00  0.00     0.167 HD
ATOM     54  C   UNL A   1      47.104  26.463  26.894  1.00  0.00     0.074 A 
ATOM     55  C   UNL A   1      47.172  25.068  26.505  1.00  0.00     0.031 C 
ATOM     56  C   UNL A   1      48.158  27.316  26.856  1.00  0.00     0.037 A 
BRANCH  43  57
ATOM     57  C   UNL A   1      46.804  33.079  28.646  1.00  0.00     0.058 A 
ATOM     58  C   UNL A   1      47.385  33.471  29.864  1.00  0.00     0.135 A 
ATOM     59  C   UNL A   1      46.703  34.040  27.629  1.00  0.00     0.135 A 
ATOM     60  F   UNL A   1      47.489  32.596  30.877  1.00  0.00    -0.206 F 
ATOM     61  C   UNL A   1      47.824  34.775  30.072  1.00  0.00     0.059 A 
ATOM     62  C   UNL A   1      47.158  35.343  27.807  1.00  0.00     0.059 A 
ATOM     63  F   UNL A   1      46.153  33.719  26.448  1.00  0.00    -0.206 F 
ATOM     64  C   UNL A   1      47.703  35.705  29.038  1.00  0.00     0.060 A 
BRANCH  64  65
ATOM     65  S   UNL A   1      48.276  37.394  29.322  1.00  0.00     0.124 S 
ATOM     66  O   UNL A   1      47.844  37.618  30.698  1.00  0.00    -0.237 OA
ATOM     67  O   UNL A   1      49.717  37.274  29.122  1.00  0.00    -0.237 OA
ATOM     68  O   UNL A   1      47.568  38.168  28.308  1.00  0.00    -0.744 OA
ENDBRANCH  64  65
ENDBRANCH  43  57
BRANCH  44  69
ATOM     69  C   UNL A   1      43.173  23.882  27.182  1.00  0.00     0.058 A 
ATOM     70  C   UNL A   1      43.102  22.921  28.200  1.00  0.00     0.135 A 
ATOM     71  C   UNL A   1      42.708  23.521  25.907  1.00  0.00     0.135 A 
ATOM     72  F   UNL A   1      43.545  23.217  29.432  1.00  0.00    -0.206 F 
ATOM     73  C   UNL A   1      42.597  21.647  27.965  1.00  0.00     0.059 A 
ATOM     74  C   UNL A   1      42.178  22.260  25.653  1.00  0.00     0.059 A 
ATOM     75  F   UNL A   1      42.745  24.408  24.900  1.00  0.00    -0.206 F 
ATOM     76  C   UNL A   1      42.135  21.326  26.687  1.00  0.00     0.060 A 
BRANCH  76  77
ATOM     77  S   UNL A   1      41.428  19.690  26.402  1.00  0.00     0.124 S 
ATOM     78  O   UNL A   1      41.658  19.043  27.688  1.00  0.00    -0.237 OA
ATOM     79  O   UNL A   1      40.039  20.007  26.084  1.00  0.00    -0.237 OA
ATOM     80  O   UNL A   1      42.215  19.175  25.285  1.00  0.00    -0.744 OA
ENDBRANCH  76  77
ENDBRANCH  44  69
BRANCH  56  81
ATOM     81  C   UNL A   1      49.483  26.764  26.406  1.00  0.00     0.058 A 
ATOM     82  C   UNL A   1      49.956  26.956  25.100  1.00  0.00     0.135 A 
ATOM     83  C   UNL A   1      50.312  26.083  27.313  1.00  0.00     0.135 A 
ATOM     84  F   UNL A   1      49.200  27.597  24.195  1.00  0.00    -0.206 F 
ATOM     85  C   UNL A   1      51.198  26.473  24.699  1.00  0.00     0.059 A 
ATOM     86  C   UNL A   1      51.568  25.612  26.940  1.00  0.00     0.059 A 
ATOM     87  F   UNL A   1      49.910  25.882  28.578  1.00  0.00    -0.206 F 
ATOM     88  C   UNL A   1      51.998  25.803  25.628  1.00  0.00     0.060 A 
BRANCH  88  89
ATOM     89  S   UNL A   1      53.621  25.210  25.107  1.00  0.00     0.124 S 
ATOM     90  O   UNL A   1      53.606  25.526  23.683  1.00  0.00    -0.237 OA
ATOM     91  O   UNL A   1      54.526  26.011  25.926  1.00  0.00    -0.237 OA
ATOM     92  O   UNL A   1      53.584  23.788  25.436  1.00  0.00    -0.744 OA
ENDBRANCH  88  89
ENDBRANCH  56  81
ENDBRANCH  30  31
ENDBRANCH  23  25
ENDBRANCH  22  23
ENDBRANCH  21  22
ENDBRANCH  20  21
ENDBRANCH   1  20
TORSDOF 20
ENDMDL
MODEL 3
REMARK VINA RESULT:      -9.6      3.454      9.461
REMARK SMILES C[C@@H](C(=O)OCCOCCOC(=O)c1ccc(-c2c3nc(c(-c4c(F)cc(S(=O)(=O)[O-])cc4F)c4ccc([nH]4)c(-c4c(F)cc(S(=O)(=O)[O-])cc4F)c4nc(c(-c5c(F)cc(S(=O)(=O)[O-])cc5F)c5ccc2[nH]5)C=C4)C=C3)cc1)[C@@H](C)C(=O)c1ccc(Br)cc1
REMARK SMILES IDX 8 1 7 2 6 3 5 4 3 5 4 6 2 7 1 8 80 9 81 10 82 11 83 12 84 13
REMARK SMILES IDX 85 14 90 15 86 16 89 17 87 18 88 19 9 20 10 21 11 22 12 23
REMARK SMILES IDX 13 24 14 25 15 26 79 27 16 28 78 29 17 30 18 31 19 32 72 33
REMARK SMILES IDX 20 34 77 35 71 36 73 37 21 38 76 39 70 40 69 41 22 43 56 44
REMARK SMILES IDX 35 45 55 46 36 47 39 48 54 49 74 50 37 51 38 52 53 54 75 55
REMARK SMILES IDX 40 56 23 57 24 58 33 59 25 60 26 61 32 62 34 63 27 64 28 65
REMARK SMILES IDX 29 66 30 67 31 68 57 69 58 70 67 71 59 72 60 73 66 74 68 75
REMARK SMILES IDX 61 76 62 77 63 78 64 79 65 80 41 81 42 82 51 83 43 84 44 85
REMARK SMILES IDX 50 86 52 87 45 88 46 89 47 90 48 91 49 92
REMARK H PARENT 73 42 39 53
REMARK Flexibility Score: inf
ROOT
ATOM      1  O   UNL A   1      35.236  21.216  24.416  1.00  0.00    -0.374 OA
ENDROOT
BRANCH   1   2
ATOM      2  C   UNL A   1      34.290  20.287  24.935  1.00  0.00     0.202 C 
BRANCH   2   3
ATOM      3  C   UNL A   1      33.228  20.793  25.918  1.00  0.00     0.261 C 
BRANCH   3   4
ATOM      4  O   UNL A   1      33.263  22.214  26.127  1.00  0.00    -0.463 OA
BRANCH   4   5
ATOM      5  C   UNL A   1      32.582  22.638  27.223  1.00  0.00     0.309 C 
ATOM      6  O   UNL A   1      32.897  22.350  28.370  1.00  0.00    -0.252 OA
BRANCH   5   7
ATOM      7  C   UNL A   1      31.350  23.483  26.884  1.00  0.00     0.106 C 
ATOM      8  C   UNL A   1      30.108  22.647  26.526  1.00  0.00     0.021 C 
BRANCH   7   9
ATOM      9  C   UNL A   1      31.689  24.494  25.757  1.00  0.00     0.072 C 
ATOM     10  C   UNL A   1      31.314  24.005  24.355  1.00  0.00     0.017 C 
BRANCH   9  11
ATOM     11  C   UNL A   1      31.256  25.971  25.856  1.00  0.00     0.166 C 
ATOM     12  O   UNL A   1      30.061  26.235  25.670  1.00  0.00    -0.294 OA
BRANCH  11  13
ATOM     13  C   UNL A   1      32.147  27.099  26.313  1.00  0.00     0.018 A 
ATOM     14  C   UNL A   1      31.523  28.180  26.962  1.00  0.00     0.013 A 
ATOM     15  C   UNL A   1      33.526  27.175  26.099  1.00  0.00     0.013 A 
ATOM     16  C   UNL A   1      32.252  29.302  27.373  1.00  0.00     0.016 A 
ATOM     17  C   UNL A   1      34.258  28.305  26.489  1.00  0.00     0.016 A 
ATOM     18  C   UNL A   1      33.619  29.361  27.126  1.00  0.00     0.018 A 
ATOM     19  Br  UNL A   1      34.609  30.883  27.646  1.00  0.00    -0.051 Br
ENDBRANCH  11  13
ENDBRANCH   9  11
ENDBRANCH   7   9
ENDBRANCH   5   7
ENDBRANCH   4   5
ENDBRANCH   3   4
ENDBRANCH   2   3
ENDBRANCH   1   2
BRANCH   1  20
ATOM     20  C   UNL A   1      36.591  21.128  24.849  1.00  0.00     0.202 C 
BRANCH  20  21
ATOM     21  C   UNL A   1      37.136  22.217  25.782  1.00  0.00     0.261 C 
BRANCH  21  22
ATOM     22  O   UNL A   1      38.498  22.580  25.485  1.00  0.00    -0.460 OA
BRANCH  22  23
ATOM     23  C   UNL A   1      39.308  22.648  26.568  1.00  0.00     0.338 C 
ATOM     24  O   UNL A   1      39.949  21.728  27.070  1.00  0.00    -0.246 OA
BRANCH  23  25
ATOM     25  C   UNL A   1      39.496  24.044  26.992  1.00  0.00     0.060 A 
ATOM     26  C   UNL A   1      40.043  24.937  26.061  1.00  0.00     0.016 A 
ATOM     27  C   UNL A   1      39.257  24.447  28.308  1.00  0.00     0.016 A 
ATOM     28  C   UNL A   1      40.402  26.223  26.454  1.00  0.00     0.010 A 
ATOM     29  C   UNL A   1      39.630  25.737  28.703  1.00  0.00     0.010 A 
ATOM     30  C   UNL A   1      40.240  26.615  27.787  1.00  0.00    -0.014 A 
BRANCH  30  31
ATOM     31  C   UNL A   1      40.860  27.882  28.249  1.00  0.00     0.031 A 
ATOM     32  C   UNL A   1      42.352  28.047  28.131  1.00  0.00     0.074 A 
ATOM     33  C   UNL A   1      40.101  28.887  28.722  1.00  0.00     0.049 A 
ATOM     34  N   UNL A   1      43.104  29.057  28.482  1.00  0.00    -0.248 NA
ATOM     35  C   UNL A   1      43.092  26.922  27.535  1.00  0.00     0.031 C 
ATOM     36  C   UNL A   1      38.645  28.859  28.844  1.00  0.00     0.029 A 
ATOM     37  N   UNL A   1      40.456  30.127  29.189  1.00  0.00    -0.354 N 
ATOM     38  C   UNL A   1      44.404  28.693  28.151  1.00  0.00     0.074 A 
ATOM     39  C   UNL A   1      44.342  27.356  27.600  1.00  0.00     0.031 C 
ATOM     40  C   UNL A   1      38.230  30.025  29.367  1.00  0.00     0.029 A 
ATOM     41  C   UNL A   1      39.392  30.869  29.640  1.00  0.00     0.049 A 
ATOM     42  H   UNL A   1      41.384  30.453  29.200  1.00  0.00     0.167 HD
ATOM     43  C   UNL A   1      45.544  29.411  28.285  1.00  0.00     0.037 A 
ATOM     44  C   UNL A   1      39.363  32.083  30.227  1.00  0.00     0.037 A 
ATOM     45  C   UNL A   1      45.601  30.741  28.836  1.00  0.00     0.049 A 
ATOM     46  C   UNL A   1      40.650  32.839  30.424  1.00  0.00     0.074 A 
ATOM     47  C   UNL A   1      46.707  31.554  29.010  1.00  0.00     0.029 A 
ATOM     48  N   UNL A   1      44.506  31.449  29.307  1.00  0.00    -0.354 N 
ATOM     49  N   UNL A   1      41.871  32.488  30.095  1.00  0.00    -0.248 NA
ATOM     50  C   UNL A   1      40.557  34.158  31.066  1.00  0.00     0.031 C 
ATOM     51  C   UNL A   1      46.285  32.739  29.623  1.00  0.00     0.029 A 
ATOM     52  C   UNL A   1      44.911  32.682  29.790  1.00  0.00     0.049 A 
ATOM     53  H   UNL A   1      43.576  31.123  29.299  1.00  0.00     0.167 HD
ATOM     54  C   UNL A   1      42.687  33.550  30.469  1.00  0.00     0.074 A 
ATOM     55  C   UNL A   1      41.820  34.561  31.040  1.00  0.00     0.031 C 
ATOM     56  C   UNL A   1      44.033  33.679  30.350  1.00  0.00     0.037 A 
BRANCH  43  57
ATOM     57  C   UNL A   1      46.828  28.762  27.850  1.00  0.00     0.058 A 
ATOM     58  C   UNL A   1      47.623  28.029  28.747  1.00  0.00     0.135 A 
ATOM     59  C   UNL A   1      47.258  28.855  26.518  1.00  0.00     0.135 A 
ATOM     60  F   UNL A   1      47.268  27.925  30.037  1.00  0.00    -0.206 F 
ATOM     61  C   UNL A   1      48.813  27.431  28.341  1.00  0.00     0.059 A 
ATOM     62  C   UNL A   1      48.432  28.244  26.085  1.00  0.00     0.059 A 
ATOM     63  F   UNL A   1      46.538  29.547  25.622  1.00  0.00    -0.206 F 
ATOM     64  C   UNL A   1      49.210  27.547  27.008  1.00  0.00     0.060 A 
BRANCH  64  65
ATOM     65  S   UNL A   1      50.756  26.768  26.495  1.00  0.00     0.124 S 
ATOM     66  O   UNL A   1      50.374  26.183  25.213  1.00  0.00    -0.237 OA
ATOM     67  O   UNL A   1      51.671  27.903  26.424  1.00  0.00    -0.237 OA
ATOM     68  O   UNL A   1      51.027  25.813  27.564  1.00  0.00    -0.744 OA
ENDBRANCH  64  65
ENDBRANCH  43  57
BRANCH  44  69
ATOM     69  C   UNL A   1      38.068  32.651  30.686  1.00  0.00     0.058 A 
ATOM     70  C   UNL A   1      37.665  32.557  32.025  1.00  0.00     0.135 A 
ATOM     71  C   UNL A   1      37.210  33.306  29.787  1.00  0.00     0.135 A 
ATOM     72  F   UNL A   1      38.446  31.930  32.917  1.00  0.00    -0.206 F 
ATOM     73  C   UNL A   1      36.453  33.085  32.459  1.00  0.00     0.059 A 
ATOM     74  C   UNL A   1      36.004  33.861  30.202  1.00  0.00     0.059 A 
ATOM     75  F   UNL A   1      37.555  33.431  28.496  1.00  0.00    -0.206 F 
ATOM     76  C   UNL A   1      35.630  33.738  31.539  1.00  0.00     0.060 A 
BRANCH  76  77
ATOM     77  S   UNL A   1      34.085  34.471  32.120  1.00  0.00     0.124 S 
ATOM     78  O   UNL A   1      33.515  33.376  32.896  1.00  0.00    -0.237 OA
ATOM     79  O   UNL A   1      34.559  35.620  32.885  1.00  0.00    -0.237 OA
ATOM     80  O   UNL A   1      33.385  34.800  30.882  1.00  0.00    -0.744 OA
ENDBRANCH  76  77
ENDBRANCH  44  69
BRANCH  56  81
ATOM     81  C   UNL A   1      44.651  34.968  30.819  1.00  0.00     0.058 A 
ATOM     82  C   UNL A   1      45.209  35.095  32.099  1.00  0.00     0.135 A 
ATOM     83  C   UNL A   1      44.732  36.071  29.953  1.00  0.00     0.135 A 
ATOM     84  F   UNL A   1      45.153  34.071  32.965  1.00  0.00    -0.206 F 
ATOM     85  C   UNL A   1      45.811  36.278  32.515  1.00  0.00     0.059 A 
ATOM     86  C   UNL A   1      45.351  37.257  30.339  1.00  0.00     0.059 A 
ATOM     87  F   UNL A   1      44.222  35.998  28.714  1.00  0.00    -0.206 F 
ATOM     88  C   UNL A   1      45.878  37.354  31.626  1.00  0.00     0.060 A 
BRANCH  88  89
ATOM     89  S   UNL A   1      46.690  38.874  32.165  1.00  0.00     0.124 S 
ATOM     90  O   UNL A   1      45.908  39.888  31.466  1.00  0.00    -0.237 OA
ATOM     91  O   UNL A   1      46.517  38.827  33.613  1.00  0.00    -0.237 OA
ATOM     92  O   UNL A   1      48.064  38.707  31.699  1.00  0.00    -0.744 OA
ENDBRANCH  88  89
ENDBRANCH  56  81
ENDBRANCH  30  31
ENDBRANCH  23  25
ENDBRANCH  22  23
ENDBRANCH  21  22
ENDBRANCH  20  21
ENDBRANCH   1  20
TORSDOF 20
ENDMDL
