MODEL 1
REMARK VINA RESULT:      -9.1      0.000      0.000
REMARK SMILES CC[NH2+][C@@]1(C(=O)OCCOCCOC(=O)c2ccc(-c3c4nc(c(-c5c(F)cc(S(=O)(=O)[O-])cc5F)c5ccc([nH]5)c(-c5c(F)cc(S(=O)(=O)[O-])cc5F)c5nc(c(-c6c(F)cc(S(=O)(=O)[O-])cc6F)c6ccc3[nH]6)C=C5)C=C4)cc2)CC[C@@H](OCCOC)C1
REMARK SMILES IDX 9 1 8 2 7 3 5 4 6 5 4 6 82 7 90 8 83 9 84 10 3 11 2 14 1 15
REMARK SMILES IDX 85 16 86 17 87 18 88 19 89 20 10 21 11 22 12 23 13 24 14 25
REMARK SMILES IDX 15 26 16 27 17 28 81 29 18 30 80 31 19 32 20 33 21 34 74 35
REMARK SMILES IDX 22 36 79 37 73 38 75 39 23 40 78 41 72 42 71 43 24 45 58 46
REMARK SMILES IDX 37 47 57 48 38 49 41 50 56 51 76 52 39 53 40 54 55 56 77 57
REMARK SMILES IDX 42 58 25 59 26 60 35 61 27 62 28 63 34 64 36 65 29 66 30 67
REMARK SMILES IDX 31 68 32 69 33 70 59 71 60 72 69 73 61 74 62 75 68 76 70 77
REMARK SMILES IDX 63 78 64 79 65 80 66 81 67 82 43 83 44 84 53 85 45 86 46 87
REMARK SMILES IDX 52 88 54 89 47 90 48 91 49 92 50 93 51 94
REMARK H PARENT 3 12 3 13 75 44 41 55
REMARK Flexibility Score: inf
ROOT
ATOM      1  C   UNL A   1      33.468  28.065  24.533  1.00  0.00     0.202 C 
ENDROOT
BRANCH   1   2
ATOM      2  C   UNL A   1      33.084  27.046  25.611  1.00  0.00     0.261 C 
BRANCH   2   3
ATOM      3  O   UNL A   1      32.577  25.817  25.073  1.00  0.00    -0.459 OA
BRANCH   3   4
ATOM      4  C   UNL A   1      32.423  24.806  25.973  1.00  0.00     0.368 C 
ATOM      5  O   UNL A   1      31.670  24.867  26.942  1.00  0.00    -0.245 OA
BRANCH   4   6
ATOM      6  C   UNL A   1      33.365  23.590  25.685  1.00  0.00     0.196 C 
ATOM      7  C   UNL A   1      33.364  23.349  24.169  1.00  0.00     0.084 C 
ATOM      8  C   UNL A   1      32.855  22.225  26.198  1.00  0.00     0.113 C 
ATOM      9  C   UNL A   1      32.053  22.602  23.913  1.00  0.00     0.039 C 
ATOM     10  C   UNL A   1      31.791  21.782  25.186  1.00  0.00     0.125 C 
BRANCH   6  11
ATOM     11  N   UNL A   1      34.713  23.834  26.275  1.00  0.00    -0.332 N 
ATOM     12  H   UNL A   1      34.618  24.550  26.996  1.00  0.00     0.347 HD
ATOM     13  H   UNL A   1      35.034  22.938  26.640  1.00  0.00     0.347 HD
BRANCH  11  14
ATOM     14  C   UNL A   1      35.730  24.281  25.319  1.00  0.00     0.257 C 
ATOM     15  C   UNL A   1      36.941  23.360  25.387  1.00  0.00     0.071 C 
ENDBRANCH  11  14
ENDBRANCH   6  11
BRANCH  10  16
ATOM     16  O   UNL A   1      31.751  20.361  25.045  1.00  0.00    -0.376 OA
BRANCH  16  17
ATOM     17  C   UNL A   1      32.829  19.756  24.341  1.00  0.00     0.189 C 
BRANCH  17  18
ATOM     18  C   UNL A   1      32.690  18.229  24.221  1.00  0.00     0.188 C 
BRANCH  18  19
ATOM     19  O   UNL A   1      32.099  17.574  25.341  1.00  0.00    -0.382 OA
ATOM     20  C   UNL A   1      32.660  16.290  25.606  1.00  0.00     0.195 C 
ENDBRANCH  18  19
ENDBRANCH  17  18
ENDBRANCH  16  17
ENDBRANCH  10  16
ENDBRANCH   4   6
ENDBRANCH   3   4
ENDBRANCH   2   3
ENDBRANCH   1   2
BRANCH   1  21
ATOM     21  O   UNL A   1      33.240  29.444  24.807  1.00  0.00    -0.374 OA
BRANCH  21  22
ATOM     22  C   UNL A   1      32.150  29.780  25.667  1.00  0.00     0.202 C 
BRANCH  22  23
ATOM     23  C   UNL A   1      32.479  30.462  27.003  1.00  0.00     0.261 C 
BRANCH  23  24
ATOM     24  O   UNL A   1      33.615  29.881  27.672  1.00  0.00    -0.460 OA
BRANCH  24  25
ATOM     25  C   UNL A   1      34.523  30.782  28.131  1.00  0.00     0.338 C 
ATOM     26  O   UNL A   1      34.304  31.921  28.509  1.00  0.00    -0.246 OA
BRANCH  25  27
ATOM     27  C   UNL A   1      35.845  30.148  28.284  1.00  0.00     0.060 A 
ATOM     28  C   UNL A   1      36.210  29.696  29.558  1.00  0.00     0.016 A 
ATOM     29  C   UNL A   1      36.757  30.108  27.229  1.00  0.00     0.016 A 
ATOM     30  C   UNL A   1      37.503  29.221  29.787  1.00  0.00     0.010 A 
ATOM     31  C   UNL A   1      38.057  29.645  27.464  1.00  0.00     0.010 A 
ATOM     32  C   UNL A   1      38.444  29.221  28.749  1.00  0.00    -0.014 A 
BRANCH  32  33
ATOM     33  C   UNL A   1      39.856  28.867  29.036  1.00  0.00     0.031 A 
ATOM     34  C   UNL A   1      40.765  29.889  29.665  1.00  0.00     0.074 A 
ATOM     35  C   UNL A   1      40.316  27.633  28.759  1.00  0.00     0.049 A 
ATOM     36  N   UNL A   1      42.032  29.790  29.971  1.00  0.00    -0.248 NA
ATOM     37  C   UNL A   1      40.165  31.191  29.998  1.00  0.00     0.031 C 
ATOM     38  C   UNL A   1      39.523  26.547  28.182  1.00  0.00     0.029 A 
ATOM     39  N   UNL A   1      41.566  27.088  28.917  1.00  0.00    -0.354 N 
ATOM     40  C   UNL A   1      42.386  31.015  30.525  1.00  0.00     0.074 A 
ATOM     41  C   UNL A   1      41.203  31.847  30.500  1.00  0.00     0.031 C 
ATOM     42  C   UNL A   1      40.310  25.469  28.022  1.00  0.00     0.029 A 
ATOM     43  C   UNL A   1      41.667  25.798  28.454  1.00  0.00     0.049 A 
ATOM     44  H   UNL A   1      42.318  27.576  29.322  1.00  0.00     0.167 HD
ATOM     45  C   UNL A   1      43.586  31.405  31.016  1.00  0.00     0.037 A 
ATOM     46  C   UNL A   1      42.738  24.984  28.366  1.00  0.00     0.037 A 
ATOM     47  C   UNL A   1      44.761  30.571  31.048  1.00  0.00     0.049 A 
ATOM     48  C   UNL A   1      44.079  25.471  28.851  1.00  0.00     0.074 A 
ATOM     49  C   UNL A   1      46.010  30.866  31.566  1.00  0.00     0.029 A 
ATOM     50  N   UNL A   1      44.835  29.287  30.531  1.00  0.00    -0.354 N 
ATOM     51  N   UNL A   1      44.388  26.617  29.409  1.00  0.00    -0.248 NA
ATOM     52  C   UNL A   1      45.218  24.555  28.691  1.00  0.00     0.031 C 
ATOM     53  C   UNL A   1      46.854  29.777  31.319  1.00  0.00     0.029 A 
ATOM     54  C   UNL A   1      46.118  28.788  30.686  1.00  0.00     0.049 A 
ATOM     55  H   UNL A   1      44.086  28.801  30.116  1.00  0.00     0.167 HD
ATOM     56  C   UNL A   1      45.751  26.553  29.680  1.00  0.00     0.074 A 
ATOM     57  C   UNL A   1      46.205  25.250  29.241  1.00  0.00     0.031 C 
ATOM     58  C   UNL A   1      46.556  27.489  30.241  1.00  0.00     0.037 A 
BRANCH  45  59
ATOM     59  C   UNL A   1      43.707  32.804  31.549  1.00  0.00     0.058 A 
ATOM     60  C   UNL A   1      43.648  33.077  32.924  1.00  0.00     0.135 A 
ATOM     61  C   UNL A   1      43.960  33.876  30.677  1.00  0.00     0.135 A 
ATOM     62  F   UNL A   1      43.394  32.090  33.799  1.00  0.00    -0.206 F 
ATOM     63  C   UNL A   1      43.828  34.366  33.417  1.00  0.00     0.059 A 
ATOM     64  C   UNL A   1      44.161  35.169  31.149  1.00  0.00     0.059 A 
ATOM     65  F   UNL A   1      44.022  33.668  29.352  1.00  0.00    -0.206 F 
ATOM     66  C   UNL A   1      44.087  35.405  32.521  1.00  0.00     0.060 A 
BRANCH  66  67
ATOM     67  S   UNL A   1      44.352  37.066  33.178  1.00  0.00     0.124 S 
ATOM     68  O   UNL A   1      45.808  37.163  33.149  1.00  0.00    -0.237 OA
ATOM     69  O   UNL A   1      43.643  37.902  32.215  1.00  0.00    -0.237 OA
ATOM     70  O   UNL A   1      43.754  37.004  34.509  1.00  0.00    -0.744 OA
ENDBRANCH  66  67
ENDBRANCH  45  59
BRANCH  46  71
ATOM     71  C   UNL A   1      42.602  23.632  27.764  1.00  0.00     0.058 A 
ATOM     72  C   UNL A   1      42.471  22.489  28.567  1.00  0.00     0.135 A 
ATOM     73  C   UNL A   1      42.629  23.454  26.372  1.00  0.00     0.135 A 
ATOM     74  F   UNL A   1      42.452  22.608  29.904  1.00  0.00    -0.206 F 
ATOM     75  C   UNL A   1      42.393  21.216  28.013  1.00  0.00     0.059 A 
ATOM     76  C   UNL A   1      42.529  22.194  25.793  1.00  0.00     0.059 A 
ATOM     77  F   UNL A   1      42.745  24.518  25.561  1.00  0.00    -0.206 F 
ATOM     78  C   UNL A   1      42.426  21.079  26.623  1.00  0.00     0.060 A 
BRANCH  78  79
ATOM     79  S   UNL A   1      42.298  19.425  25.908  1.00  0.00     0.124 S 
ATOM     80  O   UNL A   1      40.865  19.322  25.665  1.00  0.00    -0.237 OA
ATOM     81  O   UNL A   1      43.143  19.534  24.722  1.00  0.00    -0.237 OA
ATOM     82  O   UNL A   1      42.825  18.565  26.965  1.00  0.00    -0.744 OA
ENDBRANCH  78  79
ENDBRANCH  46  71
BRANCH  58  83
ATOM     83  C   UNL A   1      48.005  27.136  30.426  1.00  0.00     0.058 A 
ATOM     84  C   UNL A   1      48.978  27.526  29.495  1.00  0.00     0.135 A 
ATOM     85  C   UNL A   1      48.431  26.443  31.571  1.00  0.00     0.135 A 
ATOM     86  F   UNL A   1      48.621  28.184  28.380  1.00  0.00    -0.206 F 
ATOM     87  C   UNL A   1      50.323  27.224  29.680  1.00  0.00     0.059 A 
ATOM     88  C   UNL A   1      49.774  26.151  31.788  1.00  0.00     0.059 A 
ATOM     89  F   UNL A   1      47.541  26.055  32.497  1.00  0.00    -0.206 F 
ATOM     90  C   UNL A   1      50.712  26.536  30.830  1.00  0.00     0.060 A 
BRANCH  90  91
ATOM     91  S   UNL A   1      52.465  26.178  31.077  1.00  0.00     0.124 S 
ATOM     92  O   UNL A   1      52.907  27.362  31.806  1.00  0.00    -0.237 OA
ATOM     93  O   UNL A   1      52.427  24.938  31.846  1.00  0.00    -0.237 OA
ATOM     94  O   UNL A   1      52.979  26.047  29.716  1.00  0.00    -0.744 OA
ENDBRANCH  90  91
ENDBRANCH  58  83
ENDBRANCH  32  33
ENDBRANCH  25  27
ENDBRANCH  24  25
ENDBRANCH  23  24
ENDBRANCH  22  23
ENDBRANCH  21  22
ENDBRANCH   1  21
TORSDOF 23
ENDMDL
MODEL 2
REMARK VINA RESULT:      -9.0      4.702     10.337
REMARK SMILES CC[NH2+][C@@]1(C(=O)OCCOCCOC(=O)c2ccc(-c3c4nc(c(-c5c(F)cc(S(=O)(=O)[O-])cc5F)c5ccc([nH]5)c(-c5c(F)cc(S(=O)(=O)[O-])cc5F)c5nc(c(-c6c(F)cc(S(=O)(=O)[O-])cc6F)c6ccc3[nH]6)C=C5)C=C4)cc2)CC[C@@H](OCCOC)C1
REMARK SMILES IDX 9 1 8 2 7 3 5 4 6 5 4 6 82 7 90 8 83 9 84 10 3 11 2 14 1 15
REMARK SMILES IDX 85 16 86 17 87 18 88 19 89 20 10 21 11 22 12 23 13 24 14 25
REMARK SMILES IDX 15 26 16 27 17 28 81 29 18 30 80 31 19 32 20 33 21 34 74 35
REMARK SMILES IDX 22 36 79 37 73 38 75 39 23 40 78 41 72 42 71 43 24 45 58 46
REMARK SMILES IDX 37 47 57 48 38 49 41 50 56 51 76 52 39 53 40 54 55 56 77 57
REMARK SMILES IDX 42 58 25 59 26 60 35 61 27 62 28 63 34 64 36 65 29 66 30 67
REMARK SMILES IDX 31 68 32 69 33 70 59 71 60 72 69 73 61 74 62 75 68 76 70 77
REMARK SMILES IDX 63 78 64 79 65 80 66 81 67 82 43 83 44 84 53 85 45 86 46 87
REMARK SMILES IDX 52 88 54 89 47 90 48 91 49 92 50 93 51 94
REMARK H PARENT 3 12 3 13 75 44 41 55
REMARK Flexibility Score: inf
ROOT
ATOM      1  C   UNL A   1      36.252  22.789  25.414  1.00  0.00     0.202 C 
ENDROOT
BRANCH   1   2
ATOM      2  C   UNL A   1      35.444  24.091  25.463  1.00  0.00     0.261 C 
BRANCH   2   3
ATOM      3  O   UNL A   1      34.246  23.984  26.243  1.00  0.00    -0.459 OA
BRANCH   3   4
ATOM      4  C   UNL A   1      33.222  24.794  25.852  1.00  0.00     0.368 C 
ATOM      5  O   UNL A   1      33.004  25.899  26.341  1.00  0.00    -0.245 OA
BRANCH   4   6
ATOM      6  C   UNL A   1      32.307  24.131  24.768  1.00  0.00     0.196 C 
ATOM      7  C   UNL A   1      30.918  23.931  25.390  1.00  0.00     0.084 C 
ATOM      8  C   UNL A   1      32.674  22.678  24.396  1.00  0.00     0.113 C 
ATOM      9  C   UNL A   1      31.077  22.678  26.254  1.00  0.00     0.039 C 
ATOM     10  C   UNL A   1      32.129  21.815  25.539  1.00  0.00     0.125 C 
BRANCH   6  11
ATOM     11  N   UNL A   1      32.318  24.948  23.519  1.00  0.00    -0.332 N 
ATOM     12  H   UNL A   1      31.378  24.935  23.124  1.00  0.00     0.347 HD
ATOM     13  H   UNL A   1      32.627  25.881  23.789  1.00  0.00     0.347 HD
BRANCH  11  14
ATOM     14  C   UNL A   1      33.254  24.484  22.490  1.00  0.00     0.257 C 
ATOM     15  C   UNL A   1      32.807  24.986  21.124  1.00  0.00     0.071 C 
ENDBRANCH  11  14
ENDBRANCH   6  11
BRANCH  10  16
ATOM     16  O   UNL A   1      31.710  20.528  25.082  1.00  0.00    -0.376 OA
BRANCH  16  17
ATOM     17  C   UNL A   1      32.530  19.896  24.107  1.00  0.00     0.189 C 
BRANCH  17  18
ATOM     18  C   UNL A   1      32.372  18.367  24.085  1.00  0.00     0.188 C 
BRANCH  18  19
ATOM     19  O   UNL A   1      32.061  17.762  25.338  1.00  0.00    -0.382 OA
ATOM     20  C   UNL A   1      32.693  16.497  25.528  1.00  0.00     0.195 C 
ENDBRANCH  18  19
ENDBRANCH  17  18
ENDBRANCH  16  17
ENDBRANCH  10  16
ENDBRANCH   4   6
ENDBRANCH   3   4
ENDBRANCH   2   3
ENDBRANCH   1   2
BRANCH   1  21
ATOM     21  O   UNL A   1      37.640  22.876  25.108  1.00  0.00    -0.374 OA
BRANCH  21  22
ATOM     22  C   UNL A   1      38.484  21.808  25.542  1.00  0.00     0.202 C 
BRANCH  22  23
ATOM     23  C   UNL A   1      39.676  22.162  26.444  1.00  0.00     0.261 C 
BRANCH  23  24
ATOM     24  O   UNL A   1      39.552  23.457  27.064  1.00  0.00    -0.460 OA
BRANCH  24  25
ATOM     25  C   UNL A   1      40.723  24.133  27.200  1.00  0.00     0.338 C 
ATOM     26  O   UNL A   1      41.784  23.886  26.650  1.00  0.00    -0.246 OA
BRANCH  25  27
ATOM     27  C   UNL A   1      40.522  25.356  27.997  1.00  0.00     0.060 A 
ATOM     28  C   UNL A   1      41.619  26.205  28.184  1.00  0.00     0.016 A 
ATOM     29  C   UNL A   1      39.314  25.605  28.651  1.00  0.00     0.016 A 
ATOM     30  C   UNL A   1      41.520  27.297  29.047  1.00  0.00     0.010 A 
ATOM     31  C   UNL A   1      39.220  26.692  29.527  1.00  0.00     0.010 A 
ATOM     32  C   UNL A   1      40.329  27.530  29.748  1.00  0.00    -0.014 A 
BRANCH  32  33
ATOM     33  C   UNL A   1      40.281  28.594  30.781  1.00  0.00     0.031 A 
ATOM     34  C   UNL A   1      41.213  28.527  31.962  1.00  0.00     0.074 A 
ATOM     35  C   UNL A   1      39.426  29.625  30.653  1.00  0.00     0.049 A 
ATOM     36  N   UNL A   1      41.311  29.336  32.984  1.00  0.00    -0.248 NA
ATOM     37  C   UNL A   1      42.161  27.402  31.991  1.00  0.00     0.031 C 
ATOM     38  C   UNL A   1      38.500  29.820  29.538  1.00  0.00     0.029 A 
ATOM     39  N   UNL A   1      39.192  30.700  31.475  1.00  0.00    -0.354 N 
ATOM     40  C   UNL A   1      42.325  28.819  33.782  1.00  0.00     0.074 A 
ATOM     41  C   UNL A   1      42.801  27.616  33.133  1.00  0.00     0.031 C 
ATOM     42  C   UNL A   1      37.787  30.940  29.752  1.00  0.00     0.029 A 
ATOM     43  C   UNL A   1      38.183  31.523  31.032  1.00  0.00     0.049 A 
ATOM     44  H   UNL A   1      39.698  30.865  32.302  1.00  0.00     0.167 HD
ATOM     45  C   UNL A   1      42.817  29.308  34.945  1.00  0.00     0.037 A 
ATOM     46  C   UNL A   1      37.628  32.608  31.607  1.00  0.00     0.037 A 
ATOM     47  C   UNL A   1      42.347  30.510  35.584  1.00  0.00     0.049 A 
ATOM     48  C   UNL A   1      38.145  33.087  32.938  1.00  0.00     0.074 A 
ATOM     49  C   UNL A   1      42.815  31.107  36.743  1.00  0.00     0.029 A 
ATOM     50  N   UNL A   1      41.296  31.291  35.129  1.00  0.00    -0.354 N 
ATOM     51  N   UNL A   1      39.130  32.610  33.661  1.00  0.00    -0.248 NA
ATOM     52  C   UNL A   1      37.471  34.250  33.536  1.00  0.00     0.031 C 
ATOM     53  C   UNL A   1      42.015  32.223  37.013  1.00  0.00     0.029 A 
ATOM     54  C   UNL A   1      41.077  32.345  36.000  1.00  0.00     0.049 A 
ATOM     55  H   UNL A   1      40.782  31.122  34.306  1.00  0.00     0.167 HD
ATOM     56  C   UNL A   1      39.204  33.423  34.787  1.00  0.00     0.074 A 
ATOM     57  C   UNL A   1      38.175  34.432  34.644  1.00  0.00     0.031 C 
ATOM     58  C   UNL A   1      40.047  33.341  35.846  1.00  0.00     0.037 A 
BRANCH  45  59
ATOM     59  C   UNL A   1      43.915  28.539  35.622  1.00  0.00     0.058 A 
ATOM     60  C   UNL A   1      43.638  27.520  36.547  1.00  0.00     0.135 A 
ATOM     61  C   UNL A   1      45.258  28.773  35.287  1.00  0.00     0.135 A 
ATOM     62  F   UNL A   1      42.372  27.266  36.914  1.00  0.00    -0.206 F 
ATOM     63  C   UNL A   1      44.656  26.765  37.123  1.00  0.00     0.059 A 
ATOM     64  C   UNL A   1      46.290  28.018  35.835  1.00  0.00     0.059 A 
ATOM     65  F   UNL A   1      45.576  29.740  34.410  1.00  0.00    -0.206 F 
ATOM     66  C   UNL A   1      45.979  27.021  36.757  1.00  0.00     0.060 A 
BRANCH  66  67
ATOM     67  S   UNL A   1      47.286  26.010  37.486  1.00  0.00     0.124 S 
ATOM     68  O   UNL A   1      46.837  24.663  37.147  1.00  0.00    -0.237 OA
ATOM     69  O   UNL A   1      48.475  26.477  36.780  1.00  0.00    -0.237 OA
ATOM     70  O   UNL A   1      47.230  26.351  38.904  1.00  0.00    -0.744 OA
ENDBRANCH  66  67
ENDBRANCH  45  59
BRANCH  46  71
ATOM     71  C   UNL A   1      36.491  33.304  30.947  1.00  0.00     0.058 A 
ATOM     72  C   UNL A   1      36.684  34.074  29.790  1.00  0.00     0.135 A 
ATOM     73  C   UNL A   1      35.194  33.234  31.479  1.00  0.00     0.135 A 
ATOM     74  F   UNL A   1      37.909  34.180  29.252  1.00  0.00    -0.206 F 
ATOM     75  C   UNL A   1      35.636  34.768  29.196  1.00  0.00     0.059 A 
ATOM     76  C   UNL A   1      34.125  33.899  30.889  1.00  0.00     0.059 A 
ATOM     77  F   UNL A   1      34.957  32.503  32.579  1.00  0.00    -0.206 F 
ATOM     78  C   UNL A   1      34.359  34.677  29.755  1.00  0.00     0.060 A 
BRANCH  78  79
ATOM     79  S   UNL A   1      32.996  35.559  28.963  1.00  0.00     0.124 S 
ATOM     80  O   UNL A   1      32.479  34.543  28.054  1.00  0.00    -0.237 OA
ATOM     81  O   UNL A   1      32.143  35.895  30.099  1.00  0.00    -0.237 OA
ATOM     82  O   UNL A   1      33.660  36.696  28.331  1.00  0.00    -0.744 OA
ENDBRANCH  78  79
ENDBRANCH  46  71
BRANCH  58  83
ATOM     83  C   UNL A   1      39.905  34.377  36.926  1.00  0.00     0.058 A 
ATOM     84  C   UNL A   1      40.555  35.617  36.841  1.00  0.00     0.135 A 
ATOM     85  C   UNL A   1      39.072  34.147  38.033  1.00  0.00     0.135 A 
ATOM     86  F   UNL A   1      41.368  35.884  35.806  1.00  0.00    -0.206 F 
ATOM     87  C   UNL A   1      40.400  36.587  37.825  1.00  0.00     0.059 A 
ATOM     88  C   UNL A   1      38.885  35.111  39.017  1.00  0.00     0.059 A 
ATOM     89  F   UNL A   1      38.420  32.979  38.157  1.00  0.00    -0.206 F 
ATOM     90  C   UNL A   1      39.563  36.325  38.910  1.00  0.00     0.060 A 
BRANCH  90  91
ATOM     91  S   UNL A   1      39.344  37.604  40.167  1.00  0.00     0.124 S 
ATOM     92  O   UNL A   1      40.675  38.198  40.216  1.00  0.00    -0.237 OA
ATOM     93  O   UNL A   1      38.297  38.439  39.587  1.00  0.00    -0.237 OA
ATOM     94  O   UNL A   1      38.947  36.849  41.352  1.00  0.00    -0.744 OA
ENDBRANCH  90  91
ENDBRANCH  58  83
ENDBRANCH  32  33
ENDBRANCH  25  27
ENDBRANCH  24  25
ENDBRANCH  23  24
ENDBRANCH  22  23
ENDBRANCH  21  22
ENDBRANCH   1  21
TORSDOF 23
ENDMDL
MODEL 3
REMARK VINA RESULT:      -8.8      4.876     10.568
REMARK SMILES CC[NH2+][C@@]1(C(=O)OCCOCCOC(=O)c2ccc(-c3c4nc(c(-c5c(F)cc(S(=O)(=O)[O-])cc5F)c5ccc([nH]5)c(-c5c(F)cc(S(=O)(=O)[O-])cc5F)c5nc(c(-c6c(F)cc(S(=O)(=O)[O-])cc6F)c6ccc3[nH]6)C=C5)C=C4)cc2)CC[C@@H](OCCOC)C1
REMARK SMILES IDX 9 1 8 2 7 3 5 4 6 5 4 6 82 7 90 8 83 9 84 10 3 11 2 14 1 15
REMARK SMILES IDX 85 16 86 17 87 18 88 19 89 20 10 21 11 22 12 23 13 24 14 25
REMARK SMILES IDX 15 26 16 27 17 28 81 29 18 30 80 31 19 32 20 33 21 34 74 35
REMARK SMILES IDX 22 36 79 37 73 38 75 39 23 40 78 41 72 42 71 43 24 45 58 46
REMARK SMILES IDX 37 47 57 48 38 49 41 50 56 51 76 52 39 53 40 54 55 56 77 57
REMARK SMILES IDX 42 58 25 59 26 60 35 61 27 62 28 63 34 64 36 65 29 66 30 67
REMARK SMILES IDX 31 68 32 69 33 70 59 71 60 72 69 73 61 74 62 75 68 76 70 77
REMARK SMILES IDX 63 78 64 79 65 80 66 81 67 82 43 83 44 84 53 85 45 86 46 87
REMARK SMILES IDX 52 88 54 89 47 90 48 91 49 92 50 93 51 94
REMARK H PARENT 3 12 3 13 75 44 41 55
REMARK Flexibility Score: inf
ROOT
ATOM      1  C   UNL A   1      36.981  22.400  25.409  1.00  0.00     0.202 C 
ENDROOT
BRANCH   1   2
ATOM      2  C   UNL A   1      36.128  23.579  24.930  1.00  0.00     0.261 C 
BRANCH   2   3
ATOM      3  O   UNL A   1      34.728  23.275  24.867  1.00  0.00    -0.459 OA
BRANCH   3   4
ATOM      4  C   UNL A   1      33.979  23.765  25.896  1.00  0.00     0.368 C 
ATOM      5  O   UNL A   1      33.832  23.183  26.967  1.00  0.00    -0.245 OA
BRANCH   4   6
ATOM      6  C   UNL A   1      33.264  25.110  25.537  1.00  0.00     0.196 C 
ATOM      7  C   UNL A   1      31.806  25.002  26.005  1.00  0.00     0.084 C 
ATOM      8  C   UNL A   1      33.067  25.369  24.027  1.00  0.00     0.113 C 
ATOM      9  C   UNL A   1      31.129  24.165  24.919  1.00  0.00     0.039 C 
ATOM     10  C   UNL A   1      31.873  24.499  23.617  1.00  0.00     0.125 C 
BRANCH   6  11
ATOM     11  N   UNL A   1      34.019  26.262  26.111  1.00  0.00    -0.332 N 
ATOM     12  H   UNL A   1      34.182  26.072  27.100  1.00  0.00     0.347 HD
ATOM     13  H   UNL A   1      34.880  26.340  25.571  1.00  0.00     0.347 HD
BRANCH  11  14
ATOM     14  C   UNL A   1      33.341  27.557  26.000  1.00  0.00     0.257 C 
ATOM     15  C   UNL A   1      34.043  28.582  26.880  1.00  0.00     0.071 C 
ENDBRANCH  11  14
ENDBRANCH   6  11
BRANCH  10  16
ATOM     16  O   UNL A   1      31.111  25.100  22.570  1.00  0.00    -0.376 OA
BRANCH  16  17
ATOM     17  C   UNL A   1      31.590  26.338  22.057  1.00  0.00     0.189 C 
BRANCH  17  18
ATOM     18  C   UNL A   1      30.658  27.521  22.368  1.00  0.00     0.188 C 
BRANCH  18  19
ATOM     19  O   UNL A   1      29.994  27.468  23.628  1.00  0.00    -0.382 OA
ATOM     20  C   UNL A   1      28.593  27.223  23.520  1.00  0.00     0.195 C 
ENDBRANCH  18  19
ENDBRANCH  17  18
ENDBRANCH  16  17
ENDBRANCH  10  16
ENDBRANCH   4   6
ENDBRANCH   3   4
ENDBRANCH   2   3
ENDBRANCH   1   2
BRANCH   1  21
ATOM     21  O   UNL A   1      38.340  22.655  25.750  1.00  0.00    -0.374 OA
BRANCH  21  22
ATOM     22  C   UNL A   1      39.153  21.539  26.119  1.00  0.00     0.202 C 
BRANCH  22  23
ATOM     23  C   UNL A   1      40.493  21.832  26.812  1.00  0.00     0.261 C 
BRANCH  23  24
ATOM     24  O   UNL A   1      40.462  23.020  27.626  1.00  0.00    -0.460 OA
BRANCH  24  25
ATOM     25  C   UNL A   1      41.197  24.056  27.141  1.00  0.00     0.338 C 
ATOM     26  O   UNL A   1      41.858  24.074  26.116  1.00  0.00    -0.246 OA
BRANCH  25  27
ATOM     27  C   UNL A   1      40.965  25.270  27.944  1.00  0.00     0.060 A 
ATOM     28  C   UNL A   1      42.065  26.092  28.222  1.00  0.00     0.016 A 
ATOM     29  C   UNL A   1      39.720  25.535  28.516  1.00  0.00     0.016 A 
ATOM     30  C   UNL A   1      41.928  27.171  29.095  1.00  0.00     0.010 A 
ATOM     31  C   UNL A   1      39.588  26.610  29.403  1.00  0.00     0.010 A 
ATOM     32  C   UNL A   1      40.696  27.420  29.716  1.00  0.00    -0.014 A 
BRANCH  32  33
ATOM     33  C   UNL A   1      40.598  28.468  30.762  1.00  0.00     0.031 A 
ATOM     34  C   UNL A   1      41.490  28.396  31.972  1.00  0.00     0.074 A 
ATOM     35  C   UNL A   1      39.733  29.489  30.619  1.00  0.00     0.049 A 
ATOM     36  N   UNL A   1      41.543  29.191  33.008  1.00  0.00    -0.248 NA
ATOM     37  C   UNL A   1      42.453  27.283  32.017  1.00  0.00     0.031 C 
ATOM     38  C   UNL A   1      38.842  29.687  29.476  1.00  0.00     0.029 A 
ATOM     39  N   UNL A   1      39.456  30.548  31.447  1.00  0.00    -0.354 N 
ATOM     40  C   UNL A   1      42.536  28.677  33.833  1.00  0.00     0.074 A 
ATOM     41  C   UNL A   1      43.051  27.490  33.184  1.00  0.00     0.031 C 
ATOM     42  C   UNL A   1      38.107  30.793  29.682  1.00  0.00     0.029 A 
ATOM     43  C   UNL A   1      38.452  31.363  30.983  1.00  0.00     0.049 A 
ATOM     44  H   UNL A   1      39.932  30.708  32.294  1.00  0.00     0.167 HD
ATOM     45  C   UNL A   1      42.982  29.155  35.018  1.00  0.00     0.037 A 
ATOM     46  C   UNL A   1      37.861  32.432  31.554  1.00  0.00     0.037 A 
ATOM     47  C   UNL A   1      42.474  30.341  35.658  1.00  0.00     0.049 A 
ATOM     48  C   UNL A   1      38.327  32.898  32.909  1.00  0.00     0.074 A 
ATOM     49  C   UNL A   1      42.893  30.927  36.841  1.00  0.00     0.029 A 
ATOM     50  N   UNL A   1      41.428  31.114  35.179  1.00  0.00    -0.354 N 
ATOM     51  N   UNL A   1      39.294  32.425  33.657  1.00  0.00    -0.248 NA
ATOM     52  C   UNL A   1      37.616  34.043  33.499  1.00  0.00     0.031 C 
ATOM     53  C   UNL A   1      42.070  32.028  37.100  1.00  0.00     0.029 A 
ATOM     54  C   UNL A   1      41.165  32.152  36.057  1.00  0.00     0.049 A 
ATOM     55  H   UNL A   1      40.944  30.950  34.337  1.00  0.00     0.167 HD
ATOM     56  C   UNL A   1      39.319  33.222  34.797  1.00  0.00     0.074 A 
ATOM     57  C   UNL A   1      38.281  34.219  34.634  1.00  0.00     0.031 C 
ATOM     58  C   UNL A   1      40.126  33.136  35.883  1.00  0.00     0.037 A 
BRANCH  45  59
ATOM     59  C   UNL A   1      44.067  28.391  35.722  1.00  0.00     0.058 A 
ATOM     60  C   UNL A   1      45.425  28.657  35.489  1.00  0.00     0.135 A 
ATOM     61  C   UNL A   1      43.743  27.433  36.696  1.00  0.00     0.135 A 
ATOM     62  F   UNL A   1      45.789  29.553  34.558  1.00  0.00    -0.206 F 
ATOM     63  C   UNL A   1      46.426  27.993  36.192  1.00  0.00     0.059 A 
ATOM     64  C   UNL A   1      44.726  26.770  37.424  1.00  0.00     0.059 A 
ATOM     65  F   UNL A   1      42.458  27.139  36.953  1.00  0.00    -0.206 F 
ATOM     66  C   UNL A   1      46.065  27.053  37.161  1.00  0.00     0.060 A 
BRANCH  66  67
ATOM     67  S   UNL A   1      47.374  26.225  38.089  1.00  0.00     0.124 S 
ATOM     68  O   UNL A   1      48.092  27.361  38.658  1.00  0.00    -0.237 OA
ATOM     69  O   UNL A   1      46.620  25.412  39.038  1.00  0.00    -0.237 OA
ATOM     70  O   UNL A   1      48.097  25.476  37.064  1.00  0.00    -0.744 OA
ENDBRANCH  66  67
ENDBRANCH  45  59
BRANCH  46  71
ATOM     71  C   UNL A   1      36.738  33.121  30.866  1.00  0.00     0.058 A 
ATOM     72  C   UNL A   1      36.961  33.926  29.739  1.00  0.00     0.135 A 
ATOM     73  C   UNL A   1      35.422  33.011  31.341  1.00  0.00     0.135 A 
ATOM     74  F   UNL A   1      38.204  34.072  29.255  1.00  0.00    -0.206 F 
ATOM     75  C   UNL A   1      35.923  34.614  29.119  1.00  0.00     0.059 A 
ATOM     76  C   UNL A   1      34.364  33.670  30.725  1.00  0.00     0.059 A 
ATOM     77  F   UNL A   1      35.156  32.246  32.412  1.00  0.00    -0.206 F 
ATOM     78  C   UNL A   1      34.627  34.482  29.623  1.00  0.00     0.060 A 
BRANCH  78  79
ATOM     79  S   UNL A   1      33.279  35.357  28.798  1.00  0.00     0.124 S 
ATOM     80  O   UNL A   1      34.010  36.331  27.997  1.00  0.00    -0.237 OA
ATOM     81  O   UNL A   1      32.620  34.285  28.058  1.00  0.00    -0.237 OA
ATOM     82  O   UNL A   1      32.508  35.904  29.912  1.00  0.00    -0.744 OA
ENDBRANCH  78  79
ENDBRANCH  46  71
BRANCH  58  83
ATOM     83  C   UNL A   1      39.933  34.153  36.972  1.00  0.00     0.058 A 
ATOM     84  C   UNL A   1      40.566  35.405  36.925  1.00  0.00     0.135 A 
ATOM     85  C   UNL A   1      39.069  33.895  38.047  1.00  0.00     0.135 A 
ATOM     86  F   UNL A   1      41.408  35.699  35.921  1.00  0.00    -0.206 F 
ATOM     87  C   UNL A   1      40.364  36.358  37.917  1.00  0.00     0.059 A 
ATOM     88  C   UNL A   1      38.834  34.842  39.039  1.00  0.00     0.059 A 
ATOM     89  F   UNL A   1      38.432  32.716  38.134  1.00  0.00    -0.206 F 
ATOM     90  C   UNL A   1      39.496  36.067  38.971  1.00  0.00     0.060 A 
BRANCH  90  91
ATOM     91  S   UNL A   1      39.217  37.324  40.238  1.00  0.00     0.124 S 
ATOM     92  O   UNL A   1      38.527  36.556  41.267  1.00  0.00    -0.237 OA
ATOM     93  O   UNL A   1      40.574  37.748  40.565  1.00  0.00    -0.237 OA
ATOM     94  O   UNL A   1      38.405  38.324  39.549  1.00  0.00    -0.744 OA
ENDBRANCH  90  91
ENDBRANCH  58  83
ENDBRANCH  32  33
ENDBRANCH  25  27
ENDBRANCH  24  25
ENDBRANCH  23  24
ENDBRANCH  22  23
ENDBRANCH  21  22
ENDBRANCH   1  21
TORSDOF 23
ENDMDL
