MODEL 1
REMARK VINA RESULT:     -10.3      0.000      0.000
REMARK SMILES O=C(OCCOCCOC(=O)[C@H]1C[C@@H](O)CN1C(=O)CCc1ccc(Cl)cc1Cl)c1ccc(-c2c3nc(c(-c4c(F)cc(S(=O)(=O)[O-])cc4F)c4ccc([nH]4)c(-c4c(F)cc(S(=O)(=O)[O-])cc4F)c4nc(c(-c5c(F)cc(S(=O)(=O)[O-])cc5F)c5ccc2[nH]5)C=C4)C=C3)cc1
REMARK SMILES IDX 7 1 6 2 5 3 4 4 3 5 2 6 1 7 30 8 31 9 95 10 32 11 94 12
REMARK SMILES IDX 33 13 34 14 35 15 88 16 36 17 93 18 87 19 89 20 37 21 92 22
REMARK SMILES IDX 86 23 85 24 38 26 72 27 51 28 71 29 52 30 55 31 70 32 90 33
REMARK SMILES IDX 53 34 54 35 69 37 91 38 56 39 39 40 40 41 49 42 41 43 42 44
REMARK SMILES IDX 48 45 50 46 43 47 44 48 45 49 46 50 47 51 73 52 74 53 83 54
REMARK SMILES IDX 75 55 76 56 82 57 84 58 77 59 78 60 79 61 80 62 81 63 57 64
REMARK SMILES IDX 58 65 67 66 59 67 60 68 66 69 68 70 61 71 62 72 63 73 64 74
REMARK SMILES IDX 65 75 8 76 9 77 10 78 11 79 12 80 13 81 17 82 14 83 16 84
REMARK SMILES IDX 18 85 19 86 20 87 21 88 22 89 23 90 28 91 24 92 27 93 29 94
REMARK SMILES IDX 25 95 26 96 15 97
REMARK H PARENT 89 25 55 36 15 98
REMARK Flexibility Score: inf
ROOT
ATOM      1  C   UNL A   1      37.746  21.370  25.404  1.00  0.00     0.202 C 
ENDROOT
BRANCH   1   2
ATOM      2  O   UNL A   1      38.541  22.274  26.165  1.00  0.00    -0.374 OA
BRANCH   2   3
ATOM      3  C   UNL A   1      39.887  21.859  26.395  1.00  0.00     0.202 C 
BRANCH   3   4
ATOM      4  C   UNL A   1      40.850  23.026  26.621  1.00  0.00     0.261 C 
BRANCH   4   5
ATOM      5  O   UNL A   1      40.244  24.262  26.221  1.00  0.00    -0.460 OA
BRANCH   5   6
ATOM      6  C   UNL A   1      40.810  25.492  26.308  1.00  0.00     0.338 C 
ATOM      7  O   UNL A   1      41.434  25.925  25.342  1.00  0.00    -0.246 OA
BRANCH   6   8
ATOM      8  C   UNL A   1      40.629  26.387  27.492  1.00  0.00     0.060 A 
ATOM      9  C   UNL A   1      39.730  26.167  28.538  1.00  0.00     0.016 A 
ATOM     10  C   UNL A   1      41.505  27.480  27.593  1.00  0.00     0.016 A 
ATOM     11  C   UNL A   1      39.663  27.011  29.631  1.00  0.00     0.010 A 
ATOM     12  C   UNL A   1      41.478  28.313  28.716  1.00  0.00     0.010 A 
ATOM     13  C   UNL A   1      40.555  28.070  29.740  1.00  0.00    -0.014 A 
BRANCH  13  14
ATOM     14  C   UNL A   1      40.463  28.918  30.936  1.00  0.00     0.031 A 
ATOM     15  C   UNL A   1      39.407  29.972  30.983  1.00  0.00     0.074 A 
ATOM     16  C   UNL A   1      41.255  28.641  31.990  1.00  0.00     0.049 A 
ATOM     17  N   UNL A   1      39.209  30.896  31.878  1.00  0.00    -0.248 NA
ATOM     18  C   UNL A   1      38.435  29.982  29.874  1.00  0.00     0.031 C 
ATOM     19  C   UNL A   1      42.222  27.538  32.052  1.00  0.00     0.029 A 
ATOM     20  N   UNL A   1      41.360  29.238  33.215  1.00  0.00    -0.354 N 
ATOM     21  C   UNL A   1      38.123  31.631  31.420  1.00  0.00     0.074 A 
ATOM     22  C   UNL A   1      37.687  31.033  30.180  1.00  0.00     0.031 C 
ATOM     23  C   UNL A   1      42.808  27.531  33.259  1.00  0.00     0.029 A 
ATOM     24  C   UNL A   1      42.324  28.674  34.020  1.00  0.00     0.049 A 
ATOM     25  H   UNL A   1      40.800  29.999  33.496  1.00  0.00     0.167 HD
ATOM     26  C   UNL A   1      37.569  32.723  31.992  1.00  0.00     0.037 A 
ATOM     27  C   UNL A   1      42.794  29.083  35.213  1.00  0.00     0.037 A 
ATOM     28  C   UNL A   1      38.035  33.269  33.238  1.00  0.00     0.049 A 
ATOM     29  C   UNL A   1      42.203  30.341  35.792  1.00  0.00     0.074 A 
ATOM     30  C   UNL A   1      37.602  34.400  33.903  1.00  0.00     0.029 A 
ATOM     31  N   UNL A   1      39.046  32.706  34.008  1.00  0.00    -0.354 N 
ATOM     32  N   UNL A   1      41.227  31.084  35.317  1.00  0.00    -0.248 NA
ATOM     33  C   UNL A   1      42.785  30.836  37.042  1.00  0.00     0.031 C 
ATOM     34  C   UNL A   1      38.379  34.541  35.058  1.00  0.00     0.029 A 
ATOM     35  C   UNL A   1      39.265  33.474  35.135  1.00  0.00     0.049 A 
ATOM     36  H   UNL A   1      39.535  31.881  33.784  1.00  0.00     0.167 HD
ATOM     37  C   UNL A   1      41.079  32.133  36.212  1.00  0.00     0.074 A 
ATOM     38  C   UNL A   1      42.044  31.911  37.273  1.00  0.00     0.031 C 
ATOM     39  C   UNL A   1      40.236  33.195  36.165  1.00  0.00     0.037 A 
BRANCH  26  40
ATOM     40  C   UNL A   1      36.477  33.423  31.240  1.00  0.00     0.058 A 
ATOM     41  C   UNL A   1      36.714  34.119  30.045  1.00  0.00     0.135 A 
ATOM     42  C   UNL A   1      35.162  33.397  31.731  1.00  0.00     0.135 A 
ATOM     43  F   UNL A   1      37.960  34.208  29.550  1.00  0.00    -0.206 F 
ATOM     44  C   UNL A   1      35.687  34.770  29.367  1.00  0.00     0.059 A 
ATOM     45  C   UNL A   1      34.115  34.024  31.061  1.00  0.00     0.059 A 
ATOM     46  F   UNL A   1      34.883  32.764  32.882  1.00  0.00    -0.206 F 
ATOM     47  C   UNL A   1      34.391  34.715  29.882  1.00  0.00     0.060 A 
BRANCH  47  48
ATOM     48  S   UNL A   1      33.064  35.550  28.984  1.00  0.00     0.124 S 
ATOM     49  O   UNL A   1      33.810  36.548  28.224  1.00  0.00    -0.237 OA
ATOM     50  O   UNL A   1      32.486  34.461  28.202  1.00  0.00    -0.237 OA
ATOM     51  O   UNL A   1      32.213  36.076  30.045  1.00  0.00    -0.744 OA
ENDBRANCH  47  48
ENDBRANCH  26  40
BRANCH  27  52
ATOM     52  C   UNL A   1      43.921  28.370  35.877  1.00  0.00     0.058 A 
ATOM     53  C   UNL A   1      45.258  28.695  35.604  1.00  0.00     0.135 A 
ATOM     54  C   UNL A   1      43.683  27.324  36.785  1.00  0.00     0.135 A 
ATOM     55  F   UNL A   1      45.545  29.682  34.741  1.00  0.00    -0.206 F 
ATOM     56  C   UNL A   1      46.314  27.992  36.178  1.00  0.00     0.059 A 
ATOM     57  C   UNL A   1      44.721  26.627  37.396  1.00  0.00     0.059 A 
ATOM     58  F   UNL A   1      42.425  26.973  37.096  1.00  0.00    -0.206 F 
ATOM     59  C   UNL A   1      46.035  26.953  37.070  1.00  0.00     0.060 A 
BRANCH  59  60
ATOM     60  S   UNL A   1      47.406  26.040  37.809  1.00  0.00     0.124 S 
ATOM     61  O   UNL A   1      48.512  26.416  36.934  1.00  0.00    -0.237 OA
ATOM     62  O   UNL A   1      47.450  26.583  39.162  1.00  0.00    -0.237 OA
ATOM     63  O   UNL A   1      46.971  24.649  37.713  1.00  0.00    -0.744 OA
ENDBRANCH  59  60
ENDBRANCH  27  52
BRANCH  39  64
ATOM     64  C   UNL A   1      40.315  34.165  37.303  1.00  0.00     0.058 A 
ATOM     65  C   UNL A   1      41.195  35.257  37.270  1.00  0.00     0.135 A 
ATOM     66  C   UNL A   1      39.456  34.034  38.404  1.00  0.00     0.135 A 
ATOM     67  F   UNL A   1      42.041  35.414  36.239  1.00  0.00    -0.206 F 
ATOM     68  C   UNL A   1      41.233  36.183  38.304  1.00  0.00     0.059 A 
ATOM     69  C   UNL A   1      39.458  34.963  39.436  1.00  0.00     0.059 A 
ATOM     70  F   UNL A   1      38.591  33.010  38.470  1.00  0.00    -0.206 F 
ATOM     71  C   UNL A   1      40.357  36.028  39.381  1.00  0.00     0.060 A 
BRANCH  71  72
ATOM     72  S   UNL A   1      40.378  37.264  40.695  1.00  0.00     0.124 S 
ATOM     73  O   UNL A   1      40.694  38.477  39.949  1.00  0.00    -0.237 OA
ATOM     74  O   UNL A   1      39.022  37.179  41.227  1.00  0.00    -0.237 OA
ATOM     75  O   UNL A   1      41.427  36.785  41.592  1.00  0.00    -0.744 OA
ENDBRANCH  71  72
ENDBRANCH  39  64
ENDBRANCH  13  14
ENDBRANCH   6   8
ENDBRANCH   5   6
ENDBRANCH   4   5
ENDBRANCH   3   4
ENDBRANCH   2   3
ENDBRANCH   1   2
BRANCH   1  76
ATOM     76  C   UNL A   1      36.263  21.583  25.708  1.00  0.00     0.261 C 
BRANCH  76  77
ATOM     77  O   UNL A   1      35.487  21.502  24.495  1.00  0.00    -0.462 OA
BRANCH  77  78
ATOM     78  C   UNL A   1      34.819  22.647  24.183  1.00  0.00     0.329 C 
ATOM     79  O   UNL A   1      35.156  23.776  24.531  1.00  0.00    -0.250 OA
BRANCH  78  80
ATOM     80  C   UNL A   1      33.573  22.372  23.326  1.00  0.00     0.197 C 
ATOM     81  C   UNL A   1      32.887  21.114  23.856  1.00  0.00     0.070 C 
ATOM     82  N   UNL A   1      32.565  23.414  23.553  1.00  0.00    -0.326 N 
ATOM     83  C   UNL A   1      32.064  21.620  25.047  1.00  0.00     0.136 C 
ATOM     84  C   UNL A   1      31.797  23.097  24.744  1.00  0.00     0.152 C 
BRANCH  82  85
ATOM     85  C   UNL A   1      32.318  24.442  22.668  1.00  0.00     0.223 C 
ATOM     86  O   UNL A   1      33.167  24.804  21.852  1.00  0.00    -0.275 OA
BRANCH  85  87
ATOM     87  C   UNL A   1      31.014  25.230  22.811  1.00  0.00     0.105 C 
BRANCH  87  88
ATOM     88  C   UNL A   1      31.132  26.733  23.095  1.00  0.00     0.047 C 
BRANCH  88  89
ATOM     89  C   UNL A   1      32.063  27.063  24.240  1.00  0.00    -0.029 A 
ATOM     90  C   UNL A   1      33.284  27.696  23.941  1.00  0.00     0.007 A 
ATOM     91  C   UNL A   1      31.698  26.905  25.593  1.00  0.00     0.045 A 
ATOM     92  C   UNL A   1      34.055  28.261  24.958  1.00  0.00     0.021 A 
ATOM     93  C   UNL A   1      32.462  27.490  26.608  1.00  0.00     0.041 A 
ATOM     94  Cl  UNL A   1      30.253  26.083  26.060  1.00  0.00    -0.084 Cl
ATOM     95  C   UNL A   1      33.621  28.189  26.280  1.00  0.00     0.042 A 
ATOM     96  Cl  UNL A   1      34.491  29.026  27.505  1.00  0.00    -0.084 Cl
ENDBRANCH  88  89
ENDBRANCH  87  88
ENDBRANCH  85  87
ENDBRANCH  82  85
BRANCH  83  97
ATOM     97  O   UNL A   1      32.758  21.438  26.272  1.00  0.00    -0.391 OA
ATOM     98  H   UNL A   1      32.327  20.740  26.788  1.00  0.00     0.211 HD
ENDBRANCH  83  97
ENDBRANCH  78  80
ENDBRANCH  77  78
ENDBRANCH  76  77
ENDBRANCH   1  76
TORSDOF 22
ENDMDL
MODEL 2
REMARK VINA RESULT:     -10.1      6.360      8.507
REMARK SMILES O=C(OCCOCCOC(=O)[C@H]1C[C@@H](O)CN1C(=O)CCc1ccc(Cl)cc1Cl)c1ccc(-c2c3nc(c(-c4c(F)cc(S(=O)(=O)[O-])cc4F)c4ccc([nH]4)c(-c4c(F)cc(S(=O)(=O)[O-])cc4F)c4nc(c(-c5c(F)cc(S(=O)(=O)[O-])cc5F)c5ccc2[nH]5)C=C4)C=C3)cc1
REMARK SMILES IDX 7 1 6 2 5 3 4 4 3 5 2 6 1 7 30 8 31 9 95 10 32 11 94 12
REMARK SMILES IDX 33 13 34 14 35 15 88 16 36 17 93 18 87 19 89 20 37 21 92 22
REMARK SMILES IDX 86 23 85 24 38 26 72 27 51 28 71 29 52 30 55 31 70 32 90 33
REMARK SMILES IDX 53 34 54 35 69 37 91 38 56 39 39 40 40 41 49 42 41 43 42 44
REMARK SMILES IDX 48 45 50 46 43 47 44 48 45 49 46 50 47 51 73 52 74 53 83 54
REMARK SMILES IDX 75 55 76 56 82 57 84 58 77 59 78 60 79 61 80 62 81 63 57 64
REMARK SMILES IDX 58 65 67 66 59 67 60 68 66 69 68 70 61 71 62 72 63 73 64 74
REMARK SMILES IDX 65 75 8 76 9 77 10 78 11 79 12 80 13 81 17 82 14 83 16 84
REMARK SMILES IDX 18 85 19 86 20 87 21 88 22 89 23 90 28 91 24 92 27 93 29 94
REMARK SMILES IDX 25 95 26 96 15 97
REMARK H PARENT 89 25 55 36 15 98
REMARK Flexibility Score: inf
ROOT
ATOM      1  C   UNL A   1      37.353  23.092  25.154  1.00  0.00     0.202 C 
ENDROOT
BRANCH   1   2
ATOM      2  O   UNL A   1      37.734  21.721  25.090  1.00  0.00    -0.374 OA
BRANCH   2   3
ATOM      3  C   UNL A   1      38.940  21.389  25.777  1.00  0.00     0.202 C 
BRANCH   3   4
ATOM      4  C   UNL A   1      39.354  19.927  25.601  1.00  0.00     0.261 C 
BRANCH   4   5
ATOM      5  O   UNL A   1      40.500  19.630  26.408  1.00  0.00    -0.460 OA
BRANCH   5   6
ATOM      6  C   UNL A   1      41.793  19.878  26.079  1.00  0.00     0.338 C 
ATOM      7  O   UNL A   1      42.426  19.013  25.476  1.00  0.00    -0.246 OA
BRANCH   6   8
ATOM      8  C   UNL A   1      42.458  21.193  26.332  1.00  0.00     0.060 A 
ATOM      9  C   UNL A   1      42.746  22.150  25.355  1.00  0.00     0.016 A 
ATOM     10  C   UNL A   1      42.723  21.517  27.671  1.00  0.00     0.016 A 
ATOM     11  C   UNL A   1      43.309  23.371  25.676  1.00  0.00     0.010 A 
ATOM     12  C   UNL A   1      43.249  22.767  28.012  1.00  0.00     0.010 A 
ATOM     13  C   UNL A   1      43.536  23.697  27.007  1.00  0.00    -0.014 A 
BRANCH  13  14
ATOM     14  C   UNL A   1      44.107  25.020  27.296  1.00  0.00     0.031 A 
ATOM     15  C   UNL A   1      43.217  26.067  27.882  1.00  0.00     0.074 A 
ATOM     16  C   UNL A   1      45.430  25.206  27.131  1.00  0.00     0.049 A 
ATOM     17  N   UNL A   1      43.471  27.321  28.117  1.00  0.00    -0.248 NA
ATOM     18  C   UNL A   1      41.859  25.640  28.265  1.00  0.00     0.031 C 
ATOM     19  C   UNL A   1      46.377  24.178  26.681  1.00  0.00     0.029 A 
ATOM     20  N   UNL A   1      46.216  26.304  27.344  1.00  0.00    -0.354 N 
ATOM     21  C   UNL A   1      42.293  27.851  28.627  1.00  0.00     0.074 A 
ATOM     22  C   UNL A   1      41.329  26.777  28.692  1.00  0.00     0.031 C 
ATOM     23  C   UNL A   1      47.616  24.693  26.668  1.00  0.00     0.029 A 
ATOM     24  C   UNL A   1      47.539  26.103  27.023  1.00  0.00     0.049 A 
ATOM     25  H   UNL A   1      45.869  27.158  27.693  1.00  0.00     0.167 HD
ATOM     26  C   UNL A   1      42.053  29.132  28.982  1.00  0.00     0.037 A 
ATOM     27  C   UNL A   1      48.554  26.986  26.971  1.00  0.00     0.037 A 
ATOM     28  C   UNL A   1      43.056  30.160  28.911  1.00  0.00     0.049 A 
ATOM     29  C   UNL A   1      48.239  28.419  27.308  1.00  0.00     0.074 A 
ATOM     30  C   UNL A   1      42.935  31.508  29.187  1.00  0.00     0.029 A 
ATOM     31  N   UNL A   1      44.375  29.938  28.535  1.00  0.00    -0.354 N 
ATOM     32  N   UNL A   1      47.100  28.935  27.713  1.00  0.00    -0.248 NA
ATOM     33  C   UNL A   1      49.324  29.393  27.154  1.00  0.00     0.031 C 
ATOM     34  C   UNL A   1      44.175  32.108  28.942  1.00  0.00     0.029 A 
ATOM     35  C   UNL A   1      45.079  31.127  28.556  1.00  0.00     0.049 A 
ATOM     36  H   UNL A   1      44.755  29.063  28.290  1.00  0.00     0.167 HD
ATOM     37  C   UNL A   1      47.333  30.294  27.866  1.00  0.00     0.074 A 
ATOM     38  C   UNL A   1      48.729  30.514  27.537  1.00  0.00     0.031 C 
ATOM     39  C   UNL A   1      46.475  31.281  28.228  1.00  0.00     0.037 A 
BRANCH  26  40
ATOM     40  C   UNL A   1      40.655  29.490  29.391  1.00  0.00     0.058 A 
ATOM     41  C   UNL A   1      40.295  29.699  30.731  1.00  0.00     0.135 A 
ATOM     42  C   UNL A   1      39.654  29.626  28.416  1.00  0.00     0.135 A 
ATOM     43  F   UNL A   1      41.204  29.546  31.707  1.00  0.00    -0.206 F 
ATOM     44  C   UNL A   1      38.990  30.023  31.090  1.00  0.00     0.059 A 
ATOM     45  C   UNL A   1      38.347  29.968  28.749  1.00  0.00     0.059 A 
ATOM     46  F   UNL A   1      39.939  29.416  27.121  1.00  0.00    -0.206 F 
ATOM     47  C   UNL A   1      38.023  30.157  30.091  1.00  0.00     0.060 A 
BRANCH  47  48
ATOM     48  S   UNL A   1      36.336  30.593  30.569  1.00  0.00     0.124 S 
ATOM     49  O   UNL A   1      36.505  31.976  31.005  1.00  0.00    -0.237 OA
ATOM     50  O   UNL A   1      35.602  30.409  29.320  1.00  0.00    -0.237 OA
ATOM     51  O   UNL A   1      36.022  29.636  31.624  1.00  0.00    -0.744 OA
ENDBRANCH  47  48
ENDBRANCH  26  40
BRANCH  27  52
ATOM     52  C   UNL A   1      49.906  26.571  26.501  1.00  0.00     0.058 A 
ATOM     53  C   UNL A   1      50.262  26.629  25.146  1.00  0.00     0.135 A 
ATOM     54  C   UNL A   1      50.867  26.079  27.401  1.00  0.00     0.135 A 
ATOM     55  F   UNL A   1      49.383  27.086  24.240  1.00  0.00    -0.206 F 
ATOM     56  C   UNL A   1      51.504  26.188  24.695  1.00  0.00     0.059 A 
ATOM     57  C   UNL A   1      52.125  25.661  26.980  1.00  0.00     0.059 A 
ATOM     58  F   UNL A   1      50.590  26.009  28.712  1.00  0.00    -0.206 F 
ATOM     59  C   UNL A   1      52.428  25.698  25.621  1.00  0.00     0.060 A 
BRANCH  59  60
ATOM     60  S   UNL A   1      54.036  25.121  25.034  1.00  0.00     0.124 S 
ATOM     61  O   UNL A   1      53.813  23.682  24.944  1.00  0.00    -0.237 OA
ATOM     62  O   UNL A   1      54.175  25.826  23.764  1.00  0.00    -0.237 OA
ATOM     63  O   UNL A   1      54.951  25.554  26.086  1.00  0.00    -0.744 OA
ENDBRANCH  59  60
ENDBRANCH  27  52
BRANCH  39  64
ATOM     64  C   UNL A   1      47.041  32.666  28.309  1.00  0.00     0.058 A 
ATOM     65  C   UNL A   1      47.670  33.129  29.473  1.00  0.00     0.135 A 
ATOM     66  C   UNL A   1      47.008  33.509  27.189  1.00  0.00     0.135 A 
ATOM     67  F   UNL A   1      47.715  32.357  30.571  1.00  0.00    -0.206 F 
ATOM     68  C   UNL A   1      48.236  34.396  29.531  1.00  0.00     0.059 A 
ATOM     69  C   UNL A   1      47.592  34.768  27.215  1.00  0.00     0.059 A 
ATOM     70  F   UNL A   1      46.425  33.100  26.050  1.00  0.00    -0.206 F 
ATOM     71  C   UNL A   1      48.194  35.206  28.394  1.00  0.00     0.060 A 
BRANCH  71  72
ATOM     72  S   UNL A   1      48.978  36.829  28.462  1.00  0.00     0.124 S 
ATOM     73  O   UNL A   1      50.392  36.473  28.413  1.00  0.00    -0.237 OA
ATOM     74  O   UNL A   1      48.446  37.485  27.271  1.00  0.00    -0.237 OA
ATOM     75  O   UNL A   1      48.510  37.377  29.733  1.00  0.00    -0.744 OA
ENDBRANCH  71  72
ENDBRANCH  39  64
ENDBRANCH  13  14
ENDBRANCH   6   8
ENDBRANCH   5   6
ENDBRANCH   4   5
ENDBRANCH   3   4
ENDBRANCH   2   3
ENDBRANCH   1   2
BRANCH   1  76
ATOM     76  C   UNL A   1      36.160  23.355  24.235  1.00  0.00     0.261 C 
BRANCH  76  77
ATOM     77  O   UNL A   1      34.961  23.547  25.014  1.00  0.00    -0.462 OA
BRANCH  77  78
ATOM     78  C   UNL A   1      34.326  22.390  25.352  1.00  0.00     0.329 C 
ATOM     79  O   UNL A   1      34.517  21.759  26.388  1.00  0.00    -0.250 OA
BRANCH  78  80
ATOM     80  C   UNL A   1      33.316  21.952  24.279  1.00  0.00     0.197 C 
ATOM     81  C   UNL A   1      32.234  21.107  24.948  1.00  0.00     0.070 C 
ATOM     82  N   UNL A   1      32.567  23.115  23.789  1.00  0.00    -0.326 N 
ATOM     83  C   UNL A   1      31.278  22.144  25.550  1.00  0.00     0.136 C 
ATOM     84  C   UNL A   1      31.464  23.397  24.690  1.00  0.00     0.152 C 
BRANCH  82  85
ATOM     85  C   UNL A   1      32.813  23.726  22.578  1.00  0.00     0.223 C 
ATOM     86  O   UNL A   1      33.676  23.301  21.808  1.00  0.00    -0.275 OA
BRANCH  85  87
ATOM     87  C   UNL A   1      32.091  25.039  22.263  1.00  0.00     0.105 C 
BRANCH  87  88
ATOM     88  C   UNL A   1      32.886  26.337  22.452  1.00  0.00     0.047 C 
BRANCH  88  89
ATOM     89  C   UNL A   1      32.596  27.043  23.758  1.00  0.00    -0.029 A 
ATOM     90  C   UNL A   1      33.501  26.867  24.821  1.00  0.00     0.007 A 
ATOM     91  C   UNL A   1      31.552  27.980  23.907  1.00  0.00     0.045 A 
ATOM     92  C   UNL A   1      33.437  27.689  25.947  1.00  0.00     0.021 A 
ATOM     93  C   UNL A   1      31.503  28.816  25.026  1.00  0.00     0.041 A 
ATOM     94  Cl  UNL A   1      30.356  28.217  22.684  1.00  0.00    -0.084 Cl
ATOM     95  C   UNL A   1      32.464  28.684  26.026  1.00  0.00     0.042 A 
ATOM     96  Cl  UNL A   1      32.494  29.796  27.338  1.00  0.00    -0.084 Cl
ENDBRANCH  88  89
ENDBRANCH  87  88
ENDBRANCH  85  87
ENDBRANCH  82  85
BRANCH  83  97
ATOM     97  O   UNL A   1      31.567  22.381  26.919  1.00  0.00    -0.391 OA
ATOM     98  H   UNL A   1      31.881  23.292  27.031  1.00  0.00     0.211 HD
ENDBRANCH  83  97
ENDBRANCH  78  80
ENDBRANCH  77  78
ENDBRANCH  76  77
ENDBRANCH   1  76
TORSDOF 22
ENDMDL
MODEL 3
REMARK VINA RESULT:     -10.0      1.050      8.257
REMARK SMILES O=C(OCCOCCOC(=O)[C@H]1C[C@@H](O)CN1C(=O)CCc1ccc(Cl)cc1Cl)c1ccc(-c2c3nc(c(-c4c(F)cc(S(=O)(=O)[O-])cc4F)c4ccc([nH]4)c(-c4c(F)cc(S(=O)(=O)[O-])cc4F)c4nc(c(-c5c(F)cc(S(=O)(=O)[O-])cc5F)c5ccc2[nH]5)C=C4)C=C3)cc1
REMARK SMILES IDX 7 1 6 2 5 3 4 4 3 5 2 6 1 7 30 8 31 9 95 10 32 11 94 12
REMARK SMILES IDX 33 13 34 14 35 15 88 16 36 17 93 18 87 19 89 20 37 21 92 22
REMARK SMILES IDX 86 23 85 24 38 26 72 27 51 28 71 29 52 30 55 31 70 32 90 33
REMARK SMILES IDX 53 34 54 35 69 37 91 38 56 39 39 40 40 41 49 42 41 43 42 44
REMARK SMILES IDX 48 45 50 46 43 47 44 48 45 49 46 50 47 51 73 52 74 53 83 54
REMARK SMILES IDX 75 55 76 56 82 57 84 58 77 59 78 60 79 61 80 62 81 63 57 64
REMARK SMILES IDX 58 65 67 66 59 67 60 68 66 69 68 70 61 71 62 72 63 73 64 74
REMARK SMILES IDX 65 75 8 76 9 77 10 78 11 79 12 80 13 81 17 82 14 83 16 84
REMARK SMILES IDX 18 85 19 86 20 87 21 88 22 89 23 90 28 91 24 92 27 93 29 94
REMARK SMILES IDX 25 95 26 96 15 97
REMARK H PARENT 89 25 55 36 15 98
REMARK Flexibility Score: inf
ROOT
ATOM      1  C   UNL A   1      38.190  21.177  25.325  1.00  0.00     0.202 C 
ENDROOT
BRANCH   1   2
ATOM      2  O   UNL A   1      39.081  21.266  26.432  1.00  0.00    -0.374 OA
BRANCH   2   3
ATOM      3  C   UNL A   1      40.465  21.119  26.115  1.00  0.00     0.202 C 
BRANCH   3   4
ATOM      4  C   UNL A   1      41.323  22.293  26.589  1.00  0.00     0.261 C 
BRANCH   4   5
ATOM      5  O   UNL A   1      40.528  23.232  27.324  1.00  0.00    -0.460 OA
BRANCH   5   6
ATOM      6  C   UNL A   1      40.273  24.514  26.964  1.00  0.00     0.338 C 
ATOM      7  O   UNL A   1      40.012  24.757  25.787  1.00  0.00    -0.246 OA
BRANCH   6   8
ATOM      8  C   UNL A   1      40.200  25.636  27.949  1.00  0.00     0.060 A 
ATOM      9  C   UNL A   1      39.255  25.750  28.972  1.00  0.00     0.016 A 
ATOM     10  C   UNL A   1      41.225  26.594  27.890  1.00  0.00     0.016 A 
ATOM     11  C   UNL A   1      39.289  26.788  29.884  1.00  0.00     0.010 A 
ATOM     12  C   UNL A   1      41.297  27.622  28.835  1.00  0.00     0.010 A 
ATOM     13  C   UNL A   1      40.326  27.711  29.838  1.00  0.00    -0.014 A 
BRANCH  13  14
ATOM     14  C   UNL A   1      40.334  28.777  30.850  1.00  0.00     0.031 A 
ATOM     15  C   UNL A   1      41.373  28.734  31.922  1.00  0.00     0.074 A 
ATOM     16  C   UNL A   1      39.483  29.811  30.711  1.00  0.00     0.049 A 
ATOM     17  N   UNL A   1      41.505  29.497  32.968  1.00  0.00    -0.248 NA
ATOM     18  C   UNL A   1      42.411  27.695  31.794  1.00  0.00     0.031 C 
ATOM     19  C   UNL A   1      38.526  29.973  29.609  1.00  0.00     0.029 A 
ATOM     20  N   UNL A   1      39.296  30.929  31.474  1.00  0.00    -0.354 N 
ATOM     21  C   UNL A   1      42.608  29.004  33.652  1.00  0.00     0.074 A 
ATOM     22  C   UNL A   1      43.127  27.890  32.892  1.00  0.00     0.031 C 
ATOM     23  C   UNL A   1      37.867  31.132  29.762  1.00  0.00     0.029 A 
ATOM     24  C   UNL A   1      38.291  31.748  31.012  1.00  0.00     0.049 A 
ATOM     25  H   UNL A   1      39.828  31.130  32.279  1.00  0.00     0.167 HD
ATOM     26  C   UNL A   1      43.113  29.444  34.825  1.00  0.00     0.037 A 
ATOM     27  C   UNL A   1      37.743  32.840  31.577  1.00  0.00     0.037 A 
ATOM     28  C   UNL A   1      42.565  30.569  35.534  1.00  0.00     0.049 A 
ATOM     29  C   UNL A   1      38.283  33.266  32.917  1.00  0.00     0.074 A 
ATOM     30  C   UNL A   1      42.943  31.089  36.757  1.00  0.00     0.029 A 
ATOM     31  N   UNL A   1      41.516  31.351  35.067  1.00  0.00    -0.354 N 
ATOM     32  N   UNL A   1      39.277  32.747  33.604  1.00  0.00    -0.248 NA
ATOM     33  C   UNL A   1      37.618  34.396  33.573  1.00  0.00     0.031 C 
ATOM     34  C   UNL A   1      42.095  32.163  37.046  1.00  0.00     0.029 A 
ATOM     35  C   UNL A   1      41.219  32.340  35.983  1.00  0.00     0.049 A 
ATOM     36  H   UNL A   1      41.051  31.219  34.209  1.00  0.00     0.167 HD
ATOM     37  C   UNL A   1      39.358  33.490  34.773  1.00  0.00     0.074 A 
ATOM     38  C   UNL A   1      38.332  34.512  34.685  1.00  0.00     0.031 C 
ATOM     39  C   UNL A   1      40.189  33.340  35.834  1.00  0.00     0.037 A 
BRANCH  26  40
ATOM     40  C   UNL A   1      44.242  28.665  35.433  1.00  0.00     0.058 A 
ATOM     41  C   UNL A   1      45.587  28.950  35.153  1.00  0.00     0.135 A 
ATOM     42  C   UNL A   1      43.967  27.608  36.316  1.00  0.00     0.135 A 
ATOM     43  F   UNL A   1      45.905  29.926  34.288  1.00  0.00    -0.206 F 
ATOM     44  C   UNL A   1      46.619  28.210  35.722  1.00  0.00     0.059 A 
ATOM     45  C   UNL A   1      44.983  26.867  36.911  1.00  0.00     0.059 A 
ATOM     46  F   UNL A   1      42.697  27.279  36.601  1.00  0.00    -0.206 F 
ATOM     47  C   UNL A   1      46.307  27.171  36.601  1.00  0.00     0.060 A 
BRANCH  47  48
ATOM     48  S   UNL A   1      47.657  26.228  37.345  1.00  0.00     0.124 S 
ATOM     49  O   UNL A   1      47.417  24.896  36.800  1.00  0.00    -0.237 OA
ATOM     50  O   UNL A   1      48.837  26.918  36.832  1.00  0.00    -0.237 OA
ATOM     51  O   UNL A   1      47.424  26.372  38.777  1.00  0.00    -0.744 OA
ENDBRANCH  47  48
ENDBRANCH  26  40
BRANCH  27  52
ATOM     52  C   UNL A   1      36.586  33.532  30.944  1.00  0.00     0.058 A 
ATOM     53  C   UNL A   1      35.292  33.437  31.477  1.00  0.00     0.135 A 
ATOM     54  C   UNL A   1      36.746  34.285  29.768  1.00  0.00     0.135 A 
ATOM     55  F   UNL A   1      35.078  32.727  32.596  1.00  0.00    -0.206 F 
ATOM     56  C   UNL A   1      34.198  34.034  30.856  1.00  0.00     0.059 A 
ATOM     57  C   UNL A   1      35.675  34.917  29.145  1.00  0.00     0.059 A 
ATOM     58  F   UNL A   1      37.961  34.422  29.215  1.00  0.00    -0.206 F 
ATOM     59  C   UNL A   1      34.399  34.768  29.684  1.00  0.00     0.060 A 
BRANCH  59  60
ATOM     60  S   UNL A   1      32.978  35.536  28.876  1.00  0.00     0.124 S 
ATOM     61  O   UNL A   1      33.619  36.595  28.105  1.00  0.00    -0.237 OA
ATOM     62  O   UNL A   1      32.422  34.430  28.104  1.00  0.00    -0.237 OA
ATOM     63  O   UNL A   1      32.156  35.981  29.999  1.00  0.00    -0.744 OA
ENDBRANCH  59  60
ENDBRANCH  27  52
BRANCH  39  64
ATOM     64  C   UNL A   1      40.030  34.320  36.955  1.00  0.00     0.058 A 
ATOM     65  C   UNL A   1      40.603  35.599  36.893  1.00  0.00     0.135 A 
ATOM     66  C   UNL A   1      39.243  33.996  38.070  1.00  0.00     0.135 A 
ATOM     67  F   UNL A   1      41.371  35.946  35.847  1.00  0.00    -0.206 F 
ATOM     68  C   UNL A   1      40.413  36.523  37.912  1.00  0.00     0.059 A 
ATOM     69  C   UNL A   1      39.019  34.914  39.087  1.00  0.00     0.059 A 
ATOM     70  F   UNL A   1      38.668  32.787  38.165  1.00  0.00    -0.206 F 
ATOM     71  C   UNL A   1      39.617  36.171  39.003  1.00  0.00     0.060 A 
BRANCH  71  72
ATOM     72  S   UNL A   1      39.335  37.397  40.296  1.00  0.00     0.124 S 
ATOM     73  O   UNL A   1      38.683  36.592  41.324  1.00  0.00    -0.237 OA
ATOM     74  O   UNL A   1      40.690  37.846  40.604  1.00  0.00    -0.237 OA
ATOM     75  O   UNL A   1      38.487  38.390  39.643  1.00  0.00    -0.744 OA
ENDBRANCH  71  72
ENDBRANCH  39  64
ENDBRANCH  13  14
ENDBRANCH   6   8
ENDBRANCH   5   6
ENDBRANCH   4   5
ENDBRANCH   3   4
ENDBRANCH   2   3
ENDBRANCH   1   2
BRANCH   1  76
ATOM     76  C   UNL A   1      37.205  22.346  25.341  1.00  0.00     0.261 C 
BRANCH  76  77
ATOM     77  O   UNL A   1      35.981  21.979  24.671  1.00  0.00    -0.462 OA
BRANCH  77  78
ATOM     78  C   UNL A   1      34.973  22.882  24.820  1.00  0.00     0.329 C 
ATOM     79  O   UNL A   1      35.124  24.097  24.922  1.00  0.00    -0.250 OA
BRANCH  78  80
ATOM     80  C   UNL A   1      33.592  22.206  24.843  1.00  0.00     0.197 C 
ATOM     81  C   UNL A   1      33.702  20.908  25.641  1.00  0.00     0.070 C 
ATOM     82  N   UNL A   1      32.654  23.003  25.641  1.00  0.00    -0.326 N 
ATOM     83  C   UNL A   1      33.598  21.366  27.101  1.00  0.00     0.136 C 
ATOM     84  C   UNL A   1      32.817  22.683  27.047  1.00  0.00     0.152 C 
BRANCH  82  85
ATOM     85  C   UNL A   1      31.681  23.811  25.091  1.00  0.00     0.223 C 
ATOM     86  O   UNL A   1      30.507  23.745  25.461  1.00  0.00    -0.275 OA
BRANCH  85  87
ATOM     87  C   UNL A   1      32.057  24.701  23.903  1.00  0.00     0.105 C 
BRANCH  87  88
ATOM     88  C   UNL A   1      31.446  26.107  23.861  1.00  0.00     0.047 C 
BRANCH  88  89
ATOM     89  C   UNL A   1      32.156  27.104  24.749  1.00  0.00    -0.029 A 
ATOM     90  C   UNL A   1      31.814  27.140  26.113  1.00  0.00     0.007 A 
ATOM     91  C   UNL A   1      33.244  27.886  24.305  1.00  0.00     0.045 A 
ATOM     92  C   UNL A   1      32.608  27.838  27.024  1.00  0.00     0.021 A 
ATOM     93  C   UNL A   1      34.050  28.567  25.222  1.00  0.00     0.041 A 
ATOM     94  Cl  UNL A   1      33.698  27.957  22.640  1.00  0.00    -0.084 Cl
ATOM     95  C   UNL A   1      33.743  28.515  26.579  1.00  0.00     0.042 A 
ATOM     96  Cl  UNL A   1      34.804  29.234  27.726  1.00  0.00    -0.084 Cl
ENDBRANCH  88  89
ENDBRANCH  87  88
ENDBRANCH  85  87
ENDBRANCH  82  85
BRANCH  83  97
ATOM     97  O   UNL A   1      34.882  21.525  27.687  1.00  0.00    -0.391 OA
ATOM     98  H   UNL A   1      34.864  22.268  28.309  1.00  0.00     0.211 HD
ENDBRANCH  83  97
ENDBRANCH  78  80
ENDBRANCH  77  78
ENDBRANCH  76  77
ENDBRANCH   1  76
TORSDOF 22
ENDMDL
