MODEL 1
REMARK VINA RESULT:     -11.6      0.000      0.000
REMARK SMILES COc1cccc(C(=O)Nc2ccc(NC(=O)[C@@H]3[C@@H](C(=O)OCCOCCOC(=O)c4ccc(-c5c6nc(c(-c7c(F)cc(S(=O)(=O)[O-])cc7F)c7ccc([nH]7)c(-c7c(F)cc(S(=O)(=O)[O-])cc7F)c7nc(c(-c8c(F)cc(S(=O)(=O)[O-])cc8F)c8ccc5[nH]8)C=C7)C=C6)cc4)[C@@H]4C=C[C@H]3C4)cc2)c1
REMARK SMILES IDX 24 1 23 2 22 3 20 4 21 5 19 6 18 7 100 8 97 9 99 10 101 11
REMARK SMILES IDX 98 12 16 13 15 14 17 16 14 17 11 18 12 19 103 20 13 21
REMARK SMILES IDX 102 22 10 23 8 24 9 25 7 27 3 28 4 29 104 30 5 31 6 32 2 33
REMARK SMILES IDX 1 34 25 35 26 36 27 37 28 38 29 39 30 40 31 41 32 42 96 43
REMARK SMILES IDX 33 44 95 45 34 46 35 47 36 48 89 49 37 50 94 51 88 52 90 53
REMARK SMILES IDX 38 54 93 55 87 56 86 57 39 59 73 60 52 61 72 62 53 63 56 64
REMARK SMILES IDX 71 65 91 66 54 67 55 68 70 70 92 71 57 72 40 73 41 74 50 75
REMARK SMILES IDX 42 76 43 77 49 78 51 79 44 80 45 81 46 82 47 83 48 84 74 85
REMARK SMILES IDX 75 86 84 87 76 88 77 89 83 90 85 91 78 92 79 93 80 94 81 95
REMARK SMILES IDX 82 96 58 97 59 98 68 99 60 100 61 101 67 102 69 103 62 104
REMARK SMILES IDX 63 105 64 106 65 107 66 108
REMARK H PARENT 15 15 10 26 90 58 56 69
REMARK Flexibility Score: inf
ROOT
ATOM      1  C   UNL A   1      34.405  30.511  27.207  1.00  0.00     0.202 C 
ENDROOT
BRANCH   1   2
ATOM      2  C   UNL A   1      33.190  29.798  26.603  1.00  0.00     0.261 C 
BRANCH   2   3
ATOM      3  O   UNL A   1      33.529  28.457  26.197  1.00  0.00    -0.463 OA
BRANCH   3   4
ATOM      4  C   UNL A   1      33.557  28.184  24.868  1.00  0.00     0.310 C 
ATOM      5  O   UNL A   1      34.417  28.581  24.092  1.00  0.00    -0.252 OA
BRANCH   4   6
ATOM      6  C   UNL A   1      32.437  27.256  24.432  1.00  0.00     0.119 C 
ATOM      7  C   UNL A   1      32.423  25.843  25.086  1.00  0.00     0.100 C 
ATOM      8  C   UNL A   1      32.203  24.902  23.873  1.00  0.00     0.025 C 
ATOM      9  C   UNL A   1      32.562  26.900  22.924  1.00  0.00     0.027 C 
ATOM     10  C   UNL A   1      30.963  25.265  23.082  1.00  0.00    -0.027 C 
ATOM     11  C   UNL A   1      33.235  25.514  22.926  1.00  0.00     0.017 C 
ATOM     12  C   UNL A   1      31.189  26.447  22.489  1.00  0.00    -0.027 C 
BRANCH   7  13
ATOM     13  C   UNL A   1      31.415  25.670  26.190  1.00  0.00     0.228 C 
ATOM     14  N   UNL A   1      31.313  24.493  26.876  1.00  0.00    -0.326 N 
ATOM     15  H   UNL A   1      30.719  24.567  27.657  1.00  0.00     0.169 HD
ATOM     16  O   UNL A   1      30.669  26.592  26.530  1.00  0.00    -0.274 OA
BRANCH  14  17
ATOM     17  C   UNL A   1      31.852  23.197  26.735  1.00  0.00     0.041 A 
ATOM     18  C   UNL A   1      33.042  20.770  25.974  1.00  0.00     0.041 A 
ATOM     19  C   UNL A   1      33.485  21.433  27.110  1.00  0.00     0.028 A 
ATOM     20  C   UNL A   1      31.911  21.221  25.303  1.00  0.00     0.028 A 
ATOM     21  C   UNL A   1      32.930  22.668  27.450  1.00  0.00     0.028 A 
ATOM     22  C   UNL A   1      31.307  22.420  25.699  1.00  0.00     0.028 A 
BRANCH  18  23
ATOM     23  N   UNL A   1      33.867  19.762  25.476  1.00  0.00    -0.322 N 
ATOM     24  C   UNL A   1      35.148  19.864  24.973  1.00  0.00     0.255 C 
ATOM     25  O   UNL A   1      35.714  18.837  24.597  1.00  0.00    -0.269 OA
ATOM     26  H   UNL A   1      33.484  18.855  25.485  1.00  0.00     0.170 HD
BRANCH  24  27
ATOM     27  C   UNL A   1      35.920  21.144  24.944  1.00  0.00     0.043 A 
ATOM     28  C   UNL A   1      37.749  22.609  25.609  1.00  0.00     0.119 A 
ATOM     29  C   UNL A   1      37.236  23.602  24.772  1.00  0.00     0.046 A 
ATOM     30  C   UNL A   1      37.123  21.360  25.644  1.00  0.00     0.060 A 
ATOM     31  C   UNL A   1      36.102  23.368  23.997  1.00  0.00     0.005 A 
ATOM     32  C   UNL A   1      35.439  22.147  24.094  1.00  0.00     0.014 A 
BRANCH  28  33
ATOM     33  O   UNL A   1      38.855  22.996  26.312  1.00  0.00    -0.497 OA
ATOM     34  C   UNL A   1      39.135  24.380  26.463  1.00  0.00     0.278 C 
ENDBRANCH  28  33
ENDBRANCH  24  27
ENDBRANCH  18  23
ENDBRANCH  14  17
ENDBRANCH   7  13
ENDBRANCH   4   6
ENDBRANCH   3   4
ENDBRANCH   2   3
ENDBRANCH   1   2
BRANCH   1  35
ATOM     35  O   UNL A   1      34.141  31.222  28.420  1.00  0.00    -0.374 OA
BRANCH  35  36
ATOM     36  C   UNL A   1      34.612  32.566  28.469  1.00  0.00     0.202 C 
BRANCH  36  37
ATOM     37  C   UNL A   1      35.340  32.956  29.759  1.00  0.00     0.261 C 
BRANCH  37  38
ATOM     38  O   UNL A   1      35.823  31.798  30.465  1.00  0.00    -0.460 OA
BRANCH  38  39
ATOM     39  C   UNL A   1      36.993  31.997  31.112  1.00  0.00     0.338 C 
ATOM     40  O   UNL A   1      37.169  32.675  32.122  1.00  0.00    -0.246 OA
BRANCH  39  41
ATOM     41  C   UNL A   1      38.062  31.162  30.540  1.00  0.00     0.060 A 
ATOM     42  C   UNL A   1      39.061  30.726  31.419  1.00  0.00     0.016 A 
ATOM     43  C   UNL A   1      38.155  30.890  29.171  1.00  0.00     0.016 A 
ATOM     44  C   UNL A   1      40.192  30.082  30.927  1.00  0.00     0.010 A 
ATOM     45  C   UNL A   1      39.295  30.240  28.678  1.00  0.00     0.010 A 
ATOM     46  C   UNL A   1      40.338  29.874  29.549  1.00  0.00    -0.014 A 
BRANCH  46  47
ATOM     47  C   UNL A   1      41.655  29.425  29.030  1.00  0.00     0.031 A 
ATOM     48  C   UNL A   1      42.797  30.406  28.982  1.00  0.00     0.074 A 
ATOM     49  C   UNL A   1      41.854  28.141  28.683  1.00  0.00     0.049 A 
ATOM     50  N   UNL A   1      44.035  30.220  28.602  1.00  0.00    -0.248 NA
ATOM     51  C   UNL A   1      42.506  31.779  29.425  1.00  0.00     0.031 C 
ATOM     52  C   UNL A   1      40.842  27.087  28.726  1.00  0.00     0.029 A 
ATOM     53  N   UNL A   1      42.984  27.504  28.231  1.00  0.00    -0.354 N 
ATOM     54  C   UNL A   1      44.668  31.448  28.755  1.00  0.00     0.074 A 
ATOM     55  C   UNL A   1      43.671  32.381  29.234  1.00  0.00     0.031 C 
ATOM     56  C   UNL A   1      41.398  25.932  28.321  1.00  0.00     0.029 A 
ATOM     57  C   UNL A   1      42.795  26.170  27.962  1.00  0.00     0.049 A 
ATOM     58  H   UNL A   1      43.848  27.961  28.110  1.00  0.00     0.167 HD
ATOM     59  C   UNL A   1      45.965  31.768  28.531  1.00  0.00     0.037 A 
ATOM     60  C   UNL A   1      43.649  25.249  27.474  1.00  0.00     0.037 A 
ATOM     61  C   UNL A   1      46.959  30.838  28.063  1.00  0.00     0.049 A 
ATOM     62  C   UNL A   1      45.074  25.641  27.177  1.00  0.00     0.074 A 
ATOM     63  C   UNL A   1      48.303  31.065  27.820  1.00  0.00     0.029 A 
ATOM     64  N   UNL A   1      46.719  29.506  27.762  1.00  0.00    -0.354 N 
ATOM     65  N   UNL A   1      45.661  26.802  27.347  1.00  0.00    -0.248 NA
ATOM     66  C   UNL A   1      45.951  24.600  26.624  1.00  0.00     0.031 C 
ATOM     67  C   UNL A   1      48.865  29.880  27.332  1.00  0.00     0.029 A 
ATOM     68  C   UNL A   1      47.883  28.904  27.316  1.00  0.00     0.049 A 
ATOM     69  H   UNL A   1      45.848  29.055  27.852  1.00  0.00     0.167 HD
ATOM     70  C   UNL A   1      46.981  26.623  26.943  1.00  0.00     0.074 A 
ATOM     71  C   UNL A   1      47.109  25.240  26.532  1.00  0.00     0.031 C 
ATOM     72  C   UNL A   1      47.996  27.523  26.916  1.00  0.00     0.037 A 
BRANCH  59  73
ATOM     73  C   UNL A   1      46.379  33.194  28.769  1.00  0.00     0.058 A 
ATOM     74  C   UNL A   1      46.215  34.184  27.788  1.00  0.00     0.135 A 
ATOM     75  C   UNL A   1      46.921  33.580  30.005  1.00  0.00     0.135 A 
ATOM     76  F   UNL A   1      45.719  33.865  26.582  1.00  0.00    -0.206 F 
ATOM     77  C   UNL A   1      46.598  35.501  28.015  1.00  0.00     0.059 A 
ATOM     78  C   UNL A   1      47.290  34.897  30.263  1.00  0.00     0.059 A 
ATOM     79  F   UNL A   1      47.101  32.671  30.978  1.00  0.00    -0.206 F 
ATOM     80  C   UNL A   1      47.137  35.848  29.255  1.00  0.00     0.060 A 
BRANCH  80  81
ATOM     81  S   UNL A   1      47.632  37.562  29.535  1.00  0.00     0.124 S 
ATOM     82  O   UNL A   1      48.724  37.396  30.491  1.00  0.00    -0.237 OA
ATOM     83  O   UNL A   1      48.023  37.998  28.198  1.00  0.00    -0.237 OA
ATOM     84  O   UNL A   1      46.424  38.183  30.066  1.00  0.00    -0.744 OA
ENDBRANCH  80  81
ENDBRANCH  59  73
BRANCH  60  85
ATOM     85  C   UNL A   1      43.177  23.862  27.222  1.00  0.00     0.058 A 
ATOM     86  C   UNL A   1      43.071  22.928  28.264  1.00  0.00     0.135 A 
ATOM     87  C   UNL A   1      42.818  23.444  25.931  1.00  0.00     0.135 A 
ATOM     88  F   UNL A   1      43.412  23.275  29.514  1.00  0.00    -0.206 F 
ATOM     89  C   UNL A   1      42.633  21.626  28.033  1.00  0.00     0.059 A 
ATOM     90  C   UNL A   1      42.357  22.157  25.680  1.00  0.00     0.059 A 
ATOM     91  F   UNL A   1      42.890  24.304  24.902  1.00  0.00    -0.206 F 
ATOM     92  C   UNL A   1      42.276  21.251  26.737  1.00  0.00     0.060 A 
BRANCH  92  93
ATOM     93  S   UNL A   1      41.651  19.581  26.455  1.00  0.00     0.124 S 
ATOM     94  O   UNL A   1      42.162  18.875  27.624  1.00  0.00    -0.237 OA
ATOM     95  O   UNL A   1      40.209  19.795  26.415  1.00  0.00    -0.237 OA
ATOM     96  O   UNL A   1      42.256  19.211  25.178  1.00  0.00    -0.744 OA
ENDBRANCH  92  93
ENDBRANCH  60  85
BRANCH  72  97
ATOM     97  C   UNL A   1      49.343  27.038  26.454  1.00  0.00     0.058 A 
ATOM     98  C   UNL A   1      50.268  26.472  27.345  1.00  0.00     0.135 A 
ATOM     99  C   UNL A   1      49.689  27.089  25.094  1.00  0.00     0.135 A 
ATOM    100  F   UNL A   1      49.988  26.404  28.656  1.00  0.00    -0.206 F 
ATOM    101  C   UNL A   1      51.499  25.992  26.906  1.00  0.00     0.059 A 
ATOM    102  C   UNL A   1      50.904  26.595  24.630  1.00  0.00     0.059 A 
ATOM    103  F   UNL A   1      48.836  27.611  24.199  1.00  0.00    -0.206 F 
ATOM    104  C   UNL A   1      51.808  26.058  25.547  1.00  0.00     0.060 A 
BRANCH 104 105
ATOM    105  S   UNL A   1      53.394  25.404  24.984  1.00  0.00     0.124 S 
ATOM    106  O   UNL A   1      54.334  26.192  25.773  1.00  0.00    -0.237 OA
ATOM    107  O   UNL A   1      53.295  23.991  25.339  1.00  0.00    -0.237 OA
ATOM    108  O   UNL A   1      53.388  25.683  23.551  1.00  0.00    -0.744 OA
ENDBRANCH 104 105
ENDBRANCH  72  97
ENDBRANCH  46  47
ENDBRANCH  39  41
ENDBRANCH  38  39
ENDBRANCH  37  38
ENDBRANCH  36  37
ENDBRANCH  35  36
ENDBRANCH   1  35
TORSDOF 22
ENDMDL
MODEL 2
REMARK VINA RESULT:     -11.3      5.751     11.648
REMARK SMILES COc1cccc(C(=O)Nc2ccc(NC(=O)[C@@H]3[C@@H](C(=O)OCCOCCOC(=O)c4ccc(-c5c6nc(c(-c7c(F)cc(S(=O)(=O)[O-])cc7F)c7ccc([nH]7)c(-c7c(F)cc(S(=O)(=O)[O-])cc7F)c7nc(c(-c8c(F)cc(S(=O)(=O)[O-])cc8F)c8ccc5[nH]8)C=C7)C=C6)cc4)[C@@H]4C=C[C@H]3C4)cc2)c1
REMARK SMILES IDX 24 1 23 2 22 3 20 4 21 5 19 6 18 7 100 8 97 9 99 10 101 11
REMARK SMILES IDX 98 12 16 13 15 14 17 16 14 17 11 18 12 19 103 20 13 21
REMARK SMILES IDX 102 22 10 23 8 24 9 25 7 27 3 28 4 29 104 30 5 31 6 32 2 33
REMARK SMILES IDX 1 34 25 35 26 36 27 37 28 38 29 39 30 40 31 41 32 42 96 43
REMARK SMILES IDX 33 44 95 45 34 46 35 47 36 48 89 49 37 50 94 51 88 52 90 53
REMARK SMILES IDX 38 54 93 55 87 56 86 57 39 59 73 60 52 61 72 62 53 63 56 64
REMARK SMILES IDX 71 65 91 66 54 67 55 68 70 70 92 71 57 72 40 73 41 74 50 75
REMARK SMILES IDX 42 76 43 77 49 78 51 79 44 80 45 81 46 82 47 83 48 84 74 85
REMARK SMILES IDX 75 86 84 87 76 88 77 89 83 90 85 91 78 92 79 93 80 94 81 95
REMARK SMILES IDX 82 96 58 97 59 98 68 99 60 100 61 101 67 102 69 103 62 104
REMARK SMILES IDX 63 105 64 106 65 107 66 108
REMARK H PARENT 15 15 10 26 90 58 56 69
REMARK Flexibility Score: inf
ROOT
ATOM      1  C   UNL A   1      39.184  21.385  25.773  1.00  0.00     0.202 C 
ENDROOT
BRANCH   1   2
ATOM      2  C   UNL A   1      38.013  22.287  25.370  1.00  0.00     0.261 C 
BRANCH   2   3
ATOM      3  O   UNL A   1      36.981  21.527  24.711  1.00  0.00    -0.463 OA
BRANCH   3   4
ATOM      4  C   UNL A   1      35.993  22.211  24.079  1.00  0.00     0.310 C 
ATOM      5  O   UNL A   1      36.145  22.873  23.060  1.00  0.00    -0.252 OA
BRANCH   4   6
ATOM      6  C   UNL A   1      34.633  22.015  24.724  1.00  0.00     0.119 C 
ATOM      7  C   UNL A   1      33.535  23.050  24.340  1.00  0.00     0.100 C 
ATOM      8  C   UNL A   1      32.919  23.429  25.712  1.00  0.00     0.025 C 
ATOM      9  C   UNL A   1      34.713  22.203  26.265  1.00  0.00     0.027 C 
ATOM     10  C   UNL A   1      32.431  22.216  26.476  1.00  0.00    -0.027 C 
ATOM     11  C   UNL A   1      34.220  23.646  26.487  1.00  0.00     0.017 C 
ATOM     12  C   UNL A   1      33.506  21.497  26.833  1.00  0.00    -0.027 C 
BRANCH   7  13
ATOM     13  C   UNL A   1      32.533  22.561  23.330  1.00  0.00     0.228 C 
ATOM     14  N   UNL A   1      31.636  23.414  22.752  1.00  0.00    -0.326 N 
ATOM     15  H   UNL A   1      31.143  22.993  22.013  1.00  0.00     0.169 HD
ATOM     16  O   UNL A   1      32.507  21.381  22.970  1.00  0.00    -0.274 OA
BRANCH  14  17
ATOM     17  C   UNL A   1      31.246  24.754  22.961  1.00  0.00     0.041 A 
ATOM     18  C   UNL A   1      30.325  27.406  22.879  1.00  0.00     0.041 A 
ATOM     19  C   UNL A   1      29.839  26.533  23.843  1.00  0.00     0.028 A 
ATOM     20  C   UNL A   1      31.377  27.018  22.057  1.00  0.00     0.028 A 
ATOM     21  C   UNL A   1      30.257  25.200  23.841  1.00  0.00     0.028 A 
ATOM     22  C   UNL A   1      31.849  25.702  22.116  1.00  0.00     0.028 A 
BRANCH  18  23
ATOM     23  N   UNL A   1      29.608  28.586  22.687  1.00  0.00    -0.322 N 
ATOM     24  C   UNL A   1      29.729  29.789  23.354  1.00  0.00     0.255 C 
ATOM     25  O   UNL A   1      29.004  30.724  23.013  1.00  0.00    -0.269 OA
ATOM     26  H   UNL A   1      28.924  28.559  21.980  1.00  0.00     0.170 HD
BRANCH  24  27
ATOM     27  C   UNL A   1      30.758  30.044  24.408  1.00  0.00     0.043 A 
ATOM     28  C   UNL A   1      32.860  29.615  25.561  1.00  0.00     0.119 A 
ATOM     29  C   UNL A   1      32.570  30.657  26.444  1.00  0.00     0.046 A 
ATOM     30  C   UNL A   1      31.981  29.354  24.507  1.00  0.00     0.060 A 
ATOM     31  C   UNL A   1      31.410  31.414  26.299  1.00  0.00     0.005 A 
ATOM     32  C   UNL A   1      30.501  31.099  25.292  1.00  0.00     0.014 A 
BRANCH  28  33
ATOM     33  O   UNL A   1      34.026  28.960  25.843  1.00  0.00    -0.497 OA
ATOM     34  C   UNL A   1      34.408  28.772  27.198  1.00  0.00     0.278 C 
ENDBRANCH  28  33
ENDBRANCH  24  27
ENDBRANCH  18  23
ENDBRANCH  14  17
ENDBRANCH   7  13
ENDBRANCH   4   6
ENDBRANCH   3   4
ENDBRANCH   2   3
ENDBRANCH   1   2
BRANCH   1  35
ATOM     35  O   UNL A   1      39.760  21.684  27.048  1.00  0.00    -0.374 OA
BRANCH  35  36
ATOM     36  C   UNL A   1      41.115  21.284  27.229  1.00  0.00     0.202 C 
BRANCH  36  37
ATOM     37  C   UNL A   1      42.159  22.372  26.962  1.00  0.00     0.261 C 
BRANCH  37  38
ATOM     38  O   UNL A   1      41.541  23.620  26.598  1.00  0.00    -0.460 OA
BRANCH  38  39
ATOM     39  C   UNL A   1      42.369  24.686  26.672  1.00  0.00     0.338 C 
ATOM     40  O   UNL A   1      43.407  24.856  26.038  1.00  0.00    -0.246 OA
BRANCH  39  41
ATOM     41  C   UNL A   1      41.798  25.741  27.526  1.00  0.00     0.060 A 
ATOM     42  C   UNL A   1      42.512  26.943  27.608  1.00  0.00     0.016 A 
ATOM     43  C   UNL A   1      40.655  25.541  28.307  1.00  0.00     0.016 A 
ATOM     44  C   UNL A   1      42.131  27.919  28.523  1.00  0.00     0.010 A 
ATOM     45  C   UNL A   1      40.274  26.527  29.228  1.00  0.00     0.010 A 
ATOM     46  C   UNL A   1      41.037  27.700  29.371  1.00  0.00    -0.014 A 
BRANCH  46  47
ATOM     47  C   UNL A   1      40.813  28.634  30.504  1.00  0.00     0.031 A 
ATOM     48  C   UNL A   1      41.711  28.550  31.711  1.00  0.00     0.074 A 
ATOM     49  C   UNL A   1      39.877  29.597  30.425  1.00  0.00     0.049 A 
ATOM     50  N   UNL A   1      41.717  29.286  32.792  1.00  0.00    -0.248 NA
ATOM     51  C   UNL A   1      42.740  27.498  31.696  1.00  0.00     0.031 C 
ATOM     52  C   UNL A   1      38.977  29.810  29.293  1.00  0.00     0.029 A 
ATOM     53  N   UNL A   1      39.535  30.583  31.317  1.00  0.00    -0.354 N 
ATOM     54  C   UNL A   1      42.742  28.787  33.586  1.00  0.00     0.074 A 
ATOM     55  C   UNL A   1      43.318  27.665  32.876  1.00  0.00     0.031 C 
ATOM     56  C   UNL A   1      38.187  30.864  29.557  1.00  0.00     0.029 A 
ATOM     57  C   UNL A   1      38.505  31.384  30.886  1.00  0.00     0.049 A 
ATOM     58  H   UNL A   1      39.986  30.706  32.183  1.00  0.00     0.167 HD
ATOM     59  C   UNL A   1      43.177  29.230  34.791  1.00  0.00     0.037 A 
ATOM     60  C   UNL A   1      37.882  32.410  31.498  1.00  0.00     0.037 A 
ATOM     61  C   UNL A   1      42.610  30.351  35.493  1.00  0.00     0.049 A 
ATOM     62  C   UNL A   1      38.345  32.850  32.864  1.00  0.00     0.074 A 
ATOM     63  C   UNL A   1      42.991  30.885  36.712  1.00  0.00     0.029 A 
ATOM     64  N   UNL A   1      41.539  31.109  35.043  1.00  0.00    -0.354 N 
ATOM     65  N   UNL A   1      39.330  32.379  33.592  1.00  0.00    -0.248 NA
ATOM     66  C   UNL A   1      37.612  33.959  33.490  1.00  0.00     0.031 C 
ATOM     67  C   UNL A   1      42.123  31.940  37.018  1.00  0.00     0.029 A 
ATOM     68  C   UNL A   1      41.232  32.092  35.969  1.00  0.00     0.049 A 
ATOM     69  H   UNL A   1      41.067  30.968  34.191  1.00  0.00     0.167 HD
ATOM     70  C   UNL A   1      39.348  33.150  34.750  1.00  0.00     0.074 A 
ATOM     71  C   UNL A   1      38.285  34.125  34.621  1.00  0.00     0.031 C 
ATOM     72  C   UNL A   1      40.174  33.060  35.824  1.00  0.00     0.037 A 
BRANCH  59  73
ATOM     73  C   UNL A   1      44.310  28.483  35.438  1.00  0.00     0.058 A 
ATOM     74  C   UNL A   1      45.649  28.840  35.219  1.00  0.00     0.135 A 
ATOM     75  C   UNL A   1      44.051  27.413  36.309  1.00  0.00     0.135 A 
ATOM     76  F   UNL A   1      45.953  29.843  34.381  1.00  0.00    -0.206 F 
ATOM     77  C   UNL A   1      46.693  28.146  35.822  1.00  0.00     0.059 A 
ATOM     78  C   UNL A   1      45.078  26.720  36.942  1.00  0.00     0.059 A 
ATOM     79  F   UNL A   1      42.787  27.029  36.552  1.00  0.00    -0.206 F 
ATOM     80  C   UNL A   1      46.398  27.085  36.680  1.00  0.00     0.060 A 
BRANCH  80  81
ATOM     81  S   UNL A   1      47.763  26.192  37.453  1.00  0.00     0.124 S 
ATOM     82  O   UNL A   1      48.338  25.493  36.308  1.00  0.00    -0.237 OA
ATOM     83  O   UNL A   1      48.573  27.273  38.006  1.00  0.00    -0.237 OA
ATOM     84  O   UNL A   1      47.100  25.343  38.438  1.00  0.00    -0.744 OA
ENDBRANCH  80  81
ENDBRANCH  59  73
BRANCH  60  85
ATOM     85  C   UNL A   1      36.743  33.090  30.828  1.00  0.00     0.058 A 
ATOM     86  C   UNL A   1      35.418  32.848  31.219  1.00  0.00     0.135 A 
ATOM     87  C   UNL A   1      36.961  34.002  29.783  1.00  0.00     0.135 A 
ATOM     88  F   UNL A   1      35.157  31.977  32.206  1.00  0.00    -0.206 F 
ATOM     89  C   UNL A   1      34.347  33.479  30.592  1.00  0.00     0.059 A 
ATOM     90  C   UNL A   1      35.909  34.662  29.157  1.00  0.00     0.059 A 
ATOM     91  F   UNL A   1      38.211  34.278  29.381  1.00  0.00    -0.206 F 
ATOM     92  C   UNL A   1      34.603  34.387  29.563  1.00  0.00     0.060 A 
BRANCH  92  93
ATOM     93  S   UNL A   1      33.215  35.249  28.795  1.00  0.00     0.124 S 
ATOM     94  O   UNL A   1      32.591  34.177  28.028  1.00  0.00    -0.237 OA
ATOM     95  O   UNL A   1      32.468  35.724  29.955  1.00  0.00    -0.237 OA
ATOM     96  O   UNL A   1      33.865  36.294  28.008  1.00  0.00    -0.744 OA
ENDBRANCH  92  93
ENDBRANCH  60  85
BRANCH  72  97
ATOM     97  C   UNL A   1      39.982  34.056  36.934  1.00  0.00     0.058 A 
ATOM     98  C   UNL A   1      40.573  35.328  36.894  1.00  0.00     0.135 A 
ATOM     99  C   UNL A   1      39.149  33.754  38.024  1.00  0.00     0.135 A 
ATOM    100  F   UNL A   1      41.381  35.665  35.877  1.00  0.00    -0.206 F 
ATOM    101  C   UNL A   1      40.363  36.259  37.907  1.00  0.00     0.059 A 
ATOM    102  C   UNL A   1      38.907  34.677  39.037  1.00  0.00     0.059 A 
ATOM    103  F   UNL A   1      38.550  32.555  38.105  1.00  0.00    -0.206 F 
ATOM    104  C   UNL A   1      39.528  35.924  38.974  1.00  0.00     0.060 A 
BRANCH 104 105
ATOM    105  S   UNL A   1      39.237  37.151  40.267  1.00  0.00     0.124 S 
ATOM    106  O   UNL A   1      38.432  36.392  41.217  1.00  0.00    -0.237 OA
ATOM    107  O   UNL A   1      40.592  37.478  40.701  1.00  0.00    -0.237 OA
ATOM    108  O   UNL A   1      38.536  38.224  39.566  1.00  0.00    -0.744 OA
ENDBRANCH 104 105
ENDBRANCH  72  97
ENDBRANCH  46  47
ENDBRANCH  39  41
ENDBRANCH  38  39
ENDBRANCH  37  38
ENDBRANCH  36  37
ENDBRANCH  35  36
ENDBRANCH   1  35
TORSDOF 22
ENDMDL
MODEL 3
REMARK VINA RESULT:     -11.2      1.172      2.533
REMARK SMILES COc1cccc(C(=O)Nc2ccc(NC(=O)[C@@H]3[C@@H](C(=O)OCCOCCOC(=O)c4ccc(-c5c6nc(c(-c7c(F)cc(S(=O)(=O)[O-])cc7F)c7ccc([nH]7)c(-c7c(F)cc(S(=O)(=O)[O-])cc7F)c7nc(c(-c8c(F)cc(S(=O)(=O)[O-])cc8F)c8ccc5[nH]8)C=C7)C=C6)cc4)[C@@H]4C=C[C@H]3C4)cc2)c1
REMARK SMILES IDX 24 1 23 2 22 3 20 4 21 5 19 6 18 7 100 8 97 9 99 10 101 11
REMARK SMILES IDX 98 12 16 13 15 14 17 16 14 17 11 18 12 19 103 20 13 21
REMARK SMILES IDX 102 22 10 23 8 24 9 25 7 27 3 28 4 29 104 30 5 31 6 32 2 33
REMARK SMILES IDX 1 34 25 35 26 36 27 37 28 38 29 39 30 40 31 41 32 42 96 43
REMARK SMILES IDX 33 44 95 45 34 46 35 47 36 48 89 49 37 50 94 51 88 52 90 53
REMARK SMILES IDX 38 54 93 55 87 56 86 57 39 59 73 60 52 61 72 62 53 63 56 64
REMARK SMILES IDX 71 65 91 66 54 67 55 68 70 70 92 71 57 72 40 73 41 74 50 75
REMARK SMILES IDX 42 76 43 77 49 78 51 79 44 80 45 81 46 82 47 83 48 84 74 85
REMARK SMILES IDX 75 86 84 87 76 88 77 89 83 90 85 91 78 92 79 93 80 94 81 95
REMARK SMILES IDX 82 96 58 97 59 98 68 99 60 100 61 101 67 102 69 103 62 104
REMARK SMILES IDX 63 105 64 106 65 107 66 108
REMARK H PARENT 15 15 10 26 90 58 56 69
REMARK Flexibility Score: inf
ROOT
ATOM      1  C   UNL A   1      33.718  31.689  27.616  1.00  0.00     0.202 C 
ENDROOT
BRANCH   1   2
ATOM      2  C   UNL A   1      33.573  30.193  27.320  1.00  0.00     0.261 C 
BRANCH   2   3
ATOM      3  O   UNL A   1      32.200  29.855  27.035  1.00  0.00    -0.463 OA
BRANCH   3   4
ATOM      4  C   UNL A   1      31.792  28.587  27.290  1.00  0.00     0.310 C 
ATOM      5  O   UNL A   1      31.867  28.036  28.382  1.00  0.00    -0.252 OA
BRANCH   4   6
ATOM      6  C   UNL A   1      31.148  27.920  26.088  1.00  0.00     0.119 C 
ATOM      7  C   UNL A   1      31.751  26.552  25.655  1.00  0.00     0.100 C 
ATOM      8  C   UNL A   1      31.898  26.708  24.119  1.00  0.00     0.025 C 
ATOM      9  C   UNL A   1      31.350  28.771  24.803  1.00  0.00     0.027 C 
ATOM     10  C   UNL A   1      30.590  27.082  23.452  1.00  0.00    -0.027 C 
ATOM     11  C   UNL A   1      32.542  28.095  24.097  1.00  0.00     0.017 C 
ATOM     12  C   UNL A   1      30.277  28.328  23.838  1.00  0.00    -0.027 C 
BRANCH   7  13
ATOM     13  C   UNL A   1      30.953  25.349  26.078  1.00  0.00     0.228 C 
ATOM     14  N   UNL A   1      31.565  24.171  26.400  1.00  0.00    -0.326 N 
ATOM     15  H   UNL A   1      30.940  23.521  26.793  1.00  0.00     0.169 HD
ATOM     16  O   UNL A   1      29.723  25.395  26.175  1.00  0.00    -0.274 OA
BRANCH  14  17
ATOM     17  C   UNL A   1      32.877  23.662  26.305  1.00  0.00     0.041 A 
ATOM     18  C   UNL A   1      35.257  22.187  26.080  1.00  0.00     0.041 A 
ATOM     19  C   UNL A   1      35.006  23.236  25.207  1.00  0.00     0.028 A 
ATOM     20  C   UNL A   1      34.410  21.966  27.160  1.00  0.00     0.028 A 
ATOM     21  C   UNL A   1      33.795  23.927  25.286  1.00  0.00     0.028 A 
ATOM     22  C   UNL A   1      33.236  22.717  27.282  1.00  0.00     0.028 A 
BRANCH  18  23
ATOM     23  N   UNL A   1      36.276  21.306  25.724  1.00  0.00    -0.322 N 
ATOM     24  C   UNL A   1      36.178  20.071  25.117  1.00  0.00     0.255 C 
ATOM     25  O   UNL A   1      37.215  19.454  24.869  1.00  0.00    -0.269 OA
ATOM     26  H   UNL A   1      37.191  21.607  25.932  1.00  0.00     0.170 HD
BRANCH  24  27
ATOM     27  C   UNL A   1      34.883  19.479  24.662  1.00  0.00     0.043 A 
ATOM     28  C   UNL A   1      33.378  17.629  24.167  1.00  0.00     0.119 A 
ATOM     29  C   UNL A   1      32.402  18.548  23.777  1.00  0.00     0.046 A 
ATOM     30  C   UNL A   1      34.594  18.101  24.668  1.00  0.00     0.060 A 
ATOM     31  C   UNL A   1      32.638  19.919  23.859  1.00  0.00     0.005 A 
ATOM     32  C   UNL A   1      33.880  20.382  24.287  1.00  0.00     0.014 A 
BRANCH  28  33
ATOM     33  O   UNL A   1      33.000  16.324  24.015  1.00  0.00    -0.497 OA
ATOM     34  C   UNL A   1      32.970  15.472  25.151  1.00  0.00     0.278 C 
ENDBRANCH  28  33
ENDBRANCH  24  27
ENDBRANCH  18  23
ENDBRANCH  14  17
ENDBRANCH   7  13
ENDBRANCH   4   6
ENDBRANCH   3   4
ENDBRANCH   2   3
ENDBRANCH   1   2
BRANCH   1  35
ATOM     35  O   UNL A   1      34.774  32.021  28.523  1.00  0.00    -0.374 OA
BRANCH  35  36
ATOM     36  C   UNL A   1      34.438  32.937  29.561  1.00  0.00     0.202 C 
BRANCH  36  37
ATOM     37  C   UNL A   1      34.893  32.529  30.965  1.00  0.00     0.261 C 
BRANCH  37  38
ATOM     38  O   UNL A   1      35.807  31.418  30.924  1.00  0.00    -0.460 OA
BRANCH  38  39
ATOM     39  C   UNL A   1      37.020  31.683  31.460  1.00  0.00     0.338 C 
ATOM     40  O   UNL A   1      37.252  32.383  32.442  1.00  0.00    -0.246 OA
BRANCH  39  41
ATOM     41  C   UNL A   1      38.073  30.893  30.801  1.00  0.00     0.060 A 
ATOM     42  C   UNL A   1      39.006  30.264  31.635  1.00  0.00     0.016 A 
ATOM     43  C   UNL A   1      38.219  30.844  29.410  1.00  0.00     0.016 A 
ATOM     44  C   UNL A   1      40.125  29.646  31.088  1.00  0.00     0.010 A 
ATOM     45  C   UNL A   1      39.349  30.220  28.862  1.00  0.00     0.010 A 
ATOM     46  C   UNL A   1      40.329  29.658  29.701  1.00  0.00    -0.014 A 
BRANCH  46  47
ATOM     47  C   UNL A   1      41.646  29.226  29.169  1.00  0.00     0.031 A 
ATOM     48  C   UNL A   1      42.788  30.209  29.152  1.00  0.00     0.074 A 
ATOM     49  C   UNL A   1      41.845  27.953  28.781  1.00  0.00     0.049 A 
ATOM     50  N   UNL A   1      44.025  30.034  28.766  1.00  0.00    -0.248 NA
ATOM     51  C   UNL A   1      42.496  31.567  29.637  1.00  0.00     0.031 C 
ATOM     52  C   UNL A   1      40.834  26.898  28.792  1.00  0.00     0.029 A 
ATOM     53  N   UNL A   1      42.975  27.331  28.310  1.00  0.00    -0.354 N 
ATOM     54  C   UNL A   1      44.658  31.257  28.957  1.00  0.00     0.074 A 
ATOM     55  C   UNL A   1      43.661  32.174  29.465  1.00  0.00     0.031 C 
ATOM     56  C   UNL A   1      41.390  25.757  28.351  1.00  0.00     0.029 A 
ATOM     57  C   UNL A   1      42.787  26.006  28.000  1.00  0.00     0.049 A 
ATOM     58  H   UNL A   1      43.839  27.792  28.204  1.00  0.00     0.167 HD
ATOM     59  C   UNL A   1      45.955  31.585  28.743  1.00  0.00     0.037 A 
ATOM     60  C   UNL A   1      43.641  25.101  27.482  1.00  0.00     0.037 A 
ATOM     61  C   UNL A   1      46.949  30.671  28.246  1.00  0.00     0.049 A 
ATOM     62  C   UNL A   1      45.065  25.503  27.198  1.00  0.00     0.074 A 
ATOM     63  C   UNL A   1      48.293  30.905  28.010  1.00  0.00     0.029 A 
ATOM     64  N   UNL A   1      46.709  29.348  27.903  1.00  0.00    -0.354 N 
ATOM     65  N   UNL A   1      45.653  26.659  27.404  1.00  0.00    -0.248 NA
ATOM     66  C   UNL A   1      45.943  24.480  26.613  1.00  0.00     0.031 C 
ATOM     67  C   UNL A   1      48.856  29.736  27.485  1.00  0.00     0.029 A 
ATOM     68  C   UNL A   1      47.874  28.761  27.439  1.00  0.00     0.049 A 
ATOM     69  H   UNL A   1      45.839  28.895  27.979  1.00  0.00     0.167 HD
ATOM     70  C   UNL A   1      46.973  26.492  26.995  1.00  0.00     0.074 A 
ATOM     71  C   UNL A   1      47.101  25.123  26.541  1.00  0.00     0.031 C 
ATOM     72  C   UNL A   1      47.988  27.394  26.996  1.00  0.00     0.037 A 
BRANCH  59  73
ATOM     73  C   UNL A   1      46.369  33.003  29.026  1.00  0.00     0.058 A 
ATOM     74  C   UNL A   1      46.901  33.383  30.267  1.00  0.00     0.135 A 
ATOM     75  C   UNL A   1      46.257  33.988  28.032  1.00  0.00     0.135 A 
ATOM     76  F   UNL A   1      47.012  32.485  31.259  1.00  0.00    -0.206 F 
ATOM     77  C   UNL A   1      47.283  34.695  30.523  1.00  0.00     0.059 A 
ATOM     78  C   UNL A   1      46.655  35.302  28.257  1.00  0.00     0.059 A 
ATOM     79  F   UNL A   1      45.752  33.678  26.826  1.00  0.00    -0.206 F 
ATOM     80  C   UNL A   1      47.154  35.649  29.511  1.00  0.00     0.060 A 
BRANCH  80  81
ATOM     81  S   UNL A   1      47.652  37.350  29.857  1.00  0.00     0.124 S 
ATOM     82  O   UNL A   1      48.284  37.207  31.165  1.00  0.00    -0.237 OA
ATOM     83  O   UNL A   1      48.554  37.645  28.748  1.00  0.00    -0.237 OA
ATOM     84  O   UNL A   1      46.390  38.082  29.847  1.00  0.00    -0.744 OA
ENDBRANCH  80  81
ENDBRANCH  59  73
BRANCH  60  85
ATOM     85  C   UNL A   1      43.169  23.722  27.188  1.00  0.00     0.058 A 
ATOM     86  C   UNL A   1      42.811  23.337  25.888  1.00  0.00     0.135 A 
ATOM     87  C   UNL A   1      43.072  22.760  28.206  1.00  0.00     0.135 A 
ATOM     88  F   UNL A   1      42.876  24.223  24.883  1.00  0.00    -0.206 F 
ATOM     89  C   UNL A   1      42.364  22.048  25.608  1.00  0.00     0.059 A 
ATOM     90  C   UNL A   1      42.651  21.461  27.946  1.00  0.00     0.059 A 
ATOM     91  F   UNL A   1      43.415  23.076  29.464  1.00  0.00    -0.206 F 
ATOM     92  C   UNL A   1      42.291  21.116  26.644  1.00  0.00     0.060 A 
BRANCH  92  93
ATOM     93  S   UNL A   1      41.770  19.430  26.264  1.00  0.00     0.124 S 
ATOM     94  O   UNL A   1      42.588  19.125  25.096  1.00  0.00    -0.237 OA
ATOM     95  O   UNL A   1      42.114  18.718  27.490  1.00  0.00    -0.237 OA
ATOM     96  O   UNL A   1      40.338  19.572  26.014  1.00  0.00    -0.744 OA
ENDBRANCH  92  93
ENDBRANCH  60  85
BRANCH  72  97
ATOM     97  C   UNL A   1      49.334  26.923  26.519  1.00  0.00     0.058 A 
ATOM     98  C   UNL A   1      50.243  26.292  27.382  1.00  0.00     0.135 A 
ATOM     99  C   UNL A   1      49.697  27.057  25.169  1.00  0.00     0.135 A 
ATOM    100  F   UNL A   1      49.947  26.144  28.683  1.00  0.00    -0.206 F 
ATOM    101  C   UNL A   1      51.474  25.827  26.927  1.00  0.00     0.059 A 
ATOM    102  C   UNL A   1      50.912  26.579  24.687  1.00  0.00     0.059 A 
ATOM    103  F   UNL A   1      48.859  27.644  24.299  1.00  0.00    -0.206 F 
ATOM    104  C   UNL A   1      51.799  25.975  25.578  1.00  0.00     0.060 A 
BRANCH 104 105
ATOM    105  S   UNL A   1      53.385  25.340  24.993  1.00  0.00     0.124 S 
ATOM    106  O   UNL A   1      53.302  25.617  23.563  1.00  0.00    -0.237 OA
ATOM    107  O   UNL A   1      54.343  26.147  25.742  1.00  0.00    -0.237 OA
ATOM    108  O   UNL A   1      53.343  23.928  25.363  1.00  0.00    -0.744 OA
ENDBRANCH 104 105
ENDBRANCH  72  97
ENDBRANCH  46  47
ENDBRANCH  39  41
ENDBRANCH  38  39
ENDBRANCH  37  38
ENDBRANCH  36  37
ENDBRANCH  35  36
ENDBRANCH   1  35
TORSDOF 22
ENDMDL
