MODEL 1
REMARK VINA RESULT:      -9.0      0.000      0.000
REMARK SMILES Cc1ccc(N2C(=O)/C(=C\c3ccccc3O[C@H](C)C(=O)OCCOCCOC(=O)c3ccc(-c4c5nc(c(-c6c(F)cc(S(=O)(=O)[O-])cc6F)c6ccc([nH]6)c(-c6c(F)cc(S(=O)(=O)[O-])cc6F)c6nc(c(-c7c(F)cc(S(=O)(=O)[O-])cc7F)c7ccc4[nH]7)C=C6)C=C5)cc3)SC2=S)c(C)c1
REMARK SMILES IDX 24 1 23 2 22 3 20 4 21 5 18 6 19 7 17 8 16 9 11 10 12 11
REMARK SMILES IDX 13 12 15 13 14 14 10 15 6 16 7 17 98 18 8 19 9 20 97 21
REMARK SMILES IDX 99 22 5 23 1 24 2 25 3 26 102 27 4 28 100 29 101 30 25 31
REMARK SMILES IDX 26 32 27 33 28 34 29 35 30 36 31 37 32 38 96 39 33 40 95 41
REMARK SMILES IDX 34 42 35 43 36 44 89 45 37 46 94 47 88 48 90 49 38 50 93 51
REMARK SMILES IDX 87 52 86 53 39 55 73 56 52 57 72 58 53 59 56 60 71 61 91 62
REMARK SMILES IDX 54 63 55 64 70 66 92 67 57 68 40 69 41 70 50 71 42 72 43 73
REMARK SMILES IDX 49 74 51 75 44 76 45 77 46 78 47 79 48 80 74 81 75 82 84 83
REMARK SMILES IDX 76 84 77 85 83 86 85 87 78 88 79 89 80 90 81 91 82 92 58 93
REMARK SMILES IDX 59 94 68 95 60 96 61 97 67 98 69 99 62 100 63 101 64 102
REMARK SMILES IDX 65 103 66 104
REMARK H PARENT 90 54 56 65
REMARK Flexibility Score: inf
ROOT
ATOM      1  C   UNL A   1      37.039  31.852  33.634  1.00  0.00     0.202 C 
ENDROOT
BRANCH   1   2
ATOM      2  C   UNL A   1      38.018  32.287  34.729  1.00  0.00     0.261 C 
BRANCH   2   3
ATOM      3  O   UNL A   1      37.467  32.003  36.026  1.00  0.00    -0.461 OA
BRANCH   3   4
ATOM      4  C   UNL A   1      36.935  33.044  36.726  1.00  0.00     0.347 C 
ATOM      5  O   UNL A   1      36.100  33.823  36.279  1.00  0.00    -0.248 OA
BRANCH   4   6
ATOM      6  C   UNL A   1      37.529  33.144  38.136  1.00  0.00     0.279 C 
ATOM      7  C   UNL A   1      37.026  32.041  39.066  1.00  0.00     0.066 C 
BRANCH   6   8
ATOM      8  O   UNL A   1      38.928  33.011  37.910  1.00  0.00    -0.478 OA
BRANCH   8   9
ATOM      9  C   UNL A   1      39.710  34.132  37.924  1.00  0.00     0.127 A 
ATOM     10  C   UNL A   1      41.087  33.906  37.735  1.00  0.00     0.018 A 
ATOM     11  C   UNL A   1      41.996  34.941  37.974  1.00  0.00     0.012 A 
ATOM     12  C   UNL A   1      41.535  36.211  38.320  1.00  0.00     0.001 A 
ATOM     13  C   UNL A   1      39.252  35.422  38.191  1.00  0.00     0.047 A 
ATOM     14  C   UNL A   1      40.165  36.459  38.391  1.00  0.00     0.004 A 
BRANCH  10  15
ATOM     15  C   UNL A   1      41.567  32.610  37.233  1.00  0.00     0.033 C 
ATOM     16  N   UNL A   1      41.734  32.527  33.561  1.00  0.00    -0.261 N 
ATOM     17  C   UNL A   1      41.508  33.220  34.749  1.00  0.00     0.270 C 
ATOM     18  C   UNL A   1      42.079  31.190  33.681  1.00  0.00     0.152 C 
ATOM     19  O   UNL A   1      41.188  34.399  34.847  1.00  0.00    -0.268 OA
ATOM     20  C   UNL A   1      41.713  32.315  35.929  1.00  0.00     0.081 C 
ATOM     21  S   UNL A   1      42.157  30.742  35.384  1.00  0.00    -0.054 SA
ATOM     22  S   UNL A   1      42.511  30.088  32.493  1.00  0.00    -0.051 S 
BRANCH  16  23
ATOM     23  C   UNL A   1      41.564  33.200  32.309  1.00  0.00     0.054 A 
ATOM     24  C   UNL A   1      40.849  35.353  28.620  1.00  0.00     0.044 C 
ATOM     25  C   UNL A   1      41.087  34.590  29.889  1.00  0.00    -0.051 A 
ATOM     26  C   UNL A   1      40.089  33.798  30.455  1.00  0.00     0.005 A 
ATOM     27  C   UNL A   1      42.325  34.680  30.535  1.00  0.00     0.009 A 
ATOM     28  C   UNL A   1      40.324  33.117  31.653  1.00  0.00     0.027 A 
ATOM     29  C   UNL A   1      42.587  33.981  31.729  1.00  0.00    -0.027 A 
ATOM     30  C   UNL A   1      43.967  34.117  32.314  1.00  0.00     0.046 C 
ENDBRANCH  16  23
ENDBRANCH  10  15
ENDBRANCH   8   9
ENDBRANCH   6   8
ENDBRANCH   4   6
ENDBRANCH   3   4
ENDBRANCH   2   3
ENDBRANCH   1   2
BRANCH   1  31
ATOM     31  O   UNL A   1      36.469  32.906  32.854  1.00  0.00    -0.374 OA
BRANCH  31  32
ATOM     32  C   UNL A   1      35.283  32.616  32.119  1.00  0.00     0.202 C 
BRANCH  32  33
ATOM     33  C   UNL A   1      35.380  32.721  30.590  1.00  0.00     0.261 C 
BRANCH  33  34
ATOM     34  O   UNL A   1      36.609  32.185  30.069  1.00  0.00    -0.460 OA
BRANCH  34  35
ATOM     35  C   UNL A   1      36.454  31.269  29.083  1.00  0.00     0.338 C 
ATOM     36  O   UNL A   1      35.506  31.172  28.312  1.00  0.00    -0.246 OA
BRANCH  35  37
ATOM     37  C   UNL A   1      37.676  30.462  28.923  1.00  0.00     0.060 A 
ATOM     38  C   UNL A   1      38.532  30.355  30.028  1.00  0.00     0.016 A 
ATOM     39  C   UNL A   1      38.034  29.908  27.694  1.00  0.00     0.016 A 
ATOM     40  C   UNL A   1      39.773  29.733  29.896  1.00  0.00     0.010 A 
ATOM     41  C   UNL A   1      39.285  29.294  27.560  1.00  0.00     0.010 A 
ATOM     42  C   UNL A   1      40.173  29.233  28.651  1.00  0.00    -0.014 A 
BRANCH  42  43
ATOM     43  C   UNL A   1      41.572  28.784  28.443  1.00  0.00     0.031 A 
ATOM     44  C   UNL A   1      42.677  29.805  28.485  1.00  0.00     0.074 A 
ATOM     45  C   UNL A   1      41.857  27.487  28.224  1.00  0.00     0.049 A 
ATOM     46  N   UNL A   1      43.948  29.664  28.219  1.00  0.00    -0.248 NA
ATOM     47  C   UNL A   1      42.292  31.171  28.879  1.00  0.00     0.031 C 
ATOM     48  C   UNL A   1      40.884  26.397  28.218  1.00  0.00     0.029 A 
ATOM     49  N   UNL A   1      43.054  26.873  27.945  1.00  0.00    -0.354 N 
ATOM     50  C   UNL A   1      44.514  30.921  28.395  1.00  0.00     0.074 A 
ATOM     51  C   UNL A   1      43.444  31.817  28.777  1.00  0.00     0.031 C 
ATOM     52  C   UNL A   1      41.517  25.249  27.925  1.00  0.00     0.029 A 
ATOM     53  C   UNL A   1      42.933  25.529  27.682  1.00  0.00     0.049 A 
ATOM     54  H   UNL A   1      43.915  27.349  27.935  1.00  0.00     0.167 HD
ATOM     55  C   UNL A   1      45.809  31.293  28.252  1.00  0.00     0.037 A 
ATOM     56  C   UNL A   1      43.850  24.637  27.259  1.00  0.00     0.037 A 
ATOM     57  C   UNL A   1      46.868  30.393  27.878  1.00  0.00     0.049 A 
ATOM     58  C   UNL A   1      45.272  25.085  27.035  1.00  0.00     0.074 A 
ATOM     59  C   UNL A   1      48.213  30.672  27.712  1.00  0.00     0.029 A 
ATOM     60  N   UNL A   1      46.702  29.043  27.609  1.00  0.00    -0.354 N 
ATOM     61  N   UNL A   1      45.795  26.278  27.203  1.00  0.00    -0.248 NA
ATOM     62  C   UNL A   1      46.228  24.074  26.563  1.00  0.00     0.031 C 
ATOM     63  C   UNL A   1      48.853  29.499  27.300  1.00  0.00     0.029 A 
ATOM     64  C   UNL A   1      47.916  28.479  27.260  1.00  0.00     0.049 A 
ATOM     65  H   UNL A   1      45.846  28.557  27.659  1.00  0.00     0.167 HD
ATOM     66  C   UNL A   1      47.145  26.149  26.893  1.00  0.00     0.074 A 
ATOM     67  C   UNL A   1      47.359  24.766  26.521  1.00  0.00     0.031 C 
ATOM     68  C   UNL A   1      48.119  27.091  26.921  1.00  0.00     0.037 A 
BRANCH  55  69
ATOM     69  C   UNL A   1      46.147  32.741  28.469  1.00  0.00     0.058 A 
ATOM     70  C   UNL A   1      46.520  33.234  29.728  1.00  0.00     0.135 A 
ATOM     71  C   UNL A   1      46.133  33.641  27.390  1.00  0.00     0.135 A 
ATOM     72  F   UNL A   1      46.534  32.420  30.796  1.00  0.00    -0.206 F 
ATOM     73  C   UNL A   1      46.843  34.574  29.917  1.00  0.00     0.059 A 
ATOM     74  C   UNL A   1      46.476  34.980  27.550  1.00  0.00     0.059 A 
ATOM     75  F   UNL A   1      45.782  33.221  26.165  1.00  0.00    -0.206 F 
ATOM     76  C   UNL A   1      46.816  35.440  28.821  1.00  0.00     0.060 A 
BRANCH  76  77
ATOM     77  S   UNL A   1      47.238  37.176  29.080  1.00  0.00     0.124 S 
ATOM     78  O   UNL A   1      47.754  37.148  30.445  1.00  0.00    -0.237 OA
ATOM     79  O   UNL A   1      48.227  37.418  28.035  1.00  0.00    -0.237 OA
ATOM     80  O   UNL A   1      45.964  37.866  28.906  1.00  0.00    -0.744 OA
ENDBRANCH  76  77
ENDBRANCH  55  69
BRANCH  56  81
ATOM     81  C   UNL A   1      43.447  23.229  26.995  1.00  0.00     0.058 A 
ATOM     82  C   UNL A   1      43.258  22.762  25.687  1.00  0.00     0.135 A 
ATOM     83  C   UNL A   1      43.252  22.322  28.048  1.00  0.00     0.135 A 
ATOM     84  F   UNL A   1      43.421  23.594  24.647  1.00  0.00    -0.206 F 
ATOM     85  C   UNL A   1      42.881  21.448  25.430  1.00  0.00     0.059 A 
ATOM     86  C   UNL A   1      42.899  20.996  27.816  1.00  0.00     0.059 A 
ATOM     87  F   UNL A   1      43.429  22.717  29.319  1.00  0.00    -0.206 F 
ATOM     88  C   UNL A   1      42.707  20.571  26.503  1.00  0.00     0.060 A 
BRANCH  88  89
ATOM     89  S   UNL A   1      42.268  18.853  26.157  1.00  0.00     0.124 S 
ATOM     90  O   UNL A   1      40.857  18.975  25.806  1.00  0.00    -0.237 OA
ATOM     91  O   UNL A   1      43.173  18.518  25.064  1.00  0.00    -0.237 OA
ATOM     92  O   UNL A   1      42.546  18.176  27.421  1.00  0.00    -0.744 OA
ENDBRANCH  88  89
ENDBRANCH  56  81
BRANCH  68  93
ATOM     93  C   UNL A   1      49.525  26.664  26.603  1.00  0.00     0.058 A 
ATOM     94  C   UNL A   1      50.362  26.089  27.569  1.00  0.00     0.135 A 
ATOM     95  C   UNL A   1      49.998  26.732  25.280  1.00  0.00     0.135 A 
ATOM     96  F   UNL A   1      49.961  26.006  28.848  1.00  0.00    -0.206 F 
ATOM     97  C   UNL A   1      51.619  25.593  27.237  1.00  0.00     0.059 A 
ATOM     98  C   UNL A   1      51.240  26.223  24.922  1.00  0.00     0.059 A 
ATOM     99  F   UNL A   1      49.230  27.267  24.316  1.00  0.00    -0.206 F 
ATOM    100  C   UNL A   1      52.046  25.655  25.908  1.00  0.00     0.060 A 
BRANCH 100 101
ATOM    101  S   UNL A   1      53.643  24.934  25.475  1.00  0.00     0.124 S 
ATOM    102  O   UNL A   1      53.254  23.596  25.039  1.00  0.00    -0.237 OA
ATOM    103  O   UNL A   1      54.118  25.830  24.425  1.00  0.00    -0.237 OA
ATOM    104  O   UNL A   1      54.394  24.992  26.726  1.00  0.00    -0.744 OA
ENDBRANCH 100 101
ENDBRANCH  68  93
ENDBRANCH  42  43
ENDBRANCH  35  37
ENDBRANCH  34  35
ENDBRANCH  33  34
ENDBRANCH  32  33
ENDBRANCH  31  32
ENDBRANCH   1  31
TORSDOF 21
ENDMDL
MODEL 2
REMARK VINA RESULT:      -8.4      2.930      4.651
REMARK SMILES Cc1ccc(N2C(=O)/C(=C\c3ccccc3O[C@H](C)C(=O)OCCOCCOC(=O)c3ccc(-c4c5nc(c(-c6c(F)cc(S(=O)(=O)[O-])cc6F)c6ccc([nH]6)c(-c6c(F)cc(S(=O)(=O)[O-])cc6F)c6nc(c(-c7c(F)cc(S(=O)(=O)[O-])cc7F)c7ccc4[nH]7)C=C6)C=C5)cc3)SC2=S)c(C)c1
REMARK SMILES IDX 24 1 23 2 22 3 20 4 21 5 18 6 19 7 17 8 16 9 11 10 12 11
REMARK SMILES IDX 13 12 15 13 14 14 10 15 6 16 7 17 98 18 8 19 9 20 97 21
REMARK SMILES IDX 99 22 5 23 1 24 2 25 3 26 102 27 4 28 100 29 101 30 25 31
REMARK SMILES IDX 26 32 27 33 28 34 29 35 30 36 31 37 32 38 96 39 33 40 95 41
REMARK SMILES IDX 34 42 35 43 36 44 89 45 37 46 94 47 88 48 90 49 38 50 93 51
REMARK SMILES IDX 87 52 86 53 39 55 73 56 52 57 72 58 53 59 56 60 71 61 91 62
REMARK SMILES IDX 54 63 55 64 70 66 92 67 57 68 40 69 41 70 50 71 42 72 43 73
REMARK SMILES IDX 49 74 51 75 44 76 45 77 46 78 47 79 48 80 74 81 75 82 84 83
REMARK SMILES IDX 76 84 77 85 83 86 85 87 78 88 79 89 80 90 81 91 82 92 58 93
REMARK SMILES IDX 59 94 68 95 60 96 61 97 67 98 69 99 62 100 63 101 64 102
REMARK SMILES IDX 65 103 66 104
REMARK H PARENT 90 54 56 65
REMARK Flexibility Score: inf
ROOT
ATOM      1  C   UNL A   1      36.978  34.005  34.027  1.00  0.00     0.202 C 
ENDROOT
BRANCH   1   2
ATOM      2  C   UNL A   1      37.355  33.749  35.489  1.00  0.00     0.261 C 
BRANCH   2   3
ATOM      3  O   UNL A   1      37.468  32.337  35.731  1.00  0.00    -0.461 OA
BRANCH   3   4
ATOM      4  C   UNL A   1      38.385  31.928  36.652  1.00  0.00     0.347 C 
ATOM      5  O   UNL A   1      38.108  31.556  37.788  1.00  0.00    -0.248 OA
BRANCH   4   6
ATOM      6  C   UNL A   1      39.816  32.016  36.107  1.00  0.00     0.279 C 
ATOM      7  C   UNL A   1      40.689  32.987  36.901  1.00  0.00     0.066 C 
BRANCH   6   8
ATOM      8  O   UNL A   1      40.298  30.684  36.239  1.00  0.00    -0.478 OA
BRANCH   8   9
ATOM      9  C   UNL A   1      40.432  29.914  35.117  1.00  0.00     0.127 A 
ATOM     10  C   UNL A   1      41.668  29.252  34.987  1.00  0.00     0.018 A 
ATOM     11  C   UNL A   1      42.001  28.643  33.774  1.00  0.00     0.012 A 
ATOM     12  C   UNL A   1      41.082  28.624  32.725  1.00  0.00     0.001 A 
ATOM     13  C   UNL A   1      39.489  29.822  34.095  1.00  0.00     0.047 A 
ATOM     14  C   UNL A   1      39.815  29.179  32.900  1.00  0.00     0.004 A 
BRANCH  10  15
ATOM     15  C   UNL A   1      42.581  29.146  36.135  1.00  0.00     0.033 C 
ATOM     16  N   UNL A   1      45.058  31.862  36.185  1.00  0.00    -0.261 N 
ATOM     17  C   UNL A   1      43.931  31.260  35.629  1.00  0.00     0.270 C 
ATOM     18  C   UNL A   1      45.630  31.222  37.272  1.00  0.00     0.152 C 
ATOM     19  O   UNL A   1      43.295  31.669  34.665  1.00  0.00    -0.268 OA
ATOM     20  C   UNL A   1      43.583  30.008  36.383  1.00  0.00     0.081 C 
ATOM     21  S   UNL A   1      44.707  29.772  37.667  1.00  0.00    -0.054 SA
ATOM     22  S   UNL A   1      46.914  31.698  38.240  1.00  0.00    -0.051 S 
BRANCH  16  23
ATOM     23  C   UNL A   1      45.578  33.060  35.598  1.00  0.00     0.054 A 
ATOM     24  C   UNL A   1      47.257  36.737  34.043  1.00  0.00     0.044 C 
ATOM     25  C   UNL A   1      46.657  35.474  34.584  1.00  0.00    -0.051 A 
ATOM     26  C   UNL A   1      45.821  35.489  35.699  1.00  0.00     0.005 A 
ATOM     27  C   UNL A   1      46.947  34.248  33.975  1.00  0.00     0.009 A 
ATOM     28  C   UNL A   1      45.293  34.296  36.202  1.00  0.00     0.027 A 
ATOM     29  C   UNL A   1      46.406  33.039  34.454  1.00  0.00    -0.027 A 
ATOM     30  C   UNL A   1      46.751  31.785  33.696  1.00  0.00     0.046 C 
ENDBRANCH  16  23
ENDBRANCH  10  15
ENDBRANCH   8   9
ENDBRANCH   6   8
ENDBRANCH   4   6
ENDBRANCH   3   4
ENDBRANCH   2   3
ENDBRANCH   1   2
BRANCH   1  31
ATOM     31  O   UNL A   1      36.087  35.099  33.796  1.00  0.00    -0.374 OA
BRANCH  31  32
ATOM     32  C   UNL A   1      34.714  34.796  33.567  1.00  0.00     0.202 C 
BRANCH  32  33
ATOM     33  C   UNL A   1      34.267  34.693  32.102  1.00  0.00     0.261 C 
BRANCH  33  34
ATOM     34  O   UNL A   1      34.066  33.334  31.673  1.00  0.00    -0.460 OA
BRANCH  34  35
ATOM     35  C   UNL A   1      34.279  33.121  30.352  1.00  0.00     0.338 C 
ATOM     36  O   UNL A   1      33.562  33.479  29.425  1.00  0.00    -0.246 OA
BRANCH  35  37
ATOM     37  C   UNL A   1      35.606  32.522  30.127  1.00  0.00     0.060 A 
ATOM     38  C   UNL A   1      36.212  31.864  31.206  1.00  0.00     0.016 A 
ATOM     39  C   UNL A   1      36.291  32.689  28.924  1.00  0.00     0.016 A 
ATOM     40  C   UNL A   1      37.526  31.409  31.101  1.00  0.00     0.010 A 
ATOM     41  C   UNL A   1      37.614  32.241  28.824  1.00  0.00     0.010 A 
ATOM     42  C   UNL A   1      38.248  31.630  29.922  1.00  0.00    -0.014 A 
BRANCH  42  43
ATOM     43  C   UNL A   1      39.707  31.363  29.882  1.00  0.00     0.031 A 
ATOM     44  C   UNL A   1      40.658  32.463  30.273  1.00  0.00     0.074 A 
ATOM     45  C   UNL A   1      40.181  30.161  29.506  1.00  0.00     0.049 A 
ATOM     46  N   UNL A   1      41.963  32.495  30.205  1.00  0.00    -0.248 NA
ATOM     47  C   UNL A   1      40.052  33.691  30.813  1.00  0.00     0.031 C 
ATOM     48  C   UNL A   1      39.363  29.001  29.161  1.00  0.00     0.029 A 
ATOM     49  N   UNL A   1      41.473  29.726  29.336  1.00  0.00    -0.354 N 
ATOM     50  C   UNL A   1      42.335  33.749  30.674  1.00  0.00     0.074 A 
ATOM     51  C   UNL A   1      41.117  34.454  31.011  1.00  0.00     0.031 C 
ATOM     52  C   UNL A   1      40.170  27.990  28.796  1.00  0.00     0.029 A 
ATOM     53  C   UNL A   1      41.560  28.446  28.842  1.00  0.00     0.049 A 
ATOM     54  H   UNL A   1      42.260  30.278  29.547  1.00  0.00     0.167 HD
ATOM     55  C   UNL A   1      43.580  34.264  30.812  1.00  0.00     0.037 A 
ATOM     56  C   UNL A   1      42.633  27.738  28.439  1.00  0.00     0.037 A 
ATOM     57  C   UNL A   1      44.787  33.554  30.480  1.00  0.00     0.049 A 
ATOM     58  C   UNL A   1      44.006  28.355  28.532  1.00  0.00     0.074 A 
ATOM     59  C   UNL A   1      46.096  33.987  30.589  1.00  0.00     0.029 A 
ATOM     60  N   UNL A   1      44.831  32.265  29.972  1.00  0.00    -0.354 N 
ATOM     61  N   UNL A   1      44.346  29.543  28.976  1.00  0.00    -0.248 NA
ATOM     62  C   UNL A   1      45.140  27.542  28.069  1.00  0.00     0.031 C 
ATOM     63  C   UNL A   1      46.931  32.975  30.105  1.00  0.00     0.029 A 
ATOM     64  C   UNL A   1      46.145  31.893  29.744  1.00  0.00     0.049 A 
ATOM     65  H   UNL A   1      44.045  31.697  29.798  1.00  0.00     0.167 HD
ATOM     66  C   UNL A   1      45.732  29.603  28.880  1.00  0.00     0.074 A 
ATOM     67  C   UNL A   1      46.170  28.338  28.330  1.00  0.00     0.031 C 
ATOM     68  C   UNL A   1      46.567  30.615  29.223  1.00  0.00     0.037 A 
BRANCH  55  69
ATOM     69  C   UNL A   1      43.700  35.676  31.314  1.00  0.00     0.058 A 
ATOM     70  C   UNL A   1      43.629  35.984  32.681  1.00  0.00     0.135 A 
ATOM     71  C   UNL A   1      43.926  36.731  30.414  1.00  0.00     0.135 A 
ATOM     72  F   UNL A   1      43.398  35.016  33.582  1.00  0.00    -0.206 F 
ATOM     73  C   UNL A   1      43.752  37.293  33.138  1.00  0.00     0.059 A 
ATOM     74  C   UNL A   1      44.078  38.044  30.851  1.00  0.00     0.059 A 
ATOM     75  F   UNL A   1      44.001  36.491  29.096  1.00  0.00    -0.206 F 
ATOM     76  C   UNL A   1      43.975  38.316  32.214  1.00  0.00     0.060 A 
BRANCH  76  77
ATOM     77  S   UNL A   1      44.134  40.009  32.820  1.00  0.00     0.124 S 
ATOM     78  O   UNL A   1      44.418  40.733  31.585  1.00  0.00    -0.237 OA
ATOM     79  O   UNL A   1      42.823  40.256  33.410  1.00  0.00    -0.237 OA
ATOM     80  O   UNL A   1      45.240  39.929  33.769  1.00  0.00    -0.744 OA
ENDBRANCH  76  77
ENDBRANCH  55  69
BRANCH  56  81
ATOM     81  C   UNL A   1      42.453  26.369  27.886  1.00  0.00     0.058 A 
ATOM     82  C   UNL A   1      41.995  26.169  26.577  1.00  0.00     0.135 A 
ATOM     83  C   UNL A   1      42.744  25.232  28.657  1.00  0.00     0.135 A 
ATOM     84  F   UNL A   1      41.692  27.223  25.804  1.00  0.00    -0.206 F 
ATOM     85  C   UNL A   1      41.823  24.892  26.052  1.00  0.00     0.059 A 
ATOM     86  C   UNL A   1      42.603  23.945  28.147  1.00  0.00     0.059 A 
ATOM     87  F   UNL A   1      43.194  25.369  29.915  1.00  0.00    -0.206 F 
ATOM     88  C   UNL A   1      42.133  23.785  26.845  1.00  0.00     0.060 A 
BRANCH  88  89
ATOM     89  S   UNL A   1      41.955  22.133  26.138  1.00  0.00     0.124 S 
ATOM     90  O   UNL A   1      42.730  22.255  24.908  1.00  0.00    -0.237 OA
ATOM     91  O   UNL A   1      42.534  21.290  27.178  1.00  0.00    -0.237 OA
ATOM     92  O   UNL A   1      40.511  21.997  25.963  1.00  0.00    -0.744 OA
ENDBRANCH  88  89
ENDBRANCH  56  81
BRANCH  68  93
ATOM     93  C   UNL A   1      48.047  30.391  29.080  1.00  0.00     0.058 A 
ATOM     94  C   UNL A   1      48.812  29.820  30.105  1.00  0.00     0.135 A 
ATOM     95  C   UNL A   1      48.681  30.651  27.852  1.00  0.00     0.135 A 
ATOM     96  F   UNL A   1      48.257  29.558  31.299  1.00  0.00    -0.206 F 
ATOM     97  C   UNL A   1      50.157  29.512  29.921  1.00  0.00     0.059 A 
ATOM     98  C   UNL A   1      50.016  30.331  27.638  1.00  0.00     0.059 A 
ATOM     99  F   UNL A   1      47.988  31.190  26.835  1.00  0.00    -0.206 F 
ATOM    100  C   UNL A   1      50.748  29.761  28.679  1.00  0.00     0.060 A 
BRANCH 100 101
ATOM    101  S   UNL A   1      52.469  29.280  28.426  1.00  0.00     0.124 S 
ATOM    102  O   UNL A   1      52.321  28.034  27.680  1.00  0.00    -0.237 OA
ATOM    103  O   UNL A   1      53.003  30.410  27.671  1.00  0.00    -0.237 OA
ATOM    104  O   UNL A   1      52.988  29.141  29.783  1.00  0.00    -0.744 OA
ENDBRANCH 100 101
ENDBRANCH  68  93
ENDBRANCH  42  43
ENDBRANCH  35  37
ENDBRANCH  34  35
ENDBRANCH  33  34
ENDBRANCH  32  33
ENDBRANCH  31  32
ENDBRANCH   1  31
TORSDOF 21
ENDMDL
MODEL 3
REMARK VINA RESULT:      -8.3      4.183     11.010
REMARK SMILES Cc1ccc(N2C(=O)/C(=C\c3ccccc3O[C@H](C)C(=O)OCCOCCOC(=O)c3ccc(-c4c5nc(c(-c6c(F)cc(S(=O)(=O)[O-])cc6F)c6ccc([nH]6)c(-c6c(F)cc(S(=O)(=O)[O-])cc6F)c6nc(c(-c7c(F)cc(S(=O)(=O)[O-])cc7F)c7ccc4[nH]7)C=C6)C=C5)cc3)SC2=S)c(C)c1
REMARK SMILES IDX 24 1 23 2 22 3 20 4 21 5 18 6 19 7 17 8 16 9 11 10 12 11
REMARK SMILES IDX 13 12 15 13 14 14 10 15 6 16 7 17 98 18 8 19 9 20 97 21
REMARK SMILES IDX 99 22 5 23 1 24 2 25 3 26 102 27 4 28 100 29 101 30 25 31
REMARK SMILES IDX 26 32 27 33 28 34 29 35 30 36 31 37 32 38 96 39 33 40 95 41
REMARK SMILES IDX 34 42 35 43 36 44 89 45 37 46 94 47 88 48 90 49 38 50 93 51
REMARK SMILES IDX 87 52 86 53 39 55 73 56 52 57 72 58 53 59 56 60 71 61 91 62
REMARK SMILES IDX 54 63 55 64 70 66 92 67 57 68 40 69 41 70 50 71 42 72 43 73
REMARK SMILES IDX 49 74 51 75 44 76 45 77 46 78 47 79 48 80 74 81 75 82 84 83
REMARK SMILES IDX 76 84 77 85 83 86 85 87 78 88 79 89 80 90 81 91 82 92 58 93
REMARK SMILES IDX 59 94 68 95 60 96 61 97 67 98 69 99 62 100 63 101 64 102
REMARK SMILES IDX 65 103 66 104
REMARK H PARENT 90 54 56 65
REMARK Flexibility Score: inf
ROOT
ATOM      1  C   UNL A   1      51.055  40.313  28.744  1.00  0.00     0.202 C 
ENDROOT
BRANCH   1   2
ATOM      2  C   UNL A   1      50.530  41.622  29.340  1.00  0.00     0.261 C 
BRANCH   2   3
ATOM      3  O   UNL A   1      49.343  42.041  28.646  1.00  0.00    -0.461 OA
BRANCH   3   4
ATOM      4  C   UNL A   1      48.840  43.272  28.946  1.00  0.00     0.347 C 
ATOM      5  O   UNL A   1      48.479  43.618  30.065  1.00  0.00    -0.248 OA
BRANCH   4   6
ATOM      6  C   UNL A   1      48.751  44.166  27.703  1.00  0.00     0.279 C 
ATOM      7  C   UNL A   1      50.124  44.512  27.128  1.00  0.00     0.066 C 
BRANCH   6   8
ATOM      8  O   UNL A   1      48.006  43.375  26.785  1.00  0.00    -0.478 OA
BRANCH   8   9
ATOM      9  C   UNL A   1      47.245  44.002  25.837  1.00  0.00     0.127 A 
ATOM     10  C   UNL A   1      45.905  44.234  26.200  1.00  0.00     0.018 A 
ATOM     11  C   UNL A   1      44.986  44.641  25.228  1.00  0.00     0.012 A 
ATOM     12  C   UNL A   1      45.413  44.892  23.924  1.00  0.00     0.001 A 
ATOM     13  C   UNL A   1      47.680  44.332  24.554  1.00  0.00     0.047 A 
ATOM     14  C   UNL A   1      46.764  44.775  23.598  1.00  0.00     0.004 A 
BRANCH  10  15
ATOM     15  C   UNL A   1      45.480  44.109  27.602  1.00  0.00     0.033 C 
ATOM     16  N   UNL A   1      44.131  40.770  28.344  1.00  0.00    -0.261 N 
ATOM     17  C   UNL A   1      44.744  41.663  27.466  1.00  0.00     0.270 C 
ATOM     18  C   UNL A   1      43.824  41.255  29.605  1.00  0.00     0.152 C 
ATOM     19  O   UNL A   1      45.082  41.423  26.313  1.00  0.00    -0.268 OA
ATOM     20  C   UNL A   1      44.944  42.994  28.131  1.00  0.00     0.081 C 
ATOM     21  S   UNL A   1      44.344  42.934  29.744  1.00  0.00    -0.054 SA
ATOM     22  S   UNL A   1      43.182  40.454  30.931  1.00  0.00    -0.051 S 
BRANCH  16  23
ATOM     23  C   UNL A   1      43.821  39.445  27.899  1.00  0.00     0.054 A 
ATOM     24  C   UNL A   1      42.831  35.534  26.326  1.00  0.00     0.044 C 
ATOM     25  C   UNL A   1      43.154  36.889  26.880  1.00  0.00    -0.051 A 
ATOM     26  C   UNL A   1      42.238  37.937  26.807  1.00  0.00     0.005 A 
ATOM     27  C   UNL A   1      44.402  37.122  27.469  1.00  0.00     0.009 A 
ATOM     28  C   UNL A   1      42.571  39.201  27.305  1.00  0.00     0.027 A 
ATOM     29  C   UNL A   1      44.744  38.382  27.998  1.00  0.00    -0.027 A 
ATOM     30  C   UNL A   1      46.097  38.508  28.646  1.00  0.00     0.046 C 
ENDBRANCH  16  23
ENDBRANCH  10  15
ENDBRANCH   8   9
ENDBRANCH   6   8
ENDBRANCH   4   6
ENDBRANCH   3   4
ENDBRANCH   2   3
ENDBRANCH   1   2
BRANCH   1  31
ATOM     31  O   UNL A   1      50.299  39.776  27.656  1.00  0.00    -0.374 OA
BRANCH  31  32
ATOM     32  C   UNL A   1      50.187  38.358  27.566  1.00  0.00     0.202 C 
BRANCH  32  33
ATOM     33  C   UNL A   1      50.539  37.558  28.827  1.00  0.00     0.261 C 
BRANCH  33  34
ATOM     34  O   UNL A   1      49.876  36.282  28.883  1.00  0.00    -0.460 OA
BRANCH  34  35
ATOM     35  C   UNL A   1      48.849  36.215  29.764  1.00  0.00     0.338 C 
ATOM     36  O   UNL A   1      48.550  37.052  30.609  1.00  0.00    -0.246 OA
BRANCH  35  37
ATOM     37  C   UNL A   1      47.995  35.049  29.483  1.00  0.00     0.060 A 
ATOM     38  C   UNL A   1      47.974  34.016  30.431  1.00  0.00     0.016 A 
ATOM     39  C   UNL A   1      47.311  34.915  28.275  1.00  0.00     0.016 A 
ATOM     40  C   UNL A   1      47.306  32.824  30.154  1.00  0.00     0.010 A 
ATOM     41  C   UNL A   1      46.649  33.713  27.994  1.00  0.00     0.010 A 
ATOM     42  C   UNL A   1      46.672  32.651  28.918  1.00  0.00    -0.014 A 
BRANCH  42  43
ATOM     43  C   UNL A   1      46.164  31.314  28.522  1.00  0.00     0.031 A 
ATOM     44  C   UNL A   1      44.714  30.989  28.759  1.00  0.00     0.074 A 
ATOM     45  C   UNL A   1      46.978  30.403  27.959  1.00  0.00     0.049 A 
ATOM     46  N   UNL A   1      44.081  29.856  28.602  1.00  0.00    -0.248 NA
ATOM     47  C   UNL A   1      43.865  32.092  29.239  1.00  0.00     0.031 C 
ATOM     48  C   UNL A   1      48.385  30.618  27.625  1.00  0.00     0.029 A 
ATOM     49  N   UNL A   1      46.738  29.103  27.583  1.00  0.00    -0.354 N 
ATOM     50  C   UNL A   1      42.766  30.102  28.979  1.00  0.00     0.074 A 
ATOM     51  C   UNL A   1      42.695  31.488  29.387  1.00  0.00     0.031 C 
ATOM     52  C   UNL A   1      48.892  29.482  27.116  1.00  0.00     0.029 A 
ATOM     53  C   UNL A   1      47.857  28.447  27.127  1.00  0.00     0.049 A 
ATOM     54  H   UNL A   1      45.850  28.682  27.636  1.00  0.00     0.167 HD
ATOM     55  C   UNL A   1      41.715  29.248  28.984  1.00  0.00     0.037 A 
ATOM     56  C   UNL A   1      48.034  27.155  26.791  1.00  0.00     0.037 A 
ATOM     57  C   UNL A   1      41.793  27.872  28.570  1.00  0.00     0.049 A 
ATOM     58  C   UNL A   1      46.868  26.202  26.872  1.00  0.00     0.074 A 
ATOM     59  C   UNL A   1      40.783  26.927  28.533  1.00  0.00     0.029 A 
ATOM     60  N   UNL A   1      42.947  27.243  28.127  1.00  0.00    -0.354 N 
ATOM     61  N   UNL A   1      45.629  26.445  27.232  1.00  0.00    -0.248 NA
ATOM     62  C   UNL A   1      47.120  24.800  26.505  1.00  0.00     0.031 C 
ATOM     63  C   UNL A   1      41.336  25.715  28.108  1.00  0.00     0.029 A 
ATOM     64  C   UNL A   1      42.678  25.918  27.831  1.00  0.00     0.049 A 
ATOM     65  H   UNL A   1      43.827  27.675  28.035  1.00  0.00     0.167 HD
ATOM     66  C   UNL A   1      44.950  25.239  27.100  1.00  0.00     0.074 A 
ATOM     67  C   UNL A   1      45.913  24.264  26.633  1.00  0.00     0.031 C 
ATOM     68  C   UNL A   1      43.643  24.967  27.337  1.00  0.00     0.037 A 
BRANCH  55  69
ATOM     69  C   UNL A   1      40.395  29.768  29.481  1.00  0.00     0.058 A 
ATOM     70  C   UNL A   1      39.319  30.006  28.614  1.00  0.00     0.135 A 
ATOM     71  C   UNL A   1      40.196  29.996  30.853  1.00  0.00     0.135 A 
ATOM     72  F   UNL A   1      39.461  29.820  27.292  1.00  0.00    -0.206 F 
ATOM     73  C   UNL A   1      38.097  30.477  29.085  1.00  0.00     0.059 A 
ATOM     74  C   UNL A   1      38.975  30.443  31.349  1.00  0.00     0.059 A 
ATOM     75  F   UNL A   1      41.193  29.786  31.725  1.00  0.00    -0.206 F 
ATOM     76  C   UNL A   1      37.936  30.694  30.455  1.00  0.00     0.060 A 
BRANCH  76  77
ATOM     77  S   UNL A   1      36.345  31.305  31.053  1.00  0.00     0.124 S 
ATOM     78  O   UNL A   1      36.032  30.328  32.092  1.00  0.00    -0.237 OA
ATOM     79  O   UNL A   1      36.680  32.644  31.524  1.00  0.00    -0.237 OA
ATOM     80  O   UNL A   1      35.494  31.255  29.868  1.00  0.00    -0.744 OA
ENDBRANCH  76  77
ENDBRANCH  55  69
BRANCH  56  81
ATOM     81  C   UNL A   1      49.378  26.676  26.370  1.00  0.00     0.058 A 
ATOM     82  C   UNL A   1      50.244  26.052  27.278  1.00  0.00     0.135 A 
ATOM     83  C   UNL A   1      49.817  26.826  25.045  1.00  0.00     0.135 A 
ATOM     84  F   UNL A   1      49.875  25.896  28.558  1.00  0.00    -0.206 F 
ATOM     85  C   UNL A   1      51.503  25.602  26.893  1.00  0.00     0.059 A 
ATOM     86  C   UNL A   1      51.061  26.363  24.629  1.00  0.00     0.059 A 
ATOM     87  F   UNL A   1      49.022  27.409  24.134  1.00  0.00    -0.206 F 
ATOM     88  C   UNL A   1      51.902  25.759  25.564  1.00  0.00     0.060 A 
BRANCH  88  89
ATOM     89  S   UNL A   1      53.516  25.126  25.060  1.00  0.00     0.124 S 
ATOM     90  O   UNL A   1      53.332  23.688  25.225  1.00  0.00    -0.237 OA
ATOM     91  O   UNL A   1      53.620  25.604  23.686  1.00  0.00    -0.237 OA
ATOM     92  O   UNL A   1      54.433  25.757  26.006  1.00  0.00    -0.744 OA
ENDBRANCH  88  89
ENDBRANCH  56  81
BRANCH  68  93
ATOM     93  C   UNL A   1      43.145  23.578  27.043  1.00  0.00     0.058 A 
ATOM     94  C   UNL A   1      42.936  23.129  25.732  1.00  0.00     0.135 A 
ATOM     95  C   UNL A   1      42.984  22.654  28.089  1.00  0.00     0.135 A 
ATOM     96  F   UNL A   1      43.071  23.974  24.698  1.00  0.00    -0.206 F 
ATOM     97  C   UNL A   1      42.585  21.809  25.465  1.00  0.00     0.059 A 
ATOM     98  C   UNL A   1      42.656  21.325  27.845  1.00  0.00     0.059 A 
ATOM     99  F   UNL A   1      43.181  23.034  29.362  1.00  0.00    -0.206 F 
ATOM    100  C   UNL A   1      42.457  20.911  26.528  1.00  0.00     0.060 A 
BRANCH 100 101
ATOM    101  S   UNL A   1      42.084  19.183  26.164  1.00  0.00     0.124 S 
ATOM    102  O   UNL A   1      42.928  18.939  24.998  1.00  0.00    -0.237 OA
ATOM    103  O   UNL A   1      42.492  18.508  27.393  1.00  0.00    -0.237 OA
ATOM    104  O   UNL A   1      40.647  19.191  25.908  1.00  0.00    -0.744 OA
ENDBRANCH 100 101
ENDBRANCH  68  93
ENDBRANCH  42  43
ENDBRANCH  35  37
ENDBRANCH  34  35
ENDBRANCH  33  34
ENDBRANCH  32  33
ENDBRANCH  31  32
ENDBRANCH   1  31
TORSDOF 21
ENDMDL
