MODEL 1
REMARK VINA RESULT:     -11.8      0.000      0.000
REMARK SMILES O=C(OCCOCCOC(=O)[C@H]1CC2(CC[NH+](C(=O)C3CC3)CC2)CN1C(=O)CCn1cccn1)c1ccc(-c2c3nc(c(-c4c(F)cc(S(=O)(=O)[O-])cc4F)c4ccc([nH]4)c(-c4c(F)cc(S(=O)(=O)[O-])cc4F)c4nc(c(-c5c(F)cc(S(=O)(=O)[O-])cc5F)c5ccc2[nH]5)C=C4)C=C3)cc1
REMARK SMILES IDX 7 1 6 2 5 3 4 4 3 5 2 6 1 7 36 8 37 9 101 10 38 11 100 12
REMARK SMILES IDX 39 13 40 14 41 15 94 16 42 17 99 18 93 19 95 20 43 21 98 22
REMARK SMILES IDX 92 23 91 24 44 26 78 27 57 28 77 29 58 30 61 31 76 32 96 33
REMARK SMILES IDX 59 34 60 35 75 37 97 38 62 39 45 40 46 41 55 42 47 43 48 44
REMARK SMILES IDX 54 45 56 46 49 47 50 48 51 49 52 50 53 51 79 52 80 53 89 54
REMARK SMILES IDX 81 55 82 56 88 57 90 58 83 59 84 60 85 61 86 62 87 63 63 64
REMARK SMILES IDX 64 65 73 66 65 67 66 68 72 69 74 70 67 71 68 72 69 73 70 74
REMARK SMILES IDX 71 75 8 76 9 77 10 78 11 79 12 80 13 81 26 82 14 83 25 84
REMARK SMILES IDX 15 85 24 86 16 87 23 88 17 89 27 91 28 92 29 93 30 94 31 95
REMARK SMILES IDX 32 96 35 97 33 98 34 99 18 100 19 101 20 102 21 103 22 104
REMARK H PARENT 95 25 61 36 17 90
REMARK Flexibility Score: inf
ROOT
ATOM      1  C   UNL A   1      31.521  28.595  27.124  1.00  0.00     0.202 C 
ENDROOT
BRANCH   1   2
ATOM      2  O   UNL A   1      32.660  29.028  26.368  1.00  0.00    -0.374 OA
BRANCH   2   3
ATOM      3  C   UNL A   1      32.640  30.408  26.009  1.00  0.00     0.202 C 
BRANCH   3   4
ATOM      4  C   UNL A   1      32.946  31.368  27.156  1.00  0.00     0.261 C 
BRANCH   4   5
ATOM      5  O   UNL A   1      34.134  31.024  27.914  1.00  0.00    -0.460 OA
BRANCH   5   6
ATOM      6  C   UNL A   1      35.332  31.658  27.824  1.00  0.00     0.338 C 
ATOM      7  O   UNL A   1      35.467  32.862  27.609  1.00  0.00    -0.246 OA
BRANCH   6   8
ATOM      8  C   UNL A   1      36.417  30.941  28.472  1.00  0.00     0.060 A 
ATOM      9  C   UNL A   1      37.364  31.618  29.215  1.00  0.00     0.016 A 
ATOM     10  C   UNL A   1      36.589  29.603  28.097  1.00  0.00     0.016 A 
ATOM     11  C   UNL A   1      38.628  31.107  29.227  1.00  0.00     0.010 A 
ATOM     12  C   UNL A   1      37.816  29.011  28.289  1.00  0.00     0.010 A 
ATOM     13  C   UNL A   1      38.858  29.811  28.741  1.00  0.00    -0.014 A 
BRANCH  13  14
ATOM     14  C   UNL A   1      40.219  29.338  28.906  1.00  0.00     0.031 A 
ATOM     15  C   UNL A   1      40.604  29.202  30.342  1.00  0.00     0.074 A 
ATOM     16  C   UNL A   1      41.028  29.002  27.891  1.00  0.00     0.049 A 
ATOM     17  N   UNL A   1      41.528  29.827  30.998  1.00  0.00    -0.248 NA
ATOM     18  C   UNL A   1      39.659  28.453  31.194  1.00  0.00     0.031 C 
ATOM     19  C   UNL A   1      40.711  28.792  26.479  1.00  0.00     0.029 A 
ATOM     20  N   UNL A   1      42.328  28.636  27.975  1.00  0.00    -0.354 N 
ATOM     21  C   UNL A   1      41.381  29.420  32.321  1.00  0.00     0.074 A 
ATOM     22  C   UNL A   1      40.115  28.745  32.408  1.00  0.00     0.031 C 
ATOM     23  C   UNL A   1      41.704  28.066  25.919  1.00  0.00     0.029 A 
ATOM     24  C   UNL A   1      42.764  27.891  26.899  1.00  0.00     0.049 A 
ATOM     25  H   UNL A   1      42.909  28.879  28.731  1.00  0.00     0.167 HD
ATOM     26  C   UNL A   1      42.395  29.482  33.225  1.00  0.00     0.037 A 
ATOM     27  C   UNL A   1      43.836  27.066  26.914  1.00  0.00     0.037 A 
ATOM     28  C   UNL A   1      43.398  30.434  32.834  1.00  0.00     0.049 A 
ATOM     29  C   UNL A   1      44.702  27.479  28.058  1.00  0.00     0.074 A 
ATOM     30  C   UNL A   1      43.402  31.803  32.635  1.00  0.00     0.029 A 
ATOM     31  N   UNL A   1      44.545  29.970  32.236  1.00  0.00    -0.354 N 
ATOM     32  N   UNL A   1      45.315  28.633  28.137  1.00  0.00    -0.248 NA
ATOM     33  C   UNL A   1      44.526  26.790  29.331  1.00  0.00     0.031 C 
ATOM     34  C   UNL A   1      44.281  32.017  31.534  1.00  0.00     0.029 A 
ATOM     35  C   UNL A   1      44.776  30.771  31.145  1.00  0.00     0.049 A 
ATOM     36  H   UNL A   1      45.095  29.209  32.533  1.00  0.00     0.167 HD
ATOM     37  C   UNL A   1      45.263  28.989  29.480  1.00  0.00     0.074 A 
ATOM     38  C   UNL A   1      44.842  27.777  30.176  1.00  0.00     0.031 C 
ATOM     39  C   UNL A   1      45.301  30.295  29.882  1.00  0.00     0.037 A 
BRANCH  26  40
ATOM     40  C   UNL A   1      42.615  28.418  34.274  1.00  0.00     0.058 A 
ATOM     41  C   UNL A   1      42.484  28.747  35.636  1.00  0.00     0.135 A 
ATOM     42  C   UNL A   1      43.224  27.167  34.007  1.00  0.00     0.135 A 
ATOM     43  F   UNL A   1      41.914  29.904  36.009  1.00  0.00    -0.206 F 
ATOM     44  C   UNL A   1      43.009  27.943  36.650  1.00  0.00     0.059 A 
ATOM     45  C   UNL A   1      43.699  26.326  35.001  1.00  0.00     0.059 A 
ATOM     46  F   UNL A   1      43.491  26.739  32.769  1.00  0.00    -0.206 F 
ATOM     47  C   UNL A   1      43.642  26.749  36.315  1.00  0.00     0.060 A 
BRANCH  47  48
ATOM     48  S   UNL A   1      44.488  25.795  37.584  1.00  0.00     0.124 S 
ATOM     49  O   UNL A   1      45.880  26.127  37.309  1.00  0.00    -0.237 OA
ATOM     50  O   UNL A   1      43.925  26.352  38.810  1.00  0.00    -0.237 OA
ATOM     51  O   UNL A   1      44.096  24.421  37.288  1.00  0.00    -0.744 OA
ENDBRANCH  47  48
ENDBRANCH  26  40
BRANCH  27  52
ATOM     52  C   UNL A   1      43.875  25.718  26.293  1.00  0.00     0.058 A 
ATOM     53  C   UNL A   1      44.805  25.404  25.291  1.00  0.00     0.135 A 
ATOM     54  C   UNL A   1      43.143  24.633  26.827  1.00  0.00     0.135 A 
ATOM     55  F   UNL A   1      45.574  26.367  24.763  1.00  0.00    -0.206 F 
ATOM     56  C   UNL A   1      45.004  24.092  24.850  1.00  0.00     0.059 A 
ATOM     57  C   UNL A   1      43.307  23.323  26.388  1.00  0.00     0.059 A 
ATOM     58  F   UNL A   1      42.300  24.798  27.856  1.00  0.00    -0.206 F 
ATOM     59  C   UNL A   1      44.253  23.056  25.410  1.00  0.00     0.060 A 
BRANCH  59  60
ATOM     60  S   UNL A   1      44.590  21.347  24.931  1.00  0.00     0.124 S 
ATOM     61  O   UNL A   1      43.439  20.646  25.488  1.00  0.00    -0.237 OA
ATOM     62  O   UNL A   1      44.639  21.440  23.476  1.00  0.00    -0.237 OA
ATOM     63  O   UNL A   1      45.868  21.059  25.578  1.00  0.00    -0.744 OA
ENDBRANCH  59  60
ENDBRANCH  27  52
BRANCH  39  64
ATOM     64  C   UNL A   1      45.638  31.351  28.861  1.00  0.00     0.058 A 
ATOM     65  C   UNL A   1      44.678  31.955  28.031  1.00  0.00     0.135 A 
ATOM     66  C   UNL A   1      46.924  31.911  28.864  1.00  0.00     0.135 A 
ATOM     67  F   UNL A   1      43.400  31.557  28.056  1.00  0.00    -0.206 F 
ATOM     68  C   UNL A   1      44.989  33.043  27.214  1.00  0.00     0.059 A 
ATOM     69  C   UNL A   1      47.249  33.017  28.079  1.00  0.00     0.059 A 
ATOM     70  F   UNL A   1      47.867  31.427  29.688  1.00  0.00    -0.206 F 
ATOM     71  C   UNL A   1      46.276  33.573  27.251  1.00  0.00     0.060 A 
BRANCH  71  72
ATOM     72  S   UNL A   1      46.637  35.059  26.287  1.00  0.00     0.124 S 
ATOM     73  O   UNL A   1      47.584  34.559  25.296  1.00  0.00    -0.237 OA
ATOM     74  O   UNL A   1      45.322  35.432  25.773  1.00  0.00    -0.237 OA
ATOM     75  O   UNL A   1      47.193  35.980  27.275  1.00  0.00    -0.744 OA
ENDBRANCH  71  72
ENDBRANCH  39  64
ENDBRANCH  13  14
ENDBRANCH   6   8
ENDBRANCH   5   6
ENDBRANCH   4   5
ENDBRANCH   3   4
ENDBRANCH   2   3
ENDBRANCH   1   2
BRANCH   1  76
ATOM     76  C   UNL A   1      31.365  27.081  27.263  1.00  0.00     0.261 C 
BRANCH  76  77
ATOM     77  O   UNL A   1      31.591  26.434  25.982  1.00  0.00    -0.462 OA
BRANCH  77  78
ATOM     78  C   UNL A   1      31.614  25.090  25.932  1.00  0.00     0.328 C 
ATOM     79  O   UNL A   1      30.865  24.382  26.606  1.00  0.00    -0.250 OA
BRANCH  78  80
ATOM     80  C   UNL A   1      32.696  24.453  25.014  1.00  0.00     0.195 C 
ATOM     81  C   UNL A   1      32.646  22.903  25.222  1.00  0.00     0.046 C 
ATOM     82  N   UNL A   1      33.175  24.537  23.619  1.00  0.00    -0.328 N 
ATOM     83  C   UNL A   1      33.520  22.251  24.106  1.00  0.00     0.001 C 
ATOM     84  C   UNL A   1      34.170  23.478  23.448  1.00  0.00     0.128 C 
ATOM     85  C   UNL A   1      32.779  21.476  22.988  1.00  0.00     0.071 C 
ATOM     86  C   UNL A   1      34.511  21.258  24.733  1.00  0.00     0.071 C 
ATOM     87  C   UNL A   1      32.155  20.141  23.396  1.00  0.00     0.270 C 
ATOM     88  C   UNL A   1      33.778  20.002  25.227  1.00  0.00     0.270 C 
ATOM     89  N   UNL A   1      33.100  19.308  24.128  1.00  0.00    -0.272 N 
ATOM     90  H   UNL A   1      32.247  19.492  24.583  1.00  0.00     0.356 HD
BRANCH  82  91
ATOM     91  C   UNL A   1      32.841  25.312  22.535  1.00  0.00     0.225 C 
ATOM     92  O   UNL A   1      33.660  25.542  21.635  1.00  0.00    -0.275 OA
BRANCH  91  93
ATOM     93  C   UNL A   1      31.469  25.899  22.378  1.00  0.00     0.124 C 
BRANCH  93  94
ATOM     94  C   UNL A   1      31.455  27.427  22.361  1.00  0.00     0.154 C 
BRANCH  94  95
ATOM     95  N   UNL A   1      30.192  28.102  22.570  1.00  0.00    -0.272 N 
ATOM     96  C   UNL A   1      29.122  27.619  23.276  1.00  0.00     0.108 A 
ATOM     97  N   UNL A   1      29.939  29.285  21.986  1.00  0.00    -0.182 NA
ATOM     98  C   UNL A   1      28.095  28.511  23.084  1.00  0.00     0.042 A 
ATOM     99  C   UNL A   1      28.658  29.512  22.285  1.00  0.00     0.135 A 
ENDBRANCH  94  95
ENDBRANCH  93  94
ENDBRANCH  91  93
ENDBRANCH  82  91
BRANCH  89 100
ATOM    100  C   UNL A   1      33.345  17.940  23.983  1.00  0.00     0.315 C 
ATOM    101  O   UNL A   1      33.510  17.457  22.861  1.00  0.00    -0.231 OA
BRANCH 100 102
ATOM    102  C   UNL A   1      33.418  16.945  25.099  1.00  0.00     0.119 C 
ATOM    103  C   UNL A   1      32.961  15.521  25.206  1.00  0.00     0.019 C 
ATOM    104  C   UNL A   1      34.429  15.825  25.074  1.00  0.00     0.019 C 
ENDBRANCH 100 102
ENDBRANCH  89 100
ENDBRANCH  78  80
ENDBRANCH  77  78
ENDBRANCH  76  77
ENDBRANCH   1  76
TORSDOF 23
ENDMDL
MODEL 2
REMARK VINA RESULT:     -11.8      1.715      3.737
REMARK SMILES O=C(OCCOCCOC(=O)[C@H]1CC2(CC[NH+](C(=O)C3CC3)CC2)CN1C(=O)CCn1cccn1)c1ccc(-c2c3nc(c(-c4c(F)cc(S(=O)(=O)[O-])cc4F)c4ccc([nH]4)c(-c4c(F)cc(S(=O)(=O)[O-])cc4F)c4nc(c(-c5c(F)cc(S(=O)(=O)[O-])cc5F)c5ccc2[nH]5)C=C4)C=C3)cc1
REMARK SMILES IDX 7 1 6 2 5 3 4 4 3 5 2 6 1 7 36 8 37 9 101 10 38 11 100 12
REMARK SMILES IDX 39 13 40 14 41 15 94 16 42 17 99 18 93 19 95 20 43 21 98 22
REMARK SMILES IDX 92 23 91 24 44 26 78 27 57 28 77 29 58 30 61 31 76 32 96 33
REMARK SMILES IDX 59 34 60 35 75 37 97 38 62 39 45 40 46 41 55 42 47 43 48 44
REMARK SMILES IDX 54 45 56 46 49 47 50 48 51 49 52 50 53 51 79 52 80 53 89 54
REMARK SMILES IDX 81 55 82 56 88 57 90 58 83 59 84 60 85 61 86 62 87 63 63 64
REMARK SMILES IDX 64 65 73 66 65 67 66 68 72 69 74 70 67 71 68 72 69 73 70 74
REMARK SMILES IDX 71 75 8 76 9 77 10 78 11 79 12 80 13 81 26 82 14 83 25 84
REMARK SMILES IDX 15 85 24 86 16 87 23 88 17 89 27 91 28 92 29 93 30 94 31 95
REMARK SMILES IDX 32 96 35 97 33 98 34 99 18 100 19 101 20 102 21 103 22 104
REMARK H PARENT 95 25 61 36 17 90
REMARK Flexibility Score: inf
ROOT
ATOM      1  C   UNL A   1      33.549  28.001  24.957  1.00  0.00     0.202 C 
ENDROOT
BRANCH   1   2
ATOM      2  O   UNL A   1      33.031  29.337  24.895  1.00  0.00    -0.374 OA
BRANCH   2   3
ATOM      3  C   UNL A   1      32.138  29.674  25.955  1.00  0.00     0.202 C 
BRANCH   3   4
ATOM      4  C   UNL A   1      32.602  30.836  26.831  1.00  0.00     0.261 C 
BRANCH   4   5
ATOM      5  O   UNL A   1      33.810  30.562  27.586  1.00  0.00    -0.460 OA
BRANCH   5   6
ATOM      6  C   UNL A   1      34.887  31.385  27.665  1.00  0.00     0.338 C 
ATOM      7  O   UNL A   1      34.838  32.609  27.552  1.00  0.00    -0.246 OA
BRANCH   6   8
ATOM      8  C   UNL A   1      36.015  30.797  28.368  1.00  0.00     0.060 A 
ATOM      9  C   UNL A   1      36.937  31.597  29.014  1.00  0.00     0.016 A 
ATOM     10  C   UNL A   1      36.248  29.435  28.141  1.00  0.00     0.016 A 
ATOM     11  C   UNL A   1      38.224  31.150  29.059  1.00  0.00     0.010 A 
ATOM     12  C   UNL A   1      37.504  28.926  28.374  1.00  0.00     0.010 A 
ATOM     13  C   UNL A   1      38.512  29.821  28.715  1.00  0.00    -0.014 A 
BRANCH  13  14
ATOM     14  C   UNL A   1      39.896  29.434  28.907  1.00  0.00     0.031 A 
ATOM     15  C   UNL A   1      40.250  29.281  30.349  1.00  0.00     0.074 A 
ATOM     16  C   UNL A   1      40.753  29.182  27.907  1.00  0.00     0.049 A 
ATOM     17  N   UNL A   1      41.113  29.947  31.048  1.00  0.00    -0.248 NA
ATOM     18  C   UNL A   1      39.335  28.446  31.153  1.00  0.00     0.031 C 
ATOM     19  C   UNL A   1      40.489  28.993  26.481  1.00  0.00     0.029 A 
ATOM     20  N   UNL A   1      42.072  28.900  28.018  1.00  0.00    -0.354 N 
ATOM     21  C   UNL A   1      40.958  29.492  32.355  1.00  0.00     0.074 A 
ATOM     22  C   UNL A   1      39.738  28.732  32.387  1.00  0.00     0.031 C 
ATOM     23  C   UNL A   1      41.543  28.351  25.929  1.00  0.00     0.029 A 
ATOM     24  C   UNL A   1      42.586  28.217  26.935  1.00  0.00     0.049 A 
ATOM     25  H   UNL A   1      42.614  29.159  28.797  1.00  0.00     0.167 HD
ATOM     26  C   UNL A   1      41.940  29.594  33.289  1.00  0.00     0.037 A 
ATOM     27  C   UNL A   1      43.710  27.465  26.958  1.00  0.00     0.037 A 
ATOM     28  C   UNL A   1      42.887  30.622  32.953  1.00  0.00     0.049 A 
ATOM     29  C   UNL A   1      44.514  27.901  28.138  1.00  0.00     0.074 A 
ATOM     30  C   UNL A   1      42.805  31.992  32.792  1.00  0.00     0.029 A 
ATOM     31  N   UNL A   1      44.079  30.251  32.376  1.00  0.00    -0.354 N 
ATOM     32  N   UNL A   1      45.046  29.089  28.266  1.00  0.00    -0.248 NA
ATOM     33  C   UNL A   1      44.351  27.165  29.385  1.00  0.00     0.031 C 
ATOM     34  C   UNL A   1      43.698  32.296  31.723  1.00  0.00     0.029 A 
ATOM     35  C   UNL A   1      44.285  31.098  31.315  1.00  0.00     0.049 A 
ATOM     36  H   UNL A   1      44.671  29.521  32.668  1.00  0.00     0.167 HD
ATOM     37  C   UNL A   1      44.935  29.401  29.616  1.00  0.00     0.074 A 
ATOM     38  C   UNL A   1      44.577  28.145  30.266  1.00  0.00     0.031 C 
ATOM     39  C   UNL A   1      44.875  30.695  30.055  1.00  0.00     0.037 A 
BRANCH  26  40
ATOM     40  C   UNL A   1      42.203  28.517  34.314  1.00  0.00     0.058 A 
ATOM     41  C   UNL A   1      42.081  28.816  35.684  1.00  0.00     0.135 A 
ATOM     42  C   UNL A   1      42.841  27.288  34.015  1.00  0.00     0.135 A 
ATOM     43  F   UNL A   1      41.486  29.950  36.087  1.00  0.00    -0.206 F 
ATOM     44  C   UNL A   1      42.641  28.007  36.675  1.00  0.00     0.059 A 
ATOM     45  C   UNL A   1      43.351  26.441  34.987  1.00  0.00     0.059 A 
ATOM     46  F   UNL A   1      43.102  26.890  32.766  1.00  0.00    -0.206 F 
ATOM     47  C   UNL A   1      43.301  26.837  36.309  1.00  0.00     0.060 A 
BRANCH  47  48
ATOM     48  S   UNL A   1      44.189  25.882  37.548  1.00  0.00     0.124 S 
ATOM     49  O   UNL A   1      45.555  25.970  37.049  1.00  0.00    -0.237 OA
ATOM     50  O   UNL A   1      43.902  26.627  38.770  1.00  0.00    -0.237 OA
ATOM     51  O   UNL A   1      43.568  24.564  37.464  1.00  0.00    -0.744 OA
ENDBRANCH  47  48
ENDBRANCH  26  40
BRANCH  27  52
ATOM     52  C   UNL A   1      43.855  26.141  26.302  1.00  0.00     0.058 A 
ATOM     53  C   UNL A   1      44.891  25.890  25.390  1.00  0.00     0.135 A 
ATOM     54  C   UNL A   1      43.109  25.017  26.723  1.00  0.00     0.135 A 
ATOM     55  F   UNL A   1      45.677  26.893  24.974  1.00  0.00    -0.206 F 
ATOM     56  C   UNL A   1      45.176  24.601  24.930  1.00  0.00     0.059 A 
ATOM     57  C   UNL A   1      43.360  23.729  26.262  1.00  0.00     0.059 A 
ATOM     58  F   UNL A   1      42.161  25.121  27.666  1.00  0.00    -0.206 F 
ATOM     59  C   UNL A   1      44.408  23.524  25.377  1.00  0.00     0.060 A 
BRANCH  59  60
ATOM     60  S   UNL A   1      44.848  21.843  24.881  1.00  0.00     0.124 S 
ATOM     61  O   UNL A   1      43.934  21.043  25.688  1.00  0.00    -0.237 OA
ATOM     62  O   UNL A   1      44.580  21.867  23.447  1.00  0.00    -0.237 OA
ATOM     63  O   UNL A   1      46.258  21.739  25.248  1.00  0.00    -0.744 OA
ENDBRANCH  59  60
ENDBRANCH  27  52
BRANCH  39  64
ATOM     64  C   UNL A   1      45.168  31.801  29.074  1.00  0.00     0.058 A 
ATOM     65  C   UNL A   1      46.471  32.212  28.744  1.00  0.00     0.135 A 
ATOM     66  C   UNL A   1      44.119  32.318  28.300  1.00  0.00     0.135 A 
ATOM     67  F   UNL A   1      47.536  31.679  29.355  1.00  0.00    -0.206 F 
ATOM     68  C   UNL A   1      46.718  33.122  27.714  1.00  0.00     0.059 A 
ATOM     69  C   UNL A   1      44.345  33.203  27.248  1.00  0.00     0.059 A 
ATOM     70  F   UNL A   1      42.859  31.909  28.518  1.00  0.00    -0.206 F 
ATOM     71  C   UNL A   1      45.649  33.607  26.965  1.00  0.00     0.060 A 
BRANCH  71  72
ATOM     72  S   UNL A   1      45.987  34.684  25.555  1.00  0.00     0.124 S 
ATOM     73  O   UNL A   1      45.708  36.006  26.105  1.00  0.00    -0.237 OA
ATOM     74  O   UNL A   1      47.391  34.401  25.267  1.00  0.00    -0.237 OA
ATOM     75  O   UNL A   1      45.047  34.219  24.537  1.00  0.00    -0.744 OA
ENDBRANCH  71  72
ENDBRANCH  39  64
ENDBRANCH  13  14
ENDBRANCH   6   8
ENDBRANCH   5   6
ENDBRANCH   4   5
ENDBRANCH   3   4
ENDBRANCH   2   3
ENDBRANCH   1   2
BRANCH   1  76
ATOM     76  C   UNL A   1      32.915  27.102  26.017  1.00  0.00     0.261 C 
BRANCH  76  77
ATOM     77  O   UNL A   1      32.082  26.093  25.386  1.00  0.00    -0.462 OA
BRANCH  77  78
ATOM     78  C   UNL A   1      32.330  24.796  25.644  1.00  0.00     0.328 C 
ATOM     79  O   UNL A   1      31.846  24.201  26.608  1.00  0.00    -0.250 OA
BRANCH  78  80
ATOM     80  C   UNL A   1      33.325  24.079  24.687  1.00  0.00     0.195 C 
ATOM     81  C   UNL A   1      34.704  23.984  25.418  1.00  0.00     0.046 C 
ATOM     82  N   UNL A   1      33.383  22.890  23.814  1.00  0.00    -0.328 N 
ATOM     83  C   UNL A   1      35.611  23.025  24.586  1.00  0.00     0.001 C 
ATOM     84  C   UNL A   1      34.759  22.786  23.329  1.00  0.00     0.128 C 
ATOM     85  C   UNL A   1      35.920  21.635  25.195  1.00  0.00     0.071 C 
ATOM     86  C   UNL A   1      36.971  23.691  24.323  1.00  0.00     0.071 C 
ATOM     87  C   UNL A   1      36.866  21.623  26.396  1.00  0.00     0.270 C 
ATOM     88  C   UNL A   1      37.803  23.748  25.612  1.00  0.00     0.270 C 
ATOM     89  N   UNL A   1      38.068  22.407  26.140  1.00  0.00    -0.272 N 
ATOM     90  H   UNL A   1      37.554  22.657  26.942  1.00  0.00     0.356 HD
BRANCH  82  91
ATOM     91  C   UNL A   1      32.482  21.916  23.457  1.00  0.00     0.225 C 
ATOM     92  O   UNL A   1      32.220  21.687  22.269  1.00  0.00    -0.275 OA
BRANCH  91  93
ATOM     93  C   UNL A   1      31.788  21.071  24.486  1.00  0.00     0.124 C 
BRANCH  93  94
ATOM     94  C   UNL A   1      32.716  20.085  25.196  1.00  0.00     0.154 C 
BRANCH  94  95
ATOM     95  N   UNL A   1      33.195  18.939  24.453  1.00  0.00    -0.272 N 
ATOM     96  C   UNL A   1      32.434  18.089  23.694  1.00  0.00     0.108 A 
ATOM     97  N   UNL A   1      34.483  18.563  24.523  1.00  0.00    -0.182 NA
ATOM     98  C   UNL A   1      33.264  17.068  23.304  1.00  0.00     0.042 A 
ATOM     99  C   UNL A   1      34.509  17.415  23.843  1.00  0.00     0.135 A 
ENDBRANCH  94  95
ENDBRANCH  93  94
ENDBRANCH  91  93
ENDBRANCH  82  91
BRANCH  89 100
ATOM    100  C   UNL A   1      39.396  22.082  26.436  1.00  0.00     0.315 C 
ATOM    101  O   UNL A   1      40.037  22.767  27.235  1.00  0.00    -0.231 OA
BRANCH 100 102
ATOM    102  C   UNL A   1      40.165  20.942  25.846  1.00  0.00     0.119 C 
ATOM    103  C   UNL A   1      40.776  19.718  26.460  1.00  0.00     0.019 C 
ATOM    104  C   UNL A   1      39.518  19.593  25.643  1.00  0.00     0.019 C 
ENDBRANCH 100 102
ENDBRANCH  89 100
ENDBRANCH  78  80
ENDBRANCH  77  78
ENDBRANCH  76  77
ENDBRANCH   1  76
TORSDOF 23
ENDMDL
MODEL 3
REMARK VINA RESULT:     -10.1      4.170      9.633
REMARK SMILES O=C(OCCOCCOC(=O)[C@H]1CC2(CC[NH+](C(=O)C3CC3)CC2)CN1C(=O)CCn1cccn1)c1ccc(-c2c3nc(c(-c4c(F)cc(S(=O)(=O)[O-])cc4F)c4ccc([nH]4)c(-c4c(F)cc(S(=O)(=O)[O-])cc4F)c4nc(c(-c5c(F)cc(S(=O)(=O)[O-])cc5F)c5ccc2[nH]5)C=C4)C=C3)cc1
REMARK SMILES IDX 7 1 6 2 5 3 4 4 3 5 2 6 1 7 36 8 37 9 101 10 38 11 100 12
REMARK SMILES IDX 39 13 40 14 41 15 94 16 42 17 99 18 93 19 95 20 43 21 98 22
REMARK SMILES IDX 92 23 91 24 44 26 78 27 57 28 77 29 58 30 61 31 76 32 96 33
REMARK SMILES IDX 59 34 60 35 75 37 97 38 62 39 45 40 46 41 55 42 47 43 48 44
REMARK SMILES IDX 54 45 56 46 49 47 50 48 51 49 52 50 53 51 79 52 80 53 89 54
REMARK SMILES IDX 81 55 82 56 88 57 90 58 83 59 84 60 85 61 86 62 87 63 63 64
REMARK SMILES IDX 64 65 73 66 65 67 66 68 72 69 74 70 67 71 68 72 69 73 70 74
REMARK SMILES IDX 71 75 8 76 9 77 10 78 11 79 12 80 13 81 26 82 14 83 25 84
REMARK SMILES IDX 15 85 24 86 16 87 23 88 17 89 27 91 28 92 29 93 30 94 31 95
REMARK SMILES IDX 32 96 35 97 33 98 34 99 18 100 19 101 20 102 21 103 22 104
REMARK H PARENT 95 25 61 36 17 90
REMARK Flexibility Score: inf
ROOT
ATOM      1  C   UNL A   1      31.784  28.732  26.565  1.00  0.00     0.202 C 
ENDROOT
BRANCH   1   2
ATOM      2  O   UNL A   1      33.059  29.070  27.129  1.00  0.00    -0.374 OA
BRANCH   2   3
ATOM      3  C   UNL A   1      33.687  30.202  26.533  1.00  0.00     0.202 C 
BRANCH   3   4
ATOM      4  C   UNL A   1      34.570  31.012  27.480  1.00  0.00     0.261 C 
BRANCH   4   5
ATOM      5  O   UNL A   1      33.860  31.575  28.613  1.00  0.00    -0.460 OA
BRANCH   5   6
ATOM      6  C   UNL A   1      34.156  32.756  29.214  1.00  0.00     0.338 C 
ATOM      7  O   UNL A   1      33.478  33.778  29.111  1.00  0.00    -0.246 OA
BRANCH   6   8
ATOM      8  C   UNL A   1      35.033  32.618  30.364  1.00  0.00     0.060 A 
ATOM      9  C   UNL A   1      35.236  33.677  31.227  1.00  0.00     0.016 A 
ATOM     10  C   UNL A   1      35.837  31.471  30.399  1.00  0.00     0.016 A 
ATOM     11  C   UNL A   1      36.459  33.768  31.823  1.00  0.00     0.010 A 
ATOM     12  C   UNL A   1      36.981  31.483  31.161  1.00  0.00     0.010 A 
ATOM     13  C   UNL A   1      37.342  32.680  31.769  1.00  0.00    -0.014 A 
BRANCH  13  14
ATOM     14  C   UNL A   1      38.563  32.856  32.530  1.00  0.00     0.031 A 
ATOM     15  C   UNL A   1      39.688  33.368  31.692  1.00  0.00     0.074 A 
ATOM     16  C   UNL A   1      38.666  32.641  33.850  1.00  0.00     0.049 A 
ATOM     17  N   UNL A   1      40.818  32.802  31.416  1.00  0.00    -0.248 NA
ATOM     18  C   UNL A   1      39.386  34.554  30.865  1.00  0.00     0.031 C 
ATOM     19  C   UNL A   1      37.613  32.438  34.844  1.00  0.00     0.029 A 
ATOM     20  N   UNL A   1      39.791  32.706  34.599  1.00  0.00    -0.354 N 
ATOM     21  C   UNL A   1      41.440  33.647  30.501  1.00  0.00     0.074 A 
ATOM     22  C   UNL A   1      40.443  34.584  30.059  1.00  0.00     0.031 C 
ATOM     23  C   UNL A   1      38.124  32.688  36.070  1.00  0.00     0.029 A 
ATOM     24  C   UNL A   1      39.553  32.930  35.939  1.00  0.00     0.049 A 
ATOM     25  H   UNL A   1      40.695  32.601  34.224  1.00  0.00     0.167 HD
ATOM     26  C   UNL A   1      42.786  33.658  30.308  1.00  0.00     0.037 A 
ATOM     27  C   UNL A   1      40.453  33.444  36.808  1.00  0.00     0.037 A 
ATOM     28  C   UNL A   1      43.393  32.427  30.734  1.00  0.00     0.049 A 
ATOM     29  C   UNL A   1      41.809  33.247  36.216  1.00  0.00     0.074 A 
ATOM     30  C   UNL A   1      43.279  31.108  30.335  1.00  0.00     0.029 A 
ATOM     31  N   UNL A   1      44.010  32.390  31.962  1.00  0.00    -0.354 N 
ATOM     32  N   UNL A   1      42.356  32.077  36.005  1.00  0.00    -0.248 NA
ATOM     33  C   UNL A   1      42.380  34.340  35.439  1.00  0.00     0.031 C 
ATOM     34  C   UNL A   1      43.389  30.345  31.534  1.00  0.00     0.029 A 
ATOM     35  C   UNL A   1      43.586  31.242  32.585  1.00  0.00     0.049 A 
ATOM     36  H   UNL A   1      44.635  33.058  32.325  1.00  0.00     0.167 HD
ATOM     37  C   UNL A   1      43.064  32.209  34.816  1.00  0.00     0.074 A 
ATOM     38  C   UNL A   1      43.110  33.645  34.561  1.00  0.00     0.031 C 
ATOM     39  C   UNL A   1      43.315  31.138  34.004  1.00  0.00     0.037 A 
BRANCH  26  40
ATOM     40  C   UNL A   1      43.561  34.929  30.054  1.00  0.00     0.058 A 
ATOM     41  C   UNL A   1      44.379  35.028  28.913  1.00  0.00     0.135 A 
ATOM     42  C   UNL A   1      43.752  35.939  31.028  1.00  0.00     0.135 A 
ATOM     43  F   UNL A   1      44.279  34.131  27.919  1.00  0.00    -0.206 F 
ATOM     44  C   UNL A   1      45.379  35.995  28.796  1.00  0.00     0.059 A 
ATOM     45  C   UNL A   1      44.699  36.944  30.905  1.00  0.00     0.059 A 
ATOM     46  F   UNL A   1      43.110  35.949  32.201  1.00  0.00    -0.206 F 
ATOM     47  C   UNL A   1      45.548  36.929  29.815  1.00  0.00     0.060 A 
BRANCH  47  48
ATOM     48  S   UNL A   1      46.946  38.061  29.773  1.00  0.00     0.124 S 
ATOM     49  O   UNL A   1      47.556  37.807  31.072  1.00  0.00    -0.237 OA
ATOM     50  O   UNL A   1      47.688  37.584  28.610  1.00  0.00    -0.237 OA
ATOM     51  O   UNL A   1      46.315  39.367  29.615  1.00  0.00    -0.744 OA
ENDBRANCH  47  48
ENDBRANCH  26  40
BRANCH  27  52
ATOM     52  C   UNL A   1      40.143  34.463  37.843  1.00  0.00     0.058 A 
ATOM     53  C   UNL A   1      40.408  34.227  39.200  1.00  0.00     0.135 A 
ATOM     54  C   UNL A   1      39.781  35.786  37.499  1.00  0.00     0.135 A 
ATOM     55  F   UNL A   1      40.801  33.011  39.606  1.00  0.00    -0.206 F 
ATOM     56  C   UNL A   1      40.328  35.243  40.158  1.00  0.00     0.059 A 
ATOM     57  C   UNL A   1      39.674  36.807  38.437  1.00  0.00     0.059 A 
ATOM     58  F   UNL A   1      39.603  36.151  36.221  1.00  0.00    -0.206 F 
ATOM     59  C   UNL A   1      39.966  36.533  39.765  1.00  0.00     0.060 A 
BRANCH  59  60
ATOM     60  S   UNL A   1      39.980  37.874  40.976  1.00  0.00     0.124 S 
ATOM     61  O   UNL A   1      39.251  37.279  42.090  1.00  0.00    -0.237 OA
ATOM     62  O   UNL A   1      41.408  38.084  41.185  1.00  0.00    -0.237 OA
ATOM     63  O   UNL A   1      39.287  38.960  40.287  1.00  0.00    -0.744 OA
ENDBRANCH  59  60
ENDBRANCH  27  52
BRANCH  39  64
ATOM     64  C   UNL A   1      43.018  29.756  34.524  1.00  0.00     0.058 A 
ATOM     65  C   UNL A   1      43.928  29.010  35.294  1.00  0.00     0.135 A 
ATOM     66  C   UNL A   1      41.712  29.256  34.416  1.00  0.00     0.135 A 
ATOM     67  F   UNL A   1      45.158  29.474  35.544  1.00  0.00    -0.206 F 
ATOM     68  C   UNL A   1      43.567  27.806  35.901  1.00  0.00     0.059 A 
ATOM     69  C   UNL A   1      41.321  28.071  35.038  1.00  0.00     0.059 A 
ATOM     70  F   UNL A   1      40.777  29.957  33.755  1.00  0.00    -0.206 F 
ATOM     71  C   UNL A   1      42.258  27.347  35.774  1.00  0.00     0.060 A 
BRANCH  71  72
ATOM     72  S   UNL A   1      41.764  25.854  36.664  1.00  0.00     0.124 S 
ATOM     73  O   UNL A   1      42.980  25.520  37.399  1.00  0.00    -0.237 OA
ATOM     74  O   UNL A   1      40.643  26.323  37.475  1.00  0.00    -0.237 OA
ATOM     75  O   UNL A   1      41.402  24.925  35.597  1.00  0.00    -0.744 OA
ENDBRANCH  71  72
ENDBRANCH  39  64
ENDBRANCH  13  14
ENDBRANCH   6   8
ENDBRANCH   5   6
ENDBRANCH   4   5
ENDBRANCH   3   4
ENDBRANCH   2   3
ENDBRANCH   1   2
BRANCH   1  76
ATOM     76  C   UNL A   1      31.303  27.309  26.841  1.00  0.00     0.261 C 
BRANCH  76  77
ATOM     77  O   UNL A   1      32.414  26.378  26.751  1.00  0.00    -0.462 OA
BRANCH  77  78
ATOM     78  C   UNL A   1      32.155  25.088  26.466  1.00  0.00     0.328 C 
ATOM     79  O   UNL A   1      31.384  24.397  27.132  1.00  0.00    -0.250 OA
BRANCH  78  80
ATOM     80  C   UNL A   1      32.938  24.476  25.269  1.00  0.00     0.195 C 
ATOM     81  C   UNL A   1      33.021  22.931  25.494  1.00  0.00     0.046 C 
ATOM     82  N   UNL A   1      32.972  24.552  23.794  1.00  0.00    -0.328 N 
ATOM     83  C   UNL A   1      33.548  22.292  24.171  1.00  0.00     0.001 C 
ATOM     84  C   UNL A   1      33.915  23.531  23.339  1.00  0.00     0.128 C 
ATOM     85  C   UNL A   1      32.540  21.466  23.333  1.00  0.00     0.071 C 
ATOM     86  C   UNL A   1      34.724  21.352  24.478  1.00  0.00     0.071 C 
ATOM     87  C   UNL A   1      32.126  20.115  23.919  1.00  0.00     0.270 C 
ATOM     88  C   UNL A   1      34.229  20.078  25.178  1.00  0.00     0.270 C 
ATOM     89  N   UNL A   1      33.284  19.336  24.339  1.00  0.00    -0.272 N 
ATOM     90  H   UNL A   1      32.599  19.495  25.029  1.00  0.00     0.356 HD
BRANCH  82  91
ATOM     91  C   UNL A   1      32.294  25.291  22.855  1.00  0.00     0.225 C 
ATOM     92  O   UNL A   1      32.396  25.041  21.647  1.00  0.00    -0.275 OA
BRANCH  91  93
ATOM     93  C   UNL A   1      31.386  26.420  23.247  1.00  0.00     0.124 C 
BRANCH  93  94
ATOM     94  C   UNL A   1      31.379  27.576  22.246  1.00  0.00     0.154 C 
BRANCH  94  95
ATOM     95  N   UNL A   1      30.557  28.730  22.539  1.00  0.00    -0.272 N 
ATOM     96  C   UNL A   1      30.472  29.380  23.742  1.00  0.00     0.108 A 
ATOM     97  N   UNL A   1      29.712  29.224  21.619  1.00  0.00    -0.182 NA
ATOM     98  C   UNL A   1      29.467  30.307  23.612  1.00  0.00     0.042 A 
ATOM     99  C   UNL A   1      29.040  30.164  22.287  1.00  0.00     0.135 A 
ENDBRANCH  94  95
ENDBRANCH  93  94
ENDBRANCH  91  93
ENDBRANCH  82  91
BRANCH  89 100
ATOM    100  C   UNL A   1      33.534  17.975  24.136  1.00  0.00     0.315 C 
ATOM    101  O   UNL A   1      33.859  17.566  23.021  1.00  0.00    -0.231 OA
BRANCH 100 102
ATOM    102  C   UNL A   1      33.429  16.906  25.178  1.00  0.00     0.119 C 
ATOM    103  C   UNL A   1      33.124  15.441  25.087  1.00  0.00     0.019 C 
ATOM    104  C   UNL A   1      34.533  15.894  25.364  1.00  0.00     0.019 C 
ENDBRANCH 100 102
ENDBRANCH  89 100
ENDBRANCH  78  80
ENDBRANCH  77  78
ENDBRANCH  76  77
ENDBRANCH   1  76
TORSDOF 23
ENDMDL
