MODEL 1
REMARK VINA RESULT:      -9.9      0.000      0.000
REMARK SMILES COc1cnc(SCC(=O)OCCOCCOC(=O)c2ccc(-c3c4nc(c(-c5c(F)cc(S(=O)(=O)[O-])cc5F)c5ccc([nH]5)c(-c5c(F)cc(S(=O)(=O)[O-])cc5F)c5nc(c(-c6c(F)cc(S(=O)(=O)[O-])cc6F)c6ccc3[nH]6)C=C5)C=C4)cc2)[nH]c1=O
REMARK SMILES IDX 14 1 13 2 12 3 11 4 9 5 10 6 8 7 7 8 6 9 3 10 4 11 87 12
REMARK SMILES IDX 5 13 86 14 88 15 2 17 1 18 15 19 16 20 17 21 18 22 19 23
REMARK SMILES IDX 20 24 21 25 85 26 22 27 84 28 23 29 24 30 25 31 78 32 26 33
REMARK SMILES IDX 83 34 77 35 79 36 27 37 82 38 76 39 75 40 28 42 62 43 41 44
REMARK SMILES IDX 61 45 42 46 45 47 60 48 80 49 43 50 44 51 59 53 81 54 46 55
REMARK SMILES IDX 29 56 30 57 39 58 31 59 32 60 38 61 40 62 33 63 34 64 35 65
REMARK SMILES IDX 36 66 37 67 63 68 64 69 73 70 65 71 66 72 72 73 74 74 67 75
REMARK SMILES IDX 68 76 69 77 70 78 71 79 47 80 48 81 57 82 49 83 50 84 56 85
REMARK SMILES IDX 58 86 51 87 52 88 53 89 54 90 55 91
REMARK H PARENT 86 16 79 41 45 52
REMARK Flexibility Score: inf
ROOT
ATOM      1  O   UNL A   1      35.138  34.061  31.930  1.00  0.00    -0.374 OA
ENDROOT
BRANCH   1   2
ATOM      2  C   UNL A   1      35.533  35.135  32.781  1.00  0.00     0.202 C 
BRANCH   2   3
ATOM      3  C   UNL A   1      34.413  35.887  33.511  1.00  0.00     0.261 C 
BRANCH   3   4
ATOM      4  O   UNL A   1      33.147  35.847  32.822  1.00  0.00    -0.463 OA
BRANCH   4   5
ATOM      5  C   UNL A   1      32.965  36.789  31.856  1.00  0.00     0.316 C 
ATOM      6  O   UNL A   1      33.174  37.990  32.018  1.00  0.00    -0.251 OA
BRANCH   5   7
ATOM      7  C   UNL A   1      32.451  36.275  30.529  1.00  0.00     0.200 C 
BRANCH   7   8
ATOM      8  S   UNL A   1      33.496  36.537  29.077  1.00  0.00    -0.076 SA
BRANCH   8   9
ATOM      9  C   UNL A   1      34.083  34.940  28.745  1.00  0.00     0.168 A 
ATOM     10  C   UNL A   1      35.298  32.555  28.149  1.00  0.00     0.202 A 
ATOM     11  C   UNL A   1      33.974  32.768  28.128  1.00  0.00     0.166 A 
ATOM     12  C   UNL A   1      36.129  33.708  28.619  1.00  0.00     0.293 A 
ATOM     13  N   UNL A   1      33.328  33.941  28.437  1.00  0.00    -0.229 NA
ATOM     14  N   UNL A   1      35.435  34.863  28.853  1.00  0.00    -0.298 N 
ATOM     15  O   UNL A   1      37.341  33.658  28.788  1.00  0.00    -0.265 OA
ATOM     16  H   UNL A   1      35.936  35.671  29.109  1.00  0.00     0.172 HD
BRANCH  10  17
ATOM     17  O   UNL A   1      35.802  31.384  27.612  1.00  0.00    -0.490 OA
ATOM     18  C   UNL A   1      35.025  30.206  27.769  1.00  0.00     0.278 C 
ENDBRANCH  10  17
ENDBRANCH   8   9
ENDBRANCH   7   8
ENDBRANCH   5   7
ENDBRANCH   4   5
ENDBRANCH   3   4
ENDBRANCH   2   3
ENDBRANCH   1   2
BRANCH   1  19
ATOM     19  C   UNL A   1      34.819  32.818  32.555  1.00  0.00     0.202 C 
BRANCH  19  20
ATOM     20  C   UNL A   1      35.914  31.749  32.541  1.00  0.00     0.261 C 
BRANCH  20  21
ATOM     21  O   UNL A   1      36.547  31.611  31.259  1.00  0.00    -0.460 OA
BRANCH  21  22
ATOM     22  C   UNL A   1      36.979  30.355  31.005  1.00  0.00     0.338 C 
ATOM     23  O   UNL A   1      36.312  29.325  31.031  1.00  0.00    -0.246 OA
BRANCH  22  24
ATOM     24  C   UNL A   1      38.364  30.363  30.518  1.00  0.00     0.060 A 
ATOM     25  C   UNL A   1      38.552  30.252  29.136  1.00  0.00     0.016 A 
ATOM     26  C   UNL A   1      39.451  30.327  31.394  1.00  0.00     0.016 A 
ATOM     27  C   UNL A   1      39.825  30.026  28.626  1.00  0.00     0.010 A 
ATOM     28  C   UNL A   1      40.732  30.100  30.879  1.00  0.00     0.010 A 
ATOM     29  C   UNL A   1      40.914  29.898  29.499  1.00  0.00    -0.014 A 
BRANCH  29  30
ATOM     30  C   UNL A   1      42.200  29.393  28.959  1.00  0.00     0.031 A 
ATOM     31  C   UNL A   1      43.379  30.328  28.891  1.00  0.00     0.074 A 
ATOM     32  C   UNL A   1      42.325  28.101  28.604  1.00  0.00     0.049 A 
ATOM     33  N   UNL A   1      44.607  30.084  28.514  1.00  0.00    -0.248 NA
ATOM     34  C   UNL A   1      43.144  31.724  29.303  1.00  0.00     0.031 C 
ATOM     35  C   UNL A   1      41.253  27.106  28.649  1.00  0.00     0.029 A 
ATOM     36  N   UNL A   1      43.412  27.403  28.143  1.00  0.00    -0.354 N 
ATOM     37  C   UNL A   1      45.287  31.292  28.632  1.00  0.00     0.074 A 
ATOM     38  C   UNL A   1      44.332  32.273  29.095  1.00  0.00     0.031 C 
ATOM     39  C   UNL A   1      41.737  25.924  28.232  1.00  0.00     0.029 A 
ATOM     40  C   UNL A   1      43.144  26.082  27.874  1.00  0.00     0.049 A 
ATOM     41  H   UNL A   1      44.298  27.810  28.016  1.00  0.00     0.167 HD
ATOM     42  C   UNL A   1      46.594  31.552  28.387  1.00  0.00     0.037 A 
ATOM     43  C   UNL A   1      43.948  25.114  27.391  1.00  0.00     0.037 A 
ATOM     44  C   UNL A   1      47.542  30.561  27.952  1.00  0.00     0.049 A 
ATOM     45  C   UNL A   1      45.394  25.437  27.115  1.00  0.00     0.074 A 
ATOM     46  C   UNL A   1      48.897  30.710  27.718  1.00  0.00     0.029 A 
ATOM     47  N   UNL A   1      47.232  29.235  27.685  1.00  0.00    -0.354 N 
ATOM     48  N   UNL A   1      46.032  26.572  27.281  1.00  0.00    -0.248 NA
ATOM     49  C   UNL A   1      46.231  24.346  26.596  1.00  0.00     0.031 C 
ATOM     50  C   UNL A   1      49.400  29.484  27.270  1.00  0.00     0.029 A 
ATOM     51  C   UNL A   1      48.366  28.561  27.267  1.00  0.00     0.049 A 
ATOM     52  H   UNL A   1      46.339  28.834  27.779  1.00  0.00     0.167 HD
ATOM     53  C   UNL A   1      47.352  26.322  26.919  1.00  0.00     0.074 A 
ATOM     54  C   UNL A   1      47.422  24.927  26.533  1.00  0.00     0.031 C 
ATOM     55  C   UNL A   1      48.413  27.168  26.907  1.00  0.00     0.037 A 
BRANCH  42  56
ATOM     56  C   UNL A   1      47.079  32.963  28.565  1.00  0.00     0.058 A 
ATOM     57  C   UNL A   1      46.967  33.920  27.545  1.00  0.00     0.135 A 
ATOM     58  C   UNL A   1      47.601  33.381  29.801  1.00  0.00     0.135 A 
ATOM     59  F   UNL A   1      46.492  33.569  26.340  1.00  0.00    -0.206 F 
ATOM     60  C   UNL A   1      47.362  35.240  27.740  1.00  0.00     0.059 A 
ATOM     61  C   UNL A   1      47.983  34.700  30.024  1.00  0.00     0.059 A 
ATOM     62  F   UNL A   1      47.735  32.504  30.809  1.00  0.00    -0.206 F 
ATOM     63  C   UNL A   1      47.865  35.621  28.985  1.00  0.00     0.060 A 
BRANCH  63  64
ATOM     64  S   UNL A   1      48.336  37.347  29.237  1.00  0.00     0.124 S 
ATOM     65  O   UNL A   1      49.158  37.601  28.058  1.00  0.00    -0.237 OA
ATOM     66  O   UNL A   1      47.044  38.024  29.267  1.00  0.00    -0.237 OA
ATOM     67  O   UNL A   1      49.054  37.321  30.508  1.00  0.00    -0.744 OA
ENDBRANCH  63  64
ENDBRANCH  42  56
BRANCH  43  68
ATOM     68  C   UNL A   1      43.413  23.751  27.133  1.00  0.00     0.058 A 
ATOM     69  C   UNL A   1      43.253  22.822  28.171  1.00  0.00     0.135 A 
ATOM     70  C   UNL A   1      43.078  23.342  25.833  1.00  0.00     0.135 A 
ATOM     71  F   UNL A   1      43.562  23.163  29.430  1.00  0.00    -0.206 F 
ATOM     72  C   UNL A   1      42.812  21.525  27.926  1.00  0.00     0.059 A 
ATOM     73  C   UNL A   1      42.612  22.059  25.566  1.00  0.00     0.059 A 
ATOM     74  F   UNL A   1      43.197  24.199  24.806  1.00  0.00    -0.206 F 
ATOM     75  C   UNL A   1      42.501  21.151  26.618  1.00  0.00     0.060 A 
BRANCH  75  76
ATOM     76  S   UNL A   1      41.919  19.469  26.305  1.00  0.00     0.124 S 
ATOM     77  O   UNL A   1      40.485  19.679  26.158  1.00  0.00    -0.237 OA
ATOM     78  O   UNL A   1      42.642  19.113  25.088  1.00  0.00    -0.237 OA
ATOM     79  O   UNL A   1      42.334  18.745  27.504  1.00  0.00    -0.744 OA
ENDBRANCH  75  76
ENDBRANCH  43  68
BRANCH  55  80
ATOM     80  C   UNL A   1      49.743  26.595  26.509  1.00  0.00     0.058 A 
ATOM     81  C   UNL A   1      50.180  26.604  25.175  1.00  0.00     0.135 A 
ATOM     82  C   UNL A   1      50.608  26.070  27.482  1.00  0.00     0.135 A 
ATOM     83  F   UNL A   1      49.388  27.091  24.208  1.00  0.00    -0.206 F 
ATOM     84  C   UNL A   1      51.419  26.083  24.816  1.00  0.00     0.059 A 
ATOM     85  C   UNL A   1      51.861  25.568  27.149  1.00  0.00     0.059 A 
ATOM     86  F   UNL A   1      50.242  26.052  28.773  1.00  0.00    -0.206 F 
ATOM     87  C   UNL A   1      52.251  25.565  25.810  1.00  0.00     0.060 A 
BRANCH  87  88
ATOM     88  S   UNL A   1      53.865  24.910  25.337  1.00  0.00     0.124 S 
ATOM     89  O   UNL A   1      54.314  25.908  24.371  1.00  0.00    -0.237 OA
ATOM     90  O   UNL A   1      54.583  24.890  26.608  1.00  0.00    -0.237 OA
ATOM     91  O   UNL A   1      53.549  23.597  24.783  1.00  0.00    -0.744 OA
ENDBRANCH  87  88
ENDBRANCH  55  80
ENDBRANCH  29  30
ENDBRANCH  22  24
ENDBRANCH  21  22
ENDBRANCH  20  21
ENDBRANCH  19  20
ENDBRANCH   1  19
TORSDOF 20
ENDMDL
MODEL 2
REMARK VINA RESULT:      -9.2      5.909      8.374
REMARK SMILES COc1cnc(SCC(=O)OCCOCCOC(=O)c2ccc(-c3c4nc(c(-c5c(F)cc(S(=O)(=O)[O-])cc5F)c5ccc([nH]5)c(-c5c(F)cc(S(=O)(=O)[O-])cc5F)c5nc(c(-c6c(F)cc(S(=O)(=O)[O-])cc6F)c6ccc3[nH]6)C=C5)C=C4)cc2)[nH]c1=O
REMARK SMILES IDX 14 1 13 2 12 3 11 4 9 5 10 6 8 7 7 8 6 9 3 10 4 11 87 12
REMARK SMILES IDX 5 13 86 14 88 15 2 17 1 18 15 19 16 20 17 21 18 22 19 23
REMARK SMILES IDX 20 24 21 25 85 26 22 27 84 28 23 29 24 30 25 31 78 32 26 33
REMARK SMILES IDX 83 34 77 35 79 36 27 37 82 38 76 39 75 40 28 42 62 43 41 44
REMARK SMILES IDX 61 45 42 46 45 47 60 48 80 49 43 50 44 51 59 53 81 54 46 55
REMARK SMILES IDX 29 56 30 57 39 58 31 59 32 60 38 61 40 62 33 63 34 64 35 65
REMARK SMILES IDX 36 66 37 67 63 68 64 69 73 70 65 71 66 72 72 73 74 74 67 75
REMARK SMILES IDX 68 76 69 77 70 78 71 79 47 80 48 81 57 82 49 83 50 84 56 85
REMARK SMILES IDX 58 86 51 87 52 88 53 89 54 90 55 91
REMARK H PARENT 86 16 79 41 45 52
REMARK Flexibility Score: inf
ROOT
ATOM      1  O   UNL A   1      33.040  29.238  24.988  1.00  0.00    -0.374 OA
ENDROOT
BRANCH   1   2
ATOM      2  C   UNL A   1      33.546  27.979  25.430  1.00  0.00     0.202 C 
BRANCH   2   3
ATOM      3  C   UNL A   1      33.820  26.927  24.348  1.00  0.00     0.261 C 
BRANCH   3   4
ATOM      4  O   UNL A   1      32.623  26.369  23.769  1.00  0.00    -0.463 OA
BRANCH   4   5
ATOM      5  C   UNL A   1      31.833  25.651  24.613  1.00  0.00     0.316 C 
ATOM      6  O   UNL A   1      32.154  24.571  25.105  1.00  0.00    -0.251 OA
BRANCH   5   7
ATOM      7  C   UNL A   1      30.477  26.254  24.911  1.00  0.00     0.200 C 
BRANCH   7   8
ATOM      8  S   UNL A   1      29.256  26.249  23.577  1.00  0.00    -0.076 SA
BRANCH   8   9
ATOM      9  C   UNL A   1      29.275  27.900  23.047  1.00  0.00     0.168 A 
ATOM     10  C   UNL A   1      28.981  30.502  22.231  1.00  0.00     0.202 A 
ATOM     11  C   UNL A   1      30.049  29.733  21.972  1.00  0.00     0.166 A 
ATOM     12  C   UNL A   1      27.935  29.880  23.104  1.00  0.00     0.293 A 
ATOM     13  N   UNL A   1      30.240  28.433  22.378  1.00  0.00    -0.229 NA
ATOM     14  N   UNL A   1      28.154  28.569  23.423  1.00  0.00    -0.298 N 
ATOM     15  O   UNL A   1      26.943  30.469  23.515  1.00  0.00    -0.265 OA
ATOM     16  H   UNL A   1      27.472  28.090  23.947  1.00  0.00     0.172 HD
BRANCH  10  17
ATOM     17  O   UNL A   1      28.846  31.713  21.578  1.00  0.00    -0.490 OA
ATOM     18  C   UNL A   1      28.792  32.885  22.380  1.00  0.00     0.278 C 
ENDBRANCH  10  17
ENDBRANCH   8   9
ENDBRANCH   7   8
ENDBRANCH   5   7
ENDBRANCH   4   5
ENDBRANCH   3   4
ENDBRANCH   2   3
ENDBRANCH   1   2
BRANCH   1  19
ATOM     19  C   UNL A   1      31.873  29.736  25.640  1.00  0.00     0.202 C 
BRANCH  19  20
ATOM     20  C   UNL A   1      32.101  30.754  26.761  1.00  0.00     0.261 C 
BRANCH  20  21
ATOM     21  O   UNL A   1      33.240  30.442  27.578  1.00  0.00    -0.460 OA
BRANCH  21  22
ATOM     22  C   UNL A   1      34.054  31.500  27.792  1.00  0.00     0.338 C 
ATOM     23  O   UNL A   1      33.722  32.674  27.923  1.00  0.00    -0.246 OA
BRANCH  22  24
ATOM     24  C   UNL A   1      35.438  31.062  28.017  1.00  0.00     0.060 A 
ATOM     25  C   UNL A   1      35.639  29.701  28.272  1.00  0.00     0.016 A 
ATOM     26  C   UNL A   1      36.489  31.975  28.126  1.00  0.00     0.016 A 
ATOM     27  C   UNL A   1      36.880  29.256  28.714  1.00  0.00     0.010 A 
ATOM     28  C   UNL A   1      37.737  31.525  28.571  1.00  0.00     0.010 A 
ATOM     29  C   UNL A   1      37.920  30.173  28.915  1.00  0.00    -0.014 A 
BRANCH  29  30
ATOM     30  C   UNL A   1      39.134  29.722  29.637  1.00  0.00     0.031 A 
ATOM     31  C   UNL A   1      39.479  30.365  30.956  1.00  0.00     0.074 A 
ATOM     32  C   UNL A   1      39.873  28.707  29.153  1.00  0.00     0.049 A 
ATOM     33  N   UNL A   1      40.452  30.086  31.782  1.00  0.00    -0.248 NA
ATOM     34  C   UNL A   1      38.610  31.468  31.403  1.00  0.00     0.031 C 
ATOM     35  C   UNL A   1      39.617  28.002  27.897  1.00  0.00     0.029 A 
ATOM     36  N   UNL A   1      40.983  28.088  29.666  1.00  0.00    -0.354 N 
ATOM     37  C   UNL A   1      40.322  30.982  32.838  1.00  0.00     0.074 A 
ATOM     38  C   UNL A   1      39.188  31.827  32.541  1.00  0.00     0.031 C 
ATOM     39  C   UNL A   1      40.547  27.045  27.736  1.00  0.00     0.029 A 
ATOM     40  C   UNL A   1      41.471  27.081  28.867  1.00  0.00     0.049 A 
ATOM     41  H   UNL A   1      41.394  28.341  30.523  1.00  0.00     0.167 HD
ATOM     42  C   UNL A   1      41.075  31.078  33.960  1.00  0.00     0.037 A 
ATOM     43  C   UNL A   1      42.544  26.283  29.032  1.00  0.00     0.037 A 
ATOM     44  C   UNL A   1      42.185  30.213  34.259  1.00  0.00     0.049 A 
ATOM     45  C   UNL A   1      43.371  26.424  30.284  1.00  0.00     0.074 A 
ATOM     46  C   UNL A   1      42.985  30.198  35.388  1.00  0.00     0.029 A 
ATOM     47  N   UNL A   1      42.652  29.209  33.423  1.00  0.00    -0.354 N 
ATOM     48  N   UNL A   1      43.203  27.242  31.297  1.00  0.00    -0.248 NA
ATOM     49  C   UNL A   1      44.528  25.527  30.421  1.00  0.00     0.031 C 
ATOM     50  C   UNL A   1      43.962  29.212  35.216  1.00  0.00     0.029 A 
ATOM     51  C   UNL A   1      43.743  28.584  34.000  1.00  0.00     0.049 A 
ATOM     52  H   UNL A   1      42.265  28.977  32.549  1.00  0.00     0.167 HD
ATOM     53  C   UNL A   1      44.210  26.934  32.205  1.00  0.00     0.074 A 
ATOM     54  C   UNL A   1      44.978  25.851  31.626  1.00  0.00     0.031 C 
ATOM     55  C   UNL A   1      44.478  27.495  33.411  1.00  0.00     0.037 A 
BRANCH  42  56
ATOM     56  C   UNL A   1      40.740  32.164  34.945  1.00  0.00     0.058 A 
ATOM     57  C   UNL A   1      39.855  31.949  36.012  1.00  0.00     0.135 A 
ATOM     58  C   UNL A   1      41.367  33.417  34.856  1.00  0.00     0.135 A 
ATOM     59  F   UNL A   1      39.214  30.775  36.132  1.00  0.00    -0.206 F 
ATOM     60  C   UNL A   1      39.599  32.940  36.954  1.00  0.00     0.059 A 
ATOM     61  C   UNL A   1      41.142  34.416  35.798  1.00  0.00     0.059 A 
ATOM     62  F   UNL A   1      42.218  33.677  33.851  1.00  0.00    -0.206 F 
ATOM     63  C   UNL A   1      40.251  34.169  36.841  1.00  0.00     0.060 A 
BRANCH  63  64
ATOM     64  S   UNL A   1      39.939  35.433  38.093  1.00  0.00     0.124 S 
ATOM     65  O   UNL A   1      38.725  34.927  38.725  1.00  0.00    -0.237 OA
ATOM     66  O   UNL A   1      41.149  35.373  38.907  1.00  0.00    -0.237 OA
ATOM     67  O   UNL A   1      39.776  36.655  37.310  1.00  0.00    -0.744 OA
ENDBRANCH  63  64
ENDBRANCH  42  56
BRANCH  43  68
ATOM     68  C   UNL A   1      42.907  25.284  27.993  1.00  0.00     0.058 A 
ATOM     69  C   UNL A   1      42.270  24.036  27.927  1.00  0.00     0.135 A 
ATOM     70  C   UNL A   1      43.922  25.549  27.060  1.00  0.00     0.135 A 
ATOM     71  F   UNL A   1      41.296  23.734  28.798  1.00  0.00    -0.206 F 
ATOM     72  C   UNL A   1      42.648  23.073  26.997  1.00  0.00     0.059 A 
ATOM     73  C   UNL A   1      44.301  24.612  26.104  1.00  0.00     0.059 A 
ATOM     74  F   UNL A   1      44.552  26.734  27.069  1.00  0.00    -0.206 F 
ATOM     75  C   UNL A   1      43.670  23.368  26.093  1.00  0.00     0.060 A 
BRANCH  75  76
ATOM     76  S   UNL A   1      44.151  22.119  24.880  1.00  0.00     0.124 S 
ATOM     77  O   UNL A   1      43.363  20.973  25.313  1.00  0.00    -0.237 OA
ATOM     78  O   UNL A   1      43.745  22.737  23.622  1.00  0.00    -0.237 OA
ATOM     79  O   UNL A   1      45.595  22.005  25.074  1.00  0.00    -0.744 OA
ENDBRANCH  75  76
ENDBRANCH  43  68
BRANCH  55  80
ATOM     80  C   UNL A   1      45.617  26.916  34.201  1.00  0.00     0.058 A 
ATOM     81  C   UNL A   1      45.430  25.844  35.087  1.00  0.00     0.135 A 
ATOM     82  C   UNL A   1      46.919  27.414  34.036  1.00  0.00     0.135 A 
ATOM     83  F   UNL A   1      44.203  25.336  35.283  1.00  0.00    -0.206 F 
ATOM     84  C   UNL A   1      46.491  25.305  35.806  1.00  0.00     0.059 A 
ATOM     85  C   UNL A   1      47.999  26.874  34.725  1.00  0.00     0.059 A 
ATOM     86  F   UNL A   1      47.152  28.430  33.190  1.00  0.00    -0.206 F 
ATOM     87  C   UNL A   1      47.772  25.829  35.620  1.00  0.00     0.060 A 
BRANCH  87  88
ATOM     88  S   UNL A   1      49.147  25.109  36.542  1.00  0.00     0.124 S 
ATOM     89  O   UNL A   1      49.061  25.832  37.807  1.00  0.00    -0.237 OA
ATOM     90  O   UNL A   1      48.788  23.696  36.593  1.00  0.00    -0.237 OA
ATOM     91  O   UNL A   1      50.310  25.424  35.717  1.00  0.00    -0.744 OA
ENDBRANCH  87  88
ENDBRANCH  55  80
ENDBRANCH  29  30
ENDBRANCH  22  24
ENDBRANCH  21  22
ENDBRANCH  20  21
ENDBRANCH  19  20
ENDBRANCH   1  19
TORSDOF 20
ENDMDL
MODEL 3
REMARK VINA RESULT:      -9.1      1.551      2.228
REMARK SMILES COc1cnc(SCC(=O)OCCOCCOC(=O)c2ccc(-c3c4nc(c(-c5c(F)cc(S(=O)(=O)[O-])cc5F)c5ccc([nH]5)c(-c5c(F)cc(S(=O)(=O)[O-])cc5F)c5nc(c(-c6c(F)cc(S(=O)(=O)[O-])cc6F)c6ccc3[nH]6)C=C5)C=C4)cc2)[nH]c1=O
REMARK SMILES IDX 14 1 13 2 12 3 11 4 9 5 10 6 8 7 7 8 6 9 3 10 4 11 87 12
REMARK SMILES IDX 5 13 86 14 88 15 2 17 1 18 15 19 16 20 17 21 18 22 19 23
REMARK SMILES IDX 20 24 21 25 85 26 22 27 84 28 23 29 24 30 25 31 78 32 26 33
REMARK SMILES IDX 83 34 77 35 79 36 27 37 82 38 76 39 75 40 28 42 62 43 41 44
REMARK SMILES IDX 61 45 42 46 45 47 60 48 80 49 43 50 44 51 59 53 81 54 46 55
REMARK SMILES IDX 29 56 30 57 39 58 31 59 32 60 38 61 40 62 33 63 34 64 35 65
REMARK SMILES IDX 36 66 37 67 63 68 64 69 73 70 65 71 66 72 72 73 74 74 67 75
REMARK SMILES IDX 68 76 69 77 70 78 71 79 47 80 48 81 57 82 49 83 50 84 56 85
REMARK SMILES IDX 58 86 51 87 52 88 53 89 54 90 55 91
REMARK H PARENT 86 16 79 41 45 52
REMARK Flexibility Score: inf
ROOT
ATOM      1  O   UNL A   1      35.710  34.800  33.050  1.00  0.00    -0.374 OA
ENDROOT
BRANCH   1   2
ATOM      2  C   UNL A   1      34.310  34.701  32.793  1.00  0.00     0.202 C 
BRANCH   2   3
ATOM      3  C   UNL A   1      33.800  35.338  31.494  1.00  0.00     0.261 C 
BRANCH   3   4
ATOM      4  O   UNL A   1      33.779  34.429  30.375  1.00  0.00    -0.463 OA
BRANCH   4   5
ATOM      5  C   UNL A   1      33.109  34.858  29.271  1.00  0.00     0.316 C 
ATOM      6  O   UNL A   1      32.464  35.904  29.222  1.00  0.00    -0.251 OA
BRANCH   5   7
ATOM      7  C   UNL A   1      33.175  33.943  28.067  1.00  0.00     0.200 C 
BRANCH   7   8
ATOM      8  S   UNL A   1      34.205  32.463  28.207  1.00  0.00    -0.076 SA
BRANCH   8   9
ATOM      9  C   UNL A   1      33.351  31.320  27.221  1.00  0.00     0.168 A 
ATOM     10  C   UNL A   1      32.295  29.405  25.567  1.00  0.00     0.202 A 
ATOM     11  C   UNL A   1      31.651  30.511  25.968  1.00  0.00     0.166 A 
ATOM     12  C   UNL A   1      33.656  29.200  26.157  1.00  0.00     0.293 A 
ATOM     13  N   UNL A   1      32.140  31.483  26.809  1.00  0.00    -0.229 NA
ATOM     14  N   UNL A   1      34.108  30.229  26.935  1.00  0.00    -0.298 N 
ATOM     15  O   UNL A   1      34.342  28.203  25.973  1.00  0.00    -0.265 OA
ATOM     16  H   UNL A   1      35.019  30.177  27.304  1.00  0.00     0.172 HD
BRANCH  10  17
ATOM     17  O   UNL A   1      31.747  28.633  24.558  1.00  0.00    -0.490 OA
ATOM     18  C   UNL A   1      32.251  28.823  23.244  1.00  0.00     0.278 C 
ENDBRANCH  10  17
ENDBRANCH   8   9
ENDBRANCH   7   8
ENDBRANCH   5   7
ENDBRANCH   4   5
ENDBRANCH   3   4
ENDBRANCH   2   3
ENDBRANCH   1   2
BRANCH   1  19
ATOM     19  C   UNL A   1      36.426  33.580  33.238  1.00  0.00     0.202 C 
BRANCH  19  20
ATOM     20  C   UNL A   1      36.287  32.532  32.129  1.00  0.00     0.261 C 
BRANCH  20  21
ATOM     21  O   UNL A   1      36.694  31.219  32.545  1.00  0.00    -0.460 OA
BRANCH  21  22
ATOM     22  C   UNL A   1      36.845  30.352  31.518  1.00  0.00     0.338 C 
ATOM     23  O   UNL A   1      35.965  29.695  30.971  1.00  0.00    -0.246 OA
BRANCH  22  24
ATOM     24  C   UNL A   1      38.215  30.393  30.992  1.00  0.00     0.060 A 
ATOM     25  C   UNL A   1      38.360  30.425  29.600  1.00  0.00     0.016 A 
ATOM     26  C   UNL A   1      39.327  30.251  31.825  1.00  0.00     0.016 A 
ATOM     27  C   UNL A   1      39.614  30.237  29.030  1.00  0.00     0.010 A 
ATOM     28  C   UNL A   1      40.588  30.062  31.250  1.00  0.00     0.010 A 
ATOM     29  C   UNL A   1      40.726  30.004  29.851  1.00  0.00    -0.014 A 
BRANCH  29  30
ATOM     30  C   UNL A   1      41.987  29.541  29.222  1.00  0.00     0.031 A 
ATOM     31  C   UNL A   1      43.141  30.503  29.109  1.00  0.00     0.074 A 
ATOM     32  C   UNL A   1      42.116  28.262  28.824  1.00  0.00     0.049 A 
ATOM     33  N   UNL A   1      44.348  30.296  28.653  1.00  0.00    -0.248 NA
ATOM     34  C   UNL A   1      42.903  31.881  29.572  1.00  0.00     0.031 C 
ATOM     35  C   UNL A   1      41.069  27.243  28.906  1.00  0.00     0.029 A 
ATOM     36  N   UNL A   1      43.187  27.600  28.280  1.00  0.00    -0.354 N 
ATOM     37  C   UNL A   1      45.010  31.514  28.764  1.00  0.00     0.074 A 
ATOM     38  C   UNL A   1      44.065  32.462  29.310  1.00  0.00     0.031 C 
ATOM     39  C   UNL A   1      41.550  26.083  28.428  1.00  0.00     0.029 A 
ATOM     40  C   UNL A   1      42.930  26.281  27.992  1.00  0.00     0.049 A 
ATOM     41  H   UNL A   1      44.056  28.029  28.112  1.00  0.00     0.167 HD
ATOM     42  C   UNL A   1      46.294  31.809  28.449  1.00  0.00     0.037 A 
ATOM     43  C   UNL A   1      43.722  25.344  27.435  1.00  0.00     0.037 A 
ATOM     44  C   UNL A   1      47.234  30.850  27.931  1.00  0.00     0.049 A 
ATOM     45  C   UNL A   1      45.142  25.705  27.082  1.00  0.00     0.074 A 
ATOM     46  C   UNL A   1      48.570  31.035  27.621  1.00  0.00     0.029 A 
ATOM     47  N   UNL A   1      46.936  29.526  27.646  1.00  0.00    -0.354 N 
ATOM     48  N   UNL A   1      45.767  26.848  27.241  1.00  0.00    -0.248 NA
ATOM     49  C   UNL A   1      45.969  24.646  26.484  1.00  0.00     0.031 C 
ATOM     50  C   UNL A   1      49.069  29.832  27.110  1.00  0.00     0.029 A 
ATOM     51  C   UNL A   1      48.055  28.887  27.143  1.00  0.00     0.049 A 
ATOM     52  H   UNL A   1      46.057  29.103  27.782  1.00  0.00     0.167 HD
ATOM     53  C   UNL A   1      47.067  26.636  26.795  1.00  0.00     0.074 A 
ATOM     54  C   UNL A   1      47.142  25.255  26.367  1.00  0.00     0.031 C 
ATOM     55  C   UNL A   1      48.108  27.505  26.742  1.00  0.00     0.037 A 
BRANCH  42  56
ATOM     56  C   UNL A   1      46.761  33.225  28.637  1.00  0.00     0.058 A 
ATOM     57  C   UNL A   1      46.646  34.185  27.619  1.00  0.00     0.135 A 
ATOM     58  C   UNL A   1      47.268  33.644  29.878  1.00  0.00     0.135 A 
ATOM     59  F   UNL A   1      46.184  33.833  26.409  1.00  0.00    -0.206 F 
ATOM     60  C   UNL A   1      47.023  35.508  27.823  1.00  0.00     0.059 A 
ATOM     61  C   UNL A   1      47.632  34.966  30.110  1.00  0.00     0.059 A 
ATOM     62  F   UNL A   1      47.405  32.765  30.883  1.00  0.00    -0.206 F 
ATOM     63  C   UNL A   1      47.511  35.890  29.073  1.00  0.00     0.060 A 
BRANCH  63  64
ATOM     64  S   UNL A   1      47.960  37.620  29.336  1.00  0.00     0.124 S 
ATOM     65  O   UNL A   1      48.795  37.887  28.169  1.00  0.00    -0.237 OA
ATOM     66  O   UNL A   1      46.660  38.283  29.349  1.00  0.00    -0.237 OA
ATOM     67  O   UNL A   1      48.660  37.599  30.618  1.00  0.00    -0.744 OA
ENDBRANCH  63  64
ENDBRANCH  42  56
BRANCH  43  68
ATOM     68  C   UNL A   1      43.200  23.977  27.172  1.00  0.00     0.058 A 
ATOM     69  C   UNL A   1      42.610  23.646  25.943  1.00  0.00     0.135 A 
ATOM     70  C   UNL A   1      43.256  22.980  28.159  1.00  0.00     0.135 A 
ATOM     71  F   UNL A   1      42.529  24.564  24.969  1.00  0.00    -0.206 F 
ATOM     72  C   UNL A   1      42.063  22.387  25.713  1.00  0.00     0.059 A 
ATOM     73  C   UNL A   1      42.739  21.707  27.944  1.00  0.00     0.059 A 
ATOM     74  F   UNL A   1      43.826  23.240  29.346  1.00  0.00    -0.206 F 
ATOM     75  C   UNL A   1      42.126  21.426  26.723  1.00  0.00     0.060 A 
BRANCH  75  76
ATOM     76  S   UNL A   1      41.425  19.790  26.417  1.00  0.00     0.124 S 
ATOM     77  O   UNL A   1      41.618  19.143  27.708  1.00  0.00    -0.237 OA
ATOM     78  O   UNL A   1      40.045  20.107  26.060  1.00  0.00    -0.237 OA
ATOM     79  O   UNL A   1      42.243  19.276  25.322  1.00  0.00    -0.744 OA
ENDBRANCH  75  76
ENDBRANCH  43  68
BRANCH  55  80
ATOM     80  C   UNL A   1      49.423  26.973  26.250  1.00  0.00     0.058 A 
ATOM     81  C   UNL A   1      49.784  27.036  24.896  1.00  0.00     0.135 A 
ATOM     82  C   UNL A   1      50.350  26.430  27.154  1.00  0.00     0.135 A 
ATOM     83  F   UNL A   1      48.930  27.542  23.992  1.00  0.00    -0.206 F 
ATOM     84  C   UNL A   1      51.009  26.552  24.448  1.00  0.00     0.059 A 
ATOM     85  C   UNL A   1      51.591  25.964  26.733  1.00  0.00     0.059 A 
ATOM     86  F   UNL A   1      50.058  26.359  28.462  1.00  0.00    -0.206 F 
ATOM     87  C   UNL A   1      51.905  26.015  25.375  1.00  0.00     0.060 A 
BRANCH  87  88
ATOM     88  S   UNL A   1      53.501  25.407  24.790  1.00  0.00     0.124 S 
ATOM     89  O   UNL A   1      53.388  23.979  25.064  1.00  0.00    -0.237 OA
ATOM     90  O   UNL A   1      53.484  25.785  23.380  1.00  0.00    -0.237 OA
ATOM     91  O   UNL A   1      54.462  26.132  25.615  1.00  0.00    -0.744 OA
ENDBRANCH  87  88
ENDBRANCH  55  80
ENDBRANCH  29  30
ENDBRANCH  22  24
ENDBRANCH  21  22
ENDBRANCH  20  21
ENDBRANCH  19  20
ENDBRANCH   1  19
TORSDOF 20
ENDMDL
