MODEL 1
REMARK VINA RESULT:     -12.3      0.000      0.000
REMARK SMILES CS(=O)(=O)c1ccc(C2=NN(c3ccc(C(=O)OCCOCCOC(=O)c4ccc(-c5c6nc(c(-c7c(F)cc(S(=O)(=O)[O-])cc7F)c7ccc([nH]7)c(-c7c(F)cc(S(=O)(=O)[O-])cc7F)c7nc(c(-c8c(F)cc(S(=O)(=O)[O-])cc8F)c8ccc5[nH]8)C=C7)C=C6)cc4)cc3)[C@H](c3ccccc3)C2)cc1
REMARK SMILES IDX 21 1 20 2 19 3 18 4 16 5 17 6 15 7 12 8 13 9 94 10 14 11
REMARK SMILES IDX 93 12 11 13 9 14 10 15 102 16 95 17 8 18 5 19 6 20 104 21
REMARK SMILES IDX 7 22 103 23 2 24 1 25 3 26 4 27 96 28 97 29 101 30 98 31
REMARK SMILES IDX 100 32 99 33 22 34 23 35 24 36 25 37 26 38 27 39 28 40 92 41
REMARK SMILES IDX 29 42 91 43 30 44 31 45 32 46 85 47 33 48 90 49 84 50 86 51
REMARK SMILES IDX 34 52 89 53 83 54 82 55 35 57 69 58 48 59 68 60 49 61 52 62
REMARK SMILES IDX 67 63 87 64 50 65 51 66 66 68 88 69 53 70 36 71 37 72 46 73
REMARK SMILES IDX 38 74 39 75 45 76 47 77 40 78 41 79 42 80 43 81 44 82 70 83
REMARK SMILES IDX 71 84 80 85 72 86 73 87 79 88 81 89 74 90 75 91 76 92 77 93
REMARK SMILES IDX 78 94 54 95 55 96 64 97 56 98 57 99 63 100 65 101 58 102
REMARK SMILES IDX 59 103 60 104 61 105 62 106
REMARK H PARENT 86 56 52 67
REMARK Flexibility Score: inf
ROOT
ATOM      1  O   UNL A   1      35.206  34.532  29.154  1.00  0.00    -0.374 OA
ENDROOT
BRANCH   1   2
ATOM      2  C   UNL A   1      33.816  34.229  29.026  1.00  0.00     0.202 C 
BRANCH   2   3
ATOM      3  C   UNL A   1      33.399  33.508  27.740  1.00  0.00     0.261 C 
BRANCH   3   4
ATOM      4  O   UNL A   1      33.159  32.114  27.987  1.00  0.00    -0.460 OA
BRANCH   4   5
ATOM      5  C   UNL A   1      34.114  31.274  27.524  1.00  0.00     0.338 C 
ATOM      6  O   UNL A   1      35.321  31.463  27.536  1.00  0.00    -0.246 OA
BRANCH   5   7
ATOM      7  C   UNL A   1      33.512  29.991  27.081  1.00  0.00     0.060 A 
ATOM      8  C   UNL A   1      32.490  27.608  26.006  1.00  0.00     0.060 A 
ATOM      9  C   UNL A   1      33.870  27.831  26.039  1.00  0.00     0.029 A 
ATOM     10  C   UNL A   1      31.639  28.537  26.623  1.00  0.00     0.029 A 
ATOM     11  C   UNL A   1      34.378  29.020  26.563  1.00  0.00     0.018 A 
ATOM     12  C   UNL A   1      32.141  29.728  27.155  1.00  0.00     0.018 A 
BRANCH   8  13
ATOM     13  N   UNL A   1      31.945  26.575  25.226  1.00  0.00    -0.257 N 
ATOM     14  C   UNL A   1      32.315  24.634  24.409  1.00  0.00     0.071 C 
ATOM     15  N   UNL A   1      32.263  25.284  25.528  1.00  0.00    -0.176 NA
ATOM     16  C   UNL A   1      32.163  25.458  23.161  1.00  0.00     0.091 C 
ATOM     17  C   UNL A   1      31.870  26.832  23.773  1.00  0.00     0.144 C 
BRANCH  14  18
ATOM     18  C   UNL A   1      32.501  23.173  24.342  1.00  0.00    -0.002 A 
ATOM     19  C   UNL A   1      32.771  20.404  24.292  1.00  0.00     0.067 A 
ATOM     20  C   UNL A   1      32.537  21.052  25.509  1.00  0.00     0.021 A 
ATOM     21  C   UNL A   1      32.865  21.130  23.100  1.00  0.00     0.021 A 
ATOM     22  C   UNL A   1      32.419  22.441  25.532  1.00  0.00     0.011 A 
ATOM     23  C   UNL A   1      32.724  22.521  23.125  1.00  0.00     0.011 A 
BRANCH  19  24
ATOM     24  S   UNL A   1      32.884  18.629  24.267  1.00  0.00     0.175 S 
ATOM     25  C   UNL A   1      32.357  18.197  22.630  1.00  0.00     0.163 C 
ATOM     26  O   UNL A   1      31.898  18.114  25.202  1.00  0.00    -0.224 OA
ATOM     27  O   UNL A   1      34.284  18.285  24.403  1.00  0.00    -0.224 OA
ENDBRANCH  19  24
ENDBRANCH  14  18
BRANCH  17  28
ATOM     28  C   UNL A   1      30.559  27.515  23.411  1.00  0.00    -0.023 A 
ATOM     29  C   UNL A   1      29.297  27.012  23.752  1.00  0.00     0.006 A 
ATOM     30  C   UNL A   1      30.615  28.761  22.752  1.00  0.00     0.006 A 
ATOM     31  C   UNL A   1      28.135  27.729  23.444  1.00  0.00     0.000 A 
ATOM     32  C   UNL A   1      29.460  29.494  22.481  1.00  0.00     0.000 A 
ATOM     33  C   UNL A   1      28.218  28.975  22.824  1.00  0.00     0.000 A 
ENDBRANCH  17  28
ENDBRANCH   8  13
ENDBRANCH   5   7
ENDBRANCH   4   5
ENDBRANCH   3   4
ENDBRANCH   2   3
ENDBRANCH   1   2
BRANCH   1  34
ATOM     34  C   UNL A   1      35.937  33.822  30.154  1.00  0.00     0.202 C 
BRANCH  34  35
ATOM     35  C   UNL A   1      35.162  32.765  30.951  1.00  0.00     0.261 C 
BRANCH  35  36
ATOM     36  O   UNL A   1      35.719  31.449  30.795  1.00  0.00    -0.460 OA
BRANCH  36  37
ATOM     37  C   UNL A   1      36.691  31.137  31.685  1.00  0.00     0.338 C 
ATOM     38  O   UNL A   1      36.628  31.220  32.904  1.00  0.00    -0.246 OA
BRANCH  37  39
ATOM     39  C   UNL A   1      37.824  30.493  30.994  1.00  0.00     0.060 A 
ATOM     40  C   UNL A   1      38.754  29.804  31.783  1.00  0.00     0.016 A 
ATOM     41  C   UNL A   1      38.015  30.613  29.616  1.00  0.00     0.016 A 
ATOM     42  C   UNL A   1      39.908  29.279  31.205  1.00  0.00     0.010 A 
ATOM     43  C   UNL A   1      39.178  30.092  29.038  1.00  0.00     0.010 A 
ATOM     44  C   UNL A   1      40.145  29.453  29.835  1.00  0.00    -0.014 A 
BRANCH  44  45
ATOM     45  C   UNL A   1      41.468  29.091  29.270  1.00  0.00     0.031 A 
ATOM     46  C   UNL A   1      42.535  30.148  29.176  1.00  0.00     0.074 A 
ATOM     47  C   UNL A   1      41.726  27.832  28.873  1.00  0.00     0.049 A 
ATOM     48  N   UNL A   1      43.746  30.063  28.690  1.00  0.00    -0.248 NA
ATOM     49  C   UNL A   1      42.190  31.480  29.699  1.00  0.00     0.031 C 
ATOM     50  C   UNL A   1      40.785  26.715  28.948  1.00  0.00     0.029 A 
ATOM     51  N   UNL A   1      42.856  27.284  28.321  1.00  0.00    -0.354 N 
ATOM     52  C   UNL A   1      44.305  31.326  28.842  1.00  0.00     0.074 A 
ATOM     53  C   UNL A   1      43.292  32.168  29.440  1.00  0.00     0.031 C 
ATOM     54  C   UNL A   1      41.375  25.615  28.447  1.00  0.00     0.029 A 
ATOM     55  C   UNL A   1      42.721  25.956  27.991  1.00  0.00     0.049 A 
ATOM     56  H   UNL A   1      43.686  27.794  28.176  1.00  0.00     0.167 HD
ATOM     57  C   UNL A   1      45.554  31.743  28.522  1.00  0.00     0.037 A 
ATOM     58  C   UNL A   1      43.578  25.120  27.374  1.00  0.00     0.037 A 
ATOM     59  C   UNL A   1      46.560  30.901  27.932  1.00  0.00     0.049 A 
ATOM     60  C   UNL A   1      44.941  25.624  26.971  1.00  0.00     0.074 A 
ATOM     61  C   UNL A   1      47.861  31.226  27.587  1.00  0.00     0.029 A 
ATOM     62  N   UNL A   1      46.378  29.569  27.591  1.00  0.00    -0.354 N 
ATOM     63  N   UNL A   1      45.464  26.814  27.142  1.00  0.00    -0.248 NA
ATOM     64  C   UNL A   1      45.830  24.669  26.294  1.00  0.00     0.031 C 
ATOM     65  C   UNL A   1      48.450  30.103  26.997  1.00  0.00     0.029 A 
ATOM     66  C   UNL A   1      47.534  29.063  27.018  1.00  0.00     0.049 A 
ATOM     67  H   UNL A   1      45.548  29.058  27.733  1.00  0.00     0.167 HD
ATOM     68  C   UNL A   1      46.751  26.744  26.619  1.00  0.00     0.074 A 
ATOM     69  C   UNL A   1      46.931  25.391  26.135  1.00  0.00     0.031 C 
ATOM     70  C   UNL A   1      47.700  27.711  26.548  1.00  0.00     0.037 A 
BRANCH  57  71
ATOM     71  C   UNL A   1      45.895  33.184  28.785  1.00  0.00     0.058 A 
ATOM     72  C   UNL A   1      45.650  34.188  27.833  1.00  0.00     0.135 A 
ATOM     73  C   UNL A   1      46.442  33.572  30.019  1.00  0.00     0.135 A 
ATOM     74  F   UNL A   1      45.146  33.870  26.631  1.00  0.00    -0.206 F 
ATOM     75  C   UNL A   1      45.956  35.520  28.087  1.00  0.00     0.059 A 
ATOM     76  C   UNL A   1      46.732  34.903  30.304  1.00  0.00     0.059 A 
ATOM     77  F   UNL A   1      46.699  32.652  30.963  1.00  0.00    -0.206 F 
ATOM     78  C   UNL A   1      46.498  35.869  29.327  1.00  0.00     0.060 A 
BRANCH  78  79
ATOM     79  S   UNL A   1      46.882  37.604  29.645  1.00  0.00     0.124 S 
ATOM     80  O   UNL A   1      46.435  37.753  31.026  1.00  0.00    -0.237 OA
ATOM     81  O   UNL A   1      48.326  37.647  29.437  1.00  0.00    -0.237 OA
ATOM     82  O   UNL A   1      46.087  38.316  28.649  1.00  0.00    -0.744 OA
ENDBRANCH  78  79
ENDBRANCH  57  71
BRANCH  58  83
ATOM     83  C   UNL A   1      43.170  23.720  27.082  1.00  0.00     0.058 A 
ATOM     84  C   UNL A   1      42.906  23.299  25.772  1.00  0.00     0.135 A 
ATOM     85  C   UNL A   1      43.032  22.777  28.112  1.00  0.00     0.135 A 
ATOM     86  F   UNL A   1      43.012  24.166  24.753  1.00  0.00    -0.206 F 
ATOM     87  C   UNL A   1      42.505  21.996  25.491  1.00  0.00     0.059 A 
ATOM     88  C   UNL A   1      42.657  21.462  27.856  1.00  0.00     0.059 A 
ATOM     89  F   UNL A   1      43.283  23.127  29.383  1.00  0.00    -0.206 F 
ATOM     90  C   UNL A   1      42.386  21.084  26.541  1.00  0.00     0.060 A 
BRANCH  90  91
ATOM     91  S   UNL A   1      41.911  19.382  26.165  1.00  0.00     0.124 S 
ATOM     92  O   UNL A   1      42.300  18.692  27.390  1.00  0.00    -0.237 OA
ATOM     93  O   UNL A   1      40.476  19.509  25.932  1.00  0.00    -0.237 OA
ATOM     94  O   UNL A   1      42.705  19.066  24.981  1.00  0.00    -0.744 OA
ENDBRANCH  90  91
ENDBRANCH  58  83
BRANCH  70  95
ATOM     95  C   UNL A   1      49.032  27.337  25.956  1.00  0.00     0.058 A 
ATOM     96  C   UNL A   1      49.270  27.400  24.575  1.00  0.00     0.135 A 
ATOM     97  C   UNL A   1      50.099  26.961  26.789  1.00  0.00     0.135 A 
ATOM     98  F   UNL A   1      48.283  27.748  23.734  1.00  0.00    -0.206 F 
ATOM     99  C   UNL A   1      50.514  27.085  24.038  1.00  0.00     0.059 A 
ATOM    100  C   UNL A   1      51.358  26.667  26.276  1.00  0.00     0.059 A 
ATOM    101  F   UNL A   1      49.927  26.895  28.119  1.00  0.00    -0.206 F 
ATOM    102  C   UNL A   1      51.553  26.720  24.897  1.00  0.00     0.060 A 
BRANCH 102 103
ATOM    103  S   UNL A   1      53.171  26.346  24.190  1.00  0.00     0.124 S 
ATOM    104  O   UNL A   1      53.946  27.514  24.595  1.00  0.00    -0.237 OA
ATOM    105  O   UNL A   1      53.521  25.093  24.851  1.00  0.00    -0.237 OA
ATOM    106  O   UNL A   1      52.900  26.238  22.760  1.00  0.00    -0.744 OA
ENDBRANCH 102 103
ENDBRANCH  70  95
ENDBRANCH  44  45
ENDBRANCH  37  39
ENDBRANCH  36  37
ENDBRANCH  35  36
ENDBRANCH  34  35
ENDBRANCH   1  34
TORSDOF 21
ENDMDL
MODEL 2
REMARK VINA RESULT:     -12.2      0.755      7.758
REMARK SMILES CS(=O)(=O)c1ccc(C2=NN(c3ccc(C(=O)OCCOCCOC(=O)c4ccc(-c5c6nc(c(-c7c(F)cc(S(=O)(=O)[O-])cc7F)c7ccc([nH]7)c(-c7c(F)cc(S(=O)(=O)[O-])cc7F)c7nc(c(-c8c(F)cc(S(=O)(=O)[O-])cc8F)c8ccc5[nH]8)C=C7)C=C6)cc4)cc3)[C@H](c3ccccc3)C2)cc1
REMARK SMILES IDX 21 1 20 2 19 3 18 4 16 5 17 6 15 7 12 8 13 9 94 10 14 11
REMARK SMILES IDX 93 12 11 13 9 14 10 15 102 16 95 17 8 18 5 19 6 20 104 21
REMARK SMILES IDX 7 22 103 23 2 24 1 25 3 26 4 27 96 28 97 29 101 30 98 31
REMARK SMILES IDX 100 32 99 33 22 34 23 35 24 36 25 37 26 38 27 39 28 40 92 41
REMARK SMILES IDX 29 42 91 43 30 44 31 45 32 46 85 47 33 48 90 49 84 50 86 51
REMARK SMILES IDX 34 52 89 53 83 54 82 55 35 57 69 58 48 59 68 60 49 61 52 62
REMARK SMILES IDX 67 63 87 64 50 65 51 66 66 68 88 69 53 70 36 71 37 72 46 73
REMARK SMILES IDX 38 74 39 75 45 76 47 77 40 78 41 79 42 80 43 81 44 82 70 83
REMARK SMILES IDX 71 84 80 85 72 86 73 87 79 88 81 89 74 90 75 91 76 92 77 93
REMARK SMILES IDX 78 94 54 95 55 96 64 97 56 98 57 99 63 100 65 101 58 102
REMARK SMILES IDX 59 103 60 104 61 105 62 106
REMARK H PARENT 86 56 52 67
REMARK Flexibility Score: inf
ROOT
ATOM      1  O   UNL A   1      35.644  34.212  29.945  1.00  0.00    -0.374 OA
ENDROOT
BRANCH   1   2
ATOM      2  C   UNL A   1      34.263  33.922  29.721  1.00  0.00     0.202 C 
BRANCH   2   3
ATOM      3  C   UNL A   1      33.889  33.482  28.303  1.00  0.00     0.261 C 
BRANCH   3   4
ATOM      4  O   UNL A   1      33.529  32.092  28.273  1.00  0.00    -0.460 OA
BRANCH   4   5
ATOM      5  C   UNL A   1      34.397  31.285  27.622  1.00  0.00     0.338 C 
ATOM      6  O   UNL A   1      35.600  31.460  27.489  1.00  0.00    -0.246 OA
BRANCH   5   7
ATOM      7  C   UNL A   1      33.717  30.050  27.158  1.00  0.00     0.060 A 
ATOM      8  C   UNL A   1      32.591  27.720  26.067  1.00  0.00     0.060 A 
ATOM      9  C   UNL A   1      33.960  27.777  26.350  1.00  0.00     0.029 A 
ATOM     10  C   UNL A   1      31.777  28.798  26.447  1.00  0.00     0.029 A 
ATOM     11  C   UNL A   1      34.521  28.937  26.882  1.00  0.00     0.018 A 
ATOM     12  C   UNL A   1      32.332  29.963  26.985  1.00  0.00     0.018 A 
BRANCH   8  13
ATOM     13  N   UNL A   1      32.061  26.695  25.269  1.00  0.00    -0.257 N 
ATOM     14  C   UNL A   1      32.434  24.749  24.465  1.00  0.00     0.071 C 
ATOM     15  N   UNL A   1      32.350  25.399  25.582  1.00  0.00    -0.176 NA
ATOM     16  C   UNL A   1      32.339  25.574  23.213  1.00  0.00     0.091 C 
ATOM     17  C   UNL A   1      32.043  26.952  23.813  1.00  0.00     0.144 C 
BRANCH  14  18
ATOM     18  C   UNL A   1      32.602  23.285  24.405  1.00  0.00    -0.002 A 
ATOM     19  C   UNL A   1      32.861  20.514  24.386  1.00  0.00     0.067 A 
ATOM     20  C   UNL A   1      32.944  21.206  25.598  1.00  0.00     0.021 A 
ATOM     21  C   UNL A   1      32.644  21.197  23.185  1.00  0.00     0.021 A 
ATOM     22  C   UNL A   1      32.831  22.596  25.602  1.00  0.00     0.011 A 
ATOM     23  C   UNL A   1      32.509  22.589  23.195  1.00  0.00     0.011 A 
BRANCH  19  24
ATOM     24  S   UNL A   1      32.971  18.740  24.397  1.00  0.00     0.175 S 
ATOM     25  C   UNL A   1      32.231  18.263  22.857  1.00  0.00     0.163 C 
ATOM     26  O   UNL A   1      32.117  18.253  25.468  1.00  0.00    -0.224 OA
ATOM     27  O   UNL A   1      34.376  18.394  24.355  1.00  0.00    -0.224 OA
ENDBRANCH  19  24
ENDBRANCH  14  18
BRANCH  17  28
ATOM     28  C   UNL A   1      30.756  27.653  23.404  1.00  0.00    -0.023 A 
ATOM     29  C   UNL A   1      29.475  27.145  23.658  1.00  0.00     0.006 A 
ATOM     30  C   UNL A   1      30.851  28.920  22.791  1.00  0.00     0.006 A 
ATOM     31  C   UNL A   1      28.334  27.877  23.311  1.00  0.00     0.000 A 
ATOM     32  C   UNL A   1      29.715  29.667  22.482  1.00  0.00     0.000 A 
ATOM     33  C   UNL A   1      28.454  29.142  22.738  1.00  0.00     0.000 A 
ENDBRANCH  17  28
ENDBRANCH   8  13
ENDBRANCH   5   7
ENDBRANCH   4   5
ENDBRANCH   3   4
ENDBRANCH   2   3
ENDBRANCH   1   2
BRANCH   1  34
ATOM     34  C   UNL A   1      36.477  33.128  30.359  1.00  0.00     0.202 C 
BRANCH  34  35
ATOM     35  C   UNL A   1      35.790  31.982  31.111  1.00  0.00     0.261 C 
BRANCH  35  36
ATOM     36  O   UNL A   1      36.139  30.694  30.576  1.00  0.00    -0.460 OA
BRANCH  36  37
ATOM     37  C   UNL A   1      36.905  29.931  31.391  1.00  0.00     0.338 C 
ATOM     38  O   UNL A   1      36.629  29.554  32.521  1.00  0.00    -0.246 OA
BRANCH  37  39
ATOM     39  C   UNL A   1      38.090  29.440  30.661  1.00  0.00     0.060 A 
ATOM     40  C   UNL A   1      39.075  28.776  31.403  1.00  0.00     0.016 A 
ATOM     41  C   UNL A   1      38.269  29.677  29.297  1.00  0.00     0.016 A 
ATOM     42  C   UNL A   1      40.270  28.397  30.794  1.00  0.00     0.010 A 
ATOM     43  C   UNL A   1      39.472  29.302  28.689  1.00  0.00     0.010 A 
ATOM     44  C   UNL A   1      40.491  28.692  29.443  1.00  0.00    -0.014 A 
BRANCH  44  45
ATOM     45  C   UNL A   1      41.840  28.487  28.860  1.00  0.00     0.031 A 
ATOM     46  C   UNL A   1      42.213  27.122  28.347  1.00  0.00     0.074 A 
ATOM     47  C   UNL A   1      42.710  29.508  28.762  1.00  0.00     0.049 A 
ATOM     48  N   UNL A   1      43.342  26.711  27.831  1.00  0.00    -0.248 NA
ATOM     49  C   UNL A   1      41.175  26.082  28.429  1.00  0.00     0.031 C 
ATOM     50  C   UNL A   1      42.450  30.882  29.191  1.00  0.00     0.029 A 
ATOM     51  N   UNL A   1      43.993  29.545  28.276  1.00  0.00    -0.354 N 
ATOM     52  C   UNL A   1      43.154  25.367  27.532  1.00  0.00     0.074 A 
ATOM     53  C   UNL A   1      41.813  25.024  27.950  1.00  0.00     0.031 C 
ATOM     54  C   UNL A   1      43.546  31.626  28.959  1.00  0.00     0.029 A 
ATOM     55  C   UNL A   1      44.593  30.776  28.395  1.00  0.00     0.049 A 
ATOM     56  H   UNL A   1      44.440  28.763  27.880  1.00  0.00     0.167 HD
ATOM     57  C   UNL A   1      44.019  24.500  26.951  1.00  0.00     0.037 A 
ATOM     58  C   UNL A   1      45.848  31.165  28.100  1.00  0.00     0.037 A 
ATOM     59  C   UNL A   1      45.351  24.847  26.532  1.00  0.00     0.049 A 
ATOM     60  C   UNL A   1      46.812  30.167  27.511  1.00  0.00     0.074 A 
ATOM     61  C   UNL A   1      46.297  24.044  25.918  1.00  0.00     0.029 A 
ATOM     62  N   UNL A   1      45.931  26.097  26.691  1.00  0.00    -0.354 N 
ATOM     63  N   UNL A   1      46.614  28.906  27.212  1.00  0.00    -0.248 NA
ATOM     64  C   UNL A   1      48.170  30.647  27.216  1.00  0.00     0.031 C 
ATOM     65  C   UNL A   1      47.463  24.797  25.745  1.00  0.00     0.029 A 
ATOM     66  C   UNL A   1      47.229  26.083  26.207  1.00  0.00     0.049 A 
ATOM     67  H   UNL A   1      45.485  26.880  27.089  1.00  0.00     0.167 HD
ATOM     68  C   UNL A   1      47.811  28.449  26.671  1.00  0.00     0.074 A 
ATOM     69  C   UNL A   1      48.726  29.572  26.674  1.00  0.00     0.031 C 
ATOM     70  C   UNL A   1      48.125  27.212  26.211  1.00  0.00     0.037 A 
BRANCH  57  71
ATOM     71  C   UNL A   1      43.556  23.083  26.753  1.00  0.00     0.058 A 
ATOM     72  C   UNL A   1      43.313  22.558  25.473  1.00  0.00     0.135 A 
ATOM     73  C   UNL A   1      43.389  22.228  27.854  1.00  0.00     0.135 A 
ATOM     74  F   UNL A   1      43.439  23.336  24.388  1.00  0.00    -0.206 F 
ATOM     75  C   UNL A   1      42.898  21.242  25.295  1.00  0.00     0.059 A 
ATOM     76  C   UNL A   1      43.000  20.902  27.698  1.00  0.00     0.059 A 
ATOM     77  F   UNL A   1      43.607  22.681  29.100  1.00  0.00    -0.206 F 
ATOM     78  C   UNL A   1      42.744  20.421  26.415  1.00  0.00     0.060 A 
BRANCH  78  79
ATOM     79  S   UNL A   1      42.213  18.713  26.167  1.00  0.00     0.124 S 
ATOM     80  O   UNL A   1      42.434  18.144  27.492  1.00  0.00    -0.237 OA
ATOM     81  O   UNL A   1      40.817  18.875  25.771  1.00  0.00    -0.237 OA
ATOM     82  O   UNL A   1      43.106  18.228  25.119  1.00  0.00    -0.744 OA
ENDBRANCH  78  79
ENDBRANCH  57  71
BRANCH  58  83
ATOM     83  C   UNL A   1      46.275  32.564  28.370  1.00  0.00     0.058 A 
ATOM     84  C   UNL A   1      46.769  32.943  29.626  1.00  0.00     0.135 A 
ATOM     85  C   UNL A   1      46.191  33.552  27.376  1.00  0.00     0.135 A 
ATOM     86  F   UNL A   1      46.857  32.038  30.613  1.00  0.00    -0.206 F 
ATOM     87  C   UNL A   1      47.153  34.253  29.894  1.00  0.00     0.059 A 
ATOM     88  C   UNL A   1      46.592  34.863  27.610  1.00  0.00     0.059 A 
ATOM     89  F   UNL A   1      45.734  33.239  26.154  1.00  0.00    -0.206 F 
ATOM     90  C   UNL A   1      47.062  35.206  28.878  1.00  0.00     0.060 A 
BRANCH  90  91
ATOM     91  S   UNL A   1      47.607  36.894  29.218  1.00  0.00     0.124 S 
ATOM     92  O   UNL A   1      46.381  37.650  28.986  1.00  0.00    -0.237 OA
ATOM     93  O   UNL A   1      48.047  36.801  30.606  1.00  0.00    -0.237 OA
ATOM     94  O   UNL A   1      48.673  37.106  28.243  1.00  0.00    -0.744 OA
ENDBRANCH  90  91
ENDBRANCH  58  83
BRANCH  70  95
ATOM     95  C   UNL A   1      49.502  27.011  25.639  1.00  0.00     0.058 A 
ATOM     96  C   UNL A   1      49.777  27.237  24.281  1.00  0.00     0.135 A 
ATOM     97  C   UNL A   1      50.571  26.640  26.472  1.00  0.00     0.135 A 
ATOM     98  F   UNL A   1      48.792  27.587  23.441  1.00  0.00    -0.206 F 
ATOM     99  C   UNL A   1      51.060  27.082  23.766  1.00  0.00     0.059 A 
ATOM    100  C   UNL A   1      51.866  26.506  25.982  1.00  0.00     0.059 A 
ATOM    101  F   UNL A   1      50.364  26.423  27.780  1.00  0.00    -0.206 F 
ATOM    102  C   UNL A   1      52.099  26.717  24.624  1.00  0.00     0.060 A 
BRANCH 102 103
ATOM    103  S   UNL A   1      53.765  26.552  23.949  1.00  0.00     0.124 S 
ATOM    104  O   UNL A   1      54.333  27.864  24.243  1.00  0.00    -0.237 OA
ATOM    105  O   UNL A   1      54.309  25.439  24.721  1.00  0.00    -0.237 OA
ATOM    106  O   UNL A   1      53.532  26.272  22.536  1.00  0.00    -0.744 OA
ENDBRANCH 102 103
ENDBRANCH  70  95
ENDBRANCH  44  45
ENDBRANCH  37  39
ENDBRANCH  36  37
ENDBRANCH  35  36
ENDBRANCH  34  35
ENDBRANCH   1  34
TORSDOF 21
ENDMDL
MODEL 3
REMARK VINA RESULT:     -11.3      6.345     14.633
REMARK SMILES CS(=O)(=O)c1ccc(C2=NN(c3ccc(C(=O)OCCOCCOC(=O)c4ccc(-c5c6nc(c(-c7c(F)cc(S(=O)(=O)[O-])cc7F)c7ccc([nH]7)c(-c7c(F)cc(S(=O)(=O)[O-])cc7F)c7nc(c(-c8c(F)cc(S(=O)(=O)[O-])cc8F)c8ccc5[nH]8)C=C7)C=C6)cc4)cc3)[C@H](c3ccccc3)C2)cc1
REMARK SMILES IDX 21 1 20 2 19 3 18 4 16 5 17 6 15 7 12 8 13 9 94 10 14 11
REMARK SMILES IDX 93 12 11 13 9 14 10 15 102 16 95 17 8 18 5 19 6 20 104 21
REMARK SMILES IDX 7 22 103 23 2 24 1 25 3 26 4 27 96 28 97 29 101 30 98 31
REMARK SMILES IDX 100 32 99 33 22 34 23 35 24 36 25 37 26 38 27 39 28 40 92 41
REMARK SMILES IDX 29 42 91 43 30 44 31 45 32 46 85 47 33 48 90 49 84 50 86 51
REMARK SMILES IDX 34 52 89 53 83 54 82 55 35 57 69 58 48 59 68 60 49 61 52 62
REMARK SMILES IDX 67 63 87 64 50 65 51 66 66 68 88 69 53 70 36 71 37 72 46 73
REMARK SMILES IDX 38 74 39 75 45 76 47 77 40 78 41 79 42 80 43 81 44 82 70 83
REMARK SMILES IDX 71 84 80 85 72 86 73 87 79 88 81 89 74 90 75 91 76 92 77 93
REMARK SMILES IDX 78 94 54 95 55 96 64 97 56 98 57 99 63 100 65 101 58 102
REMARK SMILES IDX 59 103 60 104 61 105 62 106
REMARK H PARENT 86 56 52 67
REMARK Flexibility Score: inf
ROOT
ATOM      1  O   UNL A   1      43.028  22.446  24.502  1.00  0.00    -0.374 OA
ENDROOT
BRANCH   1   2
ATOM      2  C   UNL A   1      44.134  23.350  24.478  1.00  0.00     0.202 C 
BRANCH   2   3
ATOM      3  C   UNL A   1      45.513  22.722  24.262  1.00  0.00     0.261 C 
BRANCH   3   4
ATOM      4  O   UNL A   1      46.428  23.122  25.293  1.00  0.00    -0.460 OA
BRANCH   4   5
ATOM      5  C   UNL A   1      46.870  24.398  25.209  1.00  0.00     0.338 C 
ATOM      6  O   UNL A   1      47.173  25.000  24.190  1.00  0.00    -0.246 OA
BRANCH   5   7
ATOM      7  C   UNL A   1      46.840  25.051  26.541  1.00  0.00     0.060 A 
ATOM      8  C   UNL A   1      46.518  26.303  29.034  1.00  0.00     0.060 A 
ATOM      9  C   UNL A   1      45.875  25.090  28.765  1.00  0.00     0.029 A 
ATOM     10  C   UNL A   1      47.415  26.818  28.086  1.00  0.00     0.029 A 
ATOM     11  C   UNL A   1      46.026  24.474  27.524  1.00  0.00     0.018 A 
ATOM     12  C   UNL A   1      47.576  26.202  26.840  1.00  0.00     0.018 A 
BRANCH   8  13
ATOM     13  N   UNL A   1      46.153  27.084  30.143  1.00  0.00    -0.257 N 
ATOM     14  C   UNL A   1      45.578  29.044  30.775  1.00  0.00     0.071 C 
ATOM     15  N   UNL A   1      45.241  28.084  29.973  1.00  0.00    -0.176 NA
ATOM     16  C   UNL A   1      46.873  28.861  31.514  1.00  0.00     0.091 C 
ATOM     17  C   UNL A   1      47.247  27.443  31.069  1.00  0.00     0.144 C 
BRANCH  14  18
ATOM     18  C   UNL A   1      44.749  30.246  30.972  1.00  0.00    -0.002 A 
ATOM     19  C   UNL A   1      43.269  32.564  31.397  1.00  0.00     0.067 A 
ATOM     20  C   UNL A   1      44.120  32.096  32.403  1.00  0.00     0.021 A 
ATOM     21  C   UNL A   1      43.157  31.886  30.179  1.00  0.00     0.021 A 
ATOM     22  C   UNL A   1      44.847  30.924  32.193  1.00  0.00     0.011 A 
ATOM     23  C   UNL A   1      43.904  30.724  29.964  1.00  0.00     0.011 A 
BRANCH  19  24
ATOM     24  S   UNL A   1      42.373  34.078  31.662  1.00  0.00     0.175 S 
ATOM     25  C   UNL A   1      43.236  35.258  30.659  1.00  0.00     0.163 C 
ATOM     26  O   UNL A   1      42.555  34.458  33.052  1.00  0.00    -0.224 OA
ATOM     27  O   UNL A   1      41.046  33.895  31.112  1.00  0.00    -0.224 OA
ENDBRANCH  19  24
ENDBRANCH  14  18
BRANCH  17  28
ATOM     28  C   UNL A   1      47.422  26.376  32.139  1.00  0.00    -0.023 A 
ATOM     29  C   UNL A   1      48.652  25.783  32.456  1.00  0.00     0.006 A 
ATOM     30  C   UNL A   1      46.297  26.006  32.905  1.00  0.00     0.006 A 
ATOM     31  C   UNL A   1      48.750  24.855  33.499  1.00  0.00     0.000 A 
ATOM     32  C   UNL A   1      46.403  25.112  33.971  1.00  0.00     0.000 A 
ATOM     33  C   UNL A   1      47.631  24.532  34.264  1.00  0.00     0.000 A 
ENDBRANCH  17  28
ENDBRANCH   8  13
ENDBRANCH   5   7
ENDBRANCH   4   5
ENDBRANCH   3   4
ENDBRANCH   2   3
ENDBRANCH   1   2
BRANCH   1  34
ATOM     34  C   UNL A   1      42.510  22.086  25.784  1.00  0.00     0.202 C 
BRANCH  34  35
ATOM     35  C   UNL A   1      42.225  23.237  26.757  1.00  0.00     0.261 C 
BRANCH  35  36
ATOM     36  O   UNL A   1      40.988  23.906  26.461  1.00  0.00    -0.460 OA
BRANCH  36  37
ATOM     37  C   UNL A   1      41.110  25.228  26.191  1.00  0.00     0.338 C 
ATOM     38  O   UNL A   1      41.061  25.763  25.092  1.00  0.00    -0.246 OA
BRANCH  37  39
ATOM     39  C   UNL A   1      41.138  26.002  27.447  1.00  0.00     0.060 A 
ATOM     40  C   UNL A   1      40.008  25.935  28.270  1.00  0.00     0.016 A 
ATOM     41  C   UNL A   1      42.214  26.826  27.784  1.00  0.00     0.016 A 
ATOM     42  C   UNL A   1      39.924  26.737  29.408  1.00  0.00     0.010 A 
ATOM     43  C   UNL A   1      42.125  27.636  28.922  1.00  0.00     0.010 A 
ATOM     44  C   UNL A   1      40.966  27.620  29.719  1.00  0.00    -0.014 A 
BRANCH  44  45
ATOM     45  C   UNL A   1      40.778  28.623  30.796  1.00  0.00     0.031 A 
ATOM     46  C   UNL A   1      41.637  28.538  32.029  1.00  0.00     0.074 A 
ATOM     47  C   UNL A   1      39.877  29.613  30.665  1.00  0.00     0.049 A 
ATOM     48  N   UNL A   1      41.622  29.284  33.102  1.00  0.00    -0.248 NA
ATOM     49  C   UNL A   1      42.645  27.466  32.056  1.00  0.00     0.031 C 
ATOM     50  C   UNL A   1      39.014  29.820  29.503  1.00  0.00     0.029 A 
ATOM     51  N   UNL A   1      39.534  30.627  31.524  1.00  0.00    -0.354 N 
ATOM     52  C   UNL A   1      42.611  28.773  33.934  1.00  0.00     0.074 A 
ATOM     53  C   UNL A   1      43.188  27.634  33.254  1.00  0.00     0.031 C 
ATOM     54  C   UNL A   1      38.230  30.889  29.728  1.00  0.00     0.029 A 
ATOM     55  C   UNL A   1      38.515  31.423  31.058  1.00  0.00     0.049 A 
ATOM     56  H   UNL A   1      39.976  30.769  32.392  1.00  0.00     0.167 HD
ATOM     57  C   UNL A   1      43.009  29.218  35.150  1.00  0.00     0.037 A 
ATOM     58  C   UNL A   1      37.874  32.451  31.647  1.00  0.00     0.037 A 
ATOM     59  C   UNL A   1      42.435  30.355  35.821  1.00  0.00     0.049 A 
ATOM     60  C   UNL A   1      38.293  32.891  33.027  1.00  0.00     0.074 A 
ATOM     61  C   UNL A   1      42.782  30.896  37.047  1.00  0.00     0.029 A 
ATOM     62  N   UNL A   1      41.390  31.121  35.328  1.00  0.00    -0.354 N 
ATOM     63  N   UNL A   1      39.246  32.412  33.791  1.00  0.00    -0.248 NA
ATOM     64  C   UNL A   1      37.553  34.013  33.622  1.00  0.00     0.031 C 
ATOM     65  C   UNL A   1      41.917  31.962  37.315  1.00  0.00     0.029 A 
ATOM     66  C   UNL A   1      41.063  32.117  36.234  1.00  0.00     0.049 A 
ATOM     67  H   UNL A   1      40.945  30.978  34.461  1.00  0.00     0.167 HD
ATOM     68  C   UNL A   1      39.236  33.190  34.945  1.00  0.00     0.074 A 
ATOM     69  C   UNL A   1      38.190  34.177  34.773  1.00  0.00     0.031 C 
ATOM     70  C   UNL A   1      40.023  33.097  36.046  1.00  0.00     0.037 A 
BRANCH  57  71
ATOM     71  C   UNL A   1      44.107  28.461  35.844  1.00  0.00     0.058 A 
ATOM     72  C   UNL A   1      45.456  28.828  35.711  1.00  0.00     0.135 A 
ATOM     73  C   UNL A   1      43.803  27.375  36.682  1.00  0.00     0.135 A 
ATOM     74  F   UNL A   1      45.804  29.845  34.909  1.00  0.00    -0.206 F 
ATOM     75  C   UNL A   1      46.467  28.131  36.366  1.00  0.00     0.059 A 
ATOM     76  C   UNL A   1      44.795  26.681  37.367  1.00  0.00     0.059 A 
ATOM     77  F   UNL A   1      42.530  26.981  36.842  1.00  0.00    -0.206 F 
ATOM     78  C   UNL A   1      46.126  27.058  37.193  1.00  0.00     0.060 A 
BRANCH  78  79
ATOM     79  S   UNL A   1      47.448  26.169  38.043  1.00  0.00     0.124 S 
ATOM     80  O   UNL A   1      47.585  26.953  39.266  1.00  0.00    -0.237 OA
ATOM     81  O   UNL A   1      46.874  24.837  38.204  1.00  0.00    -0.237 OA
ATOM     82  O   UNL A   1      48.569  26.256  37.113  1.00  0.00    -0.744 OA
ENDBRANCH  78  79
ENDBRANCH  57  71
BRANCH  58  83
ATOM     83  C   UNL A   1      36.754  33.130  30.942  1.00  0.00     0.058 A 
ATOM     84  C   UNL A   1      35.419  32.784  31.197  1.00  0.00     0.135 A 
ATOM     85  C   UNL A   1      36.999  34.136  29.995  1.00  0.00     0.135 A 
ATOM     86  F   UNL A   1      35.134  31.819  32.085  1.00  0.00    -0.206 F 
ATOM     87  C   UNL A   1      34.366  33.400  30.528  1.00  0.00     0.059 A 
ATOM     88  C   UNL A   1      35.963  34.785  29.332  1.00  0.00     0.059 A 
ATOM     89  F   UNL A   1      38.258  34.512  29.722  1.00  0.00    -0.206 F 
ATOM     90  C   UNL A   1      34.648  34.402  29.598  1.00  0.00     0.060 A 
BRANCH  90  91
ATOM     91  S   UNL A   1      33.274  35.231  28.769  1.00  0.00     0.124 S 
ATOM     92  O   UNL A   1      32.589  34.106  28.143  1.00  0.00    -0.237 OA
ATOM     93  O   UNL A   1      32.578  35.863  29.885  1.00  0.00    -0.237 OA
ATOM     94  O   UNL A   1      33.942  36.153  27.854  1.00  0.00    -0.744 OA
ENDBRANCH  90  91
ENDBRANCH  58  83
BRANCH  70  95
ATOM     95  C   UNL A   1      39.812  34.109  37.139  1.00  0.00     0.058 A 
ATOM     96  C   UNL A   1      39.001  33.834  38.251  1.00  0.00     0.135 A 
ATOM     97  C   UNL A   1      40.472  35.348  37.098  1.00  0.00     0.135 A 
ATOM     98  F   UNL A   1      38.343  32.667  38.337  1.00  0.00    -0.206 F 
ATOM     99  C   UNL A   1      38.836  34.761  39.276  1.00  0.00     0.059 A 
ATOM    100  C   UNL A   1      40.342  36.278  38.124  1.00  0.00     0.059 A 
ATOM    101  F   UNL A   1      41.267  35.656  36.062  1.00  0.00    -0.206 F 
ATOM    102  C   UNL A   1      39.512  35.981  39.204  1.00  0.00     0.060 A 
BRANCH 102 103
ATOM    103  S   UNL A   1      39.316  37.162  40.555  1.00  0.00     0.124 S 
ATOM    104  O   UNL A   1      38.892  36.292  41.647  1.00  0.00    -0.237 OA
ATOM    105  O   UNL A   1      40.657  37.725  40.678  1.00  0.00    -0.237 OA
ATOM    106  O   UNL A   1      38.300  38.083  40.056  1.00  0.00    -0.744 OA
ENDBRANCH 102 103
ENDBRANCH  70  95
ENDBRANCH  44  45
ENDBRANCH  37  39
ENDBRANCH  36  37
ENDBRANCH  35  36
ENDBRANCH  34  35
ENDBRANCH   1  34
TORSDOF 21
ENDMDL
