MODEL 1
REMARK VINA RESULT:     -10.2      0.000      0.000
REMARK SMILES O=C(OCCOCCOC(=O)[C@@H]1C=C[C@H](Nc2ncccn2)C1)c1ccc(-c2c3nc(c(-c4c(F)cc(S(=O)(=O)[O-])cc4F)c4ccc([nH]4)c(-c4c(F)cc(S(=O)(=O)[O-])cc4F)c4nc(c(-c5c(F)cc(S(=O)(=O)[O-])cc5F)c5ccc2[nH]5)C=C4)C=C3)cc1
REMARK SMILES IDX 5 1 4 2 3 3 2 4 1 5 24 6 25 7 89 8 26 9 88 10 27 11 28 12
REMARK SMILES IDX 29 13 82 14 30 15 87 16 81 17 83 18 31 19 86 20 80 21 79 22
REMARK SMILES IDX 32 24 66 25 45 26 65 27 46 28 49 29 64 30 84 31 47 32 48 33
REMARK SMILES IDX 63 35 85 36 50 37 33 38 34 39 43 40 35 41 36 42 42 43 44 44
REMARK SMILES IDX 37 45 38 46 39 47 40 48 41 49 67 50 68 51 77 52 69 53 70 54
REMARK SMILES IDX 76 55 78 56 71 57 72 58 73 59 74 60 75 61 51 62 52 63 61 64
REMARK SMILES IDX 53 65 54 66 60 67 62 68 55 69 56 70 57 71 58 72 59 73 6 74
REMARK SMILES IDX 7 75 8 76 9 77 10 78 11 79 12 80 13 81 23 82 14 83 15 84
REMARK SMILES IDX 16 85 17 87 18 88 22 89 19 90 21 91 20 92
REMARK H PARENT 83 23 49 34 16 86
REMARK Flexibility Score: inf
ROOT
ATOM      1  C   UNL A   1      39.979  22.658  26.814  1.00  0.00     0.202 C 
ENDROOT
BRANCH   1   2
ATOM      2  C   UNL A   1      41.405  23.117  27.136  1.00  0.00     0.261 C 
BRANCH   2   3
ATOM      3  O   UNL A   1      41.863  24.068  26.159  1.00  0.00    -0.460 OA
BRANCH   3   4
ATOM      4  C   UNL A   1      41.631  25.402  26.117  1.00  0.00     0.338 C 
ATOM      5  O   UNL A   1      41.585  25.958  25.022  1.00  0.00    -0.246 OA
BRANCH   4   6
ATOM      6  C   UNL A   1      41.427  26.233  27.340  1.00  0.00     0.060 A 
ATOM      7  C   UNL A   1      40.431  26.006  28.287  1.00  0.00     0.016 A 
ATOM      8  C   UNL A   1      42.346  27.265  27.593  1.00  0.00     0.016 A 
ATOM      9  C   UNL A   1      40.280  26.809  29.396  1.00  0.00     0.010 A 
ATOM     10  C   UNL A   1      42.241  28.052  28.746  1.00  0.00     0.010 A 
ATOM     11  C   UNL A   1      41.191  27.828  29.641  1.00  0.00    -0.014 A 
BRANCH  11  12
ATOM     12  C   UNL A   1      40.906  28.671  30.811  1.00  0.00     0.031 A 
ATOM     13  C   UNL A   1      41.862  28.630  31.960  1.00  0.00     0.074 A 
ATOM     14  C   UNL A   1      39.949  29.612  30.701  1.00  0.00     0.049 A 
ATOM     15  N   UNL A   1      41.862  29.340  33.053  1.00  0.00    -0.248 NA
ATOM     16  C   UNL A   1      42.985  27.682  31.853  1.00  0.00     0.031 C 
ATOM     17  C   UNL A   1      39.078  29.793  29.533  1.00  0.00     0.029 A 
ATOM     18  N   UNL A   1      39.588  30.627  31.543  1.00  0.00    -0.354 N 
ATOM     19  C   UNL A   1      42.976  28.921  33.768  1.00  0.00     0.074 A 
ATOM     20  C   UNL A   1      43.622  27.884  32.997  1.00  0.00     0.031 C 
ATOM     21  C   UNL A   1      38.309  30.877  29.721  1.00  0.00     0.029 A 
ATOM     22  C   UNL A   1      38.580  31.419  31.045  1.00  0.00     0.049 A 
ATOM     23  H   UNL A   1      40.010  30.777  32.419  1.00  0.00     0.167 HD
ATOM     24  C   UNL A   1      43.410  29.372  34.966  1.00  0.00     0.037 A 
ATOM     25  C   UNL A   1      37.929  32.447  31.622  1.00  0.00     0.037 A 
ATOM     26  C   UNL A   1      42.730  30.401  35.705  1.00  0.00     0.049 A 
ATOM     27  C   UNL A   1      38.367  32.854  33.002  1.00  0.00     0.074 A 
ATOM     28  C   UNL A   1      42.994  30.875  36.975  1.00  0.00     0.029 A 
ATOM     29  N   UNL A   1      41.642  31.121  35.223  1.00  0.00    -0.354 N 
ATOM     30  N   UNL A   1      39.360  32.381  33.722  1.00  0.00    -0.248 NA
ATOM     31  C   UNL A   1      37.598  33.917  33.657  1.00  0.00     0.031 C 
ATOM     32  C   UNL A   1      42.042  31.857  37.276  1.00  0.00     0.029 A 
ATOM     33  C   UNL A   1      41.217  32.030  36.173  1.00  0.00     0.049 A 
ATOM     34  H   UNL A   1      41.235  31.002  34.335  1.00  0.00     0.167 HD
ATOM     35  C   UNL A   1      39.339  33.093  34.914  1.00  0.00     0.074 A 
ATOM     36  C   UNL A   1      38.254  34.051  34.801  1.00  0.00     0.031 C 
ATOM     37  C   UNL A   1      40.129  32.963  36.010  1.00  0.00     0.037 A 
BRANCH  24  38
ATOM     38  C   UNL A   1      44.621  28.708  35.552  1.00  0.00     0.058 A 
ATOM     39  C   UNL A   1      44.525  27.558  36.352  1.00  0.00     0.135 A 
ATOM     40  C   UNL A   1      45.899  29.249  35.336  1.00  0.00     0.135 A 
ATOM     41  F   UNL A   1      43.324  27.022  36.622  1.00  0.00    -0.206 F 
ATOM     42  C   UNL A   1      45.650  26.979  36.931  1.00  0.00     0.059 A 
ATOM     43  C   UNL A   1      47.040  28.674  35.887  1.00  0.00     0.059 A 
ATOM     44  F   UNL A   1      46.046  30.360  34.598  1.00  0.00    -0.206 F 
ATOM     45  C   UNL A   1      46.904  27.545  36.695  1.00  0.00     0.060 A 
BRANCH  45  46
ATOM     46  S   UNL A   1      48.353  26.787  37.458  1.00  0.00     0.124 S 
ATOM     47  O   UNL A   1      48.748  27.814  38.418  1.00  0.00    -0.237 OA
ATOM     48  O   UNL A   1      47.800  25.565  38.031  1.00  0.00    -0.237 OA
ATOM     49  O   UNL A   1      49.267  26.593  36.336  1.00  0.00    -0.744 OA
ENDBRANCH  45  46
ENDBRANCH  24  38
BRANCH  25  50
ATOM     50  C   UNL A   1      36.766  33.084  30.943  1.00  0.00     0.058 A 
ATOM     51  C   UNL A   1      36.924  33.965  29.865  1.00  0.00     0.135 A 
ATOM     52  C   UNL A   1      35.454  32.835  31.386  1.00  0.00     0.135 A 
ATOM     53  F   UNL A   1      38.153  34.244  29.401  1.00  0.00    -0.206 F 
ATOM     54  C   UNL A   1      35.834  34.599  29.270  1.00  0.00     0.059 A 
ATOM     55  C   UNL A   1      34.348  33.428  30.789  1.00  0.00     0.059 A 
ATOM     56  F   UNL A   1      35.238  31.991  32.408  1.00  0.00    -0.206 F 
ATOM     57  C   UNL A   1      34.549  34.326  29.744  1.00  0.00     0.060 A 
BRANCH  57  58
ATOM     58  S   UNL A   1      33.137  35.149  28.975  1.00  0.00     0.124 S 
ATOM     59  O   UNL A   1      32.679  34.129  28.038  1.00  0.00    -0.237 OA
ATOM     60  O   UNL A   1      32.267  35.403  30.119  1.00  0.00    -0.237 OA
ATOM     61  O   UNL A   1      33.729  36.339  28.372  1.00  0.00    -0.744 OA
ENDBRANCH  57  58
ENDBRANCH  25  50
BRANCH  37  62
ATOM     62  C   UNL A   1      39.850  33.898  37.149  1.00  0.00     0.058 A 
ATOM     63  C   UNL A   1      39.006  33.531  38.209  1.00  0.00     0.135 A 
ATOM     64  C   UNL A   1      40.461  35.161  37.194  1.00  0.00     0.135 A 
ATOM     65  F   UNL A   1      38.396  32.336  38.204  1.00  0.00    -0.206 F 
ATOM     66  C   UNL A   1      38.751  34.400  39.262  1.00  0.00     0.059 A 
ATOM     67  C   UNL A   1      40.244  36.033  38.254  1.00  0.00     0.059 A 
ATOM     68  F   UNL A   1      41.286  35.550  36.209  1.00  0.00    -0.206 F 
ATOM     69  C   UNL A   1      39.375  35.650  39.274  1.00  0.00     0.060 A 
BRANCH  69  70
ATOM     70  S   UNL A   1      39.052  36.762  40.657  1.00  0.00     0.124 S 
ATOM     71  O   UNL A   1      38.030  36.025  41.392  1.00  0.00    -0.237 OA
ATOM     72  O   UNL A   1      40.359  36.849  41.301  1.00  0.00    -0.237 OA
ATOM     73  O   UNL A   1      38.598  37.987  40.006  1.00  0.00    -0.744 OA
ENDBRANCH  69  70
ENDBRANCH  37  62
ENDBRANCH  11  12
ENDBRANCH   4   6
ENDBRANCH   3   4
ENDBRANCH   2   3
ENDBRANCH   1   2
BRANCH   1  74
ATOM     74  O   UNL A   1      39.707  21.266  26.979  1.00  0.00    -0.374 OA
BRANCH  74  75
ATOM     75  C   UNL A   1      40.295  20.378  26.017  1.00  0.00     0.202 C 
BRANCH  75  76
ATOM     76  C   UNL A   1      41.531  19.717  26.626  1.00  0.00     0.261 C 
BRANCH  76  77
ATOM     77  O   UNL A   1      42.539  19.710  25.605  1.00  0.00    -0.463 OA
BRANCH  77  78
ATOM     78  C   UNL A   1      43.372  18.634  25.626  1.00  0.00     0.312 C 
ATOM     79  O   UNL A   1      43.232  17.652  26.346  1.00  0.00    -0.252 OA
BRANCH  78  80
ATOM     80  C   UNL A   1      44.487  18.770  24.591  1.00  0.00     0.124 C 
ATOM     81  C   UNL A   1      45.806  18.473  25.227  1.00  0.00    -0.014 C 
ATOM     82  C   UNL A   1      44.728  20.185  24.023  1.00  0.00     0.048 C 
ATOM     83  C   UNL A   1      46.501  19.599  25.424  1.00  0.00    -0.006 C 
ATOM     84  C   UNL A   1      45.772  20.822  24.949  1.00  0.00     0.106 C 
BRANCH  84  85
ATOM     85  N   UNL A   1      45.091  21.467  26.040  1.00  0.00    -0.348 N 
ATOM     86  H   UNL A   1      44.503  20.937  26.626  1.00  0.00     0.164 HD
BRANCH  85  87
ATOM     87  C   UNL A   1      45.248  22.803  26.273  1.00  0.00     0.223 A 
ATOM     88  N   UNL A   1      45.256  23.570  25.173  1.00  0.00    -0.222 NA
ATOM     89  N   UNL A   1      45.298  23.276  27.525  1.00  0.00    -0.222 NA
ATOM     90  C   UNL A   1      45.251  24.899  25.358  1.00  0.00     0.117 A 
ATOM     91  C   UNL A   1      45.329  24.613  27.658  1.00  0.00     0.117 A 
ATOM     92  C   UNL A   1      45.286  25.485  26.598  1.00  0.00     0.040 A 
ENDBRANCH  85  87
ENDBRANCH  84  85
ENDBRANCH  78  80
ENDBRANCH  77  78
ENDBRANCH  76  77
ENDBRANCH  75  76
ENDBRANCH  74  75
ENDBRANCH   1  74
TORSDOF 19
ENDMDL
MODEL 2
REMARK VINA RESULT:     -10.2      6.123     14.131
REMARK SMILES O=C(OCCOCCOC(=O)[C@@H]1C=C[C@H](Nc2ncccn2)C1)c1ccc(-c2c3nc(c(-c4c(F)cc(S(=O)(=O)[O-])cc4F)c4ccc([nH]4)c(-c4c(F)cc(S(=O)(=O)[O-])cc4F)c4nc(c(-c5c(F)cc(S(=O)(=O)[O-])cc5F)c5ccc2[nH]5)C=C4)C=C3)cc1
REMARK SMILES IDX 5 1 4 2 3 3 2 4 1 5 24 6 25 7 89 8 26 9 88 10 27 11 28 12
REMARK SMILES IDX 29 13 82 14 30 15 87 16 81 17 83 18 31 19 86 20 80 21 79 22
REMARK SMILES IDX 32 24 66 25 45 26 65 27 46 28 49 29 64 30 84 31 47 32 48 33
REMARK SMILES IDX 63 35 85 36 50 37 33 38 34 39 43 40 35 41 36 42 42 43 44 44
REMARK SMILES IDX 37 45 38 46 39 47 40 48 41 49 67 50 68 51 77 52 69 53 70 54
REMARK SMILES IDX 76 55 78 56 71 57 72 58 73 59 74 60 75 61 51 62 52 63 61 64
REMARK SMILES IDX 53 65 54 66 60 67 62 68 55 69 56 70 57 71 58 72 59 73 6 74
REMARK SMILES IDX 7 75 8 76 9 77 10 78 11 79 12 80 13 81 23 82 14 83 15 84
REMARK SMILES IDX 16 85 17 87 18 88 22 89 19 90 21 91 20 92
REMARK H PARENT 83 23 49 34 16 86
REMARK Flexibility Score: inf
ROOT
ATOM      1  C   UNL A   1      36.193  33.061  28.163  1.00  0.00     0.202 C 
ENDROOT
BRANCH   1   2
ATOM      2  C   UNL A   1      36.474  32.663  29.615  1.00  0.00     0.261 C 
BRANCH   2   3
ATOM      3  O   UNL A   1      36.017  31.323  29.870  1.00  0.00    -0.460 OA
BRANCH   3   4
ATOM      4  C   UNL A   1      36.717  30.284  30.385  1.00  0.00     0.338 C 
ATOM      5  O   UNL A   1      36.157  29.534  31.182  1.00  0.00    -0.246 OA
BRANCH   4   6
ATOM      6  C   UNL A   1      38.139  30.002  30.028  1.00  0.00     0.060 A 
ATOM      7  C   UNL A   1      38.619  29.910  28.724  1.00  0.00     0.016 A 
ATOM      8  C   UNL A   1      39.070  29.898  31.076  1.00  0.00     0.016 A 
ATOM      9  C   UNL A   1      39.941  29.640  28.449  1.00  0.00     0.010 A 
ATOM     10  C   UNL A   1      40.427  29.682  30.810  1.00  0.00     0.010 A 
ATOM     11  C   UNL A   1      40.857  29.537  29.488  1.00  0.00    -0.014 A 
BRANCH  11  12
ATOM     12  C   UNL A   1      42.227  29.180  29.098  1.00  0.00     0.031 A 
ATOM     13  C   UNL A   1      42.482  27.791  28.604  1.00  0.00     0.074 A 
ATOM     14  C   UNL A   1      43.133  30.169  28.970  1.00  0.00     0.049 A 
ATOM     15  N   UNL A   1      43.582  27.278  28.131  1.00  0.00    -0.248 NA
ATOM     16  C   UNL A   1      41.337  26.863  28.619  1.00  0.00     0.031 C 
ATOM     17  C   UNL A   1      42.890  31.579  29.300  1.00  0.00     0.029 A 
ATOM     18  N   UNL A   1      44.406  30.161  28.471  1.00  0.00    -0.354 N 
ATOM     19  C   UNL A   1      43.267  25.967  27.799  1.00  0.00     0.074 A 
ATOM     20  C   UNL A   1      41.879  25.755  28.138  1.00  0.00     0.031 C 
ATOM     21  C   UNL A   1      43.969  32.302  28.963  1.00  0.00     0.029 A 
ATOM     22  C   UNL A   1      44.999  31.402  28.463  1.00  0.00     0.049 A 
ATOM     23  H   UNL A   1      44.853  29.346  28.148  1.00  0.00     0.167 HD
ATOM     24  C   UNL A   1      44.078  25.030  27.258  1.00  0.00     0.037 A 
ATOM     25  C   UNL A   1      46.252  31.754  28.121  1.00  0.00     0.037 A 
ATOM     26  C   UNL A   1      45.459  25.282  26.944  1.00  0.00     0.049 A 
ATOM     27  C   UNL A   1      47.164  30.665  27.624  1.00  0.00     0.074 A 
ATOM     28  C   UNL A   1      46.422  24.397  26.499  1.00  0.00     0.029 A 
ATOM     29  N   UNL A   1      46.069  26.527  27.043  1.00  0.00    -0.354 N 
ATOM     30  N   UNL A   1      46.890  29.398  27.411  1.00  0.00    -0.248 NA
ATOM     31  C   UNL A   1      48.551  31.041  27.335  1.00  0.00     0.031 C 
ATOM     32  C   UNL A   1      47.624  25.101  26.363  1.00  0.00     0.029 A 
ATOM     33  C   UNL A   1      47.398  26.435  26.676  1.00  0.00     0.049 A 
ATOM     34  H   UNL A   1      45.620  27.354  27.332  1.00  0.00     0.167 HD
ATOM     35  C   UNL A   1      48.070  28.825  26.956  1.00  0.00     0.074 A 
ATOM     36  C   UNL A   1      49.049  29.894  26.895  1.00  0.00     0.031 C 
ATOM     37  C   UNL A   1      48.332  27.533  26.632  1.00  0.00     0.037 A 
BRANCH  24  38
ATOM     38  C   UNL A   1      43.501  23.662  27.045  1.00  0.00     0.058 A 
ATOM     39  C   UNL A   1      43.303  22.764  28.107  1.00  0.00     0.135 A 
ATOM     40  C   UNL A   1      43.169  23.228  25.752  1.00  0.00     0.135 A 
ATOM     41  F   UNL A   1      43.640  23.114  29.359  1.00  0.00    -0.206 F 
ATOM     42  C   UNL A   1      42.813  21.480  27.892  1.00  0.00     0.059 A 
ATOM     43  C   UNL A   1      42.657  21.955  25.516  1.00  0.00     0.059 A 
ATOM     44  F   UNL A   1      43.358  24.036  24.698  1.00  0.00    -0.206 F 
ATOM     45  C   UNL A   1      42.495  21.083  26.592  1.00  0.00     0.060 A 
BRANCH  45  46
ATOM     46  S   UNL A   1      41.867  19.412  26.328  1.00  0.00     0.124 S 
ATOM     47  O   UNL A   1      40.431  19.652  26.223  1.00  0.00    -0.237 OA
ATOM     48  O   UNL A   1      42.535  19.020  25.091  1.00  0.00    -0.237 OA
ATOM     49  O   UNL A   1      42.296  18.693  27.524  1.00  0.00    -0.744 OA
ENDBRANCH  45  46
ENDBRANCH  24  38
BRANCH  25  50
ATOM     50  C   UNL A   1      46.727  33.152  28.317  1.00  0.00     0.058 A 
ATOM     51  C   UNL A   1      46.663  34.111  27.297  1.00  0.00     0.135 A 
ATOM     52  C   UNL A   1      47.284  33.553  29.546  1.00  0.00     0.135 A 
ATOM     53  F   UNL A   1      46.145  33.785  26.102  1.00  0.00    -0.206 F 
ATOM     54  C   UNL A   1      47.159  35.402  27.473  1.00  0.00     0.059 A 
ATOM     55  C   UNL A   1      47.754  34.843  29.757  1.00  0.00     0.059 A 
ATOM     56  F   UNL A   1      47.362  32.682  30.565  1.00  0.00    -0.206 F 
ATOM     57  C   UNL A   1      47.707  35.757  28.707  1.00  0.00     0.060 A 
BRANCH  57  58
ATOM     58  S   UNL A   1      48.352  37.428  28.933  1.00  0.00     0.124 S 
ATOM     59  O   UNL A   1      49.034  37.653  27.663  1.00  0.00    -0.237 OA
ATOM     60  O   UNL A   1      47.135  38.203  29.150  1.00  0.00    -0.237 OA
ATOM     61  O   UNL A   1      49.219  37.299  30.100  1.00  0.00    -0.744 OA
ENDBRANCH  57  58
ENDBRANCH  25  50
BRANCH  37  62
ATOM     62  C   UNL A   1      49.725  27.231  26.164  1.00  0.00     0.058 A 
ATOM     63  C   UNL A   1      50.729  26.834  27.061  1.00  0.00     0.135 A 
ATOM     64  C   UNL A   1      50.046  27.308  24.800  1.00  0.00     0.135 A 
ATOM     65  F   UNL A   1      50.469  26.753  28.375  1.00  0.00    -0.206 F 
ATOM     66  C   UNL A   1      52.018  26.555  26.624  1.00  0.00     0.059 A 
ATOM     67  C   UNL A   1      51.320  27.003  24.338  1.00  0.00     0.059 A 
ATOM     68  F   UNL A   1      49.115  27.671  23.905  1.00  0.00    -0.206 F 
ATOM     69  C   UNL A   1      52.303  26.643  25.259  1.00  0.00     0.060 A 
BRANCH  69  70
ATOM     70  S   UNL A   1      53.974  26.259  24.700  1.00  0.00     0.124 S 
ATOM     71  O   UNL A   1      54.778  26.805  25.788  1.00  0.00    -0.237 OA
ATOM     72  O   UNL A   1      53.945  24.803  24.601  1.00  0.00    -0.237 OA
ATOM     73  O   UNL A   1      54.075  26.966  23.427  1.00  0.00    -0.744 OA
ENDBRANCH  69  70
ENDBRANCH  37  62
ENDBRANCH  11  12
ENDBRANCH   4   6
ENDBRANCH   3   4
ENDBRANCH   2   3
ENDBRANCH   1   2
BRANCH   1  74
ATOM     74  O   UNL A   1      34.903  32.725  27.650  1.00  0.00    -0.374 OA
BRANCH  74  75
ATOM     75  C   UNL A   1      33.789  33.454  28.186  1.00  0.00     0.202 C 
BRANCH  75  76
ATOM     76  C   UNL A   1      34.169  34.926  28.336  1.00  0.00     0.261 C 
BRANCH  76  77
ATOM     77  O   UNL A   1      33.902  35.283  29.699  1.00  0.00    -0.463 OA
BRANCH  77  78
ATOM     78  C   UNL A   1      33.339  36.511  29.872  1.00  0.00     0.312 C 
ATOM     79  O   UNL A   1      33.316  37.398  29.026  1.00  0.00    -0.252 OA
BRANCH  78  80
ATOM     80  C   UNL A   1      32.677  36.634  31.244  1.00  0.00     0.124 C 
ATOM     81  C   UNL A   1      33.294  37.765  32.001  1.00  0.00    -0.014 C 
ATOM     82  C   UNL A   1      32.890  35.456  32.217  1.00  0.00     0.048 C 
ATOM     83  C   UNL A   1      34.104  37.305  32.962  1.00  0.00    -0.006 C 
ATOM     84  C   UNL A   1      34.157  35.806  33.009  1.00  0.00     0.106 C 
BRANCH  84  85
ATOM     85  N   UNL A   1      35.302  35.312  32.293  1.00  0.00    -0.348 N 
ATOM     86  H   UNL A   1      35.458  35.605  31.365  1.00  0.00     0.164 HD
BRANCH  85  87
ATOM     87  C   UNL A   1      36.176  34.443  32.880  1.00  0.00     0.223 A 
ATOM     88  N   UNL A   1      35.722  33.188  33.007  1.00  0.00    -0.222 NA
ATOM     89  N   UNL A   1      37.413  34.836  33.209  1.00  0.00    -0.222 NA
ATOM     90  C   UNL A   1      36.597  32.264  33.434  1.00  0.00     0.117 A 
ATOM     91  C   UNL A   1      38.242  33.883  33.667  1.00  0.00     0.117 A 
ATOM     92  C   UNL A   1      37.890  32.560  33.783  1.00  0.00     0.040 A 
ENDBRANCH  85  87
ENDBRANCH  84  85
ENDBRANCH  78  80
ENDBRANCH  77  78
ENDBRANCH  76  77
ENDBRANCH  75  76
ENDBRANCH  74  75
ENDBRANCH   1  74
TORSDOF 19
ENDMDL
MODEL 3
REMARK VINA RESULT:     -10.0      2.963      4.708
REMARK SMILES O=C(OCCOCCOC(=O)[C@@H]1C=C[C@H](Nc2ncccn2)C1)c1ccc(-c2c3nc(c(-c4c(F)cc(S(=O)(=O)[O-])cc4F)c4ccc([nH]4)c(-c4c(F)cc(S(=O)(=O)[O-])cc4F)c4nc(c(-c5c(F)cc(S(=O)(=O)[O-])cc5F)c5ccc2[nH]5)C=C4)C=C3)cc1
REMARK SMILES IDX 5 1 4 2 3 3 2 4 1 5 24 6 25 7 89 8 26 9 88 10 27 11 28 12
REMARK SMILES IDX 29 13 82 14 30 15 87 16 81 17 83 18 31 19 86 20 80 21 79 22
REMARK SMILES IDX 32 24 66 25 45 26 65 27 46 28 49 29 64 30 84 31 47 32 48 33
REMARK SMILES IDX 63 35 85 36 50 37 33 38 34 39 43 40 35 41 36 42 42 43 44 44
REMARK SMILES IDX 37 45 38 46 39 47 40 48 41 49 67 50 68 51 77 52 69 53 70 54
REMARK SMILES IDX 76 55 78 56 71 57 72 58 73 59 74 60 75 61 51 62 52 63 61 64
REMARK SMILES IDX 53 65 54 66 60 67 62 68 55 69 56 70 57 71 58 72 59 73 6 74
REMARK SMILES IDX 7 75 8 76 9 77 10 78 11 79 12 80 13 81 23 82 14 83 15 84
REMARK SMILES IDX 16 85 17 87 18 88 22 89 19 90 21 91 20 92
REMARK H PARENT 83 23 49 34 16 86
REMARK Flexibility Score: inf
ROOT
ATOM      1  C   UNL A   1      42.726  21.926  25.935  1.00  0.00     0.202 C 
ENDROOT
BRANCH   1   2
ATOM      2  C   UNL A   1      42.858  23.318  25.310  1.00  0.00     0.261 C 
BRANCH   2   3
ATOM      3  O   UNL A   1      42.648  24.340  26.301  1.00  0.00    -0.460 OA
BRANCH   3   4
ATOM      4  C   UNL A   1      41.903  25.466  26.196  1.00  0.00     0.338 C 
ATOM      5  O   UNL A   1      41.477  25.790  25.089  1.00  0.00    -0.246 OA
BRANCH   4   6
ATOM      6  C   UNL A   1      41.570  26.335  27.363  1.00  0.00     0.060 A 
ATOM      7  C   UNL A   1      42.135  27.586  27.598  1.00  0.00     0.016 A 
ATOM      8  C   UNL A   1      40.565  25.896  28.242  1.00  0.00     0.016 A 
ATOM      9  C   UNL A   1      41.798  28.346  28.697  1.00  0.00     0.010 A 
ATOM     10  C   UNL A   1      40.170  26.684  29.330  1.00  0.00     0.010 A 
ATOM     11  C   UNL A   1      40.805  27.907  29.563  1.00  0.00    -0.014 A 
BRANCH  11  12
ATOM     12  C   UNL A   1      40.566  28.753  30.740  1.00  0.00     0.031 A 
ATOM     13  C   UNL A   1      41.532  28.668  31.878  1.00  0.00     0.074 A 
ATOM     14  C   UNL A   1      39.644  29.730  30.647  1.00  0.00     0.049 A 
ATOM     15  N   UNL A   1      41.572  29.372  32.975  1.00  0.00    -0.248 NA
ATOM     16  C   UNL A   1      42.617  27.678  31.754  1.00  0.00     0.031 C 
ATOM     17  C   UNL A   1      38.768  29.952  29.490  1.00  0.00     0.029 A 
ATOM     18  N   UNL A   1      39.332  30.754  31.498  1.00  0.00    -0.354 N 
ATOM     19  C   UNL A   1      42.677  28.905  33.675  1.00  0.00     0.074 A 
ATOM     20  C   UNL A   1      43.274  27.849  32.891  1.00  0.00     0.031 C 
ATOM     21  C   UNL A   1      38.043  31.063  29.693  1.00  0.00     0.029 A 
ATOM     22  C   UNL A   1      38.350  31.587  31.017  1.00  0.00     0.049 A 
ATOM     23  H   UNL A   1      39.770  30.882  32.370  1.00  0.00     0.167 HD
ATOM     24  C   UNL A   1      43.142  29.333  34.870  1.00  0.00     0.037 A 
ATOM     25  C   UNL A   1      37.745  32.635  31.607  1.00  0.00     0.037 A 
ATOM     26  C   UNL A   1      42.510  30.382  35.623  1.00  0.00     0.049 A 
ATOM     27  C   UNL A   1      38.215  33.017  32.985  1.00  0.00     0.074 A 
ATOM     28  C   UNL A   1      42.806  30.838  36.893  1.00  0.00     0.029 A 
ATOM     29  N   UNL A   1      41.445  31.146  35.157  1.00  0.00    -0.354 N 
ATOM     30  N   UNL A   1      39.196  32.502  33.690  1.00  0.00    -0.248 NA
ATOM     31  C   UNL A   1      37.494  34.104  33.654  1.00  0.00     0.031 C 
ATOM     32  C   UNL A   1      41.896  31.853  37.209  1.00  0.00     0.029 A 
ATOM     33  C   UNL A   1      41.066  32.065  36.117  1.00  0.00     0.049 A 
ATOM     34  H   UNL A   1      41.024  31.048  34.273  1.00  0.00     0.167 HD
ATOM     35  C   UNL A   1      39.216  33.207  34.886  1.00  0.00     0.074 A 
ATOM     36  C   UNL A   1      38.168  34.206  34.791  1.00  0.00     0.031 C 
ATOM     37  C   UNL A   1      40.013  33.040  35.972  1.00  0.00     0.037 A 
BRANCH  24  38
ATOM     38  C   UNL A   1      44.333  28.619  35.439  1.00  0.00     0.058 A 
ATOM     39  C   UNL A   1      44.202  27.472  36.238  1.00  0.00     0.135 A 
ATOM     40  C   UNL A   1      45.628  29.109  35.206  1.00  0.00     0.135 A 
ATOM     41  F   UNL A   1      42.983  26.984  36.524  1.00  0.00    -0.206 F 
ATOM     42  C   UNL A   1      45.309  26.846  36.800  1.00  0.00     0.059 A 
ATOM     43  C   UNL A   1      46.753  28.487  35.741  1.00  0.00     0.059 A 
ATOM     44  F   UNL A   1      45.810  30.214  34.468  1.00  0.00    -0.206 F 
ATOM     45  C   UNL A   1      46.582  27.362  36.548  1.00  0.00     0.060 A 
BRANCH  45  46
ATOM     46  S   UNL A   1      48.009  26.545  37.290  1.00  0.00     0.124 S 
ATOM     47  O   UNL A   1      47.703  26.656  38.714  1.00  0.00    -0.237 OA
ATOM     48  O   UNL A   1      47.926  25.201  36.728  1.00  0.00    -0.237 OA
ATOM     49  O   UNL A   1      49.140  27.346  36.829  1.00  0.00    -0.744 OA
ENDBRANCH  45  46
ENDBRANCH  24  38
BRANCH  25  50
ATOM     50  C   UNL A   1      36.601  33.321  30.945  1.00  0.00     0.058 A 
ATOM     51  C   UNL A   1      36.766  34.110  29.799  1.00  0.00     0.135 A 
ATOM     52  C   UNL A   1      35.301  33.213  31.472  1.00  0.00     0.135 A 
ATOM     53  F   UNL A   1      37.985  34.253  29.253  1.00  0.00    -0.206 F 
ATOM     54  C   UNL A   1      35.698  34.792  29.218  1.00  0.00     0.059 A 
ATOM     55  C   UNL A   1      34.213  33.856  30.892  1.00  0.00     0.059 A 
ATOM     56  F   UNL A   1      35.076  32.462  32.562  1.00  0.00    -0.206 F 
ATOM     57  C   UNL A   1      34.425  34.661  29.776  1.00  0.00     0.060 A 
BRANCH  57  58
ATOM     58  S   UNL A   1      33.042  35.546  29.025  1.00  0.00     0.124 S 
ATOM     59  O   UNL A   1      33.733  36.605  28.296  1.00  0.00    -0.237 OA
ATOM     60  O   UNL A   1      32.419  34.511  28.207  1.00  0.00    -0.237 OA
ATOM     61  O   UNL A   1      32.257  35.982  30.175  1.00  0.00    -0.744 OA
ENDBRANCH  57  58
ENDBRANCH  25  50
BRANCH  37  62
ATOM     62  C   UNL A   1      39.783  33.979  37.120  1.00  0.00     0.058 A 
ATOM     63  C   UNL A   1      40.343  35.265  37.137  1.00  0.00     0.135 A 
ATOM     64  C   UNL A   1      38.967  33.595  38.195  1.00  0.00     0.135 A 
ATOM     65  F   UNL A   1      41.135  35.673  36.134  1.00  0.00    -0.206 F 
ATOM     66  C   UNL A   1      40.127  36.131  38.203  1.00  0.00     0.059 A 
ATOM     67  C   UNL A   1      38.713  34.456  39.255  1.00  0.00     0.059 A 
ATOM     68  F   UNL A   1      38.400  32.378  38.215  1.00  0.00    -0.206 F 
ATOM     69  C   UNL A   1      39.311  35.715  39.257  1.00  0.00     0.060 A 
BRANCH  69  70
ATOM     70  S   UNL A   1      39.022  36.855  40.625  1.00  0.00     0.124 S 
ATOM     71  O   UNL A   1      38.220  36.033  41.525  1.00  0.00    -0.237 OA
ATOM     72  O   UNL A   1      40.378  37.153  41.077  1.00  0.00    -0.237 OA
ATOM     73  O   UNL A   1      38.319  37.968  39.996  1.00  0.00    -0.744 OA
ENDBRANCH  69  70
ENDBRANCH  37  62
ENDBRANCH  11  12
ENDBRANCH   4   6
ENDBRANCH   3   4
ENDBRANCH   2   3
ENDBRANCH   1   2
BRANCH   1  74
ATOM     74  O   UNL A   1      41.468  21.271  25.766  1.00  0.00    -0.374 OA
BRANCH  74  75
ATOM     75  C   UNL A   1      40.534  21.383  26.849  1.00  0.00     0.202 C 
BRANCH  75  76
ATOM     76  C   UNL A   1      39.518  22.480  26.532  1.00  0.00     0.261 C 
BRANCH  76  77
ATOM     77  O   UNL A   1      38.467  21.861  25.777  1.00  0.00    -0.463 OA
BRANCH  77  78
ATOM     78  C   UNL A   1      37.522  22.716  25.299  1.00  0.00     0.312 C 
ATOM     79  O   UNL A   1      37.423  23.898  25.610  1.00  0.00    -0.252 OA
BRANCH  78  80
ATOM     80  C   UNL A   1      36.621  22.035  24.271  1.00  0.00     0.124 C 
ATOM     81  C   UNL A   1      36.245  23.011  23.204  1.00  0.00    -0.014 C 
ATOM     82  C   UNL A   1      35.236  21.573  24.770  1.00  0.00     0.048 C 
ATOM     83  C   UNL A   1      34.975  23.407  23.350  1.00  0.00    -0.006 C 
ATOM     84  C   UNL A   1      34.297  22.760  24.522  1.00  0.00     0.106 C 
BRANCH  84  85
ATOM     85  N   UNL A   1      34.330  23.625  25.672  1.00  0.00    -0.348 N 
ATOM     86  H   UNL A   1      34.956  23.430  26.408  1.00  0.00     0.164 HD
BRANCH  85  87
ATOM     87  C   UNL A   1      33.506  24.710  25.758  1.00  0.00     0.223 A 
ATOM     88  N   UNL A   1      32.196  24.427  25.722  1.00  0.00    -0.222 NA
ATOM     89  N   UNL A   1      34.010  25.935  25.951  1.00  0.00    -0.222 NA
ATOM     90  C   UNL A   1      31.348  25.440  25.959  1.00  0.00     0.117 A 
ATOM     91  C   UNL A   1      33.120  26.924  26.147  1.00  0.00     0.117 A 
ATOM     92  C   UNL A   1      31.761  26.728  26.182  1.00  0.00     0.040 A 
ENDBRANCH  85  87
ENDBRANCH  84  85
ENDBRANCH  78  80
ENDBRANCH  77  78
ENDBRANCH  76  77
ENDBRANCH  75  76
ENDBRANCH  74  75
ENDBRANCH   1  74
TORSDOF 19
ENDMDL
