MODEL 1
REMARK VINA RESULT:      -9.6      0.000      0.000
REMARK SMILES CC(C)(C)N(CC(=O)OCCOCCOC(=O)c1ccc(-c2c3nc(c(-c4c(F)cc(S(=O)(=O)[O-])cc4F)c4ccc([nH]4)c(-c4c(F)cc(S(=O)(=O)[O-])cc4F)c4nc(c(-c5c(F)cc(S(=O)(=O)[O-])cc5F)c5ccc2[nH]5)C=C4)C=C3)cc1)C(=O)NC[C@H]1CCOC1
REMARK SMILES IDX 11 1 10 2 9 3 7 4 8 5 6 6 5 7 2 8 1 9 3 10 4 11 84 12 85 13
REMARK SMILES IDX 86 14 87 16 88 17 89 18 92 19 90 20 91 21 12 22 13 23 14 24
REMARK SMILES IDX 15 25 16 26 17 27 18 28 19 29 83 30 20 31 82 32 21 33 22 34
REMARK SMILES IDX 23 35 76 36 24 37 81 38 75 39 77 40 25 41 80 42 74 43 73 44
REMARK SMILES IDX 26 46 60 47 39 48 59 49 40 50 43 51 58 52 78 53 41 54 42 55
REMARK SMILES IDX 57 57 79 58 44 59 27 60 28 61 37 62 29 63 30 64 36 65 38 66
REMARK SMILES IDX 31 67 32 68 33 69 34 70 35 71 61 72 62 73 71 74 63 75 64 76
REMARK SMILES IDX 70 77 72 78 65 79 66 80 67 81 68 82 69 83 45 84 46 85 55 86
REMARK SMILES IDX 47 87 48 88 54 89 56 90 49 91 50 92 51 93 52 94 53 95
REMARK H PARENT 86 15 77 45 43 56
REMARK Flexibility Score: inf
ROOT
ATOM      1  C   UNL A   1      33.330  28.028  24.765  1.00  0.00     0.202 C 
ENDROOT
BRANCH   1   2
ATOM      2  C   UNL A   1      33.023  27.150  25.997  1.00  0.00     0.261 C 
BRANCH   2   3
ATOM      3  O   UNL A   1      32.267  25.973  25.635  1.00  0.00    -0.462 OA
BRANCH   3   4
ATOM      4  C   UNL A   1      32.891  24.778  25.801  1.00  0.00     0.325 C 
ATOM      5  O   UNL A   1      32.437  23.847  26.461  1.00  0.00    -0.250 OA
BRANCH   4   6
ATOM      6  C   UNL A   1      34.284  24.711  25.159  1.00  0.00     0.244 C 
BRANCH   6   7
ATOM      7  N   UNL A   1      34.763  23.462  24.547  1.00  0.00    -0.309 N 
BRANCH   7   8
ATOM      8  C   UNL A   1      35.938  22.729  25.224  1.00  0.00     0.037 C 
ATOM      9  C   UNL A   1      37.049  23.677  25.753  1.00  0.00     0.034 C 
ATOM     10  C   UNL A   1      36.672  21.764  24.261  1.00  0.00     0.034 C 
ATOM     11  C   UNL A   1      35.464  21.902  26.442  1.00  0.00     0.034 C 
ENDBRANCH   7   8
BRANCH   7  12
ATOM     12  C   UNL A   1      34.145  22.880  23.455  1.00  0.00     0.318 C 
ATOM     13  O   UNL A   1      34.360  23.276  22.305  1.00  0.00    -0.249 OA
ATOM     14  N   UNL A   1      33.181  21.922  23.511  1.00  0.00    -0.338 N 
ATOM     15  H   UNL A   1      32.666  21.926  22.672  1.00  0.00     0.165 HD
BRANCH  14  16
ATOM     16  C   UNL A   1      32.653  20.887  24.406  1.00  0.00     0.123 C 
BRANCH  16  17
ATOM     17  C   UNL A   1      33.013  19.394  24.218  1.00  0.00     0.036 C 
ATOM     18  C   UNL A   1      32.767  18.534  25.453  1.00  0.00     0.036 C 
ATOM     19  C   UNL A   1      32.440  18.511  23.134  1.00  0.00     0.165 C 
ATOM     20  C   UNL A   1      32.700  17.107  24.924  1.00  0.00     0.160 C 
ATOM     21  O   UNL A   1      32.904  17.198  23.507  1.00  0.00    -0.381 OA
ENDBRANCH  16  17
ENDBRANCH  14  16
ENDBRANCH   7  12
ENDBRANCH   6   7
ENDBRANCH   4   6
ENDBRANCH   3   4
ENDBRANCH   2   3
ENDBRANCH   1   2
BRANCH   1  22
ATOM     22  O   UNL A   1      33.496  29.437  25.019  1.00  0.00    -0.374 OA
BRANCH  22  23
ATOM     23  C   UNL A   1      32.375  29.992  25.710  1.00  0.00     0.202 C 
BRANCH  23  24
ATOM     24  C   UNL A   1      32.617  30.747  27.031  1.00  0.00     0.261 C 
BRANCH  24  25
ATOM     25  O   UNL A   1      33.609  30.100  27.801  1.00  0.00    -0.460 OA
BRANCH  25  26
ATOM     26  C   UNL A   1      34.501  30.989  28.276  1.00  0.00     0.338 C 
ATOM     27  O   UNL A   1      34.263  32.104  28.710  1.00  0.00    -0.246 OA
BRANCH  26  28
ATOM     28  C   UNL A   1      35.776  30.267  28.381  1.00  0.00     0.060 A 
ATOM     29  C   UNL A   1      36.105  29.714  29.620  1.00  0.00     0.016 A 
ATOM     30  C   UNL A   1      36.615  30.114  27.265  1.00  0.00     0.016 A 
ATOM     31  C   UNL A   1      37.358  29.157  29.790  1.00  0.00     0.010 A 
ATOM     32  C   UNL A   1      37.854  29.528  27.423  1.00  0.00     0.010 A 
ATOM     33  C   UNL A   1      38.252  29.156  28.712  1.00  0.00    -0.014 A 
BRANCH  33  34
ATOM     34  C   UNL A   1      39.688  29.069  28.993  1.00  0.00     0.031 A 
ATOM     35  C   UNL A   1      40.385  27.787  28.632  1.00  0.00     0.074 A 
ATOM     36  C   UNL A   1      40.318  30.118  29.534  1.00  0.00     0.049 A 
ATOM     37  N   UNL A   1      41.636  27.456  28.784  1.00  0.00    -0.248 NA
ATOM     38  C   UNL A   1      39.551  26.724  28.039  1.00  0.00     0.031 C 
ATOM     39  C   UNL A   1      39.682  31.383  29.901  1.00  0.00     0.029 A 
ATOM     40  N   UNL A   1      41.628  30.277  29.870  1.00  0.00    -0.354 N 
ATOM     41  C   UNL A   1      41.734  26.147  28.322  1.00  0.00     0.074 A 
ATOM     42  C   UNL A   1      40.410  25.725  27.935  1.00  0.00     0.031 C 
ATOM     43  C   UNL A   1      40.614  32.195  30.424  1.00  0.00     0.029 A 
ATOM     44  C   UNL A   1      41.894  31.492  30.445  1.00  0.00     0.049 A 
ATOM     45  H   UNL A   1      42.316  29.589  29.715  1.00  0.00     0.167 HD
ATOM     46  C   UNL A   1      42.842  25.379  28.222  1.00  0.00     0.037 A 
ATOM     47  C   UNL A   1      43.050  31.962  30.943  1.00  0.00     0.037 A 
ATOM     48  C   UNL A   1      44.141  25.845  28.623  1.00  0.00     0.049 A 
ATOM     49  C   UNL A   1      44.272  31.096  30.821  1.00  0.00     0.074 A 
ATOM     50  C   UNL A   1      45.356  25.193  28.551  1.00  0.00     0.029 A 
ATOM     51  N   UNL A   1      44.386  27.093  29.187  1.00  0.00    -0.354 N 
ATOM     52  N   UNL A   1      44.372  29.874  30.347  1.00  0.00    -0.248 NA
ATOM     53  C   UNL A   1      45.538  31.677  31.273  1.00  0.00     0.031 C 
ATOM     54  C   UNL A   1      46.324  26.023  29.128  1.00  0.00     0.029 A 
ATOM     55  C   UNL A   1      45.728  27.223  29.491  1.00  0.00     0.049 A 
ATOM     56  H   UNL A   1      43.702  27.784  29.345  1.00  0.00     0.167 HD
ATOM     57  C   UNL A   1      45.720  29.546  30.418  1.00  0.00     0.074 A 
ATOM     58  C   UNL A   1      46.393  30.708  30.971  1.00  0.00     0.031 C 
ATOM     59  C   UNL A   1      46.352  28.398  30.054  1.00  0.00     0.037 A 
BRANCH  46  60
ATOM     60  C   UNL A   1      42.669  23.971  27.713  1.00  0.00     0.058 A 
ATOM     61  C   UNL A   1      42.583  23.670  26.342  1.00  0.00     0.135 A 
ATOM     62  C   UNL A   1      42.553  22.903  28.617  1.00  0.00     0.135 A 
ATOM     63  F   UNL A   1      42.665  24.650  25.427  1.00  0.00    -0.206 F 
ATOM     64  C   UNL A   1      42.337  22.375  25.891  1.00  0.00     0.059 A 
ATOM     65  C   UNL A   1      42.343  21.595  28.188  1.00  0.00     0.059 A 
ATOM     66  F   UNL A   1      42.620  23.126  29.939  1.00  0.00    -0.206 F 
ATOM     67  C   UNL A   1      42.213  21.344  26.823  1.00  0.00     0.060 A 
BRANCH  67  68
ATOM     68  S   UNL A   1      41.869  19.676  26.227  1.00  0.00     0.124 S 
ATOM     69  O   UNL A   1      40.429  19.736  26.002  1.00  0.00    -0.237 OA
ATOM     70  O   UNL A   1      42.696  19.596  25.028  1.00  0.00    -0.237 OA
ATOM     71  O   UNL A   1      42.295  18.824  27.334  1.00  0.00    -0.744 OA
ENDBRANCH  67  68
ENDBRANCH  46  60
BRANCH  47  72
ATOM     72  C   UNL A   1      43.074  33.313  31.556  1.00  0.00     0.058 A 
ATOM     73  C   UNL A   1      42.892  33.489  32.934  1.00  0.00     0.135 A 
ATOM     74  C   UNL A   1      43.384  34.444  30.784  1.00  0.00     0.135 A 
ATOM     75  F   UNL A   1      42.599  32.436  33.712  1.00  0.00    -0.206 F 
ATOM     76  C   UNL A   1      43.019  34.741  33.528  1.00  0.00     0.059 A 
ATOM     77  C   UNL A   1      43.542  35.700  31.359  1.00  0.00     0.059 A 
ATOM     78  F   UNL A   1      43.596  34.321  29.464  1.00  0.00    -0.206 F 
ATOM     79  C   UNL A   1      43.357  35.838  32.733  1.00  0.00     0.060 A 
BRANCH  79  80
ATOM     80  S   UNL A   1      43.616  37.437  33.531  1.00  0.00     0.124 S 
ATOM     81  O   UNL A   1      43.756  38.321  32.381  1.00  0.00    -0.237 OA
ATOM     82  O   UNL A   1      42.391  37.589  34.311  1.00  0.00    -0.237 OA
ATOM     83  O   UNL A   1      44.827  37.227  34.319  1.00  0.00    -0.744 OA
ENDBRANCH  79  80
ENDBRANCH  47  72
BRANCH  59  84
ATOM     84  C   UNL A   1      47.846  28.372  30.208  1.00  0.00     0.058 A 
ATOM     85  C   UNL A   1      48.465  27.929  31.388  1.00  0.00     0.135 A 
ATOM     86  C   UNL A   1      48.669  28.772  29.143  1.00  0.00     0.135 A 
ATOM     87  F   UNL A   1      47.722  27.538  32.436  1.00  0.00    -0.206 F 
ATOM     88  C   UNL A   1      49.848  27.932  31.523  1.00  0.00     0.059 A 
ATOM     89  C   UNL A   1      50.054  28.744  29.241  1.00  0.00     0.059 A 
ATOM     90  F   UNL A   1      48.127  29.185  27.986  1.00  0.00    -0.206 F 
ATOM     91  C   UNL A   1      50.634  28.343  30.444  1.00  0.00     0.060 A 
BRANCH  91  92
ATOM     92  S   UNL A   1      52.427  28.348  30.633  1.00  0.00     0.124 S 
ATOM     93  O   UNL A   1      52.586  27.694  31.928  1.00  0.00    -0.237 OA
ATOM     94  O   UNL A   1      52.864  27.573  29.475  1.00  0.00    -0.237 OA
ATOM     95  O   UNL A   1      52.770  29.766  30.598  1.00  0.00    -0.744 OA
ENDBRANCH  91  92
ENDBRANCH  59  84
ENDBRANCH  33  34
ENDBRANCH  26  28
ENDBRANCH  25  26
ENDBRANCH  24  25
ENDBRANCH  23  24
ENDBRANCH  22  23
ENDBRANCH   1  22
TORSDOF 22
ENDMDL
MODEL 2
REMARK VINA RESULT:      -9.6      3.912      8.718
REMARK SMILES CC(C)(C)N(CC(=O)OCCOCCOC(=O)c1ccc(-c2c3nc(c(-c4c(F)cc(S(=O)(=O)[O-])cc4F)c4ccc([nH]4)c(-c4c(F)cc(S(=O)(=O)[O-])cc4F)c4nc(c(-c5c(F)cc(S(=O)(=O)[O-])cc5F)c5ccc2[nH]5)C=C4)C=C3)cc1)C(=O)NC[C@H]1CCOC1
REMARK SMILES IDX 11 1 10 2 9 3 7 4 8 5 6 6 5 7 2 8 1 9 3 10 4 11 84 12 85 13
REMARK SMILES IDX 86 14 87 16 88 17 89 18 92 19 90 20 91 21 12 22 13 23 14 24
REMARK SMILES IDX 15 25 16 26 17 27 18 28 19 29 83 30 20 31 82 32 21 33 22 34
REMARK SMILES IDX 23 35 76 36 24 37 81 38 75 39 77 40 25 41 80 42 74 43 73 44
REMARK SMILES IDX 26 46 60 47 39 48 59 49 40 50 43 51 58 52 78 53 41 54 42 55
REMARK SMILES IDX 57 57 79 58 44 59 27 60 28 61 37 62 29 63 30 64 36 65 38 66
REMARK SMILES IDX 31 67 32 68 33 69 34 70 35 71 61 72 62 73 71 74 63 75 64 76
REMARK SMILES IDX 70 77 72 78 65 79 66 80 67 81 68 82 69 83 45 84 46 85 55 86
REMARK SMILES IDX 47 87 48 88 54 89 56 90 49 91 50 92 51 93 52 94 53 95
REMARK H PARENT 86 15 77 45 43 56
REMARK Flexibility Score: inf
ROOT
ATOM      1  C   UNL A   1      38.548  22.401  25.999  1.00  0.00     0.202 C 
ENDROOT
BRANCH   1   2
ATOM      2  C   UNL A   1      37.066  22.308  25.578  1.00  0.00     0.261 C 
BRANCH   2   3
ATOM      3  O   UNL A   1      36.291  23.399  26.121  1.00  0.00    -0.462 OA
BRANCH   3   4
ATOM      4  C   UNL A   1      34.959  23.177  26.275  1.00  0.00     0.325 C 
ATOM      5  O   UNL A   1      34.479  22.387  27.084  1.00  0.00    -0.250 OA
BRANCH   4   6
ATOM      6  C   UNL A   1      34.083  23.943  25.273  1.00  0.00     0.244 C 
BRANCH   6   7
ATOM      7  N   UNL A   1      32.936  23.282  24.630  1.00  0.00    -0.309 N 
BRANCH   7   8
ATOM      8  C   UNL A   1      31.523  23.795  24.968  1.00  0.00     0.037 C 
ATOM      9  C   UNL A   1      30.624  24.026  23.722  1.00  0.00     0.034 C 
ATOM     10  C   UNL A   1      31.543  25.162  25.694  1.00  0.00     0.034 C 
ATOM     11  C   UNL A   1      30.759  22.798  25.870  1.00  0.00     0.034 C 
ENDBRANCH   7   8
BRANCH   7  12
ATOM     12  C   UNL A   1      33.084  22.292  23.675  1.00  0.00     0.318 C 
ATOM     13  O   UNL A   1      33.292  22.565  22.489  1.00  0.00    -0.249 OA
ATOM     14  N   UNL A   1      32.913  20.960  23.887  1.00  0.00    -0.338 N 
ATOM     15  H   UNL A   1      32.726  20.513  23.030  1.00  0.00     0.165 HD
BRANCH  14  16
ATOM     16  C   UNL A   1      32.915  19.968  24.967  1.00  0.00     0.123 C 
BRANCH  16  17
ATOM     17  C   UNL A   1      32.676  18.465  24.687  1.00  0.00     0.036 C 
ATOM     18  C   UNL A   1      33.678  17.846  23.717  1.00  0.00     0.036 C 
ATOM     19  C   UNL A   1      32.616  17.399  25.756  1.00  0.00     0.165 C 
ATOM     20  C   UNL A   1      33.584  16.346  23.969  1.00  0.00     0.160 C 
ATOM     21  O   UNL A   1      32.596  16.176  24.995  1.00  0.00    -0.381 OA
ENDBRANCH  16  17
ENDBRANCH  14  16
ENDBRANCH   7  12
ENDBRANCH   6   7
ENDBRANCH   4   6
ENDBRANCH   3   4
ENDBRANCH   2   3
ENDBRANCH   1   2
BRANCH   1  22
ATOM     22  O   UNL A   1      39.355  21.236  25.732  1.00  0.00    -0.374 OA
BRANCH  22  23
ATOM     23  C   UNL A   1      40.541  21.212  26.530  1.00  0.00     0.202 C 
BRANCH  23  24
ATOM     24  C   UNL A   1      41.813  21.890  25.989  1.00  0.00     0.261 C 
BRANCH  24  25
ATOM     25  O   UNL A   1      42.210  22.953  26.831  1.00  0.00    -0.460 OA
BRANCH  25  26
ATOM     26  C   UNL A   1      42.538  24.040  26.107  1.00  0.00     0.338 C 
ATOM     27  O   UNL A   1      43.028  24.054  24.990  1.00  0.00    -0.246 OA
BRANCH  26  28
ATOM     28  C   UNL A   1      41.976  25.191  26.827  1.00  0.00     0.060 A 
ATOM     29  C   UNL A   1      42.639  26.414  26.707  1.00  0.00     0.016 A 
ATOM     30  C   UNL A   1      40.798  25.068  27.582  1.00  0.00     0.016 A 
ATOM     31  C   UNL A   1      42.222  27.477  27.484  1.00  0.00     0.010 A 
ATOM     32  C   UNL A   1      40.359  26.138  28.334  1.00  0.00     0.010 A 
ATOM     33  C   UNL A   1      41.143  27.296  28.359  1.00  0.00    -0.014 A 
BRANCH  33  34
ATOM     34  C   UNL A   1      41.026  28.184  29.519  1.00  0.00     0.031 A 
ATOM     35  C   UNL A   1      42.002  27.982  30.644  1.00  0.00     0.074 A 
ATOM     36  C   UNL A   1      40.084  29.134  29.530  1.00  0.00     0.049 A 
ATOM     37  N   UNL A   1      42.104  28.622  31.774  1.00  0.00    -0.248 NA
ATOM     38  C   UNL A   1      42.984  26.892  30.481  1.00  0.00     0.031 C 
ATOM     39  C   UNL A   1      39.113  29.367  28.461  1.00  0.00     0.029 A 
ATOM     40  N   UNL A   1      39.792  30.070  30.475  1.00  0.00    -0.354 N 
ATOM     41  C   UNL A   1      43.147  28.004  32.460  1.00  0.00     0.074 A 
ATOM     42  C   UNL A   1      43.609  26.907  31.645  1.00  0.00     0.031 C 
ATOM     43  C   UNL A   1      38.320  30.390  28.817  1.00  0.00     0.029 A 
ATOM     44  C   UNL A   1      38.719  30.855  30.143  1.00  0.00     0.049 A 
ATOM     45  H   UNL A   1      40.301  30.174  31.311  1.00  0.00     0.167 HD
ATOM     46  C   UNL A   1      43.672  28.342  33.658  1.00  0.00     0.037 A 
ATOM     47  C   UNL A   1      38.126  31.829  30.854  1.00  0.00     0.037 A 
ATOM     48  C   UNL A   1      43.174  29.445  34.434  1.00  0.00     0.049 A 
ATOM     49  C   UNL A   1      38.724  32.193  32.183  1.00  0.00     0.074 A 
ATOM     50  C   UNL A   1      43.625  29.924  35.649  1.00  0.00     0.029 A 
ATOM     51  N   UNL A   1      42.093  30.238  34.064  1.00  0.00    -0.354 N 
ATOM     52  N   UNL A   1      39.735  31.635  32.813  1.00  0.00    -0.248 NA
ATOM     53  C   UNL A   1      38.124  33.329  32.886  1.00  0.00     0.031 C 
ATOM     54  C   UNL A   1      42.778  30.966  36.041  1.00  0.00     0.029 A 
ATOM     55  C   UNL A   1      41.845  31.189  35.036  1.00  0.00     0.049 A 
ATOM     56  H   UNL A   1      41.580  30.138  33.230  1.00  0.00     0.167 HD
ATOM     57  C   UNL A   1      39.913  32.371  33.978  1.00  0.00     0.074 A 
ATOM     58  C   UNL A   1      38.908  33.419  33.953  1.00  0.00     0.031 C 
ATOM     59  C   UNL A   1      40.822  32.207  34.974  1.00  0.00     0.037 A 
BRANCH  46  60
ATOM     60  C   UNL A   1      44.787  27.483  34.197  1.00  0.00     0.058 A 
ATOM     61  C   UNL A   1      44.545  26.307  34.929  1.00  0.00     0.135 A 
ATOM     62  C   UNL A   1      46.125  27.862  34.008  1.00  0.00     0.135 A 
ATOM     63  F   UNL A   1      43.286  25.901  35.164  1.00  0.00    -0.206 F 
ATOM     64  C   UNL A   1      45.584  25.570  35.494  1.00  0.00     0.059 A 
ATOM     65  C   UNL A   1      47.181  27.121  34.532  1.00  0.00     0.059 A 
ATOM     66  F   UNL A   1      46.421  28.978  33.323  1.00  0.00    -0.206 F 
ATOM     67  C   UNL A   1      46.899  25.989  35.294  1.00  0.00     0.060 A 
BRANCH  67  68
ATOM     68  S   UNL A   1      48.235  25.040  36.052  1.00  0.00     0.124 S 
ATOM     69  O   UNL A   1      49.343  25.319  35.145  1.00  0.00    -0.237 OA
ATOM     70  O   UNL A   1      48.333  25.643  37.377  1.00  0.00    -0.237 OA
ATOM     71  O   UNL A   1      47.736  23.669  36.027  1.00  0.00    -0.744 OA
ENDBRANCH  67  68
ENDBRANCH  46  60
BRANCH  47  72
ATOM     72  C   UNL A   1      36.939  32.514  30.287  1.00  0.00     0.058 A 
ATOM     73  C   UNL A   1      35.639  32.120  30.628  1.00  0.00     0.135 A 
ATOM     74  C   UNL A   1      37.088  33.647  29.470  1.00  0.00     0.135 A 
ATOM     75  F   UNL A   1      35.447  31.047  31.411  1.00  0.00    -0.206 F 
ATOM     76  C   UNL A   1      34.525  32.826  30.184  1.00  0.00     0.059 A 
ATOM     77  C   UNL A   1      35.993  34.383  29.035  1.00  0.00     0.059 A 
ATOM     78  F   UNL A   1      38.315  34.080  29.138  1.00  0.00    -0.206 F 
ATOM     79  C   UNL A   1      34.714  33.964  29.397  1.00  0.00     0.060 A 
BRANCH  79  80
ATOM     80  S   UNL A   1      33.267  34.927  28.909  1.00  0.00     0.124 S 
ATOM     81  O   UNL A   1      32.657  35.219  30.200  1.00  0.00    -0.237 OA
ATOM     82  O   UNL A   1      33.874  36.059  28.216  1.00  0.00    -0.237 OA
ATOM     83  O   UNL A   1      32.524  34.006  28.053  1.00  0.00    -0.744 OA
ENDBRANCH  79  80
ENDBRANCH  47  72
BRANCH  59  84
ATOM     84  C   UNL A   1      40.790  33.214  36.090  1.00  0.00     0.058 A 
ATOM     85  C   UNL A   1      41.593  34.365  36.076  1.00  0.00     0.135 A 
ATOM     86  C   UNL A   1      39.918  33.031  37.175  1.00  0.00     0.135 A 
ATOM     87  F   UNL A   1      42.445  34.584  35.061  1.00  0.00    -0.206 F 
ATOM     88  C   UNL A   1      41.568  35.275  37.126  1.00  0.00     0.059 A 
ATOM     89  C   UNL A   1      39.848  33.949  38.215  1.00  0.00     0.059 A 
ATOM     90  F   UNL A   1      39.115  31.957  37.226  1.00  0.00    -0.206 F 
ATOM     91  C   UNL A   1      40.694  35.057  38.192  1.00  0.00     0.060 A 
BRANCH  91  92
ATOM     92  S   UNL A   1      40.675  36.241  39.551  1.00  0.00     0.124 S 
ATOM     93  O   UNL A   1      41.131  37.457  38.885  1.00  0.00    -0.237 OA
ATOM     94  O   UNL A   1      39.272  36.229  39.955  1.00  0.00    -0.237 OA
ATOM     95  O   UNL A   1      41.605  35.666  40.518  1.00  0.00    -0.744 OA
ENDBRANCH  91  92
ENDBRANCH  59  84
ENDBRANCH  33  34
ENDBRANCH  26  28
ENDBRANCH  25  26
ENDBRANCH  24  25
ENDBRANCH  23  24
ENDBRANCH  22  23
ENDBRANCH   1  22
TORSDOF 22
ENDMDL
MODEL 3
REMARK VINA RESULT:      -9.3      2.918      8.160
REMARK SMILES CC(C)(C)N(CC(=O)OCCOCCOC(=O)c1ccc(-c2c3nc(c(-c4c(F)cc(S(=O)(=O)[O-])cc4F)c4ccc([nH]4)c(-c4c(F)cc(S(=O)(=O)[O-])cc4F)c4nc(c(-c5c(F)cc(S(=O)(=O)[O-])cc5F)c5ccc2[nH]5)C=C4)C=C3)cc1)C(=O)NC[C@H]1CCOC1
REMARK SMILES IDX 11 1 10 2 9 3 7 4 8 5 6 6 5 7 2 8 1 9 3 10 4 11 84 12 85 13
REMARK SMILES IDX 86 14 87 16 88 17 89 18 92 19 90 20 91 21 12 22 13 23 14 24
REMARK SMILES IDX 15 25 16 26 17 27 18 28 19 29 83 30 20 31 82 32 21 33 22 34
REMARK SMILES IDX 23 35 76 36 24 37 81 38 75 39 77 40 25 41 80 42 74 43 73 44
REMARK SMILES IDX 26 46 60 47 39 48 59 49 40 50 43 51 58 52 78 53 41 54 42 55
REMARK SMILES IDX 57 57 79 58 44 59 27 60 28 61 37 62 29 63 30 64 36 65 38 66
REMARK SMILES IDX 31 67 32 68 33 69 34 70 35 71 61 72 62 73 71 74 63 75 64 76
REMARK SMILES IDX 70 77 72 78 65 79 66 80 67 81 68 82 69 83 45 84 46 85 55 86
REMARK SMILES IDX 47 87 48 88 54 89 56 90 49 91 50 92 51 93 52 94 53 95
REMARK H PARENT 86 15 77 45 43 56
REMARK Flexibility Score: inf
ROOT
ATOM      1  C   UNL A   1      35.062  21.705  26.016  1.00  0.00     0.202 C 
ENDROOT
BRANCH   1   2
ATOM      2  C   UNL A   1      33.778  22.421  25.548  1.00  0.00     0.261 C 
BRANCH   2   3
ATOM      3  O   UNL A   1      33.893  22.877  24.182  1.00  0.00    -0.462 OA
BRANCH   3   4
ATOM      4  C   UNL A   1      33.552  24.171  23.945  1.00  0.00     0.325 C 
ATOM      5  O   UNL A   1      33.185  24.601  22.855  1.00  0.00    -0.250 OA
BRANCH   4   6
ATOM      6  C   UNL A   1      33.751  25.095  25.155  1.00  0.00     0.244 C 
BRANCH   6   7
ATOM      7  N   UNL A   1      32.688  26.027  25.563  1.00  0.00    -0.309 N 
BRANCH   7   8
ATOM      8  C   UNL A   1      33.024  27.530  25.614  1.00  0.00     0.037 C 
ATOM      9  C   UNL A   1      33.318  28.157  24.224  1.00  0.00     0.034 C 
ATOM     10  C   UNL A   1      34.289  27.830  26.454  1.00  0.00     0.034 C 
ATOM     11  C   UNL A   1      31.859  28.351  26.217  1.00  0.00     0.034 C 
ENDBRANCH   7   8
BRANCH   7  12
ATOM     12  C   UNL A   1      31.390  25.617  25.808  1.00  0.00     0.318 C 
ATOM     13  O   UNL A   1      31.059  25.140  26.899  1.00  0.00    -0.249 OA
ATOM     14  N   UNL A   1      30.387  25.580  24.891  1.00  0.00    -0.338 N 
ATOM     15  H   UNL A   1      29.693  24.949  25.189  1.00  0.00     0.165 HD
BRANCH  14  16
ATOM     16  C   UNL A   1      29.996  26.168  23.605  1.00  0.00     0.123 C 
BRANCH  16  17
ATOM     17  C   UNL A   1      29.460  27.617  23.506  1.00  0.00     0.036 C 
ATOM     18  C   UNL A   1      30.150  28.464  22.442  1.00  0.00     0.036 C 
ATOM     19  C   UNL A   1      28.012  27.973  23.263  1.00  0.00     0.165 C 
ATOM     20  C   UNL A   1      29.185  29.612  22.176  1.00  0.00     0.160 C 
ATOM     21  O   UNL A   1      28.062  29.397  23.042  1.00  0.00    -0.381 OA
ENDBRANCH  16  17
ENDBRANCH  14  16
ENDBRANCH   7  12
ENDBRANCH   6   7
ENDBRANCH   4   6
ENDBRANCH   3   4
ENDBRANCH   2   3
ENDBRANCH   1   2
BRANCH   1  22
ATOM     22  O   UNL A   1      36.121  21.605  25.043  1.00  0.00    -0.374 OA
BRANCH  22  23
ATOM     23  C   UNL A   1      37.219  22.464  25.358  1.00  0.00     0.202 C 
BRANCH  23  24
ATOM     24  C   UNL A   1      38.638  21.868  25.398  1.00  0.00     0.261 C 
BRANCH  24  25
ATOM     25  O   UNL A   1      39.253  22.125  26.644  1.00  0.00    -0.460 OA
BRANCH  25  26
ATOM     26  C   UNL A   1      40.428  22.760  26.475  1.00  0.00     0.338 C 
ATOM     27  O   UNL A   1      41.397  22.354  25.855  1.00  0.00    -0.246 OA
BRANCH  26  28
ATOM     28  C   UNL A   1      40.229  24.124  26.984  1.00  0.00     0.060 A 
ATOM     29  C   UNL A   1      40.844  25.168  26.291  1.00  0.00     0.016 A 
ATOM     30  C   UNL A   1      39.422  24.366  28.108  1.00  0.00     0.016 A 
ATOM     31  C   UNL A   1      40.796  26.442  26.824  1.00  0.00     0.010 A 
ATOM     32  C   UNL A   1      39.345  25.642  28.625  1.00  0.00     0.010 A 
ATOM     33  C   UNL A   1      40.124  26.644  28.037  1.00  0.00    -0.014 A 
BRANCH  33  34
ATOM     34  C   UNL A   1      40.492  27.803  28.856  1.00  0.00     0.031 A 
ATOM     35  C   UNL A   1      41.836  27.774  29.527  1.00  0.00     0.074 A 
ATOM     36  C   UNL A   1      39.643  28.831  28.962  1.00  0.00     0.049 A 
ATOM     37  N   UNL A   1      42.391  28.661  30.305  1.00  0.00    -0.248 NA
ATOM     38  C   UNL A   1      42.659  26.568  29.310  1.00  0.00     0.031 C 
ATOM     39  C   UNL A   1      38.326  28.903  28.329  1.00  0.00     0.029 A 
ATOM     40  N   UNL A   1      39.764  30.003  29.645  1.00  0.00    -0.354 N 
ATOM     41  C   UNL A   1      43.614  28.115  30.680  1.00  0.00     0.074 A 
ATOM     42  C   UNL A   1      43.700  26.801  30.091  1.00  0.00     0.031 C 
ATOM     43  C   UNL A   1      37.753  30.070  28.662  1.00  0.00     0.029 A 
ATOM     44  C   UNL A   1      38.656  30.802  29.547  1.00  0.00     0.049 A 
ATOM     45  H   UNL A   1      40.567  30.252  30.157  1.00  0.00     0.167 HD
ATOM     46  C   UNL A   1      44.581  28.677  31.439  1.00  0.00     0.037 A 
ATOM     47  C   UNL A   1      38.408  31.988  30.129  1.00  0.00     0.037 A 
ATOM     48  C   UNL A   1      44.447  29.992  32.006  1.00  0.00     0.049 A 
ATOM     49  C   UNL A   1      39.494  32.600  30.968  1.00  0.00     0.074 A 
ATOM     50  C   UNL A   1      45.354  30.703  32.768  1.00  0.00     0.029 A 
ATOM     51  N   UNL A   1      43.316  30.790  31.874  1.00  0.00    -0.354 N 
ATOM     52  N   UNL A   1      40.667  32.101  31.289  1.00  0.00    -0.248 NA
ATOM     53  C   UNL A   1      39.238  33.940  31.500  1.00  0.00     0.031 C 
ATOM     54  C   UNL A   1      44.746  31.904  33.148  1.00  0.00     0.029 A 
ATOM     55  C   UNL A   1      43.490  31.977  32.560  1.00  0.00     0.049 A 
ATOM     56  H   UNL A   1      42.510  30.546  31.365  1.00  0.00     0.167 HD
ATOM     57  C   UNL A   1      41.305  33.079  32.041  1.00  0.00     0.074 A 
ATOM     58  C   UNL A   1      40.385  34.201  32.114  1.00  0.00     0.031 C 
ATOM     59  C   UNL A   1      42.538  33.063  32.614  1.00  0.00     0.037 A 
BRANCH  46  60
ATOM     60  C   UNL A   1      45.810  27.853  31.725  1.00  0.00     0.058 A 
ATOM     61  C   UNL A   1      45.845  26.877  32.736  1.00  0.00     0.135 A 
ATOM     62  C   UNL A   1      46.990  28.069  30.995  1.00  0.00     0.135 A 
ATOM     63  F   UNL A   1      44.755  26.638  33.485  1.00  0.00    -0.206 F 
ATOM     64  C   UNL A   1      47.013  26.184  33.046  1.00  0.00     0.059 A 
ATOM     65  C   UNL A   1      48.160  27.363  31.262  1.00  0.00     0.059 A 
ATOM     66  F   UNL A   1      47.023  28.992  30.020  1.00  0.00    -0.206 F 
ATOM     67  C   UNL A   1      48.168  26.439  32.305  1.00  0.00     0.060 A 
BRANCH  67  68
ATOM     68  S   UNL A   1      49.682  25.554  32.731  1.00  0.00     0.124 S 
ATOM     69  O   UNL A   1      50.639  26.650  32.848  1.00  0.00    -0.237 OA
ATOM     70  O   UNL A   1      49.317  24.895  33.981  1.00  0.00    -0.237 OA
ATOM     71  O   UNL A   1      49.888  24.662  31.594  1.00  0.00    -0.744 OA
ENDBRANCH  67  68
ENDBRANCH  46  60
BRANCH  47  72
ATOM     72  C   UNL A   1      37.099  32.646  29.895  1.00  0.00     0.058 A 
ATOM     73  C   UNL A   1      36.008  32.419  30.743  1.00  0.00     0.135 A 
ATOM     74  C   UNL A   1      36.949  33.598  28.873  1.00  0.00     0.135 A 
ATOM     75  F   UNL A   1      36.107  31.523  31.738  1.00  0.00    -0.206 F 
ATOM     76  C   UNL A   1      34.813  33.114  30.591  1.00  0.00     0.059 A 
ATOM     77  C   UNL A   1      35.774  34.323  28.717  1.00  0.00     0.059 A 
ATOM     78  F   UNL A   1      37.976  33.871  28.051  1.00  0.00    -0.206 F 
ATOM     79  C   UNL A   1      34.710  34.074  29.581  1.00  0.00     0.060 A 
BRANCH  79  80
ATOM     80  S   UNL A   1      33.189  35.038  29.457  1.00  0.00     0.124 S 
ATOM     81  O   UNL A   1      32.642  34.901  30.801  1.00  0.00    -0.237 OA
ATOM     82  O   UNL A   1      33.695  36.361  29.102  1.00  0.00    -0.237 OA
ATOM     83  O   UNL A   1      32.446  34.357  28.400  1.00  0.00    -0.744 OA
ENDBRANCH  79  80
ENDBRANCH  47  72
BRANCH  59  84
ATOM     84  C   UNL A   1      42.967  34.314  33.328  1.00  0.00     0.058 A 
ATOM     85  C   UNL A   1      42.778  34.484  34.709  1.00  0.00     0.135 A 
ATOM     86  C   UNL A   1      43.602  35.345  32.618  1.00  0.00     0.135 A 
ATOM     87  F   UNL A   1      42.174  33.528  35.432  1.00  0.00    -0.206 F 
ATOM     88  C   UNL A   1      43.161  35.656  35.351  1.00  0.00     0.059 A 
ATOM     89  C   UNL A   1      44.029  36.507  33.247  1.00  0.00     0.059 A 
ATOM     90  F   UNL A   1      43.824  35.223  31.300  1.00  0.00    -0.206 F 
ATOM     91  C   UNL A   1      43.783  36.663  34.610  1.00  0.00     0.060 A 
BRANCH  91  92
ATOM     92  S   UNL A   1      44.269  38.180  35.453  1.00  0.00     0.124 S 
ATOM     93  O   UNL A   1      45.722  38.136  35.320  1.00  0.00    -0.237 OA
ATOM     94  O   UNL A   1      43.592  39.205  34.664  1.00  0.00    -0.237 OA
ATOM     95  O   UNL A   1      43.756  37.998  36.808  1.00  0.00    -0.744 OA
ENDBRANCH  91  92
ENDBRANCH  59  84
ENDBRANCH  33  34
ENDBRANCH  26  28
ENDBRANCH  25  26
ENDBRANCH  24  25
ENDBRANCH  23  24
ENDBRANCH  22  23
ENDBRANCH   1  22
TORSDOF 22
ENDMDL
