MODEL 1
REMARK VINA RESULT:     -10.0      0.000      0.000
REMARK SMILES O=C(OCCOCCOC(=O)[C@@H]1CN(c2nccc(N3CCC(O)CC3)n2)CC[NH2+]1)c1ccc(-c2c3nc(c(-c4c(F)cc(S(=O)(=O)[O-])cc4F)c4ccc([nH]4)c(-c4c(F)cc(S(=O)(=O)[O-])cc4F)c4nc(c(-c5c(F)cc(S(=O)(=O)[O-])cc5F)c5ccc2[nH]5)C=C4)C=C3)cc1
REMARK SMILES IDX 6 1 5 2 4 3 3 4 2 5 1 6 31 7 32 8 96 9 33 10 95 11 34 12
REMARK SMILES IDX 35 13 36 14 89 15 37 16 94 17 88 18 90 19 38 20 93 21 87 22
REMARK SMILES IDX 86 23 39 25 73 26 52 27 72 28 53 29 56 30 71 31 91 32 54 33
REMARK SMILES IDX 55 34 70 36 92 37 57 38 40 39 41 40 50 41 42 42 43 43 49 44
REMARK SMILES IDX 51 45 44 46 45 47 46 48 47 49 48 50 74 51 75 52 84 53 76 54
REMARK SMILES IDX 77 55 83 56 85 57 78 58 79 59 80 60 81 61 82 62 58 63 59 64
REMARK SMILES IDX 68 65 60 66 61 67 67 68 69 69 62 70 63 71 64 72 65 73 66 74
REMARK SMILES IDX 7 75 8 76 9 77 10 78 11 79 12 80 13 81 30 82 14 83 29 84
REMARK SMILES IDX 28 87 15 88 16 89 27 90 17 91 19 92 18 93 20 94 21 95 26 96
REMARK SMILES IDX 22 97 25 98 23 99 24 100
REMARK H PARENT 90 24 56 35 30 85 30 86 24 101
REMARK Flexibility Score: inf
ROOT
ATOM      1  O   UNL A   1      33.906  34.912  29.072  1.00  0.00    -0.374 OA
ENDROOT
BRANCH   1   2
ATOM      2  C   UNL A   1      33.617  33.766  28.263  1.00  0.00     0.202 C 
BRANCH   2   3
ATOM      3  C   UNL A   1      34.554  32.545  28.319  1.00  0.00     0.261 C 
BRANCH   3   4
ATOM      4  O   UNL A   1      33.887  31.302  28.033  1.00  0.00    -0.460 OA
BRANCH   4   5
ATOM      5  C   UNL A   1      34.470  30.091  27.842  1.00  0.00     0.338 C 
ATOM      6  O   UNL A   1      33.786  29.150  27.446  1.00  0.00    -0.246 OA
BRANCH   5   7
ATOM      7  C   UNL A   1      35.915  29.854  28.129  1.00  0.00     0.060 A 
ATOM      8  C   UNL A   1      36.920  30.110  27.204  1.00  0.00     0.016 A 
ATOM      9  C   UNL A   1      36.300  29.420  29.405  1.00  0.00     0.016 A 
ATOM     10  C   UNL A   1      38.241  29.853  27.456  1.00  0.00     0.010 A 
ATOM     11  C   UNL A   1      37.657  29.235  29.709  1.00  0.00     0.010 A 
ATOM     12  C   UNL A   1      38.624  29.446  28.721  1.00  0.00    -0.014 A 
BRANCH  12  13
ATOM     13  C   UNL A   1      40.058  29.170  28.855  1.00  0.00     0.031 A 
ATOM     14  C   UNL A   1      40.894  30.178  29.571  1.00  0.00     0.074 A 
ATOM     15  C   UNL A   1      40.490  27.920  28.596  1.00  0.00     0.049 A 
ATOM     16  N   UNL A   1      42.161  30.130  29.867  1.00  0.00    -0.248 NA
ATOM     17  C   UNL A   1      40.206  31.394  30.046  1.00  0.00     0.031 C 
ATOM     18  C   UNL A   1      39.653  26.829  28.074  1.00  0.00     0.029 A 
ATOM     19  N   UNL A   1      41.705  27.330  28.803  1.00  0.00    -0.354 N 
ATOM     20  C   UNL A   1      42.429  31.315  30.538  1.00  0.00     0.074 A 
ATOM     21  C   UNL A   1      41.199  32.069  30.603  1.00  0.00     0.031 C 
ATOM     22  C   UNL A   1      40.376  25.699  28.031  1.00  0.00     0.029 A 
ATOM     23  C   UNL A   1      41.740  26.005  28.432  1.00  0.00     0.049 A 
ATOM     24  H   UNL A   1      42.479  27.805  29.180  1.00  0.00     0.167 HD
ATOM     25  C   UNL A   1      43.611  31.721  31.048  1.00  0.00     0.037 A 
ATOM     26  C   UNL A   1      42.783  25.157  28.378  1.00  0.00     0.037 A 
ATOM     27  C   UNL A   1      44.807  30.929  30.957  1.00  0.00     0.049 A 
ATOM     28  C   UNL A   1      44.116  25.688  28.829  1.00  0.00     0.074 A 
ATOM     29  C   UNL A   1      46.096  31.261  31.325  1.00  0.00     0.029 A 
ATOM     30  N   UNL A   1      44.849  29.630  30.462  1.00  0.00    -0.354 N 
ATOM     31  N   UNL A   1      44.399  26.861  29.351  1.00  0.00    -0.248 NA
ATOM     32  C   UNL A   1      45.271  24.801  28.673  1.00  0.00     0.031 C 
ATOM     33  C   UNL A   1      46.924  30.179  31.011  1.00  0.00     0.029 A 
ATOM     34  C   UNL A   1      46.143  29.150  30.502  1.00  0.00     0.049 A 
ATOM     35  H   UNL A   1      44.070  29.127  30.133  1.00  0.00     0.167 HD
ATOM     36  C   UNL A   1      45.765  26.851  29.595  1.00  0.00     0.074 A 
ATOM     37  C   UNL A   1      46.241  25.539  29.195  1.00  0.00     0.031 C 
ATOM     38  C   UNL A   1      46.562  27.831  30.092  1.00  0.00     0.037 A 
BRANCH  25  39
ATOM     39  C   UNL A   1      43.662  33.090  31.658  1.00  0.00     0.058 A 
ATOM     40  C   UNL A   1      43.676  34.256  30.876  1.00  0.00     0.135 A 
ATOM     41  C   UNL A   1      43.725  33.236  33.052  1.00  0.00     0.135 A 
ATOM     42  F   UNL A   1      43.665  34.173  29.537  1.00  0.00    -0.206 F 
ATOM     43  C   UNL A   1      43.761  35.518  31.456  1.00  0.00     0.059 A 
ATOM     44  C   UNL A   1      43.785  34.488  33.656  1.00  0.00     0.059 A 
ATOM     45  F   UNL A   1      43.743  32.152  33.845  1.00  0.00    -0.206 F 
ATOM     46  C   UNL A   1      43.812  35.624  32.848  1.00  0.00     0.060 A 
BRANCH  46  47
ATOM     47  S   UNL A   1      43.901  37.268  33.586  1.00  0.00     0.124 S 
ATOM     48  O   UNL A   1      42.564  37.405  34.159  1.00  0.00    -0.237 OA
ATOM     49  O   UNL A   1      44.989  37.117  34.548  1.00  0.00    -0.237 OA
ATOM     50  O   UNL A   1      44.188  38.137  32.450  1.00  0.00    -0.744 OA
ENDBRANCH  46  47
ENDBRANCH  25  39
BRANCH  26  51
ATOM     51  C   UNL A   1      42.631  23.796  27.790  1.00  0.00     0.058 A 
ATOM     52  C   UNL A   1      42.440  22.658  28.586  1.00  0.00     0.135 A 
ATOM     53  C   UNL A   1      42.715  23.603  26.399  1.00  0.00     0.135 A 
ATOM     54  F   UNL A   1      42.356  22.780  29.920  1.00  0.00    -0.206 F 
ATOM     55  C   UNL A   1      42.375  21.381  28.034  1.00  0.00     0.059 A 
ATOM     56  C   UNL A   1      42.615  22.343  25.820  1.00  0.00     0.059 A 
ATOM     57  F   UNL A   1      42.887  24.653  25.580  1.00  0.00    -0.206 F 
ATOM     58  C   UNL A   1      42.471  21.233  26.648  1.00  0.00     0.060 A 
BRANCH  58  59
ATOM     59  S   UNL A   1      42.401  19.574  25.937  1.00  0.00     0.124 S 
ATOM     60  O   UNL A   1      40.976  19.436  25.657  1.00  0.00    -0.237 OA
ATOM     61  O   UNL A   1      43.271  19.703  24.771  1.00  0.00    -0.237 OA
ATOM     62  O   UNL A   1      42.919  18.727  27.006  1.00  0.00    -0.744 OA
ENDBRANCH  58  59
ENDBRANCH  26  51
BRANCH  38  63
ATOM     63  C   UNL A   1      48.014  27.493  30.249  1.00  0.00     0.058 A 
ATOM     64  C   UNL A   1      48.515  26.928  31.431  1.00  0.00     0.135 A 
ATOM     65  C   UNL A   1      48.907  27.712  29.188  1.00  0.00     0.135 A 
ATOM     66  F   UNL A   1      47.698  26.707  32.474  1.00  0.00    -0.206 F 
ATOM     67  C   UNL A   1      49.862  26.626  31.571  1.00  0.00     0.059 A 
ATOM     68  C   UNL A   1      50.252  27.382  29.293  1.00  0.00     0.059 A 
ATOM     69  F   UNL A   1      48.471  28.237  28.031  1.00  0.00    -0.206 F 
ATOM     70  C   UNL A   1      50.722  26.857  30.496  1.00  0.00     0.060 A 
BRANCH  70  71
ATOM     71  S   UNL A   1      52.468  26.446  30.685  1.00  0.00     0.124 S 
ATOM     72  O   UNL A   1      52.873  26.249  29.297  1.00  0.00    -0.237 OA
ATOM     73  O   UNL A   1      52.999  27.639  31.339  1.00  0.00    -0.237 OA
ATOM     74  O   UNL A   1      52.445  25.244  31.511  1.00  0.00    -0.744 OA
ENDBRANCH  70  71
ENDBRANCH  38  63
ENDBRANCH  12  13
ENDBRANCH   5   7
ENDBRANCH   4   5
ENDBRANCH   3   4
ENDBRANCH   2   3
ENDBRANCH   1   2
BRANCH   1  75
ATOM     75  C   UNL A   1      32.817  35.770  29.429  1.00  0.00     0.202 C 
BRANCH  75  76
ATOM     76  C   UNL A   1      33.306  36.905  30.331  1.00  0.00     0.261 C 
BRANCH  76  77
ATOM     77  O   UNL A   1      32.887  36.601  31.664  1.00  0.00    -0.459 OA
BRANCH  77  78
ATOM     78  C   UNL A   1      33.887  36.771  32.576  1.00  0.00     0.366 C 
ATOM     79  O   UNL A   1      34.360  37.858  32.903  1.00  0.00    -0.245 OA
BRANCH  78  80
ATOM     80  C   UNL A   1      34.376  35.433  33.093  1.00  0.00     0.313 C 
ATOM     81  C   UNL A   1      35.609  35.102  32.262  1.00  0.00     0.197 C 
ATOM     82  N   UNL A   1      33.323  34.357  32.994  1.00  0.00    -0.332 N 
ATOM     83  N   UNL A   1      36.076  33.773  32.604  1.00  0.00    -0.328 N 
ATOM     84  C   UNL A   1      33.901  33.071  33.432  1.00  0.00     0.283 C 
ATOM     85  H   UNL A   1      33.007  34.277  32.027  1.00  0.00     0.347 HD
ATOM     86  H   UNL A   1      32.530  34.596  33.589  1.00  0.00     0.347 HD
ATOM     87  C   UNL A   1      35.152  32.664  32.619  1.00  0.00     0.181 C 
BRANCH  83  88
ATOM     88  C   UNL A   1      37.402  33.662  32.861  1.00  0.00     0.227 A 
ATOM     89  N   UNL A   1      38.061  34.772  33.199  1.00  0.00    -0.221 NA
ATOM     90  N   UNL A   1      37.879  32.417  33.025  1.00  0.00    -0.196 NA
ATOM     91  C   UNL A   1      39.222  34.585  33.839  1.00  0.00     0.119 A 
ATOM     92  C   UNL A   1      39.044  32.253  33.662  1.00  0.00     0.134 A 
ATOM     93  C   UNL A   1      39.745  33.345  34.124  1.00  0.00     0.067 A 
BRANCH  92  94
ATOM     94  N   UNL A   1      39.494  30.965  33.857  1.00  0.00    -0.356 N 
ATOM     95  C   UNL A   1      38.684  29.814  33.495  1.00  0.00     0.121 C 
ATOM     96  C   UNL A   1      40.828  30.769  34.412  1.00  0.00     0.121 C 
ATOM     97  C   UNL A   1      39.495  28.850  32.630  1.00  0.00     0.053 C 
ATOM     98  C   UNL A   1      41.637  29.785  33.575  1.00  0.00     0.053 C 
ATOM     99  C   UNL A   1      40.850  28.519  33.250  1.00  0.00     0.118 C 
BRANCH  99 100
ATOM    100  O   UNL A   1      40.685  27.707  34.414  1.00  0.00    -0.393 OA
ATOM    101  H   UNL A   1      40.751  26.771  34.168  1.00  0.00     0.210 HD
ENDBRANCH  99 100
ENDBRANCH  92  94
ENDBRANCH  83  88
ENDBRANCH  78  80
ENDBRANCH  77  78
ENDBRANCH  76  77
ENDBRANCH  75  76
ENDBRANCH   1  75
TORSDOF 20
ENDMDL
MODEL 2
REMARK VINA RESULT:      -9.5      4.859      7.720
REMARK SMILES O=C(OCCOCCOC(=O)[C@@H]1CN(c2nccc(N3CCC(O)CC3)n2)CC[NH2+]1)c1ccc(-c2c3nc(c(-c4c(F)cc(S(=O)(=O)[O-])cc4F)c4ccc([nH]4)c(-c4c(F)cc(S(=O)(=O)[O-])cc4F)c4nc(c(-c5c(F)cc(S(=O)(=O)[O-])cc5F)c5ccc2[nH]5)C=C4)C=C3)cc1
REMARK SMILES IDX 6 1 5 2 4 3 3 4 2 5 1 6 31 7 32 8 96 9 33 10 95 11 34 12
REMARK SMILES IDX 35 13 36 14 89 15 37 16 94 17 88 18 90 19 38 20 93 21 87 22
REMARK SMILES IDX 86 23 39 25 73 26 52 27 72 28 53 29 56 30 71 31 91 32 54 33
REMARK SMILES IDX 55 34 70 36 92 37 57 38 40 39 41 40 50 41 42 42 43 43 49 44
REMARK SMILES IDX 51 45 44 46 45 47 46 48 47 49 48 50 74 51 75 52 84 53 76 54
REMARK SMILES IDX 77 55 83 56 85 57 78 58 79 59 80 60 81 61 82 62 58 63 59 64
REMARK SMILES IDX 68 65 60 66 61 67 67 68 69 69 62 70 63 71 64 72 65 73 66 74
REMARK SMILES IDX 7 75 8 76 9 77 10 78 11 79 12 80 13 81 30 82 14 83 29 84
REMARK SMILES IDX 28 87 15 88 16 89 27 90 17 91 19 92 18 93 20 94 21 95 26 96
REMARK SMILES IDX 22 97 25 98 23 99 24 100
REMARK H PARENT 90 24 56 35 30 85 30 86 24 101
REMARK Flexibility Score: inf
ROOT
ATOM      1  O   UNL A   1      33.533  29.317  26.095  1.00  0.00    -0.374 OA
ENDROOT
BRANCH   1   2
ATOM      2  C   UNL A   1      34.521  29.513  27.114  1.00  0.00     0.202 C 
BRANCH   2   3
ATOM      3  C   UNL A   1      34.441  30.760  28.015  1.00  0.00     0.261 C 
BRANCH   3   4
ATOM      4  O   UNL A   1      35.671  31.042  28.707  1.00  0.00    -0.460 OA
BRANCH   4   5
ATOM      5  C   UNL A   1      36.395  30.178  29.465  1.00  0.00     0.338 C 
ATOM      6  O   UNL A   1      35.879  29.672  30.459  1.00  0.00    -0.246 OA
BRANCH   5   7
ATOM      7  C   UNL A   1      37.815  29.845  29.149  1.00  0.00     0.060 A 
ATOM      8  C   UNL A   1      38.290  29.725  27.849  1.00  0.00     0.016 A 
ATOM      9  C   UNL A   1      38.739  29.714  30.194  1.00  0.00     0.016 A 
ATOM     10  C   UNL A   1      39.584  29.379  27.562  1.00  0.00     0.010 A 
ATOM     11  C   UNL A   1      40.088  29.447  29.916  1.00  0.00     0.010 A 
ATOM     12  C   UNL A   1      40.501  29.271  28.591  1.00  0.00    -0.014 A 
BRANCH  12  13
ATOM     13  C   UNL A   1      41.842  28.863  28.161  1.00  0.00     0.031 A 
ATOM     14  C   UNL A   1      42.948  29.854  28.306  1.00  0.00     0.074 A 
ATOM     15  C   UNL A   1      42.065  27.553  27.939  1.00  0.00     0.049 A 
ATOM     16  N   UNL A   1      44.217  29.707  28.056  1.00  0.00    -0.248 NA
ATOM     17  C   UNL A   1      42.584  31.183  28.834  1.00  0.00     0.031 C 
ATOM     18  C   UNL A   1      41.036  26.502  27.980  1.00  0.00     0.029 A 
ATOM     19  N   UNL A   1      43.224  26.866  27.711  1.00  0.00    -0.354 N 
ATOM     20  C   UNL A   1      44.800  30.928  28.368  1.00  0.00     0.074 A 
ATOM     21  C   UNL A   1      43.750  31.810  28.821  1.00  0.00     0.031 C 
ATOM     22  C   UNL A   1      41.618  25.305  27.814  1.00  0.00     0.029 A 
ATOM     23  C   UNL A   1      43.037  25.510  27.564  1.00  0.00     0.049 A 
ATOM     24  H   UNL A   1      44.106  27.297  27.658  1.00  0.00     0.167 HD
ATOM     25  C   UNL A   1      46.104  31.264  28.276  1.00  0.00     0.037 A 
ATOM     26  C   UNL A   1      43.918  24.556  27.212  1.00  0.00     0.037 A 
ATOM     27  C   UNL A   1      47.110  30.344  27.820  1.00  0.00     0.049 A 
ATOM     28  C   UNL A   1      45.339  24.993  26.986  1.00  0.00     0.074 A 
ATOM     29  C   UNL A   1      48.447  30.580  27.568  1.00  0.00     0.029 A 
ATOM     30  N   UNL A   1      46.878  29.000  27.554  1.00  0.00    -0.354 N 
ATOM     31  N   UNL A   1      45.871  26.182  27.161  1.00  0.00    -0.248 NA
ATOM     32  C   UNL A   1      46.276  23.976  26.502  1.00  0.00     0.031 C 
ATOM     33  C   UNL A   1      49.013  29.386  27.107  1.00  0.00     0.029 A 
ATOM     34  C   UNL A   1      48.043  28.393  27.127  1.00  0.00     0.049 A 
ATOM     35  H   UNL A   1      46.010  28.546  27.657  1.00  0.00     0.167 HD
ATOM     36  C   UNL A   1      47.209  26.056  26.817  1.00  0.00     0.074 A 
ATOM     37  C   UNL A   1      47.409  24.663  26.459  1.00  0.00     0.031 C 
ATOM     38  C   UNL A   1      48.186  26.998  26.785  1.00  0.00     0.037 A 
BRANCH  25  39
ATOM     39  C   UNL A   1      46.472  32.682  28.596  1.00  0.00     0.058 A 
ATOM     40  C   UNL A   1      46.846  33.083  29.888  1.00  0.00     0.135 A 
ATOM     41  C   UNL A   1      46.421  33.663  27.594  1.00  0.00     0.135 A 
ATOM     42  F   UNL A   1      46.866  32.194  30.893  1.00  0.00    -0.206 F 
ATOM     43  C   UNL A   1      47.149  34.410  30.177  1.00  0.00     0.059 A 
ATOM     44  C   UNL A   1      46.743  34.992  27.854  1.00  0.00     0.059 A 
ATOM     45  F   UNL A   1      46.041  33.339  26.348  1.00  0.00    -0.206 F 
ATOM     46  C   UNL A   1      47.098  35.357  29.152  1.00  0.00     0.060 A 
BRANCH  46  47
ATOM     47  S   UNL A   1      47.512  37.071  29.538  1.00  0.00     0.124 S 
ATOM     48  O   UNL A   1      48.737  37.256  28.766  1.00  0.00    -0.237 OA
ATOM     49  O   UNL A   1      46.340  37.790  29.048  1.00  0.00    -0.237 OA
ATOM     50  O   UNL A   1      47.679  37.063  30.987  1.00  0.00    -0.744 OA
ENDBRANCH  46  47
ENDBRANCH  25  39
BRANCH  26  51
ATOM     51  C   UNL A   1      43.468  23.159  26.952  1.00  0.00     0.058 A 
ATOM     52  C   UNL A   1      43.142  22.277  27.991  1.00  0.00     0.135 A 
ATOM     53  C   UNL A   1      43.393  22.664  25.637  1.00  0.00     0.135 A 
ATOM     54  F   UNL A   1      43.199  22.692  29.267  1.00  0.00    -0.206 F 
ATOM     55  C   UNL A   1      42.796  20.950  27.744  1.00  0.00     0.059 A 
ATOM     56  C   UNL A   1      43.013  21.355  25.362  1.00  0.00     0.059 A 
ATOM     57  F   UNL A   1      43.682  23.461  24.597  1.00  0.00    -0.206 F 
ATOM     58  C   UNL A   1      42.741  20.497  26.424  1.00  0.00     0.060 A 
BRANCH  58  59
ATOM     59  S   UNL A   1      42.306  18.772  26.107  1.00  0.00     0.124 S 
ATOM     60  O   UNL A   1      42.572  18.161  27.404  1.00  0.00    -0.237 OA
ATOM     61  O   UNL A   1      40.900  18.874  25.726  1.00  0.00    -0.237 OA
ATOM     62  O   UNL A   1      43.214  18.388  25.030  1.00  0.00    -0.744 OA
ENDBRANCH  58  59
ENDBRANCH  26  51
BRANCH  38  63
ATOM     63  C   UNL A   1      49.551  26.529  26.377  1.00  0.00     0.058 A 
ATOM     64  C   UNL A   1      49.989  26.607  25.047  1.00  0.00     0.135 A 
ATOM     65  C   UNL A   1      50.440  26.027  27.340  1.00  0.00     0.135 A 
ATOM     66  F   UNL A   1      49.169  27.075  24.092  1.00  0.00    -0.206 F 
ATOM     67  C   UNL A   1      51.250  26.163  24.676  1.00  0.00     0.059 A 
ATOM     68  C   UNL A   1      51.721  25.613  26.997  1.00  0.00     0.059 A 
ATOM     69  F   UNL A   1      50.072  25.948  28.629  1.00  0.00    -0.206 F 
ATOM     70  C   UNL A   1      52.109  25.668  25.659  1.00  0.00     0.060 A 
BRANCH  70  71
ATOM     71  S   UNL A   1      53.751  25.110  25.167  1.00  0.00     0.124 S 
ATOM     72  O   UNL A   1      53.937  25.825  23.909  1.00  0.00    -0.237 OA
ATOM     73  O   UNL A   1      54.580  25.560  26.282  1.00  0.00    -0.237 OA
ATOM     74  O   UNL A   1      53.598  23.663  25.053  1.00  0.00    -0.744 OA
ENDBRANCH  70  71
ENDBRANCH  38  63
ENDBRANCH  12  13
ENDBRANCH   5   7
ENDBRANCH   4   5
ENDBRANCH   3   4
ENDBRANCH   2   3
ENDBRANCH   1   2
BRANCH   1  75
ATOM     75  C   UNL A   1      32.396  30.186  26.092  1.00  0.00     0.202 C 
BRANCH  75  76
ATOM     76  C   UNL A   1      31.412  29.773  24.995  1.00  0.00     0.261 C 
BRANCH  76  77
ATOM     77  O   UNL A   1      32.123  28.940  24.075  1.00  0.00    -0.459 OA
BRANCH  77  78
ATOM     78  C   UNL A   1      31.333  27.971  23.531  1.00  0.00     0.366 C 
ATOM     79  O   UNL A   1      30.599  28.130  22.557  1.00  0.00    -0.245 OA
BRANCH  78  80
ATOM     80  C   UNL A   1      31.437  26.683  24.324  1.00  0.00     0.313 C 
ATOM     81  C   UNL A   1      31.786  25.606  23.306  1.00  0.00     0.197 C 
ATOM     82  N   UNL A   1      30.165  26.363  25.071  1.00  0.00    -0.332 N 
ATOM     83  N   UNL A   1      31.783  24.311  23.957  1.00  0.00    -0.328 N 
ATOM     84  C   UNL A   1      30.314  25.057  25.743  1.00  0.00     0.283 C 
ATOM     85  H   UNL A   1      29.384  26.322  24.415  1.00  0.00     0.347 HD
ATOM     86  H   UNL A   1      29.983  27.087  25.766  1.00  0.00     0.347 HD
ATOM     87  C   UNL A   1      30.656  23.910  24.764  1.00  0.00     0.181 C 
BRANCH  83  88
ATOM     88  C   UNL A   1      32.867  23.531  23.722  1.00  0.00     0.227 A 
ATOM     89  N   UNL A   1      33.997  24.137  23.352  1.00  0.00    -0.221 NA
ATOM     90  N   UNL A   1      32.793  22.259  24.145  1.00  0.00    -0.196 NA
ATOM     91  C   UNL A   1      35.119  23.431  23.532  1.00  0.00     0.119 A 
ATOM     92  C   UNL A   1      33.927  21.569  24.313  1.00  0.00     0.134 A 
ATOM     93  C   UNL A   1      35.144  22.153  24.040  1.00  0.00     0.067 A 
BRANCH  92  94
ATOM     94  N   UNL A   1      33.831  20.279  24.789  1.00  0.00    -0.356 N 
ATOM     95  C   UNL A   1      32.542  19.648  25.017  1.00  0.00     0.121 C 
ATOM     96  C   UNL A   1      35.058  19.533  25.035  1.00  0.00     0.121 C 
ATOM     97  C   UNL A   1      32.494  18.283  24.331  1.00  0.00     0.053 C 
ATOM     98  C   UNL A   1      35.012  18.157  24.381  1.00  0.00     0.053 C 
ATOM     99  C   UNL A   1      33.707  17.422  24.674  1.00  0.00     0.118 C 
BRANCH  99 100
ATOM    100  O   UNL A   1      33.653  17.000  26.038  1.00  0.00    -0.393 OA
ATOM    101  H   UNL A   1      33.520  16.040  26.074  1.00  0.00     0.210 HD
ENDBRANCH  99 100
ENDBRANCH  92  94
ENDBRANCH  83  88
ENDBRANCH  78  80
ENDBRANCH  77  78
ENDBRANCH  76  77
ENDBRANCH  75  76
ENDBRANCH   1  75
TORSDOF 20
ENDMDL
MODEL 3
REMARK VINA RESULT:      -9.4      2.635      3.803
REMARK SMILES O=C(OCCOCCOC(=O)[C@@H]1CN(c2nccc(N3CCC(O)CC3)n2)CC[NH2+]1)c1ccc(-c2c3nc(c(-c4c(F)cc(S(=O)(=O)[O-])cc4F)c4ccc([nH]4)c(-c4c(F)cc(S(=O)(=O)[O-])cc4F)c4nc(c(-c5c(F)cc(S(=O)(=O)[O-])cc5F)c5ccc2[nH]5)C=C4)C=C3)cc1
REMARK SMILES IDX 6 1 5 2 4 3 3 4 2 5 1 6 31 7 32 8 96 9 33 10 95 11 34 12
REMARK SMILES IDX 35 13 36 14 89 15 37 16 94 17 88 18 90 19 38 20 93 21 87 22
REMARK SMILES IDX 86 23 39 25 73 26 52 27 72 28 53 29 56 30 71 31 91 32 54 33
REMARK SMILES IDX 55 34 70 36 92 37 57 38 40 39 41 40 50 41 42 42 43 43 49 44
REMARK SMILES IDX 51 45 44 46 45 47 46 48 47 49 48 50 74 51 75 52 84 53 76 54
REMARK SMILES IDX 77 55 83 56 85 57 78 58 79 59 80 60 81 61 82 62 58 63 59 64
REMARK SMILES IDX 68 65 60 66 61 67 67 68 69 69 62 70 63 71 64 72 65 73 66 74
REMARK SMILES IDX 7 75 8 76 9 77 10 78 11 79 12 80 13 81 30 82 14 83 29 84
REMARK SMILES IDX 28 87 15 88 16 89 27 90 17 91 19 92 18 93 20 94 21 95 26 96
REMARK SMILES IDX 22 97 25 98 23 99 24 100
REMARK H PARENT 90 24 56 35 30 85 30 86 24 101
REMARK Flexibility Score: inf
ROOT
ATOM      1  O   UNL A   1      35.692  33.267  27.802  1.00  0.00    -0.374 OA
ENDROOT
BRANCH   1   2
ATOM      2  C   UNL A   1      36.816  33.140  28.680  1.00  0.00     0.202 C 
BRANCH   2   3
ATOM      3  C   UNL A   1      36.643  32.422  30.032  1.00  0.00     0.261 C 
BRANCH   3   4
ATOM      4  O   UNL A   1      35.955  31.162  29.922  1.00  0.00    -0.460 OA
BRANCH   4   5
ATOM      5  C   UNL A   1      36.312  30.104  29.149  1.00  0.00     0.338 C 
ATOM      6  O   UNL A   1      35.437  29.395  28.659  1.00  0.00    -0.246 OA
BRANCH   5   7
ATOM      7  C   UNL A   1      37.741  29.753  28.899  1.00  0.00     0.060 A 
ATOM      8  C   UNL A   1      38.332  29.843  27.645  1.00  0.00     0.016 A 
ATOM      9  C   UNL A   1      38.556  29.382  29.977  1.00  0.00     0.016 A 
ATOM     10  C   UNL A   1      39.632  29.481  27.411  1.00  0.00     0.010 A 
ATOM     11  C   UNL A   1      39.912  29.092  29.771  1.00  0.00     0.010 A 
ATOM     12  C   UNL A   1      40.442  29.136  28.477  1.00  0.00    -0.014 A 
BRANCH  12  13
ATOM     13  C   UNL A   1      41.800  28.735  28.095  1.00  0.00     0.031 A 
ATOM     14  C   UNL A   1      42.894  29.734  28.277  1.00  0.00     0.074 A 
ATOM     15  C   UNL A   1      42.039  27.426  27.884  1.00  0.00     0.049 A 
ATOM     16  N   UNL A   1      44.172  29.595  28.072  1.00  0.00    -0.248 NA
ATOM     17  C   UNL A   1      42.503  31.062  28.789  1.00  0.00     0.031 C 
ATOM     18  C   UNL A   1      41.016  26.369  27.891  1.00  0.00     0.029 A 
ATOM     19  N   UNL A   1      43.210  26.746  27.699  1.00  0.00    -0.354 N 
ATOM     20  C   UNL A   1      44.735  30.820  28.403  1.00  0.00     0.074 A 
ATOM     21  C   UNL A   1      43.664  31.696  28.816  1.00  0.00     0.031 C 
ATOM     22  C   UNL A   1      41.612  25.175  27.747  1.00  0.00     0.029 A 
ATOM     23  C   UNL A   1      43.037  25.390  27.547  1.00  0.00     0.049 A 
ATOM     24  H   UNL A   1      44.090  27.184  27.675  1.00  0.00     0.167 HD
ATOM     25  C   UNL A   1      46.040  31.164  28.356  1.00  0.00     0.037 A 
ATOM     26  C   UNL A   1      43.936  24.440  27.228  1.00  0.00     0.037 A 
ATOM     27  C   UNL A   1      47.067  30.251  27.937  1.00  0.00     0.049 A 
ATOM     28  C   UNL A   1      45.362  24.886  27.051  1.00  0.00     0.074 A 
ATOM     29  C   UNL A   1      48.411  30.494  27.732  1.00  0.00     0.029 A 
ATOM     30  N   UNL A   1      46.853  28.904  27.666  1.00  0.00    -0.354 N 
ATOM     31  N   UNL A   1      45.879  26.079  27.243  1.00  0.00    -0.248 NA
ATOM     32  C   UNL A   1      46.322  23.875  26.603  1.00  0.00     0.031 C 
ATOM     33  C   UNL A   1      49.000  29.303  27.294  1.00  0.00     0.029 A 
ATOM     34  C   UNL A   1      48.036  28.304  27.282  1.00  0.00     0.049 A 
ATOM     35  H   UNL A   1      45.985  28.445  27.739  1.00  0.00     0.167 HD
ATOM     36  C   UNL A   1      47.229  25.961  26.947  1.00  0.00     0.074 A 
ATOM     37  C   UNL A   1      47.451  24.569  26.599  1.00  0.00     0.031 C 
ATOM     38  C   UNL A   1      48.200  26.909  26.948  1.00  0.00     0.037 A 
BRANCH  25  39
ATOM     39  C   UNL A   1      46.387  32.585  28.686  1.00  0.00     0.058 A 
ATOM     40  C   UNL A   1      46.370  33.602  27.718  1.00  0.00     0.135 A 
ATOM     41  C   UNL A   1      46.770  32.929  29.991  1.00  0.00     0.135 A 
ATOM     42  F   UNL A   1      46.057  33.319  26.444  1.00  0.00    -0.206 F 
ATOM     43  C   UNL A   1      46.731  34.909  28.032  1.00  0.00     0.059 A 
ATOM     44  C   UNL A   1      47.111  34.234  30.334  1.00  0.00     0.059 A 
ATOM     45  F   UNL A   1      46.831  31.989  30.948  1.00  0.00    -0.206 F 
ATOM     46  C   UNL A   1      47.097  35.216  29.345  1.00  0.00     0.060 A 
BRANCH  46  47
ATOM     47  S   UNL A   1      47.543  36.919  29.741  1.00  0.00     0.124 S 
ATOM     48  O   UNL A   1      48.995  36.885  29.583  1.00  0.00    -0.237 OA
ATOM     49  O   UNL A   1      46.813  37.674  28.728  1.00  0.00    -0.237 OA
ATOM     50  O   UNL A   1      47.066  37.087  31.110  1.00  0.00    -0.744 OA
ENDBRANCH  46  47
ENDBRANCH  25  39
BRANCH  26  51
ATOM     51  C   UNL A   1      43.504  23.040  26.955  1.00  0.00     0.058 A 
ATOM     52  C   UNL A   1      43.062  22.186  27.975  1.00  0.00     0.135 A 
ATOM     53  C   UNL A   1      43.565  22.513  25.652  1.00  0.00     0.135 A 
ATOM     54  F   UNL A   1      42.986  22.632  29.239  1.00  0.00    -0.206 F 
ATOM     55  C   UNL A   1      42.734  20.855  27.723  1.00  0.00     0.059 A 
ATOM     56  C   UNL A   1      43.206  21.200  25.369  1.00  0.00     0.059 A 
ATOM     57  F   UNL A   1      43.970  23.283  24.630  1.00  0.00    -0.206 F 
ATOM     58  C   UNL A   1      42.815  20.370  26.416  1.00  0.00     0.060 A 
BRANCH  58  59
ATOM     59  S   UNL A   1      42.402  18.641  26.096  1.00  0.00     0.124 S 
ATOM     60  O   UNL A   1      42.682  18.029  27.390  1.00  0.00    -0.237 OA
ATOM     61  O   UNL A   1      40.993  18.725  25.722  1.00  0.00    -0.237 OA
ATOM     62  O   UNL A   1      43.310  18.272  25.015  1.00  0.00    -0.744 OA
ENDBRANCH  58  59
ENDBRANCH  26  51
BRANCH  38  63
ATOM     63  C   UNL A   1      49.582  26.449  26.589  1.00  0.00     0.058 A 
ATOM     64  C   UNL A   1      50.076  26.554  25.280  1.00  0.00     0.135 A 
ATOM     65  C   UNL A   1      50.429  25.927  27.578  1.00  0.00     0.135 A 
ATOM     66  F   UNL A   1      49.298  27.042  24.301  1.00  0.00    -0.206 F 
ATOM     67  C   UNL A   1      51.353  26.118  24.955  1.00  0.00     0.059 A 
ATOM     68  C   UNL A   1      51.724  25.520  27.282  1.00  0.00     0.059 A 
ATOM     69  F   UNL A   1      50.006  25.821  28.848  1.00  0.00    -0.206 F 
ATOM     70  C   UNL A   1      52.169  25.602  25.963  1.00  0.00     0.060 A 
BRANCH  70  71
ATOM     71  S   UNL A   1      53.831  25.054  25.531  1.00  0.00     0.124 S 
ATOM     72  O   UNL A   1      54.586  25.450  26.715  1.00  0.00    -0.237 OA
ATOM     73  O   UNL A   1      53.647  23.617  25.346  1.00  0.00    -0.237 OA
ATOM     74  O   UNL A   1      54.129  25.803  24.315  1.00  0.00    -0.744 OA
ENDBRANCH  70  71
ENDBRANCH  38  63
ENDBRANCH  12  13
ENDBRANCH   5   7
ENDBRANCH   4   5
ENDBRANCH   3   4
ENDBRANCH   2   3
ENDBRANCH   1   2
BRANCH   1  75
ATOM     75  C   UNL A   1      34.387  33.069  28.355  1.00  0.00     0.202 C 
BRANCH  75  76
ATOM     76  C   UNL A   1      33.447  34.196  27.923  1.00  0.00     0.261 C 
BRANCH  76  77
ATOM     77  O   UNL A   1      34.003  35.423  28.404  1.00  0.00    -0.459 OA
BRANCH  77  78
ATOM     78  C   UNL A   1      33.151  36.091  29.234  1.00  0.00     0.366 C 
ATOM     79  O   UNL A   1      31.986  36.374  28.963  1.00  0.00    -0.245 OA
BRANCH  78  80
ATOM     80  C   UNL A   1      33.853  36.488  30.518  1.00  0.00     0.313 C 
ATOM     81  C   UNL A   1      33.732  35.281  31.438  1.00  0.00     0.197 C 
ATOM     82  N   UNL A   1      33.260  37.731  31.137  1.00  0.00    -0.332 N 
ATOM     83  N   UNL A   1      34.268  35.615  32.743  1.00  0.00    -0.328 N 
ATOM     84  C   UNL A   1      33.934  38.001  32.422  1.00  0.00     0.283 C 
ATOM     85  H   UNL A   1      32.262  37.589  31.299  1.00  0.00     0.347 HD
ATOM     86  H   UNL A   1      33.390  38.523  30.508  1.00  0.00     0.347 HD
ATOM     87  C   UNL A   1      33.839  36.818  33.414  1.00  0.00     0.181 C 
BRANCH  83  88
ATOM     88  C   UNL A   1      35.142  34.721  33.268  1.00  0.00     0.227 A 
ATOM     89  N   UNL A   1      34.691  33.489  33.516  1.00  0.00    -0.221 NA
ATOM     90  N   UNL A   1      36.440  35.061  33.236  1.00  0.00    -0.196 NA
ATOM     91  C   UNL A   1      35.629  32.540  33.626  1.00  0.00     0.119 A 
ATOM     92  C   UNL A   1      37.361  34.098  33.354  1.00  0.00     0.134 A 
ATOM     93  C   UNL A   1      36.978  32.785  33.522  1.00  0.00     0.067 A 
BRANCH  92  94
ATOM     94  N   UNL A   1      38.687  34.463  33.276  1.00  0.00    -0.356 N 
ATOM     95  C   UNL A   1      39.400  34.986  34.430  1.00  0.00     0.121 C 
ATOM     96  C   UNL A   1      39.387  34.287  32.010  1.00  0.00     0.121 C 
ATOM     97  C   UNL A   1      40.707  34.222  34.634  1.00  0.00     0.053 C 
ATOM     98  C   UNL A   1      40.708  33.552  32.203  1.00  0.00     0.053 C 
ATOM     99  C   UNL A   1      41.529  34.132  33.351  1.00  0.00     0.118 C 
BRANCH  99 100
ATOM    100  O   UNL A   1      42.059  35.413  33.004  1.00  0.00    -0.393 OA
ATOM    101  H   UNL A   1      41.920  35.574  32.057  1.00  0.00     0.210 HD
ENDBRANCH  99 100
ENDBRANCH  92  94
ENDBRANCH  83  88
ENDBRANCH  78  80
ENDBRANCH  77  78
ENDBRANCH  76  77
ENDBRANCH  75  76
ENDBRANCH   1  75
TORSDOF 20
ENDMDL
