MODEL 1
REMARK VINA RESULT:     -12.1      0.000      0.000
REMARK SMILES Cc1c(Cl)cccc1NC(=O)NCc1cn([C@@H]2C[NH2+][C@H](C(=O)OCCOCCOC(=O)c3ccc(-c4c5nc(c(-c6c(F)cc(S(=O)(=O)[O-])cc6F)c6ccc([nH]6)c(-c6c(F)cc(S(=O)(=O)[O-])cc6F)c6nc(c(-c7c(F)cc(S(=O)(=O)[O-])cc7F)c7ccc4[nH]7)C=C6)C=C5)cc3)C2)nn1
REMARK SMILES IDX 25 1 24 2 23 3 21 4 22 5 20 6 17 7 18 8 98 9 19 10 16 13
REMARK SMILES IDX 14 14 15 15 100 16 99 17 13 18 12 19 9 20 10 21 11 23 8 25
REMARK SMILES IDX 1 26 2 27 3 28 4 29 5 30 7 31 6 32 26 33 27 34 28 35 29 36
REMARK SMILES IDX 30 37 31 38 32 39 33 40 97 41 34 42 96 43 35 44 36 45 37 46
REMARK SMILES IDX 90 47 38 48 95 49 89 50 91 51 39 52 94 53 88 54 87 55 40 57
REMARK SMILES IDX 74 58 53 59 73 60 54 61 57 62 72 63 92 64 55 65 56 66 71 68
REMARK SMILES IDX 93 69 58 70 41 71 42 72 51 73 43 74 44 75 50 76 52 77 45 78
REMARK SMILES IDX 46 79 47 80 48 81 49 82 75 83 76 84 85 85 77 86 78 87 84 88
REMARK SMILES IDX 86 89 79 90 80 91 81 92 82 93 83 94 59 95 60 96 69 97 61 98
REMARK SMILES IDX 62 99 68 100 70 101 63 102 64 103 65 104 66 105 67 106
REMARK H PARENT 19 11 19 12 9 22 12 24 91 56 57 67
REMARK Flexibility Score: inf
ROOT
ATOM      1  C   UNL A   1      39.742  22.056  26.607  1.00  0.00     0.202 C 
ENDROOT
BRANCH   1   2
ATOM      2  C   UNL A   1      38.476  21.998  25.752  1.00  0.00     0.261 C 
BRANCH   2   3
ATOM      3  O   UNL A   1      37.819  23.271  25.686  1.00  0.00    -0.459 OA
BRANCH   3   4
ATOM      4  C   UNL A   1      36.468  23.231  25.510  1.00  0.00     0.365 C 
ATOM      5  O   UNL A   1      35.784  24.193  25.178  1.00  0.00    -0.245 OA
BRANCH   4   6
ATOM      6  C   UNL A   1      35.919  21.793  25.615  1.00  0.00     0.295 C 
ATOM      7  C   UNL A   1      33.505  21.458  25.605  1.00  0.00     0.170 C 
ATOM      8  C   UNL A   1      34.034  21.781  27.004  1.00  0.00     0.289 C 
ATOM      9  C   UNL A   1      34.724  21.574  24.689  1.00  0.00     0.110 C 
ATOM     10  N   UNL A   1      35.461  21.451  26.979  1.00  0.00    -0.333 N 
ATOM     11  H   UNL A   1      35.601  20.458  27.164  1.00  0.00     0.347 HD
ATOM     12  H   UNL A   1      35.981  21.961  27.693  1.00  0.00     0.347 HD
BRANCH   7  13
ATOM     13  N   UNL A   1      32.433  22.341  25.209  1.00  0.00    -0.243 N 
ATOM     14  C   UNL A   1      31.191  23.763  24.163  1.00  0.00     0.102 A 
ATOM     15  C   UNL A   1      32.369  23.064  24.063  1.00  0.00     0.137 A 
ATOM     16  N   UNL A   1      30.548  23.390  25.312  1.00  0.00    -0.134 NA
ATOM     17  N   UNL A   1      31.322  22.508  25.948  1.00  0.00    -0.067 NA
BRANCH  14  18
ATOM     18  C   UNL A   1      30.702  24.710  23.146  1.00  0.00     0.178 C 
BRANCH  18  19
ATOM     19  N   UNL A   1      31.567  24.928  22.026  1.00  0.00    -0.332 N 
ATOM     20  N   UNL A   1      32.345  27.209  21.942  1.00  0.00    -0.308 N 
ATOM     21  C   UNL A   1      32.378  25.903  21.625  1.00  0.00     0.319 C 
ATOM     22  H   UNL A   1      33.088  27.689  21.506  1.00  0.00     0.171 HD
ATOM     23  O   UNL A   1      33.226  25.581  20.779  1.00  0.00    -0.248 OA
ATOM     24  H   UNL A   1      31.560  24.169  21.399  1.00  0.00     0.165 HD
BRANCH  20  25
ATOM     25  C   UNL A   1      31.565  28.098  22.709  1.00  0.00     0.047 A 
ATOM     26  C   UNL A   1      33.154  27.817  24.714  1.00  0.00     0.048 C 
ATOM     27  C   UNL A   1      32.007  28.491  23.997  1.00  0.00    -0.009 A 
ATOM     28  C   UNL A   1      31.298  29.513  24.673  1.00  0.00     0.046 A 
ATOM     29  Cl  UNL A   1      31.765  30.066  26.247  1.00  0.00    -0.084 Cl
ATOM     30  C   UNL A   1      30.170  30.107  24.112  1.00  0.00     0.021 A 
ATOM     31  C   UNL A   1      30.314  28.546  22.294  1.00  0.00     0.026 A 
ATOM     32  C   UNL A   1      29.649  29.590  22.938  1.00  0.00     0.004 A 
ENDBRANCH  20  25
ENDBRANCH  18  19
ENDBRANCH  14  18
ENDBRANCH   7  13
ENDBRANCH   4   6
ENDBRANCH   3   4
ENDBRANCH   2   3
ENDBRANCH   1   2
BRANCH   1  33
ATOM     33  O   UNL A   1      40.924  21.410  26.131  1.00  0.00    -0.374 OA
BRANCH  33  34
ATOM     34  C   UNL A   1      41.028  19.990  26.125  1.00  0.00     0.202 C 
BRANCH  34  35
ATOM     35  C   UNL A   1      42.389  19.334  25.928  1.00  0.00     0.261 C 
BRANCH  35  36
ATOM     36  O   UNL A   1      43.447  20.267  26.033  1.00  0.00    -0.460 OA
BRANCH  36  37
ATOM     37  C   UNL A   1      44.109  20.461  24.873  1.00  0.00     0.338 C 
ATOM     38  O   UNL A   1      44.355  19.621  24.015  1.00  0.00    -0.246 OA
BRANCH  37  39
ATOM     39  C   UNL A   1      44.618  21.833  24.840  1.00  0.00     0.060 A 
ATOM     40  C   UNL A   1      45.609  22.098  25.786  1.00  0.00     0.016 A 
ATOM     41  C   UNL A   1      43.808  22.835  24.286  1.00  0.00     0.016 A 
ATOM     42  C   UNL A   1      45.537  23.293  26.448  1.00  0.00     0.010 A 
ATOM     43  C   UNL A   1      43.722  24.019  24.965  1.00  0.00     0.010 A 
ATOM     44  C   UNL A   1      44.509  24.175  26.104  1.00  0.00    -0.014 A 
BRANCH  44  45
ATOM     45  C   UNL A   1      44.317  25.330  26.942  1.00  0.00     0.031 A 
ATOM     46  C   UNL A   1      45.388  26.323  26.754  1.00  0.00     0.074 A 
ATOM     47  C   UNL A   1      43.228  25.467  27.718  1.00  0.00     0.049 A 
ATOM     48  N   UNL A   1      46.329  26.624  27.584  1.00  0.00    -0.248 NA
ATOM     49  C   UNL A   1      45.587  26.855  25.396  1.00  0.00     0.031 C 
ATOM     50  C   UNL A   1      42.026  24.631  27.769  1.00  0.00     0.029 A 
ATOM     51  N   UNL A   1      42.929  26.483  28.565  1.00  0.00    -0.354 N 
ATOM     52  C   UNL A   1      47.099  27.573  26.927  1.00  0.00     0.074 A 
ATOM     53  C   UNL A   1      46.752  27.485  25.535  1.00  0.00     0.031 C 
ATOM     54  C   UNL A   1      41.047  25.304  28.419  1.00  0.00     0.029 A 
ATOM     55  C   UNL A   1      41.586  26.556  28.918  1.00  0.00     0.049 A 
ATOM     56  H   UNL A   1      43.605  27.116  28.902  1.00  0.00     0.167 HD
ATOM     57  C   UNL A   1      47.756  28.543  27.616  1.00  0.00     0.037 A 
ATOM     58  C   UNL A   1      40.986  27.645  29.464  1.00  0.00     0.037 A 
ATOM     59  C   UNL A   1      47.855  28.206  29.014  1.00  0.00     0.049 A 
ATOM     60  C   UNL A   1      42.074  28.474  30.066  1.00  0.00     0.074 A 
ATOM     61  C   UNL A   1      48.440  27.166  29.712  1.00  0.00     0.029 A 
ATOM     62  N   UNL A   1      46.951  28.783  29.876  1.00  0.00    -0.354 N 
ATOM     63  N   UNL A   1      42.787  28.086  31.093  1.00  0.00    -0.248 NA
ATOM     64  C   UNL A   1      42.709  29.482  29.225  1.00  0.00     0.031 C 
ATOM     65  C   UNL A   1      47.539  26.881  30.776  1.00  0.00     0.029 A 
ATOM     66  C   UNL A   1      46.489  27.800  30.715  1.00  0.00     0.049 A 
ATOM     67  H   UNL A   1      46.682  29.730  29.887  1.00  0.00     0.167 HD
ATOM     68  C   UNL A   1      44.090  28.471  30.797  1.00  0.00     0.074 A 
ATOM     69  C   UNL A   1      43.968  29.388  29.667  1.00  0.00     0.031 C 
ATOM     70  C   UNL A   1      45.163  27.784  31.294  1.00  0.00     0.037 A 
BRANCH  57  71
ATOM     71  C   UNL A   1      47.955  29.944  27.101  1.00  0.00     0.058 A 
ATOM     72  C   UNL A   1      49.245  30.508  27.151  1.00  0.00     0.135 A 
ATOM     73  C   UNL A   1      46.903  30.848  26.825  1.00  0.00     0.135 A 
ATOM     74  F   UNL A   1      50.317  29.741  27.401  1.00  0.00    -0.206 F 
ATOM     75  C   UNL A   1      49.460  31.879  27.024  1.00  0.00     0.059 A 
ATOM     76  C   UNL A   1      47.103  32.207  26.638  1.00  0.00     0.059 A 
ATOM     77  F   UNL A   1      45.616  30.484  26.826  1.00  0.00    -0.206 F 
ATOM     78  C   UNL A   1      48.377  32.722  26.788  1.00  0.00     0.060 A 
BRANCH  78  79
ATOM     79  S   UNL A   1      48.628  34.502  26.757  1.00  0.00     0.124 S 
ATOM     80  O   UNL A   1      49.839  34.635  27.556  1.00  0.00    -0.237 OA
ATOM     81  O   UNL A   1      48.768  34.760  25.329  1.00  0.00    -0.237 OA
ATOM     82  O   UNL A   1      47.408  35.022  27.367  1.00  0.00    -0.744 OA
ENDBRANCH  78  79
ENDBRANCH  57  71
BRANCH  58  83
ATOM     83  C   UNL A   1      39.629  28.172  29.147  1.00  0.00     0.058 A 
ATOM     84  C   UNL A   1      38.610  28.213  30.115  1.00  0.00     0.135 A 
ATOM     85  C   UNL A   1      39.372  28.886  27.957  1.00  0.00     0.135 A 
ATOM     86  F   UNL A   1      38.771  27.586  31.291  1.00  0.00    -0.206 F 
ATOM     87  C   UNL A   1      37.429  28.949  29.932  1.00  0.00     0.059 A 
ATOM     88  C   UNL A   1      38.202  29.611  27.746  1.00  0.00     0.059 A 
ATOM     89  F   UNL A   1      40.293  28.981  26.987  1.00  0.00    -0.206 F 
ATOM     90  C   UNL A   1      37.243  29.662  28.747  1.00  0.00     0.060 A 
BRANCH  90  91
ATOM     91  S   UNL A   1      35.814  30.755  28.565  1.00  0.00     0.124 S 
ATOM     92  O   UNL A   1      35.533  31.118  29.950  1.00  0.00    -0.237 OA
ATOM     93  O   UNL A   1      36.346  31.819  27.720  1.00  0.00    -0.237 OA
ATOM     94  O   UNL A   1      34.813  29.901  27.929  1.00  0.00    -0.744 OA
ENDBRANCH  90  91
ENDBRANCH  58  83
BRANCH  70  95
ATOM     95  C   UNL A   1      44.920  26.755  32.369  1.00  0.00     0.058 A 
ATOM     96  C   UNL A   1      44.637  25.401  32.116  1.00  0.00     0.135 A 
ATOM     97  C   UNL A   1      45.168  27.118  33.700  1.00  0.00     0.135 A 
ATOM     98  F   UNL A   1      44.497  24.950  30.862  1.00  0.00    -0.206 F 
ATOM     99  C   UNL A   1      44.566  24.458  33.144  1.00  0.00     0.059 A 
ATOM    100  C   UNL A   1      45.137  26.189  34.737  1.00  0.00     0.059 A 
ATOM    101  F   UNL A   1      45.513  28.382  34.000  1.00  0.00    -0.206 F 
ATOM    102  C   UNL A   1      44.822  24.862  34.453  1.00  0.00     0.060 A 
BRANCH 102 103
ATOM    103  S   UNL A   1      44.816  23.630  35.772  1.00  0.00     0.124 S 
ATOM    104  O   UNL A   1      44.539  24.445  36.950  1.00  0.00    -0.237 OA
ATOM    105  O   UNL A   1      43.744  22.728  35.360  1.00  0.00    -0.237 OA
ATOM    106  O   UNL A   1      46.158  23.056  35.710  1.00  0.00    -0.744 OA
ENDBRANCH 102 103
ENDBRANCH  70  95
ENDBRANCH  44  45
ENDBRANCH  37  39
ENDBRANCH  36  37
ENDBRANCH  35  36
ENDBRANCH  34  35
ENDBRANCH  33  34
ENDBRANCH   1  33
TORSDOF 21
ENDMDL
MODEL 2
REMARK VINA RESULT:     -12.0      1.564      2.332
REMARK SMILES Cc1c(Cl)cccc1NC(=O)NCc1cn([C@@H]2C[NH2+][C@H](C(=O)OCCOCCOC(=O)c3ccc(-c4c5nc(c(-c6c(F)cc(S(=O)(=O)[O-])cc6F)c6ccc([nH]6)c(-c6c(F)cc(S(=O)(=O)[O-])cc6F)c6nc(c(-c7c(F)cc(S(=O)(=O)[O-])cc7F)c7ccc4[nH]7)C=C6)C=C5)cc3)C2)nn1
REMARK SMILES IDX 25 1 24 2 23 3 21 4 22 5 20 6 17 7 18 8 98 9 19 10 16 13
REMARK SMILES IDX 14 14 15 15 100 16 99 17 13 18 12 19 9 20 10 21 11 23 8 25
REMARK SMILES IDX 1 26 2 27 3 28 4 29 5 30 7 31 6 32 26 33 27 34 28 35 29 36
REMARK SMILES IDX 30 37 31 38 32 39 33 40 97 41 34 42 96 43 35 44 36 45 37 46
REMARK SMILES IDX 90 47 38 48 95 49 89 50 91 51 39 52 94 53 88 54 87 55 40 57
REMARK SMILES IDX 74 58 53 59 73 60 54 61 57 62 72 63 92 64 55 65 56 66 71 68
REMARK SMILES IDX 93 69 58 70 41 71 42 72 51 73 43 74 44 75 50 76 52 77 45 78
REMARK SMILES IDX 46 79 47 80 48 81 49 82 75 83 76 84 85 85 77 86 78 87 84 88
REMARK SMILES IDX 86 89 79 90 80 91 81 92 82 93 83 94 59 95 60 96 69 97 61 98
REMARK SMILES IDX 62 99 68 100 70 101 63 102 64 103 65 104 66 105 67 106
REMARK H PARENT 19 11 19 12 9 22 12 24 91 56 57 67
REMARK Flexibility Score: inf
ROOT
ATOM      1  C   UNL A   1      38.711  23.280  26.309  1.00  0.00     0.202 C 
ENDROOT
BRANCH   1   2
ATOM      2  C   UNL A   1      37.429  22.693  25.720  1.00  0.00     0.261 C 
BRANCH   2   3
ATOM      3  O   UNL A   1      36.387  23.675  25.630  1.00  0.00    -0.459 OA
BRANCH   3   4
ATOM      4  C   UNL A   1      35.118  23.209  25.810  1.00  0.00     0.365 C 
ATOM      5  O   UNL A   1      34.332  23.645  26.645  1.00  0.00    -0.245 OA
BRANCH   4   6
ATOM      6  C   UNL A   1      34.727  22.181  24.729  1.00  0.00     0.295 C 
ATOM      7  C   UNL A   1      33.562  22.963  22.735  1.00  0.00     0.170 C 
ATOM      8  C   UNL A   1      32.601  22.700  23.896  1.00  0.00     0.289 C 
ATOM      9  C   UNL A   1      34.955  22.725  23.320  1.00  0.00     0.110 C 
ATOM     10  N   UNL A   1      33.303  21.785  24.800  1.00  0.00    -0.333 N 
ATOM     11  H   UNL A   1      33.185  20.820  24.493  1.00  0.00     0.347 HD
ATOM     12  H   UNL A   1      32.941  21.840  25.752  1.00  0.00     0.347 HD
BRANCH   7  13
ATOM     13  N   UNL A   1      33.413  24.293  22.194  1.00  0.00    -0.243 N 
ATOM     14  C   UNL A   1      33.249  26.431  21.948  1.00  0.00     0.102 A 
ATOM     15  C   UNL A   1      33.492  25.456  22.886  1.00  0.00     0.137 A 
ATOM     16  N   UNL A   1      33.109  25.843  20.721  1.00  0.00    -0.134 NA
ATOM     17  N   UNL A   1      33.218  24.523  20.883  1.00  0.00    -0.067 NA
BRANCH  14  18
ATOM     18  C   UNL A   1      33.211  27.874  22.245  1.00  0.00     0.178 C 
BRANCH  18  19
ATOM     19  N   UNL A   1      31.990  28.548  21.919  1.00  0.00    -0.332 N 
ATOM     20  N   UNL A   1      30.616  28.881  23.873  1.00  0.00    -0.308 N 
ATOM     21  C   UNL A   1      31.002  29.114  22.608  1.00  0.00     0.319 C 
ATOM     22  H   UNL A   1      29.863  29.467  24.118  1.00  0.00     0.171 HD
ATOM     23  O   UNL A   1      30.288  29.902  21.969  1.00  0.00    -0.248 OA
ATOM     24  H   UNL A   1      31.846  28.606  20.947  1.00  0.00     0.165 HD
BRANCH  20  25
ATOM     25  C   UNL A   1      30.966  28.047  24.955  1.00  0.00     0.047 A 
ATOM     26  C   UNL A   1      29.336  26.235  24.130  1.00  0.00     0.048 C 
ATOM     27  C   UNL A   1      30.449  26.729  25.023  1.00  0.00    -0.009 A 
ATOM     28  C   UNL A   1      30.948  25.857  26.020  1.00  0.00     0.046 A 
ATOM     29  Cl  UNL A   1      30.385  24.227  26.179  1.00  0.00    -0.084 Cl
ATOM     30  C   UNL A   1      31.904  26.280  26.942  1.00  0.00     0.021 A 
ATOM     31  C   UNL A   1      31.735  28.493  26.027  1.00  0.00     0.026 A 
ATOM     32  C   UNL A   1      32.265  27.616  26.974  1.00  0.00     0.004 A 
ENDBRANCH  20  25
ENDBRANCH  18  19
ENDBRANCH  14  18
ENDBRANCH   7  13
ENDBRANCH   4   6
ENDBRANCH   3   4
ENDBRANCH   2   3
ENDBRANCH   1   2
BRANCH   1  33
ATOM     33  O   UNL A   1      39.851  22.431  26.459  1.00  0.00    -0.374 OA
BRANCH  33  34
ATOM     34  C   UNL A   1      39.750  21.029  26.238  1.00  0.00     0.202 C 
BRANCH  34  35
ATOM     35  C   UNL A   1      41.016  20.184  26.160  1.00  0.00     0.261 C 
BRANCH  35  36
ATOM     36  O   UNL A   1      42.160  20.904  26.579  1.00  0.00    -0.460 OA
BRANCH  36  37
ATOM     37  C   UNL A   1      43.166  20.882  25.680  1.00  0.00     0.338 C 
ATOM     38  O   UNL A   1      43.618  19.899  25.103  1.00  0.00    -0.246 OA
BRANCH  37  39
ATOM     39  C   UNL A   1      43.746  22.223  25.583  1.00  0.00     0.060 A 
ATOM     40  C   UNL A   1      44.677  22.517  26.580  1.00  0.00     0.016 A 
ATOM     41  C   UNL A   1      43.030  23.213  24.894  1.00  0.00     0.016 A 
ATOM     42  C   UNL A   1      44.617  23.762  27.142  1.00  0.00     0.010 A 
ATOM     43  C   UNL A   1      42.955  24.450  25.473  1.00  0.00     0.010 A 
ATOM     44  C   UNL A   1      43.664  24.660  26.654  1.00  0.00    -0.014 A 
BRANCH  44  45
ATOM     45  C   UNL A   1      43.470  25.885  27.385  1.00  0.00     0.031 A 
ATOM     46  C   UNL A   1      44.550  26.852  27.124  1.00  0.00     0.074 A 
ATOM     47  C   UNL A   1      42.373  26.096  28.133  1.00  0.00     0.049 A 
ATOM     48  N   UNL A   1      45.483  27.219  27.934  1.00  0.00    -0.248 NA
ATOM     49  C   UNL A   1      44.767  27.262  25.726  1.00  0.00     0.031 C 
ATOM     50  C   UNL A   1      41.165  25.274  28.244  1.00  0.00     0.029 A 
ATOM     51  N   UNL A   1      42.071  27.184  28.884  1.00  0.00    -0.354 N 
ATOM     52  C   UNL A   1      46.266  28.103  27.205  1.00  0.00     0.074 A 
ATOM     53  C   UNL A   1      45.934  27.895  25.823  1.00  0.00     0.031 C 
ATOM     54  C   UNL A   1      40.184  26.007  28.820  1.00  0.00     0.029 A 
ATOM     55  C   UNL A   1      40.725  27.295  29.214  1.00  0.00     0.049 A 
ATOM     56  H   UNL A   1      42.747  27.840  29.172  1.00  0.00     0.167 HD
ATOM     57  C   UNL A   1      46.922  29.126  27.814  1.00  0.00     0.037 A 
ATOM     58  C   UNL A   1      40.126  28.431  29.655  1.00  0.00     0.037 A 
ATOM     59  C   UNL A   1      47.003  28.913  29.238  1.00  0.00     0.049 A 
ATOM     60  C   UNL A   1      41.213  29.304  30.195  1.00  0.00     0.074 A 
ATOM     61  C   UNL A   1      47.573  27.936  30.031  1.00  0.00     0.029 A 
ATOM     62  N   UNL A   1      46.093  29.569  30.034  1.00  0.00    -0.354 N 
ATOM     63  N   UNL A   1      41.912  29.004  31.259  1.00  0.00    -0.248 NA
ATOM     64  C   UNL A   1      41.864  30.231  29.275  1.00  0.00     0.031 C 
ATOM     65  C   UNL A   1      46.659  27.750  31.105  1.00  0.00     0.029 A 
ATOM     66  C   UNL A   1      45.616  28.666  30.952  1.00  0.00     0.049 A 
ATOM     67  H   UNL A   1      45.830  30.515  29.959  1.00  0.00     0.167 HD
ATOM     68  C   UNL A   1      43.221  29.354  30.947  1.00  0.00     0.074 A 
ATOM     69  C   UNL A   1      43.117  30.169  29.738  1.00  0.00     0.031 C 
ATOM     70  C   UNL A   1      44.283  28.708  31.514  1.00  0.00     0.037 A 
BRANCH  57  71
ATOM     71  C   UNL A   1      47.136  30.476  27.180  1.00  0.00     0.058 A 
ATOM     72  C   UNL A   1      48.434  31.022  27.168  1.00  0.00     0.135 A 
ATOM     73  C   UNL A   1      46.094  31.370  26.840  1.00  0.00     0.135 A 
ATOM     74  F   UNL A   1      49.498  30.261  27.470  1.00  0.00    -0.206 F 
ATOM     75  C   UNL A   1      48.668  32.373  26.923  1.00  0.00     0.059 A 
ATOM     76  C   UNL A   1      46.311  32.705  26.536  1.00  0.00     0.059 A 
ATOM     77  F   UNL A   1      44.801  31.028  26.886  1.00  0.00    -0.206 F 
ATOM     78  C   UNL A   1      47.595  33.210  26.629  1.00  0.00     0.060 A 
BRANCH  78  79
ATOM     79  S   UNL A   1      47.872  34.977  26.445  1.00  0.00     0.124 S 
ATOM     80  O   UNL A   1      46.545  35.507  26.731  1.00  0.00    -0.237 OA
ATOM     81  O   UNL A   1      48.896  35.226  27.454  1.00  0.00    -0.237 OA
ATOM     82  O   UNL A   1      48.319  35.103  25.061  1.00  0.00    -0.744 OA
ENDBRANCH  78  79
ENDBRANCH  57  71
BRANCH  58  83
ATOM     83  C   UNL A   1      38.776  28.936  29.278  1.00  0.00     0.058 A 
ATOM     84  C   UNL A   1      37.776  29.159  30.241  1.00  0.00     0.135 A 
ATOM     85  C   UNL A   1      38.513  29.455  27.992  1.00  0.00     0.135 A 
ATOM     86  F   UNL A   1      37.945  28.726  31.500  1.00  0.00    -0.206 F 
ATOM     87  C   UNL A   1      36.610  29.887  29.959  1.00  0.00     0.059 A 
ATOM     88  C   UNL A   1      37.357  30.167  27.683  1.00  0.00     0.059 A 
ATOM     89  F   UNL A   1      39.417  29.368  27.006  1.00  0.00    -0.206 F 
ATOM     90  C   UNL A   1      36.419  30.403  28.678  1.00  0.00     0.060 A 
BRANCH  90  91
ATOM     91  S   UNL A   1      35.012  31.490  28.343  1.00  0.00     0.124 S 
ATOM     92  O   UNL A   1      34.641  31.926  29.684  1.00  0.00    -0.237 OA
ATOM     93  O   UNL A   1      35.607  32.506  27.481  1.00  0.00    -0.237 OA
ATOM     94  O   UNL A   1      34.051  30.607  27.686  1.00  0.00    -0.744 OA
ENDBRANCH  90  91
ENDBRANCH  58  83
BRANCH  70  95
ATOM     95  C   UNL A   1      44.021  27.779  32.673  1.00  0.00     0.058 A 
ATOM     96  C   UNL A   1      43.875  26.386  32.550  1.00  0.00     0.135 A 
ATOM     97  C   UNL A   1      44.111  28.300  33.971  1.00  0.00     0.135 A 
ATOM     98  F   UNL A   1      43.893  25.796  31.346  1.00  0.00    -0.206 F 
ATOM     99  C   UNL A   1      43.782  25.553  33.666  1.00  0.00     0.059 A 
ATOM    100  C   UNL A   1      44.055  27.485  35.099  1.00  0.00     0.059 A 
ATOM    101  F   UNL A   1      44.321  29.614  34.156  1.00  0.00    -0.206 F 
ATOM    102  C   UNL A   1      43.877  26.113  34.939  1.00  0.00     0.060 A 
BRANCH 102 103
ATOM    103  S   UNL A   1      43.843  25.029  36.383  1.00  0.00     0.124 S 
ATOM    104  O   UNL A   1      43.675  23.714  35.773  1.00  0.00    -0.237 OA
ATOM    105  O   UNL A   1      45.143  25.279  37.000  1.00  0.00    -0.237 OA
ATOM    106  O   UNL A   1      42.697  25.514  37.148  1.00  0.00    -0.744 OA
ENDBRANCH 102 103
ENDBRANCH  70  95
ENDBRANCH  44  45
ENDBRANCH  37  39
ENDBRANCH  36  37
ENDBRANCH  35  36
ENDBRANCH  34  35
ENDBRANCH  33  34
ENDBRANCH   1  33
TORSDOF 21
ENDMDL
MODEL 3
REMARK VINA RESULT:     -11.9      2.568      3.585
REMARK SMILES Cc1c(Cl)cccc1NC(=O)NCc1cn([C@@H]2C[NH2+][C@H](C(=O)OCCOCCOC(=O)c3ccc(-c4c5nc(c(-c6c(F)cc(S(=O)(=O)[O-])cc6F)c6ccc([nH]6)c(-c6c(F)cc(S(=O)(=O)[O-])cc6F)c6nc(c(-c7c(F)cc(S(=O)(=O)[O-])cc7F)c7ccc4[nH]7)C=C6)C=C5)cc3)C2)nn1
REMARK SMILES IDX 25 1 24 2 23 3 21 4 22 5 20 6 17 7 18 8 98 9 19 10 16 13
REMARK SMILES IDX 14 14 15 15 100 16 99 17 13 18 12 19 9 20 10 21 11 23 8 25
REMARK SMILES IDX 1 26 2 27 3 28 4 29 5 30 7 31 6 32 26 33 27 34 28 35 29 36
REMARK SMILES IDX 30 37 31 38 32 39 33 40 97 41 34 42 96 43 35 44 36 45 37 46
REMARK SMILES IDX 90 47 38 48 95 49 89 50 91 51 39 52 94 53 88 54 87 55 40 57
REMARK SMILES IDX 74 58 53 59 73 60 54 61 57 62 72 63 92 64 55 65 56 66 71 68
REMARK SMILES IDX 93 69 58 70 41 71 42 72 51 73 43 74 44 75 50 76 52 77 45 78
REMARK SMILES IDX 46 79 47 80 48 81 49 82 75 83 76 84 85 85 77 86 78 87 84 88
REMARK SMILES IDX 86 89 79 90 80 91 81 92 82 93 83 94 59 95 60 96 69 97 61 98
REMARK SMILES IDX 62 99 68 100 70 101 63 102 64 103 65 104 66 105 67 106
REMARK H PARENT 19 11 19 12 9 22 12 24 91 56 57 67
REMARK Flexibility Score: inf
ROOT
ATOM      1  C   UNL A   1      38.665  20.022  24.975  1.00  0.00     0.202 C 
ENDROOT
BRANCH   1   2
ATOM      2  C   UNL A   1      37.179  19.665  24.982  1.00  0.00     0.261 C 
BRANCH   2   3
ATOM      3  O   UNL A   1      36.365  20.768  24.562  1.00  0.00    -0.459 OA
BRANCH   3   4
ATOM      4  C   UNL A   1      35.123  20.834  25.121  1.00  0.00     0.365 C 
ATOM      5  O   UNL A   1      34.125  20.293  24.657  1.00  0.00    -0.245 OA
BRANCH   4   6
ATOM      6  C   UNL A   1      35.151  21.532  26.496  1.00  0.00     0.295 C 
ATOM      7  C   UNL A   1      33.732  23.482  26.850  1.00  0.00     0.170 C 
ATOM      8  C   UNL A   1      35.063  23.852  26.193  1.00  0.00     0.289 C 
ATOM      9  C   UNL A   1      33.754  21.956  26.945  1.00  0.00     0.110 C 
ATOM     10  N   UNL A   1      35.983  22.755  26.504  1.00  0.00    -0.333 N 
ATOM     11  H   UNL A   1      36.406  22.893  27.422  1.00  0.00     0.347 HD
ATOM     12  H   UNL A   1      36.748  22.698  25.831  1.00  0.00     0.347 HD
BRANCH   7  13
ATOM     13  N   UNL A   1      32.599  23.970  26.100  1.00  0.00    -0.243 N 
ATOM     14  C   UNL A   1      31.210  24.477  24.527  1.00  0.00     0.102 A 
ATOM     15  C   UNL A   1      32.391  23.818  24.768  1.00  0.00     0.137 A 
ATOM     16  N   UNL A   1      30.706  24.935  25.714  1.00  0.00    -0.134 NA
ATOM     17  N   UNL A   1      31.569  24.612  26.679  1.00  0.00    -0.067 NA
BRANCH  14  18
ATOM     18  C   UNL A   1      30.587  24.600  23.198  1.00  0.00     0.178 C 
BRANCH  18  19
ATOM     19  N   UNL A   1      31.487  24.773  22.098  1.00  0.00    -0.332 N 
ATOM     20  N   UNL A   1      32.371  27.016  22.025  1.00  0.00    -0.308 N 
ATOM     21  C   UNL A   1      32.351  25.709  21.714  1.00  0.00     0.319 C 
ATOM     22  H   UNL A   1      33.144  27.460  21.606  1.00  0.00     0.171 HD
ATOM     23  O   UNL A   1      33.203  25.345  20.890  1.00  0.00    -0.248 OA
ATOM     24  H   UNL A   1      31.461  24.013  21.473  1.00  0.00     0.165 HD
BRANCH  20  25
ATOM     25  C   UNL A   1      31.614  27.943  22.770  1.00  0.00     0.047 A 
ATOM     26  C   UNL A   1      33.190  27.663  24.785  1.00  0.00     0.048 C 
ATOM     27  C   UNL A   1      32.064  28.352  24.050  1.00  0.00    -0.009 A 
ATOM     28  C   UNL A   1      31.382  29.408  24.703  1.00  0.00     0.046 A 
ATOM     29  Cl  UNL A   1      31.861  29.982  26.265  1.00  0.00    -0.084 Cl
ATOM     30  C   UNL A   1      30.271  30.020  24.125  1.00  0.00     0.021 A 
ATOM     31  C   UNL A   1      30.376  28.416  22.342  1.00  0.00     0.026 A 
ATOM     32  C   UNL A   1      29.739  29.492  22.962  1.00  0.00     0.004 A 
ENDBRANCH  20  25
ENDBRANCH  18  19
ENDBRANCH  14  18
ENDBRANCH   7  13
ENDBRANCH   4   6
ENDBRANCH   3   4
ENDBRANCH   2   3
ENDBRANCH   1   2
BRANCH   1  33
ATOM     33  O   UNL A   1      39.575  19.193  25.700  1.00  0.00    -0.374 OA
BRANCH  33  34
ATOM     34  C   UNL A   1      40.702  19.753  26.366  1.00  0.00     0.202 C 
BRANCH  34  35
ATOM     35  C   UNL A   1      41.111  21.193  26.075  1.00  0.00     0.261 C 
BRANCH  35  36
ATOM     36  O   UNL A   1      40.830  22.052  27.163  1.00  0.00    -0.460 OA
BRANCH  36  37
ATOM     37  C   UNL A   1      40.023  23.083  26.838  1.00  0.00     0.338 C 
ATOM     38  O   UNL A   1      38.833  23.026  26.548  1.00  0.00    -0.246 OA
BRANCH  37  39
ATOM     39  C   UNL A   1      40.825  24.306  26.754  1.00  0.00     0.060 A 
ATOM     40  C   UNL A   1      41.910  24.339  27.630  1.00  0.00     0.016 A 
ATOM     41  C   UNL A   1      40.226  25.465  26.240  1.00  0.00     0.016 A 
ATOM     42  C   UNL A   1      42.153  25.519  28.279  1.00  0.00     0.010 A 
ATOM     43  C   UNL A   1      40.453  26.637  26.907  1.00  0.00     0.010 A 
ATOM     44  C   UNL A   1      41.329  26.610  27.989  1.00  0.00    -0.014 A 
BRANCH  44  45
ATOM     45  C   UNL A   1      41.457  27.778  28.822  1.00  0.00     0.031 A 
ATOM     46  C   UNL A   1      42.571  28.637  28.387  1.00  0.00     0.074 A 
ATOM     47  C   UNL A   1      40.584  28.042  29.810  1.00  0.00     0.049 A 
ATOM     48  N   UNL A   1      43.696  28.822  28.989  1.00  0.00    -0.248 NA
ATOM     49  C   UNL A   1      42.534  29.146  27.006  1.00  0.00     0.031 C 
ATOM     50  C   UNL A   1      39.332  27.353  30.136  1.00  0.00     0.029 A 
ATOM     51  N   UNL A   1      40.594  29.084  30.677  1.00  0.00    -0.354 N 
ATOM     52  C   UNL A   1      44.413  29.675  28.160  1.00  0.00     0.074 A 
ATOM     53  C   UNL A   1      43.767  29.633  26.878  1.00  0.00     0.031 C 
ATOM     54  C   UNL A   1      38.601  28.136  30.964  1.00  0.00     0.029 A 
ATOM     55  C   UNL A   1      39.377  29.314  31.308  1.00  0.00     0.049 A 
ATOM     56  H   UNL A   1      41.396  29.631  30.847  1.00  0.00     0.167 HD
ATOM     57  C   UNL A   1      45.311  30.559  28.671  1.00  0.00     0.037 A 
ATOM     58  C   UNL A   1      39.039  30.466  31.944  1.00  0.00     0.037 A 
ATOM     59  C   UNL A   1      45.668  30.209  30.023  1.00  0.00     0.049 A 
ATOM     60  C   UNL A   1      40.320  31.159  32.280  1.00  0.00     0.074 A 
ATOM     61  C   UNL A   1      46.264  29.106  30.603  1.00  0.00     0.029 A 
ATOM     62  N   UNL A   1      45.044  30.888  31.044  1.00  0.00    -0.354 N 
ATOM     63  N   UNL A   1      41.187  30.687  33.139  1.00  0.00    -0.248 NA
ATOM     64  C   UNL A   1      40.872  32.086  31.299  1.00  0.00     0.031 C 
ATOM     65  C   UNL A   1      45.586  28.927  31.842  1.00  0.00     0.029 A 
ATOM     66  C   UNL A   1      44.663  29.964  31.985  1.00  0.00     0.049 A 
ATOM     67  H   UNL A   1      44.896  31.860  31.090  1.00  0.00     0.167 HD
ATOM     68  C   UNL A   1      42.432  30.914  32.563  1.00  0.00     0.074 A 
ATOM     69  C   UNL A   1      42.177  31.843  31.463  1.00  0.00     0.031 C 
ATOM     70  C   UNL A   1      43.499  30.104  32.834  1.00  0.00     0.037 A 
BRANCH  57  71
ATOM     71  C   UNL A   1      45.556  31.927  28.093  1.00  0.00     0.058 A 
ATOM     72  C   UNL A   1      46.858  32.265  27.676  1.00  0.00     0.135 A 
ATOM     73  C   UNL A   1      44.646  33.006  28.187  1.00  0.00     0.135 A 
ATOM     74  F   UNL A   1      47.802  31.318  27.547  1.00  0.00    -0.206 F 
ATOM     75  C   UNL A   1      47.249  33.584  27.456  1.00  0.00     0.059 A 
ATOM     76  C   UNL A   1      44.999  34.319  27.916  1.00  0.00     0.059 A 
ATOM     77  F   UNL A   1      43.398  32.864  28.647  1.00  0.00    -0.206 F 
ATOM     78  C   UNL A   1      46.314  34.606  27.600  1.00  0.00     0.060 A 
BRANCH  78  79
ATOM     79  S   UNL A   1      46.842  36.318  27.450  1.00  0.00     0.124 S 
ATOM     80  O   UNL A   1      48.052  36.178  26.651  1.00  0.00    -0.237 OA
ATOM     81  O   UNL A   1      45.697  36.927  26.782  1.00  0.00    -0.237 OA
ATOM     82  O   UNL A   1      47.044  36.729  28.836  1.00  0.00    -0.744 OA
ENDBRANCH  78  79
ENDBRANCH  57  71
BRANCH  58  83
ATOM     83  C   UNL A   1      37.717  31.151  31.913  1.00  0.00     0.058 A 
ATOM     84  C   UNL A   1      37.034  31.490  33.094  1.00  0.00     0.135 A 
ATOM     85  C   UNL A   1      37.206  31.721  30.726  1.00  0.00     0.135 A 
ATOM     86  F   UNL A   1      37.459  31.019  34.277  1.00  0.00    -0.206 F 
ATOM     87  C   UNL A   1      35.941  32.370  33.104  1.00  0.00     0.059 A 
ATOM     88  C   UNL A   1      36.114  32.584  30.708  1.00  0.00     0.059 A 
ATOM     89  F   UNL A   1      37.810  31.529  29.545  1.00  0.00    -0.206 F 
ATOM     90  C   UNL A   1      35.500  32.928  31.904  1.00  0.00     0.060 A 
BRANCH  90  91
ATOM     91  S   UNL A   1      34.211  34.196  31.917  1.00  0.00     0.124 S 
ATOM     92  O   UNL A   1      34.952  35.375  32.353  1.00  0.00    -0.237 OA
ATOM     93  O   UNL A   1      33.767  34.198  30.527  1.00  0.00    -0.237 OA
ATOM     94  O   UNL A   1      33.237  33.680  32.877  1.00  0.00    -0.744 OA
ENDBRANCH  90  91
ENDBRANCH  58  83
BRANCH  70  95
ATOM     95  C   UNL A   1      43.375  29.109  33.961  1.00  0.00     0.058 A 
ATOM     96  C   UNL A   1      43.614  29.414  35.312  1.00  0.00     0.135 A 
ATOM     97  C   UNL A   1      42.812  27.857  33.679  1.00  0.00     0.135 A 
ATOM     98  F   UNL A   1      44.047  30.629  35.678  1.00  0.00    -0.206 F 
ATOM     99  C   UNL A   1      43.343  28.501  36.334  1.00  0.00     0.059 A 
ATOM    100  C   UNL A   1      42.501  26.943  34.682  1.00  0.00     0.059 A 
ATOM    101  F   UNL A   1      42.493  27.532  32.414  1.00  0.00    -0.206 F 
ATOM    102  C   UNL A   1      42.782  27.267  36.008  1.00  0.00     0.060 A 
BRANCH 102 103
ATOM    103  S   UNL A   1      42.351  26.119  37.333  1.00  0.00     0.124 S 
ATOM    104  O   UNL A   1      40.930  26.390  37.521  1.00  0.00    -0.237 OA
ATOM    105  O   UNL A   1      42.676  24.821  36.748  1.00  0.00    -0.237 OA
ATOM    106  O   UNL A   1      43.217  26.529  38.436  1.00  0.00    -0.744 OA
ENDBRANCH 102 103
ENDBRANCH  70  95
ENDBRANCH  44  45
ENDBRANCH  37  39
ENDBRANCH  36  37
ENDBRANCH  35  36
ENDBRANCH  34  35
ENDBRANCH  33  34
ENDBRANCH   1  33
TORSDOF 21
ENDMDL
