MODEL 1
REMARK VINA RESULT:     -11.3      0.000      0.000
REMARK SMILES CC[C@H](C(=O)OCCOCCOC(=O)c1ccc(-c2c3nc(c(-c4c(F)cc(S(=O)(=O)[O-])cc4F)c4ccc([nH]4)c(-c4c(F)cc(S(=O)(=O)[O-])cc4F)c4nc(c(-c5c(F)cc(S(=O)(=O)[O-])cc5F)c5ccc2[nH]5)C=C4)C=C3)cc1)N1C(=O)c2ccc([N+](=O)[O-])cc2C1=O
REMARK SMILES IDX 10 1 9 2 8 3 7 4 6 5 4 6 5 7 3 8 2 9 1 10 81 11 82 12 93 13
REMARK SMILES IDX 83 14 84 15 92 16 94 17 85 18 91 19 86 20 87 21 88 22 89 23
REMARK SMILES IDX 90 24 11 25 12 26 13 27 14 28 15 29 16 30 80 31 17 32 79 33
REMARK SMILES IDX 18 34 19 35 20 36 73 37 21 38 78 39 72 40 74 41 22 42 77 43
REMARK SMILES IDX 71 44 70 45 23 47 57 48 36 49 56 50 37 51 40 52 55 53 75 54
REMARK SMILES IDX 38 55 39 56 54 58 76 59 41 60 24 61 25 62 34 63 26 64 27 65
REMARK SMILES IDX 33 66 35 67 28 68 29 69 30 70 31 71 32 72 58 73 59 74 68 75
REMARK SMILES IDX 60 76 61 77 67 78 69 79 62 80 63 81 64 82 65 83 66 84 42 85
REMARK SMILES IDX 43 86 52 87 44 88 45 89 51 90 53 91 46 92 47 93 48 94 49 95
REMARK SMILES IDX 50 96
REMARK H PARENT 74 46 40 57
REMARK Flexibility Score: inf
ROOT
ATOM      1  C   UNL A   1      38.963  21.830  25.767  1.00  0.00     0.202 C 
ENDROOT
BRANCH   1   2
ATOM      2  O   UNL A   1      37.554  21.643  25.847  1.00  0.00    -0.374 OA
BRANCH   2   3
ATOM      3  C   UNL A   1      36.764  22.804  25.567  1.00  0.00     0.202 C 
BRANCH   3   4
ATOM      4  C   UNL A   1      36.611  23.121  24.069  1.00  0.00     0.261 C 
BRANCH   4   5
ATOM      5  O   UNL A   1      35.434  22.497  23.511  1.00  0.00    -0.462 OA
BRANCH   5   6
ATOM      6  C   UNL A   1      34.273  23.189  23.376  1.00  0.00     0.329 C 
ATOM      7  O   UNL A   1      34.023  23.921  22.425  1.00  0.00    -0.250 OA
BRANCH   6   8
ATOM      8  C   UNL A   1      33.232  22.806  24.472  1.00  0.00     0.203 C 
BRANCH   8   9
ATOM      9  C   UNL A   1      31.923  23.601  24.390  1.00  0.00     0.034 C 
ATOM     10  C   UNL A   1      31.166  23.681  25.706  1.00  0.00     0.007 C 
ENDBRANCH   8   9
BRANCH   8  11
ATOM     11  N   UNL A   1      32.940  21.374  24.440  1.00  0.00    -0.260 N 
ATOM     12  C   UNL A   1      32.423  20.716  23.362  1.00  0.00     0.262 C 
ATOM     13  C   UNL A   1      33.113  20.529  25.501  1.00  0.00     0.262 C 
ATOM     14  O   UNL A   1      31.894  21.146  22.355  1.00  0.00    -0.269 OA
ATOM     15  C   UNL A   1      32.619  19.308  23.637  1.00  0.00     0.053 A 
ATOM     16  C   UNL A   1      32.892  19.177  24.986  1.00  0.00     0.060 A 
ATOM     17  O   UNL A   1      33.436  20.788  26.642  1.00  0.00    -0.269 OA
ATOM     18  C   UNL A   1      32.711  18.254  22.758  1.00  0.00     0.022 A 
ATOM     19  C   UNL A   1      33.076  17.950  25.577  1.00  0.00     0.100 A 
ATOM     20  C   UNL A   1      32.963  17.000  23.306  1.00  0.00     0.086 A 
ATOM     21  C   UNL A   1      33.082  16.857  24.705  1.00  0.00     0.270 A 
BRANCH  21  22
ATOM     22  N   UNL A   1      33.297  15.531  25.242  1.00  0.00     0.062 N 
ATOM     23  O   UNL A   1      32.283  14.907  25.562  1.00  0.00    -0.258 OA
ATOM     24  O   UNL A   1      34.470  15.146  25.320  1.00  0.00    -0.258 OA
ENDBRANCH  21  22
ENDBRANCH   8  11
ENDBRANCH   6   8
ENDBRANCH   5   6
ENDBRANCH   4   5
ENDBRANCH   3   4
ENDBRANCH   2   3
ENDBRANCH   1   2
BRANCH   1  25
ATOM     25  C   UNL A   1      39.589  22.659  26.894  1.00  0.00     0.261 C 
BRANCH  25  26
ATOM     26  O   UNL A   1      39.547  24.071  26.608  1.00  0.00    -0.460 OA
BRANCH  26  27
ATOM     27  C   UNL A   1      40.753  24.689  26.620  1.00  0.00     0.338 C 
ATOM     28  O   UNL A   1      41.617  24.610  25.762  1.00  0.00    -0.246 OA
BRANCH  27  29
ATOM     29  C   UNL A   1      40.856  25.626  27.760  1.00  0.00     0.060 A 
ATOM     30  C   UNL A   1      39.736  25.742  28.593  1.00  0.00     0.016 A 
ATOM     31  C   UNL A   1      41.979  26.427  27.983  1.00  0.00     0.016 A 
ATOM     32  C   UNL A   1      39.719  26.681  29.626  1.00  0.00     0.010 A 
ATOM     33  C   UNL A   1      41.959  27.369  29.024  1.00  0.00     0.010 A 
ATOM     34  C   UNL A   1      40.821  27.520  29.839  1.00  0.00    -0.014 A 
BRANCH  34  35
ATOM     35  C   UNL A   1      40.755  28.601  30.863  1.00  0.00     0.031 A 
ATOM     36  C   UNL A   1      41.650  28.546  32.066  1.00  0.00     0.074 A 
ATOM     37  C   UNL A   1      39.927  29.654  30.717  1.00  0.00     0.049 A 
ATOM     38  N   UNL A   1      41.697  29.354  33.092  1.00  0.00    -0.248 NA
ATOM     39  C   UNL A   1      42.634  27.454  32.110  1.00  0.00     0.031 C 
ATOM     40  C   UNL A   1      39.099  29.898  29.545  1.00  0.00     0.029 A 
ATOM     41  N   UNL A   1      39.641  30.712  31.545  1.00  0.00    -0.354 N 
ATOM     42  C   UNL A   1      42.715  28.877  33.905  1.00  0.00     0.074 A 
ATOM     43  C   UNL A   1      43.238  27.685  33.268  1.00  0.00     0.031 C 
ATOM     44  C   UNL A   1      38.367  31.007  29.741  1.00  0.00     0.029 A 
ATOM     45  C   UNL A   1      38.640  31.528  31.070  1.00  0.00     0.049 A 
ATOM     46  H   UNL A   1      40.108  30.872  32.397  1.00  0.00     0.167 HD
ATOM     47  C   UNL A   1      43.177  29.396  35.067  1.00  0.00     0.037 A 
ATOM     48  C   UNL A   1      37.992  32.563  31.638  1.00  0.00     0.037 A 
ATOM     49  C   UNL A   1      42.654  30.584  35.693  1.00  0.00     0.049 A 
ATOM     50  C   UNL A   1      38.425  33.034  32.992  1.00  0.00     0.074 A 
ATOM     51  C   UNL A   1      43.086  31.203  36.853  1.00  0.00     0.029 A 
ATOM     52  N   UNL A   1      41.574  31.323  35.229  1.00  0.00    -0.354 N 
ATOM     53  N   UNL A   1      39.398  32.577  33.741  1.00  0.00    -0.248 NA
ATOM     54  C   UNL A   1      37.693  34.169  33.568  1.00  0.00     0.031 C 
ATOM     55  C   UNL A   1      42.227  32.272  37.128  1.00  0.00     0.029 A 
ATOM     56  C   UNL A   1      41.297  32.360  36.106  1.00  0.00     0.049 A 
ATOM     57  H   UNL A   1      41.080  31.138  34.398  1.00  0.00     0.167 HD
ATOM     58  C   UNL A   1      39.408  33.381  34.872  1.00  0.00     0.074 A 
ATOM     59  C   UNL A   1      38.352  34.359  34.703  1.00  0.00     0.031 C 
ATOM     60  C   UNL A   1      40.227  33.314  35.948  1.00  0.00     0.037 A 
BRANCH  47  61
ATOM     61  C   UNL A   1      44.290  28.664  35.763  1.00  0.00     0.058 A 
ATOM     62  C   UNL A   1      44.044  27.630  36.679  1.00  0.00     0.135 A 
ATOM     63  C   UNL A   1      45.629  28.968  35.461  1.00  0.00     0.135 A 
ATOM     64  F   UNL A   1      42.784  27.310  37.016  1.00  0.00    -0.206 F 
ATOM     65  C   UNL A   1      45.085  26.934  37.285  1.00  0.00     0.059 A 
ATOM     66  C   UNL A   1      46.684  28.266  36.033  1.00  0.00     0.059 A 
ATOM     67  F   UNL A   1      45.919  29.951  34.594  1.00  0.00    -0.206 F 
ATOM     68  C   UNL A   1      46.403  27.257  36.952  1.00  0.00     0.060 A 
BRANCH  68  69
ATOM     69  S   UNL A   1      47.740  26.332  37.734  1.00  0.00     0.124 S 
ATOM     70  O   UNL A   1      47.269  24.958  37.587  1.00  0.00    -0.237 OA
ATOM     71  O   UNL A   1      48.890  26.698  36.914  1.00  0.00    -0.237 OA
ATOM     72  O   UNL A   1      47.757  26.845  39.099  1.00  0.00    -0.744 OA
ENDBRANCH  68  69
ENDBRANCH  47  61
BRANCH  48  73
ATOM     73  C   UNL A   1      36.836  33.208  30.961  1.00  0.00     0.058 A 
ATOM     74  C   UNL A   1      35.519  32.940  31.356  1.00  0.00     0.135 A 
ATOM     75  C   UNL A   1      37.030  34.066  29.867  1.00  0.00     0.135 A 
ATOM     76  F   UNL A   1      35.284  32.110  32.384  1.00  0.00    -0.206 F 
ATOM     77  C   UNL A   1      34.432  33.500  30.691  1.00  0.00     0.059 A 
ATOM     78  C   UNL A   1      35.958  34.630  29.179  1.00  0.00     0.059 A 
ATOM     79  F   UNL A   1      38.274  34.371  29.467  1.00  0.00    -0.206 F 
ATOM     80  C   UNL A   1      34.661  34.346  29.603  1.00  0.00     0.060 A 
BRANCH  80  81
ATOM     81  S   UNL A   1      33.234  35.102  28.787  1.00  0.00     0.124 S 
ATOM     82  O   UNL A   1      33.865  36.187  28.043  1.00  0.00    -0.237 OA
ATOM     83  O   UNL A   1      32.723  33.994  27.983  1.00  0.00    -0.237 OA
ATOM     84  O   UNL A   1      32.380  35.518  29.894  1.00  0.00    -0.744 OA
ENDBRANCH  80  81
ENDBRANCH  48  73
BRANCH  60  85
ATOM     85  C   UNL A   1      40.014  34.329  37.034  1.00  0.00     0.058 A 
ATOM     86  C   UNL A   1      40.547  35.624  36.940  1.00  0.00     0.135 A 
ATOM     87  C   UNL A   1      39.237  34.016  38.160  1.00  0.00     0.135 A 
ATOM     88  F   UNL A   1      41.313  35.966  35.893  1.00  0.00    -0.206 F 
ATOM     89  C   UNL A   1      40.327  36.571  37.934  1.00  0.00     0.059 A 
ATOM     90  C   UNL A   1      38.978  34.958  39.151  1.00  0.00     0.059 A 
ATOM     91  F   UNL A   1      38.706  32.791  38.298  1.00  0.00    -0.206 F 
ATOM     92  C   UNL A   1      39.533  36.231  39.032  1.00  0.00     0.060 A 
BRANCH  92  93
ATOM     93  S   UNL A   1      39.212  37.490  40.283  1.00  0.00     0.124 S 
ATOM     94  O   UNL A   1      38.631  36.694  41.360  1.00  0.00    -0.237 OA
ATOM     95  O   UNL A   1      40.546  38.023  40.536  1.00  0.00    -0.237 OA
ATOM     96  O   UNL A   1      38.292  38.406  39.615  1.00  0.00    -0.744 OA
ENDBRANCH  92  93
ENDBRANCH  60  85
ENDBRANCH  34  35
ENDBRANCH  27  29
ENDBRANCH  26  27
ENDBRANCH  25  26
ENDBRANCH   1  25
TORSDOF 20
ENDMDL
MODEL 2
REMARK VINA RESULT:     -11.0      6.194     10.717
REMARK SMILES CC[C@H](C(=O)OCCOCCOC(=O)c1ccc(-c2c3nc(c(-c4c(F)cc(S(=O)(=O)[O-])cc4F)c4ccc([nH]4)c(-c4c(F)cc(S(=O)(=O)[O-])cc4F)c4nc(c(-c5c(F)cc(S(=O)(=O)[O-])cc5F)c5ccc2[nH]5)C=C4)C=C3)cc1)N1C(=O)c2ccc([N+](=O)[O-])cc2C1=O
REMARK SMILES IDX 10 1 9 2 8 3 7 4 6 5 4 6 5 7 3 8 2 9 1 10 81 11 82 12 93 13
REMARK SMILES IDX 83 14 84 15 92 16 94 17 85 18 91 19 86 20 87 21 88 22 89 23
REMARK SMILES IDX 90 24 11 25 12 26 13 27 14 28 15 29 16 30 80 31 17 32 79 33
REMARK SMILES IDX 18 34 19 35 20 36 73 37 21 38 78 39 72 40 74 41 22 42 77 43
REMARK SMILES IDX 71 44 70 45 23 47 57 48 36 49 56 50 37 51 40 52 55 53 75 54
REMARK SMILES IDX 38 55 39 56 54 58 76 59 41 60 24 61 25 62 34 63 26 64 27 65
REMARK SMILES IDX 33 66 35 67 28 68 29 69 30 70 31 71 32 72 58 73 59 74 68 75
REMARK SMILES IDX 60 76 61 77 67 78 69 79 62 80 63 81 64 82 65 83 66 84 42 85
REMARK SMILES IDX 43 86 52 87 44 88 45 89 51 90 53 91 46 92 47 93 48 94 49 95
REMARK SMILES IDX 50 96
REMARK H PARENT 74 46 40 57
REMARK Flexibility Score: inf
ROOT
ATOM      1  C   UNL A   1      39.202  21.712  26.127  1.00  0.00     0.202 C 
ENDROOT
BRANCH   1   2
ATOM      2  O   UNL A   1      37.890  22.173  25.822  1.00  0.00    -0.374 OA
BRANCH   2   3
ATOM      3  C   UNL A   1      37.180  21.401  24.848  1.00  0.00     0.202 C 
BRANCH   3   4
ATOM      4  C   UNL A   1      36.453  22.238  23.782  1.00  0.00     0.261 C 
BRANCH   4   5
ATOM      5  O   UNL A   1      35.783  23.377  24.365  1.00  0.00    -0.462 OA
BRANCH   5   6
ATOM      6  C   UNL A   1      34.542  23.745  23.953  1.00  0.00     0.329 C 
ATOM      7  O   UNL A   1      34.302  24.206  22.842  1.00  0.00    -0.250 OA
BRANCH   6   8
ATOM      8  C   UNL A   1      33.441  23.348  24.982  1.00  0.00     0.203 C 
BRANCH   8   9
ATOM      9  C   UNL A   1      32.201  24.252  24.946  1.00  0.00     0.034 C 
ATOM     10  C   UNL A   1      31.292  24.103  26.155  1.00  0.00     0.007 C 
ENDBRANCH   8   9
BRANCH   8  11
ATOM     11  N   UNL A   1      33.037  21.954  24.809  1.00  0.00    -0.260 N 
ATOM     12  C   UNL A   1      32.389  21.470  23.710  1.00  0.00     0.262 C 
ATOM     13  C   UNL A   1      33.227  20.975  25.744  1.00  0.00     0.262 C 
ATOM     14  O   UNL A   1      31.817  22.055  22.810  1.00  0.00    -0.269 OA
ATOM     15  C   UNL A   1      32.497  20.029  23.801  1.00  0.00     0.053 A 
ATOM     16  C   UNL A   1      32.863  19.715  25.097  1.00  0.00     0.060 A 
ATOM     17  O   UNL A   1      33.657  21.071  26.876  1.00  0.00    -0.269 OA
ATOM     18  C   UNL A   1      32.439  19.087  22.800  1.00  0.00     0.022 A 
ATOM     19  C   UNL A   1      32.997  18.415  25.522  1.00  0.00     0.100 A 
ATOM     20  C   UNL A   1      32.636  17.762  23.173  1.00  0.00     0.086 A 
ATOM     21  C   UNL A   1      32.851  17.440  24.530  1.00  0.00     0.270 A 
BRANCH  21  22
ATOM     22  N   UNL A   1      33.005  16.046  24.888  1.00  0.00     0.062 N 
ATOM     23  O   UNL A   1      34.024  15.491  24.470  1.00  0.00    -0.258 OA
ATOM     24  O   UNL A   1      32.112  15.549  25.585  1.00  0.00    -0.258 OA
ENDBRANCH  21  22
ENDBRANCH   8  11
ENDBRANCH   6   8
ENDBRANCH   5   6
ENDBRANCH   4   5
ENDBRANCH   3   4
ENDBRANCH   2   3
ENDBRANCH   1   2
BRANCH   1  25
ATOM     25  C   UNL A   1      39.528  20.285  25.676  1.00  0.00     0.261 C 
BRANCH  25  26
ATOM     26  O   UNL A   1      40.381  19.607  26.619  1.00  0.00    -0.460 OA
BRANCH  26  27
ATOM     27  C   UNL A   1      41.674  19.488  26.232  1.00  0.00     0.338 C 
ATOM     28  O   UNL A   1      42.173  18.538  25.650  1.00  0.00    -0.246 OA
BRANCH  27  29
ATOM     29  C   UNL A   1      42.416  20.745  26.469  1.00  0.00     0.060 A 
ATOM     30  C   UNL A   1      42.469  21.215  27.787  1.00  0.00     0.016 A 
ATOM     31  C   UNL A   1      42.988  21.493  25.436  1.00  0.00     0.016 A 
ATOM     32  C   UNL A   1      43.059  22.448  28.074  1.00  0.00     0.010 A 
ATOM     33  C   UNL A   1      43.583  22.731  25.728  1.00  0.00     0.010 A 
ATOM     34  C   UNL A   1      43.604  23.229  27.045  1.00  0.00    -0.014 A 
BRANCH  34  35
ATOM     35  C   UNL A   1      44.124  24.595  27.335  1.00  0.00     0.031 A 
ATOM     36  C   UNL A   1      43.172  25.692  27.713  1.00  0.00     0.074 A 
ATOM     37  C   UNL A   1      45.443  24.864  27.298  1.00  0.00     0.049 A 
ATOM     38  N   UNL A   1      43.423  26.955  27.941  1.00  0.00    -0.248 NA
ATOM     39  C   UNL A   1      41.760  25.316  27.878  1.00  0.00     0.031 C 
ATOM     40  C   UNL A   1      46.484  23.872  27.071  1.00  0.00     0.029 A 
ATOM     41  N   UNL A   1      46.140  26.039  27.451  1.00  0.00    -0.354 N 
ATOM     42  C   UNL A   1      42.206  27.528  28.281  1.00  0.00     0.074 A 
ATOM     43  C   UNL A   1      41.209  26.480  28.196  1.00  0.00     0.031 C 
ATOM     44  C   UNL A   1      47.681  24.478  27.055  1.00  0.00     0.029 A 
ATOM     45  C   UNL A   1      47.492  25.909  27.227  1.00  0.00     0.049 A 
ATOM     46  H   UNL A   1      45.713  26.891  27.697  1.00  0.00     0.167 HD
ATOM     47  C   UNL A   1      41.950  28.807  28.644  1.00  0.00     0.037 A 
ATOM     48  C   UNL A   1      48.472  26.830  27.144  1.00  0.00     0.037 A 
ATOM     49  C   UNL A   1      42.948  29.843  28.731  1.00  0.00     0.049 A 
ATOM     50  C   UNL A   1      48.139  28.266  27.410  1.00  0.00     0.074 A 
ATOM     51  C   UNL A   1      42.785  31.160  29.126  1.00  0.00     0.029 A 
ATOM     52  N   UNL A   1      44.288  29.692  28.400  1.00  0.00    -0.354 N 
ATOM     53  N   UNL A   1      46.984  28.788  27.741  1.00  0.00    -0.248 NA
ATOM     54  C   UNL A   1      49.241  29.233  27.313  1.00  0.00     0.031 C 
ATOM     55  C   UNL A   1      44.007  31.821  28.967  1.00  0.00     0.029 A 
ATOM     56  C   UNL A   1      44.949  30.904  28.534  1.00  0.00     0.049 A 
ATOM     57  H   UNL A   1      44.706  28.848  28.113  1.00  0.00     0.167 HD
ATOM     58  C   UNL A   1      47.223  30.145  27.910  1.00  0.00     0.074 A 
ATOM     59  C   UNL A   1      48.633  30.360  27.657  1.00  0.00     0.031 C 
ATOM     60  C   UNL A   1      46.347  31.119  28.253  1.00  0.00     0.037 A 
BRANCH  47  61
ATOM     61  C   UNL A   1      40.525  29.174  28.947  1.00  0.00     0.058 A 
ATOM     62  C   UNL A   1      40.053  29.308  30.263  1.00  0.00     0.135 A 
ATOM     63  C   UNL A   1      39.631  29.453  27.899  1.00  0.00     0.135 A 
ATOM     64  F   UNL A   1      40.860  29.037  31.301  1.00  0.00    -0.206 F 
ATOM     65  C   UNL A   1      38.742  29.688  30.529  1.00  0.00     0.059 A 
ATOM     66  C   UNL A   1      38.325  29.862  28.142  1.00  0.00     0.059 A 
ATOM     67  F   UNL A   1      40.031  29.337  26.622  1.00  0.00    -0.206 F 
ATOM     68  C   UNL A   1      37.886  29.968  29.461  1.00  0.00     0.060 A 
BRANCH  68  69
ATOM     69  S   UNL A   1      36.194  30.477  29.824  1.00  0.00     0.124 S 
ATOM     70  O   UNL A   1      35.954  29.805  31.097  1.00  0.00    -0.237 OA
ATOM     71  O   UNL A   1      36.315  31.930  29.888  1.00  0.00    -0.237 OA
ATOM     72  O   UNL A   1      35.432  29.963  28.691  1.00  0.00    -0.744 OA
ENDBRANCH  68  69
ENDBRANCH  47  61
BRANCH  48  73
ATOM     73  C   UNL A   1      49.853  26.446  26.753  1.00  0.00     0.058 A 
ATOM     74  C   UNL A   1      50.837  26.188  27.716  1.00  0.00     0.135 A 
ATOM     75  C   UNL A   1      50.226  26.382  25.401  1.00  0.00     0.135 A 
ATOM     76  F   UNL A   1      50.532  26.257  29.020  1.00  0.00    -0.206 F 
ATOM     77  C   UNL A   1      52.145  25.880  27.354  1.00  0.00     0.059 A 
ATOM     78  C   UNL A   1      51.531  26.087  25.014  1.00  0.00     0.059 A 
ATOM     79  F   UNL A   1      49.312  26.599  24.443  1.00  0.00    -0.206 F 
ATOM     80  C   UNL A   1      52.484  25.830  25.999  1.00  0.00     0.060 A 
BRANCH  80  81
ATOM     81  S   UNL A   1      54.178  25.377  25.553  1.00  0.00     0.124 S 
ATOM     82  O   UNL A   1      53.951  24.241  24.666  1.00  0.00    -0.237 OA
ATOM     83  O   UNL A   1      54.658  26.599  24.910  1.00  0.00    -0.237 OA
ATOM     84  O   UNL A   1      54.802  25.057  26.831  1.00  0.00    -0.744 OA
ENDBRANCH  80  81
ENDBRANCH  48  73
BRANCH  60  85
ATOM     85  C   UNL A   1      46.889  32.514  28.375  1.00  0.00     0.058 A 
ATOM     86  C   UNL A   1      47.520  32.955  29.548  1.00  0.00     0.135 A 
ATOM     87  C   UNL A   1      46.812  33.406  27.294  1.00  0.00     0.135 A 
ATOM     88  F   UNL A   1      47.603  32.147  30.616  1.00  0.00    -0.206 F 
ATOM     89  C   UNL A   1      48.046  34.238  29.650  1.00  0.00     0.059 A 
ATOM     90  C   UNL A   1      47.358  34.684  27.363  1.00  0.00     0.059 A 
ATOM     91  F   UNL A   1      46.216  33.034  26.149  1.00  0.00    -0.206 F 
ATOM     92  C   UNL A   1      47.967  35.093  28.548  1.00  0.00     0.060 A 
BRANCH  92  93
ATOM     93  S   UNL A   1      48.703  36.734  28.679  1.00  0.00     0.124 S 
ATOM     94  O   UNL A   1      49.111  36.765  30.080  1.00  0.00    -0.237 OA
ATOM     95  O   UNL A   1      49.785  36.667  27.703  1.00  0.00    -0.237 OA
ATOM     96  O   UNL A   1      47.603  37.629  28.327  1.00  0.00    -0.744 OA
ENDBRANCH  92  93
ENDBRANCH  60  85
ENDBRANCH  34  35
ENDBRANCH  27  29
ENDBRANCH  26  27
ENDBRANCH  25  26
ENDBRANCH   1  25
TORSDOF 20
ENDMDL
MODEL 3
REMARK VINA RESULT:     -11.0      0.581      8.093
REMARK SMILES CC[C@H](C(=O)OCCOCCOC(=O)c1ccc(-c2c3nc(c(-c4c(F)cc(S(=O)(=O)[O-])cc4F)c4ccc([nH]4)c(-c4c(F)cc(S(=O)(=O)[O-])cc4F)c4nc(c(-c5c(F)cc(S(=O)(=O)[O-])cc5F)c5ccc2[nH]5)C=C4)C=C3)cc1)N1C(=O)c2ccc([N+](=O)[O-])cc2C1=O
REMARK SMILES IDX 10 1 9 2 8 3 7 4 6 5 4 6 5 7 3 8 2 9 1 10 81 11 82 12 93 13
REMARK SMILES IDX 83 14 84 15 92 16 94 17 85 18 91 19 86 20 87 21 88 22 89 23
REMARK SMILES IDX 90 24 11 25 12 26 13 27 14 28 15 29 16 30 80 31 17 32 79 33
REMARK SMILES IDX 18 34 19 35 20 36 73 37 21 38 78 39 72 40 74 41 22 42 77 43
REMARK SMILES IDX 71 44 70 45 23 47 57 48 36 49 56 50 37 51 40 52 55 53 75 54
REMARK SMILES IDX 38 55 39 56 54 58 76 59 41 60 24 61 25 62 34 63 26 64 27 65
REMARK SMILES IDX 33 66 35 67 28 68 29 69 30 70 31 71 32 72 58 73 59 74 68 75
REMARK SMILES IDX 60 76 61 77 67 78 69 79 62 80 63 81 64 82 65 83 66 84 42 85
REMARK SMILES IDX 43 86 52 87 44 88 45 89 51 90 53 91 46 92 47 93 48 94 49 95
REMARK SMILES IDX 50 96
REMARK H PARENT 74 46 40 57
REMARK Flexibility Score: inf
ROOT
ATOM      1  C   UNL A   1      39.248  22.227  25.920  1.00  0.00     0.202 C 
ENDROOT
BRANCH   1   2
ATOM      2  O   UNL A   1      38.001  22.160  25.238  1.00  0.00    -0.374 OA
BRANCH   2   3
ATOM      3  C   UNL A   1      36.846  22.418  26.044  1.00  0.00     0.202 C 
BRANCH   3   4
ATOM      4  C   UNL A   1      35.806  23.341  25.386  1.00  0.00     0.261 C 
BRANCH   4   5
ATOM      5  O   UNL A   1      35.602  23.006  23.996  1.00  0.00    -0.462 OA
BRANCH   5   6
ATOM      6  C   UNL A   1      34.379  23.135  23.419  1.00  0.00     0.329 C 
ATOM      7  O   UNL A   1      34.209  23.364  22.227  1.00  0.00    -0.250 OA
BRANCH   6   8
ATOM      8  C   UNL A   1      33.225  22.780  24.406  1.00  0.00     0.203 C 
BRANCH   8   9
ATOM      9  C   UNL A   1      31.926  23.554  24.147  1.00  0.00     0.034 C 
ATOM     10  C   UNL A   1      30.923  23.476  25.287  1.00  0.00     0.007 C 
ENDBRANCH   8   9
BRANCH   8  11
ATOM     11  N   UNL A   1      32.951  21.344  24.398  1.00  0.00    -0.260 N 
ATOM     12  C   UNL A   1      32.427  20.664  23.338  1.00  0.00     0.262 C 
ATOM     13  C   UNL A   1      33.151  20.516  25.468  1.00  0.00     0.262 C 
ATOM     14  O   UNL A   1      31.877  21.072  22.332  1.00  0.00    -0.269 OA
ATOM     15  C   UNL A   1      32.646  19.263  23.630  1.00  0.00     0.053 A 
ATOM     16  C   UNL A   1      32.940  19.155  24.977  1.00  0.00     0.060 A 
ATOM     17  O   UNL A   1      33.487  20.797  26.601  1.00  0.00    -0.269 OA
ATOM     18  C   UNL A   1      32.739  18.198  22.765  1.00  0.00     0.022 A 
ATOM     19  C   UNL A   1      33.149  17.939  25.582  1.00  0.00     0.100 A 
ATOM     20  C   UNL A   1      33.015  16.955  23.326  1.00  0.00     0.086 A 
ATOM     21  C   UNL A   1      33.156  16.834  24.725  1.00  0.00     0.270 A 
BRANCH  21  22
ATOM     22  N   UNL A   1      33.397  15.518  25.278  1.00  0.00     0.062 N 
ATOM     23  O   UNL A   1      32.397  14.892  25.635  1.00  0.00    -0.258 OA
ATOM     24  O   UNL A   1      34.575  15.144  25.331  1.00  0.00    -0.258 OA
ENDBRANCH  21  22
ENDBRANCH   8  11
ENDBRANCH   6   8
ENDBRANCH   5   6
ENDBRANCH   4   5
ENDBRANCH   3   4
ENDBRANCH   2   3
ENDBRANCH   1   2
BRANCH   1  25
ATOM     25  C   UNL A   1      39.404  23.384  26.913  1.00  0.00     0.261 C 
BRANCH  25  26
ATOM     26  O   UNL A   1      39.311  24.665  26.261  1.00  0.00    -0.460 OA
BRANCH  26  27
ATOM     27  C   UNL A   1      40.455  25.393  26.272  1.00  0.00     0.338 C 
ATOM     28  O   UNL A   1      41.255  25.501  25.357  1.00  0.00    -0.246 OA
BRANCH  27  29
ATOM     29  C   UNL A   1      40.560  26.194  27.511  1.00  0.00     0.060 A 
ATOM     30  C   UNL A   1      39.576  25.991  28.487  1.00  0.00     0.016 A 
ATOM     31  C   UNL A   1      41.542  27.170  27.701  1.00  0.00     0.016 A 
ATOM     32  C   UNL A   1      39.548  26.783  29.636  1.00  0.00     0.010 A 
ATOM     33  C   UNL A   1      41.512  27.963  28.859  1.00  0.00     0.010 A 
ATOM     34  C   UNL A   1      40.502  27.793  29.825  1.00  0.00    -0.014 A 
BRANCH  34  35
ATOM     35  C   UNL A   1      40.399  28.714  30.991  1.00  0.00     0.031 A 
ATOM     36  C   UNL A   1      39.413  29.846  30.963  1.00  0.00     0.074 A 
ATOM     37  C   UNL A   1      41.153  28.537  32.093  1.00  0.00     0.049 A 
ATOM     38  N   UNL A   1      39.217  30.787  31.849  1.00  0.00    -0.248 NA
ATOM     39  C   UNL A   1      38.515  29.914  29.800  1.00  0.00     0.031 C 
ATOM     40  C   UNL A   1      42.055  27.415  32.306  1.00  0.00     0.029 A 
ATOM     41  N   UNL A   1      41.285  29.285  33.239  1.00  0.00    -0.354 N 
ATOM     42  C   UNL A   1      38.174  31.559  31.359  1.00  0.00     0.074 A 
ATOM     43  C   UNL A   1      37.799  30.995  30.077  1.00  0.00     0.031 C 
ATOM     44  C   UNL A   1      42.680  27.564  33.484  1.00  0.00     0.029 A 
ATOM     45  C   UNL A   1      42.258  28.815  34.092  1.00  0.00     0.049 A 
ATOM     46  H   UNL A   1      40.737  30.080  33.430  1.00  0.00     0.167 HD
ATOM     47  C   UNL A   1      37.577  32.630  31.933  1.00  0.00     0.037 A 
ATOM     48  C   UNL A   1      42.774  29.334  35.223  1.00  0.00     0.037 A 
ATOM     49  C   UNL A   1      37.953  33.183  33.210  1.00  0.00     0.049 A 
ATOM     50  C   UNL A   1      42.193  30.602  35.768  1.00  0.00     0.074 A 
ATOM     51  C   UNL A   1      37.379  34.245  33.888  1.00  0.00     0.029 A 
ATOM     52  N   UNL A   1      39.008  32.737  33.995  1.00  0.00    -0.354 N 
ATOM     53  N   UNL A   1      41.199  31.313  35.296  1.00  0.00    -0.248 NA
ATOM     54  C   UNL A   1      42.785  31.127  37.006  1.00  0.00     0.031 C 
ATOM     55  C   UNL A   1      38.127  34.486  35.044  1.00  0.00     0.029 A 
ATOM     56  C   UNL A   1      39.131  33.535  35.122  1.00  0.00     0.049 A 
ATOM     57  H   UNL A   1      39.584  31.967  33.782  1.00  0.00     0.167 HD
ATOM     58  C   UNL A   1      41.033  32.361  36.190  1.00  0.00     0.074 A 
ATOM     59  C   UNL A   1      42.021  32.186  37.235  1.00  0.00     0.031 C 
ATOM     60  C   UNL A   1      40.133  33.373  36.146  1.00  0.00     0.037 A 
BRANCH  47  61
ATOM     61  C   UNL A   1      36.469  33.302  31.173  1.00  0.00     0.058 A 
ATOM     62  C   UNL A   1      35.125  33.193  31.561  1.00  0.00     0.135 A 
ATOM     63  C   UNL A   1      36.768  34.118  30.068  1.00  0.00     0.135 A 
ATOM     64  F   UNL A   1      34.783  32.412  32.599  1.00  0.00    -0.206 F 
ATOM     65  C   UNL A   1      34.114  33.853  30.872  1.00  0.00     0.059 A 
ATOM     66  C   UNL A   1      35.776  34.811  29.383  1.00  0.00     0.059 A 
ATOM     67  F   UNL A   1      38.038  34.255  29.653  1.00  0.00    -0.206 F 
ATOM     68  C   UNL A   1      34.450  34.665  29.786  1.00  0.00     0.060 A 
BRANCH  68  69
ATOM     69  S   UNL A   1      33.128  35.529  28.914  1.00  0.00     0.124 S 
ATOM     70  O   UNL A   1      33.880  36.520  28.151  1.00  0.00    -0.237 OA
ATOM     71  O   UNL A   1      32.519  34.457  28.134  1.00  0.00    -0.237 OA
ATOM     72  O   UNL A   1      32.303  36.064  29.992  1.00  0.00    -0.744 OA
ENDBRANCH  68  69
ENDBRANCH  47  61
BRANCH  48  73
ATOM     73  C   UNL A   1      43.930  28.693  35.902  1.00  0.00     0.058 A 
ATOM     74  C   UNL A   1      43.751  27.630  36.797  1.00  0.00     0.135 A 
ATOM     75  C   UNL A   1      45.236  29.171  35.705  1.00  0.00     0.135 A 
ATOM     76  F   UNL A   1      42.519  27.153  37.031  1.00  0.00    -0.206 F 
ATOM     77  C   UNL A   1      44.826  27.062  37.474  1.00  0.00     0.059 A 
ATOM     78  C   UNL A   1      46.325  28.626  36.380  1.00  0.00     0.059 A 
ATOM     79  F   UNL A   1      45.459  30.172  34.840  1.00  0.00    -0.206 F 
ATOM     80  C   UNL A   1      46.111  27.566  37.260  1.00  0.00     0.060 A 
BRANCH  80  81
ATOM     81  S   UNL A   1      47.497  26.777  38.113  1.00  0.00     0.124 S 
ATOM     82  O   UNL A   1      47.672  25.562  37.325  1.00  0.00    -0.237 OA
ATOM     83  O   UNL A   1      48.550  27.781  37.973  1.00  0.00    -0.237 OA
ATOM     84  O   UNL A   1      47.002  26.576  39.470  1.00  0.00    -0.744 OA
ENDBRANCH  80  81
ENDBRANCH  48  73
BRANCH  60  85
ATOM     85  C   UNL A   1      40.175  34.375  37.264  1.00  0.00     0.058 A 
ATOM     86  C   UNL A   1      40.959  35.536  37.178  1.00  0.00     0.135 A 
ATOM     87  C   UNL A   1      39.394  34.192  38.416  1.00  0.00     0.135 A 
ATOM     88  F   UNL A   1      41.738  35.747  36.106  1.00  0.00    -0.206 F 
ATOM     89  C   UNL A   1      40.976  36.476  38.202  1.00  0.00     0.059 A 
ATOM     90  C   UNL A   1      39.372  35.134  39.439  1.00  0.00     0.059 A 
ATOM     91  F   UNL A   1      38.628  33.097  38.548  1.00  0.00    -0.206 F 
ATOM     92  C   UNL A   1      40.172  36.270  39.325  1.00  0.00     0.060 A 
BRANCH  92  93
ATOM     93  S   UNL A   1      40.164  37.527  40.619  1.00  0.00     0.124 S 
ATOM     94  O   UNL A   1      41.026  38.552  40.040  1.00  0.00    -0.237 OA
ATOM     95  O   UNL A   1      38.748  37.866  40.712  1.00  0.00    -0.237 OA
ATOM     96  O   UNL A   1      40.713  36.827  41.777  1.00  0.00    -0.744 OA
ENDBRANCH  92  93
ENDBRANCH  60  85
ENDBRANCH  34  35
ENDBRANCH  27  29
ENDBRANCH  26  27
ENDBRANCH  25  26
ENDBRANCH   1  25
TORSDOF 20
ENDMDL
