MODEL 1
REMARK VINA RESULT:     -12.4      0.000      0.000
REMARK SMILES O=C(OCCOCCOC(=O)c1ccc(-c2c3nc(c(-c4c(F)cc(S(=O)(=O)[O-])cc4F)c4ccc([nH]4)c(-c4c(F)cc(S(=O)(=O)[O-])cc4F)c4nc(c(-c5c(F)cc(S(=O)(=O)[O-])cc5F)c5ccc2[nH]5)C=C4)C=C3)cc1)C1=Cc2cc(C(F)(F)F)ccc2O[C@@H]1C(F)(F)F
REMARK SMILES IDX 7 1 6 2 5 3 4 4 3 5 2 6 1 7 78 8 79 9 91 10 80 11 90 12
REMARK SMILES IDX 81 13 89 14 82 15 88 16 87 17 92 18 93 19 94 20 95 21 83 22
REMARK SMILES IDX 84 23 85 24 86 25 8 26 9 27 10 28 11 29 12 30 13 31 77 32
REMARK SMILES IDX 14 33 76 34 15 35 16 36 17 37 70 38 18 39 75 40 69 41 71 42
REMARK SMILES IDX 19 43 74 44 68 45 67 46 20 48 54 49 33 50 53 51 34 52 37 53
REMARK SMILES IDX 52 54 72 55 35 56 36 57 51 59 73 60 38 61 21 62 22 63 31 64
REMARK SMILES IDX 23 65 24 66 30 67 32 68 25 69 26 70 27 71 28 72 29 73 55 74
REMARK SMILES IDX 56 75 65 76 57 77 58 78 64 79 66 80 59 81 60 82 61 83 62 84
REMARK SMILES IDX 63 85 39 86 40 87 49 88 41 89 42 90 48 91 50 92 43 93 44 94
REMARK SMILES IDX 45 95 46 96 47 97
REMARK H PARENT 71 47 37 58
REMARK Flexibility Score: inf
ROOT
ATOM      1  C   UNL A   1      41.568  21.871  26.192  1.00  0.00     0.202 C 
ENDROOT
BRANCH   1   2
ATOM      2  O   UNL A   1      40.202  21.687  26.609  1.00  0.00    -0.374 OA
BRANCH   2   3
ATOM      3  C   UNL A   1      38.893  21.254  25.772  1.00  0.00     0.202 C 
BRANCH   3   4
ATOM      4  C   UNL A   1      37.280  22.479  24.957  1.00  0.00     0.261 C 
BRANCH   4   5
ATOM      5  O   UNL A   1      36.247  22.029  23.890  1.00  0.00    -0.460 OA
BRANCH   5   6
ATOM      6  C   UNL A   1      35.325  22.957  23.629  1.00  0.00     0.338 C 
ATOM      7  O   UNL A   1      35.193  23.689  22.682  1.00  0.00    -0.246 OA
BRANCH   6   8
ATOM      8  C   UNL A   1      34.789  22.992  24.965  1.00  0.00     0.087 C 
ATOM      9  C   UNL A   1      34.838  24.377  25.507  1.00  0.00     0.027 C 
ATOM     10  C   UNL A   1      33.157  22.004  24.600  1.00  0.00     0.316 C 
ATOM     11  C   UNL A   1      33.368  25.419  25.720  1.00  0.00     0.018 A 
ATOM     12  O   UNL A   1      31.595  23.119  24.762  1.00  0.00    -0.475 OA
ATOM     13  C   UNL A   1      33.510  26.717  26.127  1.00  0.00     0.025 A 
ATOM     14  C   UNL A   1      31.788  24.849  25.305  1.00  0.00     0.128 A 
ATOM     15  C   UNL A   1      32.323  27.489  26.146  1.00  0.00     0.056 A 
ATOM     16  C   UNL A   1      30.720  25.687  25.211  1.00  0.00     0.048 A 
ATOM     17  C   UNL A   1      31.022  27.003  25.662  1.00  0.00     0.017 A 
BRANCH  10  18
ATOM     18  C   UNL A   1      33.500  20.629  25.301  1.00  0.00     0.430 C 
ATOM     19  F   UNL A   1      33.914  20.726  26.578  1.00  0.00    -0.167 F 
ATOM     20  F   UNL A   1      32.343  19.903  25.358  1.00  0.00    -0.167 F 
ATOM     21  F   UNL A   1      34.367  19.841  24.627  1.00  0.00    -0.167 F 
ENDBRANCH  10  18
BRANCH  15  22
ATOM     22  C   UNL A   1      32.454  28.896  26.722  1.00  0.00     0.416 C 
ATOM     23  F   UNL A   1      33.571  29.019  27.497  1.00  0.00    -0.166 F 
ATOM     24  F   UNL A   1      32.582  29.841  25.751  1.00  0.00    -0.166 F 
ATOM     25  F   UNL A   1      31.413  29.281  27.504  1.00  0.00    -0.166 F 
ENDBRANCH  15  22
ENDBRANCH   6   8
ENDBRANCH   5   6
ENDBRANCH   4   5
ENDBRANCH   3   4
ENDBRANCH   2   3
ENDBRANCH   1   2
BRANCH   1  26
ATOM     26  C   UNL A   1      42.030  23.327  26.180  1.00  0.00     0.261 C 
BRANCH  26  27
ATOM     27  O   UNL A   1      40.941  24.225  26.363  1.00  0.00    -0.460 OA
BRANCH  27  28
ATOM     28  C   UNL A   1      41.252  25.513  26.096  1.00  0.00     0.338 C 
ATOM     29  O   UNL A   1      41.515  26.005  25.012  1.00  0.00    -0.246 OA
BRANCH  28  30
ATOM     30  C   UNL A   1      41.237  26.275  27.356  1.00  0.00     0.060 A 
ATOM     31  C   UNL A   1      40.220  25.987  28.272  1.00  0.00     0.016 A 
ATOM     32  C   UNL A   1      42.208  27.248  27.643  1.00  0.00     0.016 A 
ATOM     33  C   UNL A   1      40.166  26.670  29.478  1.00  0.00     0.010 A 
ATOM     34  C   UNL A   1      42.143  27.949  28.841  1.00  0.00     0.010 A 
ATOM     35  C   UNL A   1      41.104  27.677  29.741  1.00  0.00    -0.014 A 
BRANCH  35  36
ATOM     36  C   UNL A   1      40.815  28.624  30.828  1.00  0.00     0.031 A 
ATOM     37  C   UNL A   1      41.673  28.531  32.055  1.00  0.00     0.074 A 
ATOM     38  C   UNL A   1      39.864  29.560  30.693  1.00  0.00     0.049 A 
ATOM     39  N   UNL A   1      41.688  29.290  33.114  1.00  0.00    -0.248 NA
ATOM     40  C   UNL A   1      42.653  27.430  32.082  1.00  0.00     0.031 C 
ATOM     41  C   UNL A   1      39.013  29.738  29.518  1.00  0.00     0.029 A 
ATOM     42  N   UNL A   1      39.465  30.544  31.555  1.00  0.00    -0.354 N 
ATOM     43  C   UNL A   1      42.687  28.771  33.927  1.00  0.00     0.074 A 
ATOM     44  C   UNL A   1      43.225  27.607  33.261  1.00  0.00     0.031 C 
ATOM     45  C   UNL A   1      38.191  30.782  29.733  1.00  0.00     0.029 A 
ATOM     46  C   UNL A   1      38.447  31.324  31.066  1.00  0.00     0.049 A 
ATOM     47  H   UNL A   1      39.870  30.680  32.443  1.00  0.00     0.167 HD
ATOM     48  C   UNL A   1      43.119  29.233  35.121  1.00  0.00     0.037 A 
ATOM     49  C   UNL A   1      37.803  32.356  31.645  1.00  0.00     0.037 A 
ATOM     50  C   UNL A   1      42.532  30.365  35.783  1.00  0.00     0.049 A 
ATOM     51  C   UNL A   1      38.243  32.799  33.018  1.00  0.00     0.074 A 
ATOM     52  C   UNL A   1      42.869  30.921  37.001  1.00  0.00     0.029 A 
ATOM     53  N   UNL A   1      41.463  31.099  35.285  1.00  0.00    -0.354 N 
ATOM     54  N   UNL A   1      39.210  32.325  33.770  1.00  0.00    -0.248 NA
ATOM     55  C   UNL A   1      37.510  33.920  33.617  1.00  0.00     0.031 C 
ATOM     56  C   UNL A   1      41.956  31.946  37.275  1.00  0.00     0.029 A 
ATOM     57  C   UNL A   1      41.104  32.084  36.188  1.00  0.00     0.049 A 
ATOM     58  H   UNL A   1      41.024  30.942  34.418  1.00  0.00     0.167 HD
ATOM     59  C   UNL A   1      39.231  33.119  34.911  1.00  0.00     0.074 A 
ATOM     60  C   UNL A   1      38.178  34.102  34.748  1.00  0.00     0.031 C 
ATOM     61  C   UNL A   1      40.051  33.054  35.992  1.00  0.00     0.037 A 
BRANCH  48  62
ATOM     62  C   UNL A   1      44.222  28.464  35.793  1.00  0.00     0.058 A 
ATOM     63  C   UNL A   1      43.962  27.418  36.695  1.00  0.00     0.135 A 
ATOM     64  C   UNL A   1      45.563  28.809  35.564  1.00  0.00     0.135 A 
ATOM     65  F   UNL A   1      42.697  27.065  36.976  1.00  0.00    -0.206 F 
ATOM     66  C   UNL A   1      44.988  26.772  37.377  1.00  0.00     0.059 A 
ATOM     67  C   UNL A   1      46.607  28.152  36.207  1.00  0.00     0.059 A 
ATOM     68  F   UNL A   1      45.870  29.809  34.722  1.00  0.00    -0.206 F 
ATOM     69  C   UNL A   1      46.309  27.151  37.129  1.00  0.00     0.060 A 
BRANCH  69  70
ATOM     70  S   UNL A   1      47.629  26.325  38.039  1.00  0.00     0.124 S 
ATOM     71  O   UNL A   1      47.401  26.819  39.393  1.00  0.00    -0.237 OA
ATOM     72  O   UNL A   1      47.323  24.915  37.819  1.00  0.00    -0.237 OA
ATOM     73  O   UNL A   1      48.844  26.809  37.392  1.00  0.00    -0.744 OA
ENDBRANCH  69  70
ENDBRANCH  48  62
BRANCH  49  74
ATOM     74  C   UNL A   1      36.703  33.047  30.922  1.00  0.00     0.058 A 
ATOM     75  C   UNL A   1      35.362  32.863  31.292  1.00  0.00     0.135 A 
ATOM     76  C   UNL A   1      36.970  33.921  29.855  1.00  0.00     0.135 A 
ATOM     77  F   UNL A   1      35.053  32.032  32.299  1.00  0.00    -0.206 F 
ATOM     78  C   UNL A   1      34.326  33.510  30.627  1.00  0.00     0.059 A 
ATOM     79  C   UNL A   1      35.952  34.602  29.193  1.00  0.00     0.059 A 
ATOM     80  F   UNL A   1      38.235  34.142  29.468  1.00  0.00    -0.206 F 
ATOM     81  C   UNL A   1      34.632  34.385  29.584  1.00  0.00     0.060 A 
BRANCH  81  82
ATOM     82  S   UNL A   1      33.282  35.269  28.773  1.00  0.00     0.124 S 
ATOM     83  O   UNL A   1      32.650  34.205  28.004  1.00  0.00    -0.237 OA
ATOM     84  O   UNL A   1      32.522  35.772  29.914  1.00  0.00    -0.237 OA
ATOM     85  O   UNL A   1      33.972  36.290  27.989  1.00  0.00    -0.744 OA
ENDBRANCH  81  82
ENDBRANCH  49  74
BRANCH  61  86
ATOM     86  C   UNL A   1      39.884  34.107  37.055  1.00  0.00     0.058 A 
ATOM     87  C   UNL A   1      40.415  35.398  36.921  1.00  0.00     0.135 A 
ATOM     88  C   UNL A   1      39.127  33.826  38.206  1.00  0.00     0.135 A 
ATOM     89  F   UNL A   1      41.147  35.721  35.842  1.00  0.00    -0.206 F 
ATOM     90  C   UNL A   1      40.232  36.364  37.906  1.00  0.00     0.059 A 
ATOM     91  C   UNL A   1      38.899  34.787  39.184  1.00  0.00     0.059 A 
ATOM     92  F   UNL A   1      38.581  32.611  38.378  1.00  0.00    -0.206 F 
ATOM     93  C   UNL A   1      39.471  36.048  39.034  1.00  0.00     0.060 A 
BRANCH  93  94
ATOM     94  S   UNL A   1      39.226  37.315  40.294  1.00  0.00     0.124 S 
ATOM     95  O   UNL A   1      38.530  36.564  41.334  1.00  0.00    -0.237 OA
ATOM     96  O   UNL A   1      40.595  37.712  40.606  1.00  0.00    -0.237 OA
ATOM     97  O   UNL A   1      38.426  38.327  39.609  1.00  0.00    -0.744 OA
ENDBRANCH  93  94
ENDBRANCH  61  86
ENDBRANCH  35  36
ENDBRANCH  28  30
ENDBRANCH  27  28
ENDBRANCH  26  27
ENDBRANCH   1  26
TORSDOF 19
ENDMDL
MODEL 2
REMARK VINA RESULT:     -12.3      0.505      1.479
REMARK SMILES O=C(OCCOCCOC(=O)c1ccc(-c2c3nc(c(-c4c(F)cc(S(=O)(=O)[O-])cc4F)c4ccc([nH]4)c(-c4c(F)cc(S(=O)(=O)[O-])cc4F)c4nc(c(-c5c(F)cc(S(=O)(=O)[O-])cc5F)c5ccc2[nH]5)C=C4)C=C3)cc1)C1=Cc2cc(C(F)(F)F)ccc2O[C@@H]1C(F)(F)F
REMARK SMILES IDX 7 1 6 2 5 3 4 4 3 5 2 6 1 7 78 8 79 9 91 10 80 11 90 12
REMARK SMILES IDX 81 13 89 14 82 15 88 16 87 17 92 18 93 19 94 20 95 21 83 22
REMARK SMILES IDX 84 23 85 24 86 25 8 26 9 27 10 28 11 29 12 30 13 31 77 32
REMARK SMILES IDX 14 33 76 34 15 35 16 36 17 37 70 38 18 39 75 40 69 41 71 42
REMARK SMILES IDX 19 43 74 44 68 45 67 46 20 48 54 49 33 50 53 51 34 52 37 53
REMARK SMILES IDX 52 54 72 55 35 56 36 57 51 59 73 60 38 61 21 62 22 63 31 64
REMARK SMILES IDX 23 65 24 66 30 67 32 68 25 69 26 70 27 71 28 72 29 73 55 74
REMARK SMILES IDX 56 75 65 76 57 77 58 78 64 79 66 80 59 81 60 82 61 83 62 84
REMARK SMILES IDX 63 85 39 86 40 87 49 88 41 89 42 90 48 91 50 92 43 93 44 94
REMARK SMILES IDX 45 95 46 96 47 97
REMARK H PARENT 71 47 37 58
REMARK Flexibility Score: inf
ROOT
ATOM      1  C   UNL A   1      42.281  22.091  26.320  1.00  0.00     0.202 C 
ENDROOT
BRANCH   1   2
ATOM      2  O   UNL A   1      41.106  21.697  25.586  1.00  0.00    -0.374 OA
BRANCH   2   3
ATOM      3  C   UNL A   1      39.621  21.327  26.095  1.00  0.00     0.202 C 
BRANCH   3   4
ATOM      4  C   UNL A   1      37.685  21.683  25.151  1.00  0.00     0.261 C 
BRANCH   4   5
ATOM      5  O   UNL A   1      37.113  23.067  24.745  1.00  0.00    -0.460 OA
BRANCH   5   6
ATOM      6  C   UNL A   1      36.008  22.980  24.002  1.00  0.00     0.338 C 
ATOM      7  O   UNL A   1      35.820  23.239  22.841  1.00  0.00    -0.246 OA
BRANCH   6   8
ATOM      8  C   UNL A   1      35.112  22.802  25.114  1.00  0.00     0.087 C 
ATOM      9  C   UNL A   1      34.894  24.097  25.815  1.00  0.00     0.027 C 
ATOM     10  C   UNL A   1      33.737  21.812  24.167  1.00  0.00     0.316 C 
ATOM     11  C   UNL A   1      33.347  25.039  25.716  1.00  0.00     0.018 A 
ATOM     12  O   UNL A   1      32.109  22.829  24.001  1.00  0.00    -0.475 OA
ATOM     13  C   UNL A   1      33.263  26.269  26.305  1.00  0.00     0.025 A 
ATOM     14  C   UNL A   1      32.001  24.471  24.787  1.00  0.00     0.128 A 
ATOM     15  C   UNL A   1      32.062  26.983  26.071  1.00  0.00     0.056 A 
ATOM     16  C   UNL A   1      30.941  25.270  24.490  1.00  0.00     0.048 A 
ATOM     17  C   UNL A   1      30.996  26.519  25.170  1.00  0.00     0.017 A 
BRANCH  10  18
ATOM     18  C   UNL A   1      33.974  20.366  24.760  1.00  0.00     0.430 C 
ATOM     19  F   UNL A   1      35.194  19.846  24.530  1.00  0.00    -0.167 F 
ATOM     20  F   UNL A   1      33.882  20.465  26.120  1.00  0.00    -0.167 F 
ATOM     21  F   UNL A   1      33.044  19.446  24.420  1.00  0.00    -0.167 F 
ENDBRANCH  10  18
BRANCH  15  22
ATOM     22  C   UNL A   1      31.911  28.298  26.830  1.00  0.00     0.416 C 
ATOM     23  F   UNL A   1      33.087  28.683  27.406  1.00  0.00    -0.166 F 
ATOM     24  F   UNL A   1      31.553  29.327  26.015  1.00  0.00    -0.166 F 
ATOM     25  F   UNL A   1      30.998  28.263  27.835  1.00  0.00    -0.166 F 
ENDBRANCH  15  22
ENDBRANCH   6   8
ENDBRANCH   5   6
ENDBRANCH   4   5
ENDBRANCH   3   4
ENDBRANCH   2   3
ENDBRANCH   1   2
BRANCH   1  26
ATOM     26  C   UNL A   1      42.554  23.594  26.309  1.00  0.00     0.261 C 
BRANCH  26  27
ATOM     27  O   UNL A   1      41.348  24.347  26.376  1.00  0.00    -0.460 OA
BRANCH  27  28
ATOM     28  C   UNL A   1      41.516  25.662  26.111  1.00  0.00     0.338 C 
ATOM     29  O   UNL A   1      41.692  26.184  25.023  1.00  0.00    -0.246 OA
BRANCH  28  30
ATOM     30  C   UNL A   1      41.465  26.412  27.377  1.00  0.00     0.060 A 
ATOM     31  C   UNL A   1      40.442  26.090  28.275  1.00  0.00     0.016 A 
ATOM     32  C   UNL A   1      42.407  27.405  27.686  1.00  0.00     0.016 A 
ATOM     33  C   UNL A   1      40.355  26.760  29.486  1.00  0.00     0.010 A 
ATOM     34  C   UNL A   1      42.308  28.094  28.889  1.00  0.00     0.010 A 
ATOM     35  C   UNL A   1      41.263  27.788  29.772  1.00  0.00    -0.014 A 
BRANCH  35  36
ATOM     36  C   UNL A   1      40.935  28.718  30.863  1.00  0.00     0.031 A 
ATOM     37  C   UNL A   1      41.779  28.637  32.099  1.00  0.00     0.074 A 
ATOM     38  C   UNL A   1      39.962  29.630  30.723  1.00  0.00     0.049 A 
ATOM     39  N   UNL A   1      41.761  29.387  33.165  1.00  0.00    -0.248 NA
ATOM     40  C   UNL A   1      42.788  27.563  32.130  1.00  0.00     0.031 C 
ATOM     41  C   UNL A   1      39.121  29.795  29.538  1.00  0.00     0.029 A 
ATOM     42  N   UNL A   1      39.525  30.595  31.588  1.00  0.00    -0.354 N 
ATOM     43  C   UNL A   1      42.764  28.888  33.986  1.00  0.00     0.074 A 
ATOM     44  C   UNL A   1      43.340  27.745  33.318  1.00  0.00     0.031 C 
ATOM     45  C   UNL A   1      38.269  30.815  29.751  1.00  0.00     0.029 A 
ATOM     46  C   UNL A   1      38.494  31.352  31.092  1.00  0.00     0.049 A 
ATOM     47  H   UNL A   1      39.916  30.734  32.482  1.00  0.00     0.167 HD
ATOM     48  C   UNL A   1      43.168  29.350  35.189  1.00  0.00     0.037 A 
ATOM     49  C   UNL A   1      37.815  32.362  31.671  1.00  0.00     0.037 A 
ATOM     50  C   UNL A   1      42.542  30.462  35.853  1.00  0.00     0.049 A 
ATOM     51  C   UNL A   1      38.225  32.804  33.053  1.00  0.00     0.074 A 
ATOM     52  C   UNL A   1      42.848  31.015  37.080  1.00  0.00     0.029 A 
ATOM     53  N   UNL A   1      41.460  31.171  35.348  1.00  0.00    -0.354 N 
ATOM     54  N   UNL A   1      39.195  32.349  33.814  1.00  0.00    -0.248 NA
ATOM     55  C   UNL A   1      37.456  33.901  33.652  1.00  0.00     0.031 C 
ATOM     56  C   UNL A   1      41.905  32.013  37.351  1.00  0.00     0.029 A 
ATOM     57  C   UNL A   1      41.064  32.138  36.254  1.00  0.00     0.049 A 
ATOM     58  H   UNL A   1      41.037  31.010  34.473  1.00  0.00     0.167 HD
ATOM     59  C   UNL A   1      39.181  33.134  34.962  1.00  0.00     0.074 A 
ATOM     60  C   UNL A   1      38.104  34.090  34.792  1.00  0.00     0.031 C 
ATOM     61  C   UNL A   1      39.988  33.081  36.053  1.00  0.00     0.037 A 
BRANCH  48  62
ATOM     62  C   UNL A   1      44.282  28.606  35.870  1.00  0.00     0.058 A 
ATOM     63  C   UNL A   1      45.635  28.908  35.635  1.00  0.00     0.135 A 
ATOM     64  C   UNL A   1      43.992  27.544  36.740  1.00  0.00     0.135 A 
ATOM     65  F   UNL A   1      45.972  29.894  34.789  1.00  0.00    -0.206 F 
ATOM     66  C   UNL A   1      46.658  28.156  36.204  1.00  0.00     0.059 A 
ATOM     67  C   UNL A   1      44.999  26.801  37.348  1.00  0.00     0.059 A 
ATOM     68  F   UNL A   1      42.719  27.203  36.991  1.00  0.00    -0.206 F 
ATOM     69  C   UNL A   1      46.329  27.100  37.056  1.00  0.00     0.060 A 
BRANCH  69  70
ATOM     70  S   UNL A   1      47.663  26.115  37.765  1.00  0.00     0.124 S 
ATOM     71  O   UNL A   1      48.482  25.844  36.588  1.00  0.00    -0.237 OA
ATOM     72  O   UNL A   1      48.241  27.033  38.742  1.00  0.00    -0.237 OA
ATOM     73  O   UNL A   1      46.972  24.960  38.328  1.00  0.00    -0.744 OA
ENDBRANCH  69  70
ENDBRANCH  48  62
BRANCH  49  74
ATOM     74  C   UNL A   1      36.706  33.029  30.939  1.00  0.00     0.058 A 
ATOM     75  C   UNL A   1      35.366  32.810  31.294  1.00  0.00     0.135 A 
ATOM     76  C   UNL A   1      36.963  33.915  29.881  1.00  0.00     0.135 A 
ATOM     77  F   UNL A   1      35.067  31.966  32.293  1.00  0.00    -0.206 F 
ATOM     78  C   UNL A   1      34.321  33.435  30.621  1.00  0.00     0.059 A 
ATOM     79  C   UNL A   1      35.936  34.574  29.211  1.00  0.00     0.059 A 
ATOM     80  F   UNL A   1      38.226  34.169  29.508  1.00  0.00    -0.206 F 
ATOM     81  C   UNL A   1      34.617  34.323  29.586  1.00  0.00     0.060 A 
BRANCH  81  82
ATOM     82  S   UNL A   1      33.255  35.179  28.765  1.00  0.00     0.124 S 
ATOM     83  O   UNL A   1      32.680  34.112  27.955  1.00  0.00    -0.237 OA
ATOM     84  O   UNL A   1      32.451  35.625  29.899  1.00  0.00    -0.237 OA
ATOM     85  O   UNL A   1      33.925  36.243  28.023  1.00  0.00    -0.744 OA
ENDBRANCH  81  82
ENDBRANCH  49  74
BRANCH  61  86
ATOM     86  C   UNL A   1      39.779  34.121  37.122  1.00  0.00     0.058 A 
ATOM     87  C   UNL A   1      38.972  33.890  38.245  1.00  0.00     0.135 A 
ATOM     88  C   UNL A   1      40.449  35.354  37.038  1.00  0.00     0.135 A 
ATOM     89  F   UNL A   1      38.308  32.729  38.375  1.00  0.00    -0.206 F 
ATOM     90  C   UNL A   1      38.808  34.857  39.232  1.00  0.00     0.059 A 
ATOM     91  C   UNL A   1      40.330  36.319  38.031  1.00  0.00     0.059 A 
ATOM     92  F   UNL A   1      41.248  35.622  35.993  1.00  0.00    -0.206 F 
ATOM     93  C   UNL A   1      39.493  36.068  39.115  1.00  0.00     0.060 A 
BRANCH  93  94
ATOM     94  S   UNL A   1      39.286  37.306  40.412  1.00  0.00     0.124 S 
ATOM     95  O   UNL A   1      38.316  38.211  39.802  1.00  0.00    -0.237 OA
ATOM     96  O   UNL A   1      38.794  36.507  41.529  1.00  0.00    -0.237 OA
ATOM     97  O   UNL A   1      40.631  37.850  40.581  1.00  0.00    -0.744 OA
ENDBRANCH  93  94
ENDBRANCH  61  86
ENDBRANCH  35  36
ENDBRANCH  28  30
ENDBRANCH  27  28
ENDBRANCH  26  27
ENDBRANCH   1  26
TORSDOF 19
ENDMDL
MODEL 3
REMARK VINA RESULT:     -12.1      4.593      9.969
REMARK SMILES O=C(OCCOCCOC(=O)c1ccc(-c2c3nc(c(-c4c(F)cc(S(=O)(=O)[O-])cc4F)c4ccc([nH]4)c(-c4c(F)cc(S(=O)(=O)[O-])cc4F)c4nc(c(-c5c(F)cc(S(=O)(=O)[O-])cc5F)c5ccc2[nH]5)C=C4)C=C3)cc1)C1=Cc2cc(C(F)(F)F)ccc2O[C@@H]1C(F)(F)F
REMARK SMILES IDX 7 1 6 2 5 3 4 4 3 5 2 6 1 7 78 8 79 9 91 10 80 11 90 12
REMARK SMILES IDX 81 13 89 14 82 15 88 16 87 17 92 18 93 19 94 20 95 21 83 22
REMARK SMILES IDX 84 23 85 24 86 25 8 26 9 27 10 28 11 29 12 30 13 31 77 32
REMARK SMILES IDX 14 33 76 34 15 35 16 36 17 37 70 38 18 39 75 40 69 41 71 42
REMARK SMILES IDX 19 43 74 44 68 45 67 46 20 48 54 49 33 50 53 51 34 52 37 53
REMARK SMILES IDX 52 54 72 55 35 56 36 57 51 59 73 60 38 61 21 62 22 63 31 64
REMARK SMILES IDX 23 65 24 66 30 67 32 68 25 69 26 70 27 71 28 72 29 73 55 74
REMARK SMILES IDX 56 75 65 76 57 77 58 78 64 79 66 80 59 81 60 82 61 83 62 84
REMARK SMILES IDX 63 85 39 86 40 87 49 88 41 89 42 90 48 91 50 92 43 93 44 94
REMARK SMILES IDX 45 95 46 96 47 97
REMARK H PARENT 71 47 37 58
REMARK Flexibility Score: inf
ROOT
ATOM      1  C   UNL A   1      33.530  28.634  25.266  1.00  0.00     0.202 C 
ENDROOT
BRANCH   1   2
ATOM      2  O   UNL A   1      32.517  28.367  24.278  1.00  0.00    -0.374 OA
BRANCH   2   3
ATOM      3  C   UNL A   1      32.626  27.717  22.806  1.00  0.00     0.202 C 
BRANCH   3   4
ATOM      4  C   UNL A   1      31.912  25.792  22.065  1.00  0.00     0.261 C 
BRANCH   4   5
ATOM      5  O   UNL A   1      31.777  24.491  22.900  1.00  0.00    -0.460 OA
BRANCH   5   6
ATOM      6  C   UNL A   1      32.824  23.673  22.769  1.00  0.00     0.338 C 
ATOM      7  O   UNL A   1      33.459  23.360  21.796  1.00  0.00    -0.246 OA
BRANCH   6   8
ATOM      8  C   UNL A   1      32.697  23.084  24.076  1.00  0.00     0.087 C 
ATOM      9  C   UNL A   1      32.390  21.633  23.963  1.00  0.00     0.027 C 
ATOM     10  C   UNL A   1      34.328  23.815  24.834  1.00  0.00     0.316 C 
ATOM     11  C   UNL A   1      33.591  20.325  24.339  1.00  0.00     0.018 A 
ATOM     12  O   UNL A   1      35.635  22.441  25.179  1.00  0.00    -0.475 OA
ATOM     13  C   UNL A   1      33.264  19.018  24.110  1.00  0.00     0.025 A 
ATOM     14  C   UNL A   1      35.195  20.698  24.872  1.00  0.00     0.128 A 
ATOM     15  C   UNL A   1      34.304  18.078  24.315  1.00  0.00     0.056 A 
ATOM     16  C   UNL A   1      36.180  19.759  24.909  1.00  0.00     0.048 A 
ATOM     17  C   UNL A   1      35.690  18.449  24.643  1.00  0.00     0.017 A 
BRANCH  10  18
ATOM     18  C   UNL A   1      33.722  24.905  25.806  1.00  0.00     0.430 C 
ATOM     19  F   UNL A   1      32.594  25.495  25.370  1.00  0.00    -0.167 F 
ATOM     20  F   UNL A   1      33.365  24.266  26.960  1.00  0.00    -0.167 F 
ATOM     21  F   UNL A   1      34.586  25.867  26.199  1.00  0.00    -0.167 F 
ENDBRANCH  10  18
BRANCH  15  22
ATOM     22  C   UNL A   1      33.910  16.610  24.186  1.00  0.00     0.416 C 
ATOM     23  F   UNL A   1      32.554  16.459  24.129  1.00  0.00    -0.166 F 
ATOM     24  F   UNL A   1      34.386  16.046  23.042  1.00  0.00    -0.166 F 
ATOM     25  F   UNL A   1      34.331  15.825  25.211  1.00  0.00    -0.166 F 
ENDBRANCH  15  22
ENDBRANCH   6   8
ENDBRANCH   5   6
ENDBRANCH   4   5
ENDBRANCH   3   4
ENDBRANCH   2   3
ENDBRANCH   1   2
BRANCH   1  26
ATOM     26  C   UNL A   1      33.240  29.844  26.152  1.00  0.00     0.261 C 
BRANCH  26  27
ATOM     27  O   UNL A   1      33.680  29.633  27.489  1.00  0.00    -0.460 OA
BRANCH  27  28
ATOM     28  C   UNL A   1      34.453  30.634  27.968  1.00  0.00     0.338 C 
ATOM     29  O   UNL A   1      34.122  31.786  28.193  1.00  0.00    -0.246 OA
BRANCH  28  30
ATOM     30  C   UNL A   1      35.816  30.120  28.183  1.00  0.00     0.060 A 
ATOM     31  C   UNL A   1      36.144  29.681  29.469  1.00  0.00     0.016 A 
ATOM     32  C   UNL A   1      36.754  30.058  27.141  1.00  0.00     0.016 A 
ATOM     33  C   UNL A   1      37.413  29.180  29.722  1.00  0.00     0.010 A 
ATOM     34  C   UNL A   1      38.033  29.576  27.396  1.00  0.00     0.010 A 
ATOM     35  C   UNL A   1      38.365  29.166  28.695  1.00  0.00    -0.014 A 
BRANCH  35  36
ATOM     36  C   UNL A   1      39.778  28.989  29.063  1.00  0.00     0.031 A 
ATOM     37  C   UNL A   1      40.401  27.664  28.741  1.00  0.00     0.074 A 
ATOM     38  C   UNL A   1      40.480  29.993  29.610  1.00  0.00     0.049 A 
ATOM     39  N   UNL A   1      41.638  27.275  28.879  1.00  0.00    -0.248 NA
ATOM     40  C   UNL A   1      39.502  26.641  28.177  1.00  0.00     0.031 C 
ATOM     41  C   UNL A   1      39.955  31.322  29.921  1.00  0.00     0.029 A 
ATOM     42  N   UNL A   1      41.792  30.048  29.990  1.00  0.00    -0.354 N 
ATOM     43  C   UNL A   1      41.670  25.970  28.406  1.00  0.00     0.074 A 
ATOM     44  C   UNL A   1      40.324  25.617  28.019  1.00  0.00     0.031 C 
ATOM     45  C   UNL A   1      40.946  32.068  30.441  1.00  0.00     0.029 A 
ATOM     46  C   UNL A   1      42.161  31.260  30.518  1.00  0.00     0.049 A 
ATOM     47  H   UNL A   1      42.413  29.289  29.893  1.00  0.00     0.167 HD
ATOM     48  C   UNL A   1      42.734  25.145  28.299  1.00  0.00     0.037 A 
ATOM     49  C   UNL A   1      43.353  31.655  31.007  1.00  0.00     0.037 A 
ATOM     50  C   UNL A   1      44.055  25.506  28.738  1.00  0.00     0.049 A 
ATOM     51  C   UNL A   1      44.506  30.685  30.961  1.00  0.00     0.074 A 
ATOM     52  C   UNL A   1      45.211  24.754  28.700  1.00  0.00     0.029 A 
ATOM     53  N   UNL A   1      44.383  26.723  29.323  1.00  0.00    -0.354 N 
ATOM     54  N   UNL A   1      44.541  29.462  30.483  1.00  0.00    -0.248 NA
ATOM     55  C   UNL A   1      45.784  31.151  31.511  1.00  0.00     0.031 C 
ATOM     56  C   UNL A   1      46.224  25.487  29.327  1.00  0.00     0.029 A 
ATOM     57  C   UNL A   1      45.719  26.730  29.681  1.00  0.00     0.049 A 
ATOM     58  H   UNL A   1      43.757  27.470  29.462  1.00  0.00     0.167 HD
ATOM     59  C   UNL A   1      45.854  29.028  30.634  1.00  0.00     0.074 A 
ATOM     60  C   UNL A   1      46.579  30.122  31.249  1.00  0.00     0.031 C 
ATOM     61  C   UNL A   1      46.415  27.841  30.288  1.00  0.00     0.037 A 
BRANCH  48  62
ATOM     62  C   UNL A   1      42.480  23.767  27.754  1.00  0.00     0.058 A 
ATOM     63  C   UNL A   1      42.328  22.649  28.592  1.00  0.00     0.135 A 
ATOM     64  C   UNL A   1      42.430  23.556  26.368  1.00  0.00     0.135 A 
ATOM     65  F   UNL A   1      42.396  22.787  29.926  1.00  0.00    -0.206 F 
ATOM     66  C   UNL A   1      42.179  21.366  28.074  1.00  0.00     0.059 A 
ATOM     67  C   UNL A   1      42.247  22.286  25.828  1.00  0.00     0.059 A 
ATOM     68  F   UNL A   1      42.583  24.585  25.520  1.00  0.00    -0.206 F 
ATOM     69  C   UNL A   1      42.145  21.195  26.689  1.00  0.00     0.060 A 
BRANCH  69  70
ATOM     70  S   UNL A   1      41.980  19.524  26.029  1.00  0.00     0.124 S 
ATOM     71  O   UNL A   1      42.496  18.723  27.134  1.00  0.00    -0.237 OA
ATOM     72  O   UNL A   1      40.544  19.425  25.790  1.00  0.00    -0.237 OA
ATOM     73  O   UNL A   1      42.812  19.548  24.830  1.00  0.00    -0.744 OA
ENDBRANCH  69  70
ENDBRANCH  48  62
BRANCH  49  74
ATOM     74  C   UNL A   1      43.514  33.028  31.554  1.00  0.00     0.058 A 
ATOM     75  C   UNL A   1      43.841  34.108  30.721  1.00  0.00     0.135 A 
ATOM     76  C   UNL A   1      43.328  33.292  32.921  1.00  0.00     0.135 A 
ATOM     77  F   UNL A   1      44.038  33.908  29.410  1.00  0.00    -0.206 F 
ATOM     78  C   UNL A   1      43.987  35.398  31.222  1.00  0.00     0.059 A 
ATOM     79  C   UNL A   1      43.440  34.579  33.441  1.00  0.00     0.059 A 
ATOM     80  F   UNL A   1      43.003  32.298  33.760  1.00  0.00    -0.206 F 
ATOM     81  C   UNL A   1      43.776  35.625  32.583  1.00  0.00     0.060 A 
BRANCH  81  82
ATOM     82  S   UNL A   1      43.904  37.314  33.208  1.00  0.00     0.124 S 
ATOM     83  O   UNL A   1      45.158  37.263  33.947  1.00  0.00    -0.237 OA
ATOM     84  O   UNL A   1      43.919  38.093  31.973  1.00  0.00    -0.237 OA
ATOM     85  O   UNL A   1      42.699  37.464  34.020  1.00  0.00    -0.744 OA
ENDBRANCH  81  82
ENDBRANCH  49  74
BRANCH  61  86
ATOM     86  C   UNL A   1      47.896  27.683  30.510  1.00  0.00     0.058 A 
ATOM     87  C   UNL A   1      48.841  28.022  29.531  1.00  0.00     0.135 A 
ATOM     88  C   UNL A   1      48.373  27.233  31.753  1.00  0.00     0.135 A 
ATOM     89  F   UNL A   1      48.440  28.456  28.324  1.00  0.00    -0.206 F 
ATOM     90  C   UNL A   1      50.206  27.887  29.762  1.00  0.00     0.059 A 
ATOM     91  C   UNL A   1      49.733  27.127  32.020  1.00  0.00     0.059 A 
ATOM     92  F   UNL A   1      47.513  26.911  32.732  1.00  0.00    -0.206 F 
ATOM     93  C   UNL A   1      50.642  27.440  31.012  1.00  0.00     0.060 A 
BRANCH  93  94
ATOM     94  S   UNL A   1      52.416  27.287  31.305  1.00  0.00     0.124 S 
ATOM     95  O   UNL A   1      52.848  26.556  30.119  1.00  0.00    -0.237 OA
ATOM     96  O   UNL A   1      52.839  28.682  31.381  1.00  0.00    -0.237 OA
ATOM     97  O   UNL A   1      52.490  26.547  32.562  1.00  0.00    -0.744 OA
ENDBRANCH  93  94
ENDBRANCH  61  86
ENDBRANCH  35  36
ENDBRANCH  28  30
ENDBRANCH  27  28
ENDBRANCH  26  27
ENDBRANCH   1  26
TORSDOF 19
ENDMDL
