MODEL 1
REMARK VINA RESULT:     -11.1      0.000      0.000
REMARK SMILES O=C(OCCOCCOC(=O)C1(Oc2cccc(F)c2)CCN(c2cc(NCCO)ncn2)CC1)c1ccc(-c2c3nc(c(-c4c(F)cc(S(=O)(=O)[O-])cc4F)c4ccc([nH]4)c(-c4c(F)cc(S(=O)(=O)[O-])cc4F)c4nc(c(-c5c(F)cc(S(=O)(=O)[O-])cc5F)c5ccc2[nH]5)C=C4)C=C3)cc1
REMARK SMILES IDX 7 1 6 2 5 3 4 4 3 5 2 6 1 7 36 8 37 9 101 10 38 11 100 12
REMARK SMILES IDX 39 13 40 14 41 15 94 16 42 17 99 18 93 19 95 20 43 21 98 22
REMARK SMILES IDX 92 23 91 24 44 26 78 27 57 28 77 29 58 30 61 31 76 32 96 33
REMARK SMILES IDX 59 34 60 35 75 37 97 38 62 39 45 40 46 41 55 42 47 43 48 44
REMARK SMILES IDX 54 45 56 46 49 47 50 48 51 49 52 50 53 51 79 52 80 53 89 54
REMARK SMILES IDX 81 55 82 56 88 57 90 58 83 59 84 60 85 61 86 62 87 63 63 64
REMARK SMILES IDX 64 65 73 66 65 67 66 68 72 69 74 70 67 71 68 72 69 73 70 74
REMARK SMILES IDX 71 75 8 76 9 77 10 78 11 79 12 80 21 81 35 82 22 83 34 84
REMARK SMILES IDX 23 85 13 86 14 87 15 88 20 89 16 90 18 91 17 92 19 93 24 94
REMARK SMILES IDX 25 95 33 96 26 97 32 98 31 99 27 100 28 102 29 103 30 104
REMARK H PARENT 95 25 61 36 27 101 30 105
REMARK Flexibility Score: inf
ROOT
ATOM      1  C   UNL A   1      34.345  31.117  27.484  1.00  0.00     0.202 C 
ENDROOT
BRANCH   1   2
ATOM      2  O   UNL A   1      34.745  32.390  27.999  1.00  0.00    -0.374 OA
BRANCH   2   3
ATOM      3  C   UNL A   1      34.538  32.605  29.390  1.00  0.00     0.202 C 
BRANCH   3   4
ATOM      4  C   UNL A   1      35.612  32.132  30.386  1.00  0.00     0.261 C 
BRANCH   4   5
ATOM      5  O   UNL A   1      36.092  30.803  30.057  1.00  0.00    -0.460 OA
BRANCH   5   6
ATOM      6  C   UNL A   1      36.907  30.007  30.813  1.00  0.00     0.338 C 
ATOM      7  O   UNL A   1      36.446  29.265  31.659  1.00  0.00    -0.246 OA
BRANCH   6   8
ATOM      8  C   UNL A   1      38.368  30.028  30.556  1.00  0.00     0.060 A 
ATOM      9  C   UNL A   1      38.839  30.322  29.295  1.00  0.00     0.016 A 
ATOM     10  C   UNL A   1      39.296  29.725  31.547  1.00  0.00     0.016 A 
ATOM     11  C   UNL A   1      40.091  29.985  28.892  1.00  0.00     0.010 A 
ATOM     12  C   UNL A   1      40.651  29.611  31.200  1.00  0.00     0.010 A 
ATOM     13  C   UNL A   1      41.034  29.685  29.851  1.00  0.00    -0.014 A 
BRANCH  13  14
ATOM     14  C   UNL A   1      42.353  29.337  29.311  1.00  0.00     0.031 A 
ATOM     15  C   UNL A   1      42.514  27.983  28.706  1.00  0.00     0.074 A 
ATOM     16  C   UNL A   1      43.263  30.321  29.140  1.00  0.00     0.049 A 
ATOM     17  N   UNL A   1      43.586  27.423  28.232  1.00  0.00    -0.248 NA
ATOM     18  C   UNL A   1      41.303  27.143  28.617  1.00  0.00     0.031 C 
ATOM     19  C   UNL A   1      43.067  31.734  29.512  1.00  0.00     0.029 A 
ATOM     20  N   UNL A   1      44.486  30.319  28.532  1.00  0.00    -0.354 N 
ATOM     21  C   UNL A   1      43.199  26.145  27.854  1.00  0.00     0.074 A 
ATOM     22  C   UNL A   1      41.793  26.009  28.144  1.00  0.00     0.031 C 
ATOM     23  C   UNL A   1      44.089  32.464  29.047  1.00  0.00     0.029 A 
ATOM     24  C   UNL A   1      45.080  31.559  28.492  1.00  0.00     0.049 A 
ATOM     25  H   UNL A   1      44.901  29.508  28.160  1.00  0.00     0.167 HD
ATOM     26  C   UNL A   1      43.980  25.178  27.326  1.00  0.00     0.037 A 
ATOM     27  C   UNL A   1      46.321  31.907  28.108  1.00  0.00     0.037 A 
ATOM     28  C   UNL A   1      45.371  25.398  27.039  1.00  0.00     0.049 A 
ATOM     29  C   UNL A   1      47.209  30.790  27.644  1.00  0.00     0.074 A 
ATOM     30  C   UNL A   1      46.323  24.493  26.617  1.00  0.00     0.029 A 
ATOM     31  N   UNL A   1      46.000  26.637  27.137  1.00  0.00    -0.354 N 
ATOM     32  N   UNL A   1      46.902  29.526  27.460  1.00  0.00    -0.248 NA
ATOM     33  C   UNL A   1      48.608  31.123  27.375  1.00  0.00     0.031 C 
ATOM     34  C   UNL A   1      47.539  25.178  26.503  1.00  0.00     0.029 A 
ATOM     35  C   UNL A   1      47.333  26.521  26.795  1.00  0.00     0.049 A 
ATOM     36  H   UNL A   1      45.559  27.473  27.413  1.00  0.00     0.167 HD
ATOM     37  C   UNL A   1      48.069  28.906  27.047  1.00  0.00     0.074 A 
ATOM     38  C   UNL A   1      49.083  29.946  26.989  1.00  0.00     0.031 C 
ATOM     39  C   UNL A   1      48.292  27.601  26.751  1.00  0.00     0.037 A 
BRANCH  26  40
ATOM     40  C   UNL A   1      43.363  23.823  27.141  1.00  0.00     0.058 A 
ATOM     41  C   UNL A   1      43.013  23.387  25.853  1.00  0.00     0.135 A 
ATOM     42  C   UNL A   1      43.173  22.930  28.207  1.00  0.00     0.135 A 
ATOM     43  F   UNL A   1      43.202  24.187  24.793  1.00  0.00    -0.206 F 
ATOM     44  C   UNL A   1      42.489  22.118  25.630  1.00  0.00     0.059 A 
ATOM     45  C   UNL A   1      42.676  21.645  28.003  1.00  0.00     0.059 A 
ATOM     46  F   UNL A   1      43.541  23.275  29.451  1.00  0.00    -0.206 F 
ATOM     47  C   UNL A   1      42.329  21.251  26.710  1.00  0.00     0.060 A 
BRANCH  47  48
ATOM     48  S   UNL A   1      41.714  19.584  26.389  1.00  0.00     0.124 S 
ATOM     49  O   UNL A   1      40.280  19.813  26.267  1.00  0.00    -0.237 OA
ATOM     50  O   UNL A   1      42.412  19.234  25.155  1.00  0.00    -0.237 OA
ATOM     51  O   UNL A   1      42.136  18.836  27.570  1.00  0.00    -0.744 OA
ENDBRANCH  47  48
ENDBRANCH  26  40
BRANCH  27  52
ATOM     52  C   UNL A   1      46.781  33.316  28.240  1.00  0.00     0.058 A 
ATOM     53  C   UNL A   1      46.680  34.219  27.164  1.00  0.00     0.135 A 
ATOM     54  C   UNL A   1      47.391  33.782  29.414  1.00  0.00     0.135 A 
ATOM     55  F   UNL A   1      46.111  33.832  26.011  1.00  0.00    -0.206 F 
ATOM     56  C   UNL A   1      47.201  35.506  27.231  1.00  0.00     0.059 A 
ATOM     57  C   UNL A   1      47.892  35.080  29.516  1.00  0.00     0.059 A 
ATOM     58  F   UNL A   1      47.505  32.968  30.475  1.00  0.00    -0.206 F 
ATOM     59  C   UNL A   1      47.809  35.927  28.412  1.00  0.00     0.060 A 
BRANCH  59  60
ATOM     60  S   UNL A   1      48.487  37.601  28.471  1.00  0.00     0.124 S 
ATOM     61  O   UNL A   1      47.316  38.377  28.867  1.00  0.00    -0.237 OA
ATOM     62  O   UNL A   1      49.532  37.471  29.481  1.00  0.00    -0.237 OA
ATOM     63  O   UNL A   1      48.957  37.823  27.108  1.00  0.00    -0.744 OA
ENDBRANCH  59  60
ENDBRANCH  27  52
BRANCH  39  64
ATOM     64  C   UNL A   1      49.676  27.242  26.306  1.00  0.00     0.058 A 
ATOM     65  C   UNL A   1      49.998  27.263  24.941  1.00  0.00     0.135 A 
ATOM     66  C   UNL A   1      50.646  26.798  27.216  1.00  0.00     0.135 A 
ATOM     67  F   UNL A   1      49.095  27.675  24.037  1.00  0.00    -0.206 F 
ATOM     68  C   UNL A   1      51.233  26.829  24.488  1.00  0.00     0.059 A 
ATOM     69  C   UNL A   1      51.902  26.390  26.786  1.00  0.00     0.059 A 
ATOM     70  F   UNL A   1      50.381  26.776  28.532  1.00  0.00    -0.206 F 
ATOM     71  C   UNL A   1      52.178  26.391  25.418  1.00  0.00     0.060 A 
BRANCH  71  72
ATOM     72  S   UNL A   1      53.780  25.836  24.808  1.00  0.00     0.124 S 
ATOM     73  O   UNL A   1      53.965  24.593  25.548  1.00  0.00    -0.237 OA
ATOM     74  O   UNL A   1      53.531  25.696  23.377  1.00  0.00    -0.237 OA
ATOM     75  O   UNL A   1      54.677  26.928  25.176  1.00  0.00    -0.744 OA
ENDBRANCH  71  72
ENDBRANCH  39  64
ENDBRANCH  13  14
ENDBRANCH   6   8
ENDBRANCH   5   6
ENDBRANCH   4   5
ENDBRANCH   3   4
ENDBRANCH   2   3
ENDBRANCH   1   2
BRANCH   1  76
ATOM     76  C   UNL A   1      32.840  31.101  27.269  1.00  0.00     0.261 C 
BRANCH  76  77
ATOM     77  O   UNL A   1      32.569  30.386  26.051  1.00  0.00    -0.460 OA
BRANCH  77  78
ATOM     78  C   UNL A   1      31.984  29.164  26.193  1.00  0.00     0.350 C 
ATOM     79  O   UNL A   1      31.400  28.792  27.207  1.00  0.00    -0.247 OA
BRANCH  78  80
ATOM     80  C   UNL A   1      32.120  28.303  24.929  1.00  0.00     0.209 C 
ATOM     81  C   UNL A   1      31.171  27.095  24.915  1.00  0.00     0.082 C 
ATOM     82  C   UNL A   1      33.601  27.902  24.670  1.00  0.00     0.082 C 
ATOM     83  C   UNL A   1      31.705  25.937  25.744  1.00  0.00     0.123 C 
ATOM     84  C   UNL A   1      34.082  26.561  25.239  1.00  0.00     0.123 C 
ATOM     85  N   UNL A   1      33.023  25.587  25.268  1.00  0.00    -0.356 N 
BRANCH  80  86
ATOM     86  O   UNL A   1      31.617  29.367  24.052  1.00  0.00    -0.475 OA
BRANCH  86  87
ATOM     87  C   UNL A   1      30.310  29.303  23.701  1.00  0.00     0.123 A 
ATOM     88  C   UNL A   1      29.773  28.072  23.341  1.00  0.00     0.047 A 
ATOM     89  C   UNL A   1      29.511  30.439  23.791  1.00  0.00     0.085 A 
ATOM     90  C   UNL A   1      28.439  27.987  22.963  1.00  0.00     0.007 A 
ATOM     91  C   UNL A   1      28.181  30.344  23.414  1.00  0.00     0.126 A 
ATOM     92  C   UNL A   1      27.643  29.133  22.987  1.00  0.00     0.039 A 
ATOM     93  F   UNL A   1      27.403  31.434  23.448  1.00  0.00    -0.207 F 
ENDBRANCH  86  87
ENDBRANCH  80  86
BRANCH  85  94
ATOM     94  C   UNL A   1      33.289  24.305  24.846  1.00  0.00     0.134 A 
ATOM     95  C   UNL A   1      32.552  23.231  25.318  1.00  0.00     0.093 A 
ATOM     96  N   UNL A   1      34.326  24.138  24.018  1.00  0.00    -0.219 NA
ATOM     97  C   UNL A   1      32.920  21.962  24.914  1.00  0.00     0.131 A 
ATOM     98  C   UNL A   1      34.646  22.873  23.734  1.00  0.00     0.226 A 
ATOM     99  N   UNL A   1      33.999  21.773  24.143  1.00  0.00    -0.219 NA
BRANCH  97 100
ATOM    100  N   UNL A   1      32.199  20.869  25.382  1.00  0.00    -0.368 N 
ATOM    101  H   UNL A   1      31.704  20.932  26.230  1.00  0.00     0.162 HD
BRANCH 100 102
ATOM    102  C   UNL A   1      32.179  19.627  24.613  1.00  0.00     0.142 C 
BRANCH 102 103
ATOM    103  C   UNL A   1      32.909  18.523  25.382  1.00  0.00     0.177 C 
BRANCH 103 104
ATOM    104  O   UNL A   1      32.859  18.770  26.786  1.00  0.00    -0.395 OA
ATOM    105  H   UNL A   1      33.701  18.510  27.191  1.00  0.00     0.210 HD
ENDBRANCH 103 104
ENDBRANCH 102 103
ENDBRANCH 100 102
ENDBRANCH  97 100
ENDBRANCH  85  94
ENDBRANCH  78  80
ENDBRANCH  77  78
ENDBRANCH  76  77
ENDBRANCH   1  76
TORSDOF 24
ENDMDL
MODEL 2
REMARK VINA RESULT:     -11.0      1.125      1.856
REMARK SMILES O=C(OCCOCCOC(=O)C1(Oc2cccc(F)c2)CCN(c2cc(NCCO)ncn2)CC1)c1ccc(-c2c3nc(c(-c4c(F)cc(S(=O)(=O)[O-])cc4F)c4ccc([nH]4)c(-c4c(F)cc(S(=O)(=O)[O-])cc4F)c4nc(c(-c5c(F)cc(S(=O)(=O)[O-])cc5F)c5ccc2[nH]5)C=C4)C=C3)cc1
REMARK SMILES IDX 7 1 6 2 5 3 4 4 3 5 2 6 1 7 36 8 37 9 101 10 38 11 100 12
REMARK SMILES IDX 39 13 40 14 41 15 94 16 42 17 99 18 93 19 95 20 43 21 98 22
REMARK SMILES IDX 92 23 91 24 44 26 78 27 57 28 77 29 58 30 61 31 76 32 96 33
REMARK SMILES IDX 59 34 60 35 75 37 97 38 62 39 45 40 46 41 55 42 47 43 48 44
REMARK SMILES IDX 54 45 56 46 49 47 50 48 51 49 52 50 53 51 79 52 80 53 89 54
REMARK SMILES IDX 81 55 82 56 88 57 90 58 83 59 84 60 85 61 86 62 87 63 63 64
REMARK SMILES IDX 64 65 73 66 65 67 66 68 72 69 74 70 67 71 68 72 69 73 70 74
REMARK SMILES IDX 71 75 8 76 9 77 10 78 11 79 12 80 21 81 35 82 22 83 34 84
REMARK SMILES IDX 23 85 13 86 14 87 15 88 20 89 16 90 18 91 17 92 19 93 24 94
REMARK SMILES IDX 25 95 33 96 26 97 32 98 31 99 27 100 28 102 29 103 30 104
REMARK H PARENT 95 25 61 36 27 101 30 105
REMARK Flexibility Score: inf
ROOT
ATOM      1  C   UNL A   1      35.684  30.215  27.592  1.00  0.00     0.202 C 
ENDROOT
BRANCH   1   2
ATOM      2  O   UNL A   1      35.472  31.579  27.966  1.00  0.00    -0.374 OA
BRANCH   2   3
ATOM      3  C   UNL A   1      34.645  31.804  29.102  1.00  0.00     0.202 C 
BRANCH   3   4
ATOM      4  C   UNL A   1      35.299  31.919  30.490  1.00  0.00     0.261 C 
BRANCH   4   5
ATOM      5  O   UNL A   1      36.719  31.623  30.434  1.00  0.00    -0.460 OA
BRANCH   5   6
ATOM      6  C   UNL A   1      37.343  30.480  30.850  1.00  0.00     0.338 C 
ATOM      7  O   UNL A   1      36.713  29.574  31.360  1.00  0.00    -0.246 OA
BRANCH   6   8
ATOM      8  C   UNL A   1      38.804  30.341  30.631  1.00  0.00     0.060 A 
ATOM      9  C   UNL A   1      39.372  30.815  29.468  1.00  0.00     0.016 A 
ATOM     10  C   UNL A   1      39.631  29.709  31.553  1.00  0.00     0.016 A 
ATOM     11  C   UNL A   1      40.583  30.389  29.028  1.00  0.00     0.010 A 
ATOM     12  C   UNL A   1      40.973  29.472  31.215  1.00  0.00     0.010 A 
ATOM     13  C   UNL A   1      41.427  29.765  29.919  1.00  0.00    -0.014 A 
BRANCH  13  14
ATOM     14  C   UNL A   1      42.711  29.347  29.343  1.00  0.00     0.031 A 
ATOM     15  C   UNL A   1      42.772  28.000  28.704  1.00  0.00     0.074 A 
ATOM     16  C   UNL A   1      43.677  30.274  29.174  1.00  0.00     0.049 A 
ATOM     17  N   UNL A   1      43.796  27.384  28.193  1.00  0.00    -0.248 NA
ATOM     18  C   UNL A   1      41.507  27.242  28.622  1.00  0.00     0.031 C 
ATOM     19  C   UNL A   1      43.581  31.688  29.582  1.00  0.00     0.029 A 
ATOM     20  N   UNL A   1      44.885  30.209  28.540  1.00  0.00    -0.354 N 
ATOM     21  C   UNL A   1      43.320  26.143  27.796  1.00  0.00     0.074 A 
ATOM     22  C   UNL A   1      41.914  26.090  28.113  1.00  0.00     0.031 C 
ATOM     23  C   UNL A   1      44.638  32.362  29.111  1.00  0.00     0.029 A 
ATOM     24  C   UNL A   1      45.557  31.409  28.515  1.00  0.00     0.049 A 
ATOM     25  H   UNL A   1      45.240  29.383  28.140  1.00  0.00     0.167 HD
ATOM     26  C   UNL A   1      44.026  25.142  27.229  1.00  0.00     0.037 A 
ATOM     27  C   UNL A   1      46.810  31.686  28.112  1.00  0.00     0.037 A 
ATOM     28  C   UNL A   1      45.422  25.279  26.917  1.00  0.00     0.049 A 
ATOM     29  C   UNL A   1      47.615  30.527  27.603  1.00  0.00     0.074 A 
ATOM     30  C   UNL A   1      46.305  24.326  26.454  1.00  0.00     0.029 A 
ATOM     31  N   UNL A   1      46.132  26.472  27.029  1.00  0.00    -0.354 N 
ATOM     32  N   UNL A   1      47.223  29.290  27.397  1.00  0.00    -0.248 NA
ATOM     33  C   UNL A   1      49.027  30.776  27.311  1.00  0.00     0.031 C 
ATOM     34  C   UNL A   1      47.560  24.934  26.328  1.00  0.00     0.029 A 
ATOM     35  C   UNL A   1      47.447  26.280  26.655  1.00  0.00     0.049 A 
ATOM     36  H   UNL A   1      45.751  27.328  27.333  1.00  0.00     0.167 HD
ATOM     37  C   UNL A   1      48.340  28.606  26.945  1.00  0.00     0.074 A 
ATOM     38  C   UNL A   1      49.417  29.581  26.888  1.00  0.00     0.031 C 
ATOM     39  C   UNL A   1      48.472  27.297  26.615  1.00  0.00     0.037 A 
BRANCH  26  40
ATOM     40  C   UNL A   1      43.320  23.833  27.027  1.00  0.00     0.058 A 
ATOM     41  C   UNL A   1      43.064  23.002  28.130  1.00  0.00     0.135 A 
ATOM     42  C   UNL A   1      42.840  23.422  25.774  1.00  0.00     0.135 A 
ATOM     43  F   UNL A   1      43.471  23.360  29.356  1.00  0.00    -0.206 F 
ATOM     44  C   UNL A   1      42.364  21.808  27.995  1.00  0.00     0.059 A 
ATOM     45  C   UNL A   1      42.113  22.243  25.621  1.00  0.00     0.059 A 
ATOM     46  F   UNL A   1      43.009  24.204  24.695  1.00  0.00    -0.206 F 
ATOM     47  C   UNL A   1      41.888  21.438  26.738  1.00  0.00     0.060 A 
BRANCH  47  48
ATOM     48  S   UNL A   1      40.921  19.920  26.598  1.00  0.00     0.124 S 
ATOM     49  O   UNL A   1      39.666  20.414  26.046  1.00  0.00    -0.237 OA
ATOM     50  O   UNL A   1      41.743  19.117  25.696  1.00  0.00    -0.237 OA
ATOM     51  O   UNL A   1      40.859  19.432  27.973  1.00  0.00    -0.744 OA
ENDBRANCH  47  48
ENDBRANCH  26  40
BRANCH  27  52
ATOM     52  C   UNL A   1      47.363  33.060  28.265  1.00  0.00     0.058 A 
ATOM     53  C   UNL A   1      47.287  33.996  27.216  1.00  0.00     0.135 A 
ATOM     54  C   UNL A   1      48.034  33.454  29.431  1.00  0.00     0.135 A 
ATOM     55  F   UNL A   1      46.663  33.678  26.071  1.00  0.00    -0.206 F 
ATOM     56  C   UNL A   1      47.891  35.246  27.300  1.00  0.00     0.059 A 
ATOM     57  C   UNL A   1      48.619  34.715  29.552  1.00  0.00     0.059 A 
ATOM     58  F   UNL A   1      48.126  32.607  30.467  1.00  0.00    -0.206 F 
ATOM     59  C   UNL A   1      48.559  35.596  28.473  1.00  0.00     0.060 A 
BRANCH  59  60
ATOM     60  S   UNL A   1      49.342  37.221  28.553  1.00  0.00     0.124 S 
ATOM     61  O   UNL A   1      50.754  36.862  28.646  1.00  0.00    -0.237 OA
ATOM     62  O   UNL A   1      48.924  37.823  27.291  1.00  0.00    -0.237 OA
ATOM     63  O   UNL A   1      48.764  37.816  29.753  1.00  0.00    -0.744 OA
ENDBRANCH  59  60
ENDBRANCH  27  52
BRANCH  39  64
ATOM     64  C   UNL A   1      49.821  26.862  26.132  1.00  0.00     0.058 A 
ATOM     65  C   UNL A   1      50.756  26.348  27.042  1.00  0.00     0.135 A 
ATOM     66  C   UNL A   1      50.212  27.036  24.797  1.00  0.00     0.135 A 
ATOM     67  F   UNL A   1      50.423  26.172  28.331  1.00  0.00    -0.206 F 
ATOM     68  C   UNL A   1      52.048  26.041  26.649  1.00  0.00     0.059 A 
ATOM     69  C   UNL A   1      51.493  26.704  24.374  1.00  0.00     0.059 A 
ATOM     70  F   UNL A   1      49.342  27.513  23.892  1.00  0.00    -0.206 F 
ATOM     71  C   UNL A   1      52.409  26.227  25.312  1.00  0.00     0.060 A 
BRANCH  71  72
ATOM     72  S   UNL A   1      54.093  25.817  24.819  1.00  0.00     0.124 S 
ATOM     73  O   UNL A   1      54.878  26.549  25.808  1.00  0.00    -0.237 OA
ATOM     74  O   UNL A   1      54.104  24.363  24.946  1.00  0.00    -0.237 OA
ATOM     75  O   UNL A   1      54.176  26.321  23.451  1.00  0.00    -0.744 OA
ENDBRANCH  71  72
ENDBRANCH  39  64
ENDBRANCH  13  14
ENDBRANCH   6   8
ENDBRANCH   5   6
ENDBRANCH   4   5
ENDBRANCH   3   4
ENDBRANCH   2   3
ENDBRANCH   1   2
BRANCH   1  76
ATOM     76  C   UNL A   1      34.345  29.524  27.393  1.00  0.00     0.261 C 
BRANCH  76  77
ATOM     77  O   UNL A   1      33.967  29.670  26.013  1.00  0.00    -0.460 OA
BRANCH  77  78
ATOM     78  C   UNL A   1      32.628  29.690  25.759  1.00  0.00     0.350 C 
ATOM     79  O   UNL A   1      31.860  30.553  26.174  1.00  0.00    -0.247 OA
BRANCH  78  80
ATOM     80  C   UNL A   1      32.185  28.515  24.875  1.00  0.00     0.209 C 
ATOM     81  C   UNL A   1      31.048  27.688  25.493  1.00  0.00     0.082 C 
ATOM     82  C   UNL A   1      33.397  27.638  24.445  1.00  0.00     0.082 C 
ATOM     83  C   UNL A   1      31.556  26.698  26.529  1.00  0.00     0.123 C 
ATOM     84  C   UNL A   1      33.738  26.424  25.320  1.00  0.00     0.123 C 
ATOM     85  N   UNL A   1      32.560  25.856  25.921  1.00  0.00    -0.356 N 
BRANCH  80  86
ATOM     86  O   UNL A   1      31.670  29.398  23.821  1.00  0.00    -0.475 OA
BRANCH  86  87
ATOM     87  C   UNL A   1      30.345  29.322  23.553  1.00  0.00     0.123 A 
ATOM     88  C   UNL A   1      29.801  28.089  23.211  1.00  0.00     0.047 A 
ATOM     89  C   UNL A   1      29.540  30.446  23.710  1.00  0.00     0.085 A 
ATOM     90  C   UNL A   1      28.446  27.992  22.918  1.00  0.00     0.007 A 
ATOM     91  C   UNL A   1      28.190  30.339  23.416  1.00  0.00     0.126 A 
ATOM     92  C   UNL A   1      27.640  29.127  23.008  1.00  0.00     0.039 A 
ATOM     93  F   UNL A   1      27.403  31.418  23.516  1.00  0.00    -0.207 F 
ENDBRANCH  86  87
ENDBRANCH  80  86
BRANCH  85  94
ATOM     94  C   UNL A   1      32.409  24.489  25.920  1.00  0.00     0.134 A 
ATOM     95  C   UNL A   1      33.486  23.652  25.676  1.00  0.00     0.093 A 
ATOM     96  N   UNL A   1      31.172  24.011  26.095  1.00  0.00    -0.219 NA
ATOM     97  C   UNL A   1      33.252  22.292  25.612  1.00  0.00     0.131 A 
ATOM     98  C   UNL A   1      31.032  22.691  25.952  1.00  0.00     0.226 A 
ATOM     99  N   UNL A   1      32.008  21.805  25.715  1.00  0.00    -0.219 NA
BRANCH  97 100
ATOM    100  N   UNL A   1      34.317  21.434  25.362  1.00  0.00    -0.368 N 
ATOM    101  H   UNL A   1      34.156  20.561  24.939  1.00  0.00     0.162 HD
BRANCH 100 102
ATOM    102  C   UNL A   1      35.674  21.831  25.729  1.00  0.00     0.142 C 
BRANCH 102 103
ATOM    103  C   UNL A   1      36.567  21.856  24.486  1.00  0.00     0.177 C 
BRANCH 103 104
ATOM    104  O   UNL A   1      37.870  22.335  24.812  1.00  0.00    -0.395 OA
ATOM    105  H   UNL A   1      37.805  22.990  25.524  1.00  0.00     0.210 HD
ENDBRANCH 103 104
ENDBRANCH 102 103
ENDBRANCH 100 102
ENDBRANCH  97 100
ENDBRANCH  85  94
ENDBRANCH  78  80
ENDBRANCH  77  78
ENDBRANCH  76  77
ENDBRANCH   1  76
TORSDOF 24
ENDMDL
MODEL 3
REMARK VINA RESULT:     -11.0      6.147     11.648
REMARK SMILES O=C(OCCOCCOC(=O)C1(Oc2cccc(F)c2)CCN(c2cc(NCCO)ncn2)CC1)c1ccc(-c2c3nc(c(-c4c(F)cc(S(=O)(=O)[O-])cc4F)c4ccc([nH]4)c(-c4c(F)cc(S(=O)(=O)[O-])cc4F)c4nc(c(-c5c(F)cc(S(=O)(=O)[O-])cc5F)c5ccc2[nH]5)C=C4)C=C3)cc1
REMARK SMILES IDX 7 1 6 2 5 3 4 4 3 5 2 6 1 7 36 8 37 9 101 10 38 11 100 12
REMARK SMILES IDX 39 13 40 14 41 15 94 16 42 17 99 18 93 19 95 20 43 21 98 22
REMARK SMILES IDX 92 23 91 24 44 26 78 27 57 28 77 29 58 30 61 31 76 32 96 33
REMARK SMILES IDX 59 34 60 35 75 37 97 38 62 39 45 40 46 41 55 42 47 43 48 44
REMARK SMILES IDX 54 45 56 46 49 47 50 48 51 49 52 50 53 51 79 52 80 53 89 54
REMARK SMILES IDX 81 55 82 56 88 57 90 58 83 59 84 60 85 61 86 62 87 63 63 64
REMARK SMILES IDX 64 65 73 66 65 67 66 68 72 69 74 70 67 71 68 72 69 73 70 74
REMARK SMILES IDX 71 75 8 76 9 77 10 78 11 79 12 80 21 81 35 82 22 83 34 84
REMARK SMILES IDX 23 85 13 86 14 87 15 88 20 89 16 90 18 91 17 92 19 93 24 94
REMARK SMILES IDX 25 95 33 96 26 97 32 98 31 99 27 100 28 102 29 103 30 104
REMARK H PARENT 95 25 61 36 27 101 30 105
REMARK Flexibility Score: inf
ROOT
ATOM      1  C   UNL A   1      40.048  20.581  26.315  1.00  0.00     0.202 C 
ENDROOT
BRANCH   1   2
ATOM      2  O   UNL A   1      41.322  20.838  26.913  1.00  0.00    -0.374 OA
BRANCH   2   3
ATOM      3  C   UNL A   1      42.410  21.049  26.022  1.00  0.00     0.202 C 
BRANCH   3   4
ATOM      4  C   UNL A   1      42.612  22.446  25.408  1.00  0.00     0.261 C 
BRANCH   4   5
ATOM      5  O   UNL A   1      42.192  23.492  26.321  1.00  0.00    -0.460 OA
BRANCH   5   6
ATOM      6  C   UNL A   1      42.220  24.842  26.102  1.00  0.00     0.338 C 
ATOM      7  O   UNL A   1      42.693  25.299  25.080  1.00  0.00    -0.246 OA
BRANCH   6   8
ATOM      8  C   UNL A   1      41.621  25.745  27.115  1.00  0.00     0.060 A 
ATOM      9  C   UNL A   1      41.954  27.082  27.126  1.00  0.00     0.016 A 
ATOM     10  C   UNL A   1      40.747  25.281  28.093  1.00  0.00     0.016 A 
ATOM     11  C   UNL A   1      41.770  27.866  28.218  1.00  0.00     0.010 A 
ATOM     12  C   UNL A   1      40.340  26.154  29.113  1.00  0.00     0.010 A 
ATOM     13  C   UNL A   1      40.907  27.436  29.201  1.00  0.00    -0.014 A 
BRANCH  13  14
ATOM     14  C   UNL A   1      40.778  28.357  30.336  1.00  0.00     0.031 A 
ATOM     15  C   UNL A   1      41.887  28.378  31.334  1.00  0.00     0.074 A 
ATOM     16  C   UNL A   1      39.826  29.314  30.289  1.00  0.00     0.049 A 
ATOM     17  N   UNL A   1      41.972  29.047  32.446  1.00  0.00    -0.248 NA
ATOM     18  C   UNL A   1      43.065  27.538  31.042  1.00  0.00     0.031 C 
ATOM     19  C   UNL A   1      38.842  29.481  29.204  1.00  0.00     0.029 A 
ATOM     20  N   UNL A   1      39.578  30.377  31.110  1.00  0.00    -0.354 N 
ATOM     21  C   UNL A   1      43.173  28.656  33.020  1.00  0.00     0.074 A 
ATOM     22  C   UNL A   1      43.793  27.700  32.135  1.00  0.00     0.031 C 
ATOM     23  C   UNL A   1      38.166  30.623  29.387  1.00  0.00     0.029 A 
ATOM     24  C   UNL A   1      38.550  31.180  30.672  1.00  0.00     0.049 A 
ATOM     25  H   UNL A   1      40.086  30.551  31.934  1.00  0.00     0.167 HD
ATOM     26  C   UNL A   1      43.685  29.067  34.200  1.00  0.00     0.037 A 
ATOM     27  C   UNL A   1      37.945  32.213  31.283  1.00  0.00     0.037 A 
ATOM     28  C   UNL A   1      43.022  30.046  35.016  1.00  0.00     0.049 A 
ATOM     29  C   UNL A   1      38.454  32.567  32.649  1.00  0.00     0.074 A 
ATOM     30  C   UNL A   1      43.345  30.480  36.285  1.00  0.00     0.029 A 
ATOM     31  N   UNL A   1      41.893  30.757  34.616  1.00  0.00    -0.354 N 
ATOM     32  N   UNL A   1      39.488  32.068  33.288  1.00  0.00    -0.248 NA
ATOM     33  C   UNL A   1      37.707  33.580  33.394  1.00  0.00     0.031 C 
ATOM     34  C   UNL A   1      42.383  31.422  36.669  1.00  0.00     0.029 A 
ATOM     35  C   UNL A   1      41.496  31.620  35.618  1.00  0.00     0.049 A 
ATOM     36  H   UNL A   1      41.442  30.656  33.747  1.00  0.00     0.167 HD
ATOM     37  C   UNL A   1      39.524  32.710  34.515  1.00  0.00     0.074 A 
ATOM     38  C   UNL A   1      38.415  33.650  34.514  1.00  0.00     0.031 C 
ATOM     39  C   UNL A   1      40.382  32.538  35.552  1.00  0.00     0.037 A 
BRANCH  26  40
ATOM     40  C   UNL A   1      44.932  28.385  34.681  1.00  0.00     0.058 A 
ATOM     41  C   UNL A   1      46.186  28.968  34.431  1.00  0.00     0.135 A 
ATOM     42  C   UNL A   1      44.901  27.202  35.435  1.00  0.00     0.135 A 
ATOM     43  F   UNL A   1      46.274  30.116  33.742  1.00  0.00    -0.206 F 
ATOM     44  C   UNL A   1      47.362  28.398  34.906  1.00  0.00     0.059 A 
ATOM     45  C   UNL A   1      46.065  26.629  35.944  1.00  0.00     0.059 A 
ATOM     46  F   UNL A   1      43.726  26.632  35.749  1.00  0.00    -0.206 F 
ATOM     47  C   UNL A   1      47.292  27.231  35.666  1.00  0.00     0.060 A 
BRANCH  47  48
ATOM     48  S   UNL A   1      48.824  26.547  36.332  1.00  0.00     0.124 S 
ATOM     49  O   UNL A   1      48.374  25.980  37.597  1.00  0.00    -0.237 OA
ATOM     50  O   UNL A   1      49.203  25.585  35.301  1.00  0.00    -0.237 OA
ATOM     51  O   UNL A   1      49.696  27.713  36.438  1.00  0.00    -0.744 OA
ENDBRANCH  47  48
ENDBRANCH  26  40
BRANCH  27  52
ATOM     52  C   UNL A   1      36.777  32.883  30.647  1.00  0.00     0.058 A 
ATOM     53  C   UNL A   1      36.952  33.849  29.638  1.00  0.00     0.135 A 
ATOM     54  C   UNL A   1      35.465  32.628  31.071  1.00  0.00     0.135 A 
ATOM     55  F   UNL A   1      38.184  34.143  29.193  1.00  0.00    -0.206 F 
ATOM     56  C   UNL A   1      35.884  34.563  29.109  1.00  0.00     0.059 A 
ATOM     57  C   UNL A   1      34.373  33.307  30.531  1.00  0.00     0.059 A 
ATOM     58  F   UNL A   1      35.238  31.709  32.022  1.00  0.00    -0.206 F 
ATOM     59  C   UNL A   1      34.595  34.287  29.565  1.00  0.00     0.060 A 
BRANCH  59  60
ATOM     60  S   UNL A   1      33.225  35.235  28.867  1.00  0.00     0.124 S 
ATOM     61  O   UNL A   1      32.616  34.255  27.973  1.00  0.00    -0.237 OA
ATOM     62  O   UNL A   1      32.451  35.572  30.058  1.00  0.00    -0.237 OA
ATOM     63  O   UNL A   1      33.888  36.357  28.212  1.00  0.00    -0.744 OA
ENDBRANCH  59  60
ENDBRANCH  27  52
BRANCH  39  64
ATOM     64  C   UNL A   1      40.169  33.411  36.749  1.00  0.00     0.058 A 
ATOM     65  C   UNL A   1      39.266  33.018  37.748  1.00  0.00     0.135 A 
ATOM     66  C   UNL A   1      40.786  34.665  36.860  1.00  0.00     0.135 A 
ATOM     67  F   UNL A   1      38.649  31.827  37.675  1.00  0.00    -0.206 F 
ATOM     68  C   UNL A   1      38.963  33.853  38.811  1.00  0.00     0.059 A 
ATOM     69  C   UNL A   1      40.521  35.504  37.935  1.00  0.00     0.059 A 
ATOM     70  F   UNL A   1      41.666  35.072  35.931  1.00  0.00    -0.206 F 
ATOM     71  C   UNL A   1      39.593  35.097  38.894  1.00  0.00     0.060 A 
BRANCH  71  72
ATOM     72  S   UNL A   1      39.187  36.166  40.287  1.00  0.00     0.124 S 
ATOM     73  O   UNL A   1      38.180  35.374  40.985  1.00  0.00    -0.237 OA
ATOM     74  O   UNL A   1      40.477  36.294  40.959  1.00  0.00    -0.237 OA
ATOM     75  O   UNL A   1      38.699  37.384  39.646  1.00  0.00    -0.744 OA
ENDBRANCH  71  72
ENDBRANCH  39  64
ENDBRANCH  13  14
ENDBRANCH   6   8
ENDBRANCH   5   6
ENDBRANCH   4   5
ENDBRANCH   3   4
ENDBRANCH   2   3
ENDBRANCH   1   2
BRANCH   1  76
ATOM     76  C   UNL A   1      39.321  21.893  26.072  1.00  0.00     0.261 C 
BRANCH  76  77
ATOM     77  O   UNL A   1      37.967  21.591  25.693  1.00  0.00    -0.460 OA
BRANCH  77  78
ATOM     78  C   UNL A   1      37.080  22.623  25.774  1.00  0.00     0.350 C 
ATOM     79  O   UNL A   1      37.379  23.765  26.112  1.00  0.00    -0.247 OA
BRANCH  78  80
ATOM     80  C   UNL A   1      35.659  22.202  25.375  1.00  0.00     0.209 C 
ATOM     81  C   UNL A   1      35.330  22.497  23.904  1.00  0.00     0.082 C 
ATOM     82  C   UNL A   1      34.597  22.784  26.353  1.00  0.00     0.082 C 
ATOM     83  C   UNL A   1      34.946  23.952  23.683  1.00  0.00     0.123 C 
ATOM     84  C   UNL A   1      33.951  24.125  25.981  1.00  0.00     0.123 C 
ATOM     85  N   UNL A   1      33.842  24.283  24.554  1.00  0.00    -0.356 N 
BRANCH  80  86
ATOM     86  O   UNL A   1      35.941  20.774  25.566  1.00  0.00    -0.475 OA
BRANCH  86  87
ATOM     87  C   UNL A   1      34.987  19.901  25.160  1.00  0.00     0.123 A 
ATOM     88  C   UNL A   1      33.652  20.278  25.255  1.00  0.00     0.047 A 
ATOM     89  C   UNL A   1      35.356  18.693  24.576  1.00  0.00     0.085 A 
ATOM     90  C   UNL A   1      32.658  19.392  24.858  1.00  0.00     0.007 A 
ATOM     91  C   UNL A   1      34.357  17.817  24.182  1.00  0.00     0.126 A 
ATOM     92  C   UNL A   1      33.013  18.150  24.331  1.00  0.00     0.039 A 
ATOM     93  F   UNL A   1      34.686  16.629  23.659  1.00  0.00    -0.207 F 
ENDBRANCH  86  87
ENDBRANCH  80  86
BRANCH  85  94
ATOM     94  C   UNL A   1      32.668  24.769  24.029  1.00  0.00     0.134 A 
ATOM     95  C   UNL A   1      32.653  25.926  23.266  1.00  0.00     0.093 A 
ATOM     96  N   UNL A   1      31.542  24.119  24.343  1.00  0.00    -0.219 NA
ATOM     97  C   UNL A   1      31.431  26.404  22.833  1.00  0.00     0.131 A 
ATOM     98  C   UNL A   1      30.407  24.691  23.935  1.00  0.00     0.226 A 
ATOM     99  N   UNL A   1      30.291  25.804  23.199  1.00  0.00    -0.219 NA
BRANCH  97 100
ATOM    100  N   UNL A   1      31.392  27.567  22.072  1.00  0.00    -0.368 N 
ATOM    101  H   UNL A   1      31.194  27.519  21.109  1.00  0.00     0.162 HD
BRANCH 100 102
ATOM    102  C   UNL A   1      31.646  28.860  22.703  1.00  0.00     0.142 C 
BRANCH 102 103
ATOM    103  C   UNL A   1      33.152  29.131  22.753  1.00  0.00     0.177 C 
BRANCH 103 104
ATOM    104  O   UNL A   1      33.538  29.593  24.046  1.00  0.00    -0.395 OA
ATOM    105  H   UNL A   1      33.870  28.849  24.571  1.00  0.00     0.210 HD
ENDBRANCH 103 104
ENDBRANCH 102 103
ENDBRANCH 100 102
ENDBRANCH  97 100
ENDBRANCH  85  94
ENDBRANCH  78  80
ENDBRANCH  77  78
ENDBRANCH  76  77
ENDBRANCH   1  76
TORSDOF 24
ENDMDL
