MODEL 1
REMARK VINA RESULT:     -10.2      0.000      0.000
REMARK SMILES Cc1cc(Br)c(C)c([C@@H]2[NH2+][C@H](C(=O)OCCOCCOC(=O)c3ccc(-c4c5nc(c(-c6c(F)cc(S(=O)(=O)[O-])cc6F)c6ccc([nH]6)c(-c6c(F)cc(S(=O)(=O)[O-])cc6F)c6nc(c(-c7c(F)cc(S(=O)(=O)[O-])cc7F)c7ccc4[nH]7)C=C6)C=C5)cc3)CS2)c1O
REMARK SMILES IDX 18 1 17 2 16 3 15 4 14 5 12 6 13 7 11 8 9 9 10 10 90 11
REMARK SMILES IDX 89 14 8 15 1 16 2 17 3 18 91 19 4 20 5 21 6 22 7 23 92 24
REMARK SMILES IDX 19 26 20 27 21 28 22 29 23 30 24 31 88 32 25 33 87 34 26 35
REMARK SMILES IDX 27 36 28 37 81 38 29 39 86 40 80 41 82 42 30 43 85 44 79 45
REMARK SMILES IDX 78 46 31 48 65 49 44 50 64 51 45 52 48 53 63 54 83 55 46 56
REMARK SMILES IDX 47 57 62 59 84 60 49 61 32 62 33 63 42 64 34 65 35 66 41 67
REMARK SMILES IDX 43 68 36 69 37 70 38 71 39 72 40 73 66 74 67 75 76 76 68 77
REMARK SMILES IDX 69 78 75 79 77 80 70 81 71 82 72 83 73 84 74 85 50 86 51 87
REMARK SMILES IDX 60 88 52 89 53 90 59 91 61 92 54 93 55 94 56 95 57 96 58 97
REMARK H PARENT 10 12 10 13 92 25 82 47 48 58
REMARK Flexibility Score: inf
ROOT
ATOM      1  C   UNL A   1      35.483  33.006  28.011  1.00  0.00     0.202 C 
ENDROOT
BRANCH   1   2
ATOM      2  O   UNL A   1      34.621  34.032  27.528  1.00  0.00    -0.374 OA
BRANCH   2   3
ATOM      3  C   UNL A   1      34.520  35.211  28.331  1.00  0.00     0.202 C 
BRANCH   3   4
ATOM      4  C   UNL A   1      33.231  35.350  29.143  1.00  0.00     0.261 C 
BRANCH   4   5
ATOM      5  O   UNL A   1      33.322  34.555  30.334  1.00  0.00    -0.459 OA
BRANCH   5   6
ATOM      6  C   UNL A   1      33.265  35.196  31.532  1.00  0.00     0.365 C 
ATOM      7  O   UNL A   1      32.719  36.275  31.727  1.00  0.00    -0.245 OA
BRANCH   6   8
ATOM      8  C   UNL A   1      33.968  34.404  32.639  1.00  0.00     0.304 C 
ATOM      9  C   UNL A   1      35.999  33.174  33.078  1.00  0.00     0.278 C 
ATOM     10  N   UNL A   1      34.941  33.428  32.099  1.00  0.00    -0.319 N 
ATOM     11  S   UNL A   1      35.917  34.423  34.390  1.00  0.00    -0.087 SA
ATOM     12  H   UNL A   1      34.460  32.554  31.889  1.00  0.00     0.348 HD
ATOM     13  H   UNL A   1      35.358  33.809  31.250  1.00  0.00     0.348 HD
ATOM     14  C   UNL A   1      34.663  35.398  33.551  1.00  0.00     0.153 C 
BRANCH   9  15
ATOM     15  C   UNL A   1      37.406  33.027  32.497  1.00  0.00     0.066 A 
ATOM     16  C   UNL A   1      39.620  34.520  29.715  1.00  0.00     0.048 C 
ATOM     17  C   UNL A   1      39.109  33.628  30.808  1.00  0.00    -0.008 A 
ATOM     18  C   UNL A   1      40.011  32.750  31.403  1.00  0.00     0.023 A 
ATOM     19  C   UNL A   1      37.818  33.740  31.346  1.00  0.00     0.128 A 
ATOM     20  C   UNL A   1      39.657  32.051  32.553  1.00  0.00     0.021 A 
ATOM     21  Br  UNL A   1      41.004  30.933  33.306  1.00  0.00    -0.051 Br
ATOM     22  C   UNL A   1      38.379  32.203  33.140  1.00  0.00    -0.023 A 
ATOM     23  C   UNL A   1      38.124  31.533  34.470  1.00  0.00     0.046 C 
BRANCH  19  24
ATOM     24  O   UNL A   1      36.953  34.611  30.740  1.00  0.00    -0.507 OA
ATOM     25  H   UNL A   1      37.249  35.461  30.481  1.00  0.00     0.293 HD
ENDBRANCH  19  24
ENDBRANCH   9  15
ENDBRANCH   6   8
ENDBRANCH   5   6
ENDBRANCH   4   5
ENDBRANCH   3   4
ENDBRANCH   2   3
ENDBRANCH   1   2
BRANCH   1  26
ATOM     26  C   UNL A   1      34.830  31.890  28.837  1.00  0.00     0.261 C 
BRANCH  26  27
ATOM     27  O   UNL A   1      35.596  30.676  28.860  1.00  0.00    -0.460 OA
BRANCH  27  28
ATOM     28  C   UNL A   1      36.235  30.417  30.028  1.00  0.00     0.338 C 
ATOM     29  O   UNL A   1      35.751  30.383  31.148  1.00  0.00    -0.246 OA
BRANCH  28  30
ATOM     30  C   UNL A   1      37.623  30.018  29.722  1.00  0.00     0.060 A 
ATOM     31  C   UNL A   1      38.160  30.257  28.463  1.00  0.00     0.016 A 
ATOM     32  C   UNL A   1      38.395  29.396  30.712  1.00  0.00     0.016 A 
ATOM     33  C   UNL A   1      39.468  29.849  28.194  1.00  0.00     0.010 A 
ATOM     34  C   UNL A   1      39.712  28.996  30.435  1.00  0.00     0.010 A 
ATOM     35  C   UNL A   1      40.267  29.202  29.165  1.00  0.00    -0.014 A 
BRANCH  35  36
ATOM     36  C   UNL A   1      41.663  28.777  28.813  1.00  0.00     0.031 A 
ATOM     37  C   UNL A   1      41.996  27.365  28.370  1.00  0.00     0.074 A 
ATOM     38  C   UNL A   1      42.644  29.706  28.807  1.00  0.00     0.049 A 
ATOM     39  N   UNL A   1      43.141  26.887  27.940  1.00  0.00    -0.248 NA
ATOM     40  C   UNL A   1      40.918  26.363  28.401  1.00  0.00     0.031 C 
ATOM     41  C   UNL A   1      42.479  31.101  29.218  1.00  0.00     0.029 A 
ATOM     42  N   UNL A   1      43.956  29.638  28.402  1.00  0.00    -0.354 N 
ATOM     43  C   UNL A   1      42.922  25.544  27.647  1.00  0.00     0.074 A 
ATOM     44  C   UNL A   1      41.540  25.269  27.975  1.00  0.00     0.031 C 
ATOM     45  C   UNL A   1      43.607  31.776  28.957  1.00  0.00     0.029 A 
ATOM     46  C   UNL A   1      44.612  30.849  28.447  1.00  0.00     0.049 A 
ATOM     47  H   UNL A   1      44.387  28.803  28.108  1.00  0.00     0.167 HD
ATOM     48  C   UNL A   1      43.782  24.625  27.139  1.00  0.00     0.037 A 
ATOM     49  C   UNL A   1      45.879  31.187  28.134  1.00  0.00     0.037 A 
ATOM     50  C   UNL A   1      45.160  24.889  26.800  1.00  0.00     0.049 A 
ATOM     51  C   UNL A   1      46.830  30.129  27.647  1.00  0.00     0.074 A 
ATOM     52  C   UNL A   1      46.094  24.013  26.270  1.00  0.00     0.029 A 
ATOM     53  N   UNL A   1      45.804  26.107  26.954  1.00  0.00    -0.354 N 
ATOM     54  N   UNL A   1      46.588  28.874  27.361  1.00  0.00    -0.248 NA
ATOM     55  C   UNL A   1      48.234  30.528  27.464  1.00  0.00     0.031 C 
ATOM     56  C   UNL A   1      47.314  24.684  26.153  1.00  0.00     0.029 A 
ATOM     57  C   UNL A   1      47.129  25.994  26.561  1.00  0.00     0.049 A 
ATOM     58  H   UNL A   1      45.383  26.929  27.293  1.00  0.00     0.167 HD
ATOM     59  C   UNL A   1      47.807  28.336  26.962  1.00  0.00     0.074 A 
ATOM     60  C   UNL A   1      48.777  29.408  27.010  1.00  0.00     0.031 C 
ATOM     61  C   UNL A   1      48.096  27.061  26.606  1.00  0.00     0.037 A 
BRANCH  48  62
ATOM     62  C   UNL A   1      43.283  23.223  26.895  1.00  0.00     0.058 A 
ATOM     63  C   UNL A   1      43.113  22.724  25.594  1.00  0.00     0.135 A 
ATOM     64  C   UNL A   1      43.110  22.327  27.965  1.00  0.00     0.135 A 
ATOM     65  F   UNL A   1      43.259  23.538  24.536  1.00  0.00    -0.206 F 
ATOM     66  C   UNL A   1      42.793  21.390  25.362  1.00  0.00     0.059 A 
ATOM     67  C   UNL A   1      42.813  20.982  27.754  1.00  0.00     0.059 A 
ATOM     68  F   UNL A   1      43.266  22.748  29.229  1.00  0.00    -0.206 F 
ATOM     69  C   UNL A   1      42.655  20.524  26.448  1.00  0.00     0.060 A 
BRANCH  69  70
ATOM     70  S   UNL A   1      42.286  18.785  26.121  1.00  0.00     0.124 S 
ATOM     71  O   UNL A   1      40.884  18.856  25.718  1.00  0.00    -0.237 OA
ATOM     72  O   UNL A   1      43.234  18.462  25.061  1.00  0.00    -0.237 OA
ATOM     73  O   UNL A   1      42.535  18.135  27.403  1.00  0.00    -0.744 OA
ENDBRANCH  69  70
ENDBRANCH  48  62
BRANCH  49  74
ATOM     74  C   UNL A   1      46.340  32.593  28.303  1.00  0.00     0.058 A 
ATOM     75  C   UNL A   1      46.253  33.516  27.250  1.00  0.00     0.135 A 
ATOM     76  C   UNL A   1      46.883  33.039  29.518  1.00  0.00     0.135 A 
ATOM     77  F   UNL A   1      45.754  33.137  26.063  1.00  0.00    -0.206 F 
ATOM     78  C   UNL A   1      46.702  34.826  27.390  1.00  0.00     0.059 A 
ATOM     79  C   UNL A   1      47.304  34.353  29.695  1.00  0.00     0.059 A 
ATOM     80  F   UNL A   1      46.982  32.200  30.561  1.00  0.00    -0.206 F 
ATOM     81  C   UNL A   1      47.222  35.235  28.620  1.00  0.00     0.060 A 
BRANCH  81  82
ATOM     82  S   UNL A   1      47.774  36.944  28.801  1.00  0.00     0.124 S 
ATOM     83  O   UNL A   1      46.532  37.616  29.162  1.00  0.00    -0.237 OA
ATOM     84  O   UNL A   1      48.772  36.830  29.859  1.00  0.00    -0.237 OA
ATOM     85  O   UNL A   1      48.305  37.267  27.480  1.00  0.00    -0.744 OA
ENDBRANCH  81  82
ENDBRANCH  49  74
BRANCH  61  86
ATOM     86  C   UNL A   1      49.520  26.736  26.246  1.00  0.00     0.058 A 
ATOM     87  C   UNL A   1      50.397  26.169  27.184  1.00  0.00     0.135 A 
ATOM     88  C   UNL A   1      49.988  26.907  24.933  1.00  0.00     0.135 A 
ATOM     89  F   UNL A   1      50.003  25.993  28.455  1.00  0.00    -0.206 F 
ATOM     90  C   UNL A   1      51.689  25.790  26.836  1.00  0.00     0.059 A 
ATOM     91  C   UNL A   1      51.269  26.509  24.555  1.00  0.00     0.059 A 
ATOM     92  F   UNL A   1      49.189  27.439  23.994  1.00  0.00    -0.206 F 
ATOM     93  C   UNL A   1      52.112  25.954  25.516  1.00  0.00     0.060 A 
BRANCH  93  94
ATOM     94  S   UNL A   1      53.769  25.393  25.071  1.00  0.00     0.124 S 
ATOM     95  O   UNL A   1      53.652  23.950  25.252  1.00  0.00    -0.237 OA
ATOM     96  O   UNL A   1      53.891  25.851  23.691  1.00  0.00    -0.237 OA
ATOM     97  O   UNL A   1      54.632  26.076  26.032  1.00  0.00    -0.744 OA
ENDBRANCH  93  94
ENDBRANCH  61  86
ENDBRANCH  35  36
ENDBRANCH  28  30
ENDBRANCH  27  28
ENDBRANCH  26  27
ENDBRANCH   1  26
TORSDOF 19
ENDMDL
MODEL 2
REMARK VINA RESULT:     -10.1      5.581     13.519
REMARK SMILES Cc1cc(Br)c(C)c([C@@H]2[NH2+][C@H](C(=O)OCCOCCOC(=O)c3ccc(-c4c5nc(c(-c6c(F)cc(S(=O)(=O)[O-])cc6F)c6ccc([nH]6)c(-c6c(F)cc(S(=O)(=O)[O-])cc6F)c6nc(c(-c7c(F)cc(S(=O)(=O)[O-])cc7F)c7ccc4[nH]7)C=C6)C=C5)cc3)CS2)c1O
REMARK SMILES IDX 18 1 17 2 16 3 15 4 14 5 12 6 13 7 11 8 9 9 10 10 90 11
REMARK SMILES IDX 89 14 8 15 1 16 2 17 3 18 91 19 4 20 5 21 6 22 7 23 92 24
REMARK SMILES IDX 19 26 20 27 21 28 22 29 23 30 24 31 88 32 25 33 87 34 26 35
REMARK SMILES IDX 27 36 28 37 81 38 29 39 86 40 80 41 82 42 30 43 85 44 79 45
REMARK SMILES IDX 78 46 31 48 65 49 44 50 64 51 45 52 48 53 63 54 83 55 46 56
REMARK SMILES IDX 47 57 62 59 84 60 49 61 32 62 33 63 42 64 34 65 35 66 41 67
REMARK SMILES IDX 43 68 36 69 37 70 38 71 39 72 40 73 66 74 67 75 76 76 68 77
REMARK SMILES IDX 69 78 75 79 77 80 70 81 71 82 72 83 73 84 74 85 50 86 51 87
REMARK SMILES IDX 60 88 52 89 53 90 59 91 61 92 54 93 55 94 56 95 57 96 58 97
REMARK H PARENT 10 12 10 13 92 25 82 47 48 58
REMARK Flexibility Score: inf
ROOT
ATOM      1  C   UNL A   1      39.522  21.603  26.223  1.00  0.00     0.202 C 
ENDROOT
BRANCH   1   2
ATOM      2  O   UNL A   1      40.073  20.292  26.144  1.00  0.00    -0.374 OA
BRANCH   2   3
ATOM      3  C   UNL A   1      41.037  19.944  27.142  1.00  0.00     0.202 C 
BRANCH   3   4
ATOM      4  C   UNL A   1      42.254  19.163  26.642  1.00  0.00     0.261 C 
BRANCH   4   5
ATOM      5  O   UNL A   1      42.588  19.588  25.313  1.00  0.00    -0.459 OA
BRANCH   5   6
ATOM      6  C   UNL A   1      43.877  19.447  24.904  1.00  0.00     0.365 C 
ATOM      7  O   UNL A   1      44.500  18.392  24.894  1.00  0.00    -0.245 OA
BRANCH   6   8
ATOM      8  C   UNL A   1      44.481  20.776  24.442  1.00  0.00     0.304 C 
ATOM      9  C   UNL A   1      44.667  23.093  25.100  1.00  0.00     0.278 C 
ATOM     10  N   UNL A   1      43.765  21.943  25.004  1.00  0.00    -0.319 N 
ATOM     11  S   UNL A   1      46.376  22.537  24.859  1.00  0.00    -0.087 SA
ATOM     12  H   UNL A   1      42.980  22.181  24.399  1.00  0.00     0.348 HD
ATOM     13  H   UNL A   1      43.426  21.708  25.937  1.00  0.00     0.348 HD
ATOM     14  C   UNL A   1      45.939  20.794  24.861  1.00  0.00     0.153 C 
BRANCH   9  15
ATOM     15  C   UNL A   1      44.501  23.951  26.354  1.00  0.00     0.066 A 
ATOM     16  C   UNL A   1      43.683  23.569  30.103  1.00  0.00     0.048 C 
ATOM     17  C   UNL A   1      43.936  24.169  28.752  1.00  0.00    -0.008 A 
ATOM     18  C   UNL A   1      44.178  25.539  28.685  1.00  0.00     0.023 A 
ATOM     19  C   UNL A   1      44.078  23.399  27.587  1.00  0.00     0.128 A 
ATOM     20  C   UNL A   1      44.623  26.117  27.500  1.00  0.00     0.021 A 
ATOM     21  Br  UNL A   1      44.981  27.988  27.560  1.00  0.00    -0.051 Br
ATOM     22  C   UNL A   1      44.830  25.340  26.336  1.00  0.00    -0.023 A 
ATOM     23  C   UNL A   1      45.461  26.010  25.138  1.00  0.00     0.046 C 
BRANCH  19  24
ATOM     24  O   UNL A   1      43.833  22.056  27.683  1.00  0.00    -0.507 OA
ATOM     25  H   UNL A   1      43.129  21.673  27.201  1.00  0.00     0.293 HD
ENDBRANCH  19  24
ENDBRANCH   9  15
ENDBRANCH   6   8
ENDBRANCH   5   6
ENDBRANCH   4   5
ENDBRANCH   3   4
ENDBRANCH   2   3
ENDBRANCH   1   2
BRANCH   1  26
ATOM     26  C   UNL A   1      40.503  22.747  26.511  1.00  0.00     0.261 C 
BRANCH  26  27
ATOM     27  O   UNL A   1      39.919  24.050  26.359  1.00  0.00    -0.460 OA
BRANCH  27  28
ATOM     28  C   UNL A   1      40.803  25.067  26.204  1.00  0.00     0.338 C 
ATOM     29  O   UNL A   1      41.513  25.292  25.236  1.00  0.00    -0.246 OA
BRANCH  28  30
ATOM     30  C   UNL A   1      40.670  25.981  27.354  1.00  0.00     0.060 A 
ATOM     31  C   UNL A   1      41.338  27.200  27.361  1.00  0.00     0.016 A 
ATOM     32  C   UNL A   1      39.865  25.612  28.439  1.00  0.00     0.016 A 
ATOM     33  C   UNL A   1      41.211  28.037  28.471  1.00  0.00     0.010 A 
ATOM     34  C   UNL A   1      39.738  26.463  29.549  1.00  0.00     0.010 A 
ATOM     35  C   UNL A   1      40.421  27.685  29.591  1.00  0.00    -0.014 A 
BRANCH  35  36
ATOM     36  C   UNL A   1      40.334  28.621  30.761  1.00  0.00     0.031 A 
ATOM     37  C   UNL A   1      41.327  28.587  31.907  1.00  0.00     0.074 A 
ATOM     38  C   UNL A   1      39.389  29.587  30.751  1.00  0.00     0.049 A 
ATOM     39  N   UNL A   1      41.428  29.403  32.931  1.00  0.00    -0.248 NA
ATOM     40  C   UNL A   1      42.336  27.517  31.909  1.00  0.00     0.031 C 
ATOM     41  C   UNL A   1      38.358  29.741  29.723  1.00  0.00     0.029 A 
ATOM     42  N   UNL A   1      39.165  30.647  31.598  1.00  0.00    -0.354 N 
ATOM     43  C   UNL A   1      42.506  28.952  33.689  1.00  0.00     0.074 A 
ATOM     44  C   UNL A   1      43.012  27.770  33.024  1.00  0.00     0.031 C 
ATOM     45  C   UNL A   1      37.678  30.874  29.944  1.00  0.00     0.029 A 
ATOM     46  C   UNL A   1      38.155  31.485  31.180  1.00  0.00     0.049 A 
ATOM     47  H   UNL A   1      39.676  30.792  32.427  1.00  0.00     0.167 HD
ATOM     48  C   UNL A   1      43.037  29.476  34.822  1.00  0.00     0.037 A 
ATOM     49  C   UNL A   1      37.649  32.610  31.724  1.00  0.00     0.037 A 
ATOM     50  C   UNL A   1      42.547  30.658  35.489  1.00  0.00     0.049 A 
ATOM     51  C   UNL A   1      38.209  33.122  33.023  1.00  0.00     0.074 A 
ATOM     52  C   UNL A   1      43.038  31.260  36.637  1.00  0.00     0.029 A 
ATOM     53  N   UNL A   1      41.462  31.418  35.079  1.00  0.00    -0.354 N 
ATOM     54  N   UNL A   1      39.241  32.686  33.703  1.00  0.00    -0.248 NA
ATOM     55  C   UNL A   1      37.520  34.265  33.641  1.00  0.00     0.031 C 
ATOM     56  C   UNL A   1      42.221  32.349  36.950  1.00  0.00     0.029 A 
ATOM     57  C   UNL A   1      41.250  32.460  35.969  1.00  0.00     0.049 A 
ATOM     58  H   UNL A   1      40.922  31.243  34.274  1.00  0.00     0.167 HD
ATOM     59  C   UNL A   1      39.325  33.503  34.826  1.00  0.00     0.074 A 
ATOM     60  C   UNL A   1      38.263  34.480  34.717  1.00  0.00     0.031 C 
ATOM     61  C   UNL A   1      40.195  33.434  35.861  1.00  0.00     0.037 A 
BRANCH  48  62
ATOM     62  C   UNL A   1      44.232  28.797  35.443  1.00  0.00     0.058 A 
ATOM     63  C   UNL A   1      44.080  27.789  36.408  1.00  0.00     0.135 A 
ATOM     64  C   UNL A   1      45.530  29.054  34.967  1.00  0.00     0.135 A 
ATOM     65  F   UNL A   1      42.864  27.508  36.902  1.00  0.00    -0.206 F 
ATOM     66  C   UNL A   1      45.169  27.060  36.877  1.00  0.00     0.059 A 
ATOM     67  C   UNL A   1      46.630  28.320  35.405  1.00  0.00     0.059 A 
ATOM     68  F   UNL A   1      45.733  30.002  34.039  1.00  0.00    -0.206 F 
ATOM     69  C   UNL A   1      46.439  27.325  36.362  1.00  0.00     0.060 A 
BRANCH  69  70
ATOM     70  S   UNL A   1      47.830  26.334  36.951  1.00  0.00     0.124 S 
ATOM     71  O   UNL A   1      48.405  27.212  37.965  1.00  0.00    -0.237 OA
ATOM     72  O   UNL A   1      47.165  25.136  37.453  1.00  0.00    -0.237 OA
ATOM     73  O   UNL A   1      48.645  26.143  35.756  1.00  0.00    -0.744 OA
ENDBRANCH  69  70
ENDBRANCH  48  62
BRANCH  49  74
ATOM     74  C   UNL A   1      36.521  33.320  31.060  1.00  0.00     0.058 A 
ATOM     75  C   UNL A   1      36.728  34.088  29.905  1.00  0.00     0.135 A 
ATOM     76  C   UNL A   1      35.215  33.248  31.571  1.00  0.00     0.135 A 
ATOM     77  F   UNL A   1      37.959  34.200  29.383  1.00  0.00    -0.206 F 
ATOM     78  C   UNL A   1      35.684  34.774  29.290  1.00  0.00     0.059 A 
ATOM     79  C   UNL A   1      34.150  33.894  30.953  1.00  0.00     0.059 A 
ATOM     80  F   UNL A   1      34.961  32.520  32.669  1.00  0.00    -0.206 F 
ATOM     81  C   UNL A   1      34.397  34.666  29.820  1.00  0.00     0.060 A 
BRANCH  81  82
ATOM     82  S   UNL A   1      33.045  35.534  28.998  1.00  0.00     0.124 S 
ATOM     83  O   UNL A   1      32.462  34.469  28.190  1.00  0.00    -0.237 OA
ATOM     84  O   UNL A   1      32.246  35.992  30.129  1.00  0.00    -0.237 OA
ATOM     85  O   UNL A   1      33.728  36.588  28.253  1.00  0.00    -0.744 OA
ENDBRANCH  81  82
ENDBRANCH  49  74
BRANCH  61  86
ATOM     86  C   UNL A   1      40.044  34.432  36.977  1.00  0.00     0.058 A 
ATOM     87  C   UNL A   1      40.646  35.698  36.908  1.00  0.00     0.135 A 
ATOM     88  C   UNL A   1      39.221  34.160  38.081  1.00  0.00     0.135 A 
ATOM     89  F   UNL A   1      41.451  36.007  35.878  1.00  0.00    -0.206 F 
ATOM     90  C   UNL A   1      40.443  36.656  37.895  1.00  0.00     0.059 A 
ATOM     91  C   UNL A   1      38.981  35.113  39.068  1.00  0.00     0.059 A 
ATOM     92  F   UNL A   1      38.615  32.967  38.195  1.00  0.00    -0.206 F 
ATOM     93  C   UNL A   1      39.599  36.358  38.967  1.00  0.00     0.060 A 
BRANCH  93  94
ATOM     94  S   UNL A   1      39.298  37.638  40.203  1.00  0.00     0.124 S 
ATOM     95  O   UNL A   1      38.891  36.845  41.358  1.00  0.00    -0.237 OA
ATOM     96  O   UNL A   1      40.603  38.283  40.304  1.00  0.00    -0.237 OA
ATOM     97  O   UNL A   1      38.246  38.454  39.602  1.00  0.00    -0.744 OA
ENDBRANCH  93  94
ENDBRANCH  61  86
ENDBRANCH  35  36
ENDBRANCH  28  30
ENDBRANCH  27  28
ENDBRANCH  26  27
ENDBRANCH   1  26
TORSDOF 19
ENDMDL
MODEL 3
REMARK VINA RESULT:     -10.0      0.530      8.167
REMARK SMILES Cc1cc(Br)c(C)c([C@@H]2[NH2+][C@H](C(=O)OCCOCCOC(=O)c3ccc(-c4c5nc(c(-c6c(F)cc(S(=O)(=O)[O-])cc6F)c6ccc([nH]6)c(-c6c(F)cc(S(=O)(=O)[O-])cc6F)c6nc(c(-c7c(F)cc(S(=O)(=O)[O-])cc7F)c7ccc4[nH]7)C=C6)C=C5)cc3)CS2)c1O
REMARK SMILES IDX 18 1 17 2 16 3 15 4 14 5 12 6 13 7 11 8 9 9 10 10 90 11
REMARK SMILES IDX 89 14 8 15 1 16 2 17 3 18 91 19 4 20 5 21 6 22 7 23 92 24
REMARK SMILES IDX 19 26 20 27 21 28 22 29 23 30 24 31 88 32 25 33 87 34 26 35
REMARK SMILES IDX 27 36 28 37 81 38 29 39 86 40 80 41 82 42 30 43 85 44 79 45
REMARK SMILES IDX 78 46 31 48 65 49 44 50 64 51 45 52 48 53 63 54 83 55 46 56
REMARK SMILES IDX 47 57 62 59 84 60 49 61 32 62 33 63 42 64 34 65 35 66 41 67
REMARK SMILES IDX 43 68 36 69 37 70 38 71 39 72 40 73 66 74 67 75 76 76 68 77
REMARK SMILES IDX 69 78 75 79 77 80 70 81 71 82 72 83 73 84 74 85 50 86 51 87
REMARK SMILES IDX 60 88 52 89 53 90 59 91 61 92 54 93 55 94 56 95 57 96 58 97
REMARK H PARENT 10 12 10 13 92 25 82 47 48 58
REMARK Flexibility Score: inf
ROOT
ATOM      1  C   UNL A   1      35.421  32.777  28.066  1.00  0.00     0.202 C 
ENDROOT
BRANCH   1   2
ATOM      2  O   UNL A   1      34.586  33.853  27.650  1.00  0.00    -0.374 OA
BRANCH   2   3
ATOM      3  C   UNL A   1      34.546  34.998  28.506  1.00  0.00     0.202 C 
BRANCH   3   4
ATOM      4  C   UNL A   1      33.402  35.024  29.522  1.00  0.00     0.261 C 
BRANCH   4   5
ATOM      5  O   UNL A   1      33.697  34.129  30.604  1.00  0.00    -0.459 OA
BRANCH   5   6
ATOM      6  C   UNL A   1      33.433  34.552  31.869  1.00  0.00     0.365 C 
ATOM      7  O   UNL A   1      32.591  35.389  32.170  1.00  0.00    -0.245 OA
BRANCH   6   8
ATOM      8  C   UNL A   1      34.318  33.851  32.904  1.00  0.00     0.304 C 
ATOM      9  C   UNL A   1      36.489  32.819  33.139  1.00  0.00     0.278 C 
ATOM     10  N   UNL A   1      35.315  32.956  32.275  1.00  0.00    -0.319 N 
ATOM     11  S   UNL A   1      36.430  34.082  34.438  1.00  0.00    -0.087 SA
ATOM     12  H   UNL A   1      34.898  32.037  32.127  1.00  0.00     0.348 HD
ATOM     13  H   UNL A   1      35.604  33.355  31.382  1.00  0.00     0.348 HD
ATOM     14  C   UNL A   1      35.010  34.922  33.726  1.00  0.00     0.153 C 
BRANCH   9  15
ATOM     15  C   UNL A   1      37.835  32.788  32.414  1.00  0.00     0.066 A 
ATOM     16  C   UNL A   1      39.686  34.593  29.553  1.00  0.00     0.048 C 
ATOM     17  C   UNL A   1      39.329  33.598  30.618  1.00  0.00    -0.008 A 
ATOM     18  C   UNL A   1      40.325  32.727  31.052  1.00  0.00     0.023 A 
ATOM     19  C   UNL A   1      38.096  33.603  31.286  1.00  0.00     0.128 A 
ATOM     20  C   UNL A   1      40.121  31.929  32.172  1.00  0.00     0.021 A 
ATOM     21  Br  UNL A   1      41.586  30.830  32.701  1.00  0.00    -0.051 Br
ATOM     22  C   UNL A   1      38.903  31.971  32.892  1.00  0.00    -0.023 A 
ATOM     23  C   UNL A   1      38.815  31.193  34.185  1.00  0.00     0.046 C 
BRANCH  19  24
ATOM     24  O   UNL A   1      37.137  34.470  30.837  1.00  0.00    -0.507 OA
ATOM     25  H   UNL A   1      36.503  34.818  31.433  1.00  0.00     0.293 HD
ENDBRANCH  19  24
ENDBRANCH   9  15
ENDBRANCH   6   8
ENDBRANCH   5   6
ENDBRANCH   4   5
ENDBRANCH   3   4
ENDBRANCH   2   3
ENDBRANCH   1   2
BRANCH   1  26
ATOM     26  C   UNL A   1      34.725  31.580  28.727  1.00  0.00     0.261 C 
BRANCH  26  27
ATOM     27  O   UNL A   1      35.513  30.380  28.706  1.00  0.00    -0.460 OA
BRANCH  27  28
ATOM     28  C   UNL A   1      36.255  30.155  29.820  1.00  0.00     0.338 C 
ATOM     29  O   UNL A   1      35.865  30.113  30.976  1.00  0.00    -0.246 OA
BRANCH  28  30
ATOM     30  C   UNL A   1      37.627  29.806  29.404  1.00  0.00     0.060 A 
ATOM     31  C   UNL A   1      38.544  29.337  30.337  1.00  0.00     0.016 A 
ATOM     32  C   UNL A   1      37.999  29.952  28.061  1.00  0.00     0.016 A 
ATOM     33  C   UNL A   1      39.842  29.035  29.921  1.00  0.00     0.010 A 
ATOM     34  C   UNL A   1      39.305  29.639  27.650  1.00  0.00     0.010 A 
ATOM     35  C   UNL A   1      40.255  29.189  28.577  1.00  0.00    -0.014 A 
BRANCH  35  36
ATOM     36  C   UNL A   1      41.667  28.859  28.192  1.00  0.00     0.031 A 
ATOM     37  C   UNL A   1      42.795  29.870  28.290  1.00  0.00     0.074 A 
ATOM     38  C   UNL A   1      41.964  27.593  27.828  1.00  0.00     0.049 A 
ATOM     39  N   UNL A   1      44.079  29.690  28.085  1.00  0.00    -0.248 NA
ATOM     40  C   UNL A   1      42.449  31.249  28.670  1.00  0.00     0.031 C 
ATOM     41  C   UNL A   1      40.985  26.514  27.678  1.00  0.00     0.029 A 
ATOM     42  N   UNL A   1      43.166  26.981  27.563  1.00  0.00    -0.354 N 
ATOM     43  C   UNL A   1      44.691  30.920  28.316  1.00  0.00     0.074 A 
ATOM     44  C   UNL A   1      43.634  31.851  28.648  1.00  0.00     0.031 C 
ATOM     45  C   UNL A   1      41.629  25.362  27.443  1.00  0.00     0.029 A 
ATOM     46  C   UNL A   1      43.059  25.627  27.332  1.00  0.00     0.049 A 
ATOM     47  H   UNL A   1      44.023  27.465  27.539  1.00  0.00     0.167 HD
ATOM     48  C   UNL A   1      46.007  31.245  28.271  1.00  0.00     0.037 A 
ATOM     49  C   UNL A   1      43.992  24.697  27.047  1.00  0.00     0.037 A 
ATOM     50  C   UNL A   1      47.070  30.325  27.950  1.00  0.00     0.049 A 
ATOM     51  C   UNL A   1      45.435  25.105  26.927  1.00  0.00     0.074 A 
ATOM     52  C   UNL A   1      48.433  30.575  27.894  1.00  0.00     0.029 A 
ATOM     53  N   UNL A   1      46.902  28.986  27.630  1.00  0.00    -0.354 N 
ATOM     54  N   UNL A   1      45.983  26.269  27.172  1.00  0.00    -0.248 NA
ATOM     55  C   UNL A   1      46.383  24.077  26.469  1.00  0.00     0.031 C 
ATOM     56  C   UNL A   1      49.082  29.405  27.490  1.00  0.00     0.029 A 
ATOM     57  C   UNL A   1      48.131  28.410  27.344  1.00  0.00     0.049 A 
ATOM     58  H   UNL A   1      46.039  28.515  27.609  1.00  0.00     0.167 HD
ATOM     59  C   UNL A   1      47.338  26.113  26.900  1.00  0.00     0.074 A 
ATOM     60  C   UNL A   1      47.533  24.734  26.507  1.00  0.00     0.031 C 
ATOM     61  C   UNL A   1      48.327  27.037  26.955  1.00  0.00     0.037 A 
BRANCH  48  62
ATOM     62  C   UNL A   1      46.413  32.664  28.585  1.00  0.00     0.058 A 
ATOM     63  C   UNL A   1      46.323  33.680  27.621  1.00  0.00     0.135 A 
ATOM     64  C   UNL A   1      46.759  33.037  29.896  1.00  0.00     0.135 A 
ATOM     65  F   UNL A   1      46.004  33.379  26.353  1.00  0.00    -0.206 F 
ATOM     66  C   UNL A   1      46.557  35.013  27.945  1.00  0.00     0.059 A 
ATOM     67  C   UNL A   1      46.974  34.368  30.247  1.00  0.00     0.059 A 
ATOM     68  F   UNL A   1      46.854  32.108  30.859  1.00  0.00    -0.206 F 
ATOM     69  C   UNL A   1      46.872  35.349  29.263  1.00  0.00     0.060 A 
BRANCH  69  70
ATOM     70  S   UNL A   1      47.126  37.091  29.670  1.00  0.00     0.124 S 
ATOM     71  O   UNL A   1      45.751  37.564  29.799  1.00  0.00    -0.237 OA
ATOM     72  O   UNL A   1      47.888  37.010  30.911  1.00  0.00    -0.237 OA
ATOM     73  O   UNL A   1      47.858  37.609  28.518  1.00  0.00    -0.744 OA
ENDBRANCH  69  70
ENDBRANCH  48  62
BRANCH  49  74
ATOM     74  C   UNL A   1      43.590  23.281  26.818  1.00  0.00     0.058 A 
ATOM     75  C   UNL A   1      43.580  22.729  25.529  1.00  0.00     0.135 A 
ATOM     76  C   UNL A   1      43.200  22.455  27.885  1.00  0.00     0.135 A 
ATOM     77  F   UNL A   1      43.931  23.480  24.473  1.00  0.00    -0.206 F 
ATOM     78  C   UNL A   1      43.183  21.414  25.303  1.00  0.00     0.059 A 
ATOM     79  C   UNL A   1      42.836  21.128  27.689  1.00  0.00     0.059 A 
ATOM     80  F   UNL A   1      43.199  22.930  29.140  1.00  0.00    -0.206 F 
ATOM     81  C   UNL A   1      42.817  20.620  26.391  1.00  0.00     0.060 A 
BRANCH  81  82
ATOM     82  S   UNL A   1      42.333  18.908  26.091  1.00  0.00     0.124 S 
ATOM     83  O   UNL A   1      40.922  19.056  25.754  1.00  0.00    -0.237 OA
ATOM     84  O   UNL A   1      43.218  18.530  24.994  1.00  0.00    -0.237 OA
ATOM     85  O   UNL A   1      42.612  18.252  27.366  1.00  0.00    -0.744 OA
ENDBRANCH  81  82
ENDBRANCH  49  74
BRANCH  61  86
ATOM     86  C   UNL A   1      49.717  26.606  26.574  1.00  0.00     0.058 A 
ATOM     87  C   UNL A   1      50.541  25.921  27.481  1.00  0.00     0.135 A 
ATOM     88  C   UNL A   1      50.199  26.798  25.269  1.00  0.00     0.135 A 
ATOM     89  F   UNL A   1      50.133  25.719  28.744  1.00  0.00    -0.206 F 
ATOM     90  C   UNL A   1      51.794  25.446  27.110  1.00  0.00     0.059 A 
ATOM     91  C   UNL A   1      51.440  26.308  24.868  1.00  0.00     0.059 A 
ATOM     92  F   UNL A   1      49.450  27.441  24.359  1.00  0.00    -0.206 F 
ATOM     93  C   UNL A   1      52.231  25.635  25.797  1.00  0.00     0.060 A 
BRANCH  93  94
ATOM     94  S   UNL A   1      53.833  24.953  25.321  1.00  0.00     0.124 S 
ATOM     95  O   UNL A   1      53.548  23.522  25.291  1.00  0.00    -0.237 OA
ATOM     96  O   UNL A   1      54.061  25.580  24.023  1.00  0.00    -0.237 OA
ATOM     97  O   UNL A   1      54.725  25.391  26.390  1.00  0.00    -0.744 OA
ENDBRANCH  93  94
ENDBRANCH  61  86
ENDBRANCH  35  36
ENDBRANCH  28  30
ENDBRANCH  27  28
ENDBRANCH  26  27
ENDBRANCH   1  26
TORSDOF 19
ENDMDL
