MODEL 1
REMARK VINA RESULT:     -11.9      0.000      0.000
REMARK SMILES Cc1cccc(CN(C)c2ccc(C(=O)OCCOCCOC(=O)c3ccc(-c4c5nc(c(-c6c(F)cc(S(=O)(=O)[O-])cc6F)c6ccc([nH]6)c(-c6c(F)cc(S(=O)(=O)[O-])cc6F)c6nc(c(-c7c(F)cc(S(=O)(=O)[O-])cc7F)c7ccc4[nH]7)C=C6)C=C5)cc3)cc2C)n1
REMARK SMILES IDX 19 1 18 2 17 3 16 4 14 5 15 6 13 7 10 8 11 9 92 10 12 11
REMARK SMILES IDX 91 12 93 13 8 14 9 15 7 16 6 17 1 18 2 19 3 20 94 21 4 22
REMARK SMILES IDX 5 23 20 24 21 25 22 26 23 27 24 28 25 29 26 30 90 31 27 32
REMARK SMILES IDX 89 33 28 34 29 35 30 36 83 37 31 38 88 39 82 40 84 41 32 42
REMARK SMILES IDX 87 43 81 44 80 45 33 47 67 48 46 49 66 50 47 51 50 52 65 53
REMARK SMILES IDX 85 54 48 55 49 56 64 58 86 59 51 60 34 61 35 62 44 63 36 64
REMARK SMILES IDX 37 65 43 66 45 67 38 68 39 69 40 70 41 71 42 72 68 73 69 74
REMARK SMILES IDX 78 75 70 76 71 77 77 78 79 79 72 80 73 81 74 82 75 83 76 84
REMARK SMILES IDX 52 85 53 86 62 87 54 88 55 89 61 90 63 91 56 92 57 93 58 94
REMARK SMILES IDX 59 95 60 96
REMARK H PARENT 84 46 50 57
REMARK Flexibility Score: inf
ROOT
ATOM      1  O   UNL A   1      32.678  29.036  24.186  1.00  0.00    -0.374 OA
ENDROOT
BRANCH   1   2
ATOM      2  C   UNL A   1      31.577  28.692  23.357  1.00  0.00     0.202 C 
BRANCH   2   3
ATOM      3  C   UNL A   1      30.612  28.005  24.261  1.00  0.00     0.261 C 
BRANCH   3   4
ATOM      4  O   UNL A   1      30.936  26.618  24.444  1.00  0.00    -0.460 OA
BRANCH   4   5
ATOM      5  C   UNL A   1      31.148  26.070  25.671  1.00  0.00     0.338 C 
ATOM      6  O   UNL A   1      30.675  26.353  26.744  1.00  0.00    -0.246 OA
BRANCH   5   7
ATOM      7  C   UNL A   1      32.005  24.897  25.423  1.00  0.00     0.060 A 
ATOM      8  C   UNL A   1      33.893  22.876  24.920  1.00  0.00     0.040 A 
ATOM      9  C   UNL A   1      33.831  23.564  26.131  1.00  0.00     0.027 A 
ATOM     10  C   UNL A   1      33.055  23.330  23.880  1.00  0.00    -0.027 A 
ATOM     11  C   UNL A   1      32.854  24.476  26.429  1.00  0.00     0.018 A 
ATOM     12  C   UNL A   1      32.113  24.351  24.144  1.00  0.00     0.021 A 
ATOM     13  C   UNL A   1      33.180  22.864  22.457  1.00  0.00     0.046 C 
BRANCH   8  14
ATOM     14  N   UNL A   1      34.772  21.802  24.822  1.00  0.00    -0.368 N 
ATOM     15  C   UNL A   1      34.178  20.483  24.712  1.00  0.00     0.144 C 
BRANCH  14  16
ATOM     16  C   UNL A   1      36.142  22.029  24.279  1.00  0.00     0.172 C 
BRANCH  16  17
ATOM     17  C   UNL A   1      37.269  22.292  25.292  1.00  0.00     0.060 A 
ATOM     18  C   UNL A   1      40.433  20.621  26.195  1.00  0.00     0.067 C 
ATOM     19  C   UNL A   1      39.339  21.649  26.167  1.00  0.00     0.038 A 
ATOM     20  C   UNL A   1      39.581  22.928  26.659  1.00  0.00     0.023 A 
ATOM     21  N   UNL A   1      38.187  21.308  25.524  1.00  0.00    -0.256 NA
ATOM     22  C   UNL A   1      38.607  23.903  26.490  1.00  0.00     0.004 A 
ATOM     23  C   UNL A   1      37.441  23.589  25.796  1.00  0.00     0.026 A 
ENDBRANCH  16  17
ENDBRANCH  14  16
ENDBRANCH   8  14
ENDBRANCH   5   7
ENDBRANCH   4   5
ENDBRANCH   3   4
ENDBRANCH   2   3
ENDBRANCH   1   2
BRANCH   1  24
ATOM     24  C   UNL A   1      32.380  29.841  25.298  1.00  0.00     0.202 C 
BRANCH  24  25
ATOM     25  C   UNL A   1      33.148  29.413  26.550  1.00  0.00     0.261 C 
BRANCH  25  26
ATOM     26  O   UNL A   1      33.198  30.489  27.517  1.00  0.00    -0.460 OA
BRANCH  26  27
ATOM     27  C   UNL A   1      34.368  31.195  27.604  1.00  0.00     0.338 C 
ATOM     28  O   UNL A   1      34.465  32.377  27.325  1.00  0.00    -0.246 OA
BRANCH  27  29
ATOM     29  C   UNL A   1      35.466  30.340  28.151  1.00  0.00     0.060 A 
ATOM     30  C   UNL A   1      35.451  29.850  29.473  1.00  0.00     0.016 A 
ATOM     31  C   UNL A   1      36.614  30.187  27.386  1.00  0.00     0.016 A 
ATOM     32  C   UNL A   1      36.631  29.356  30.074  1.00  0.00     0.010 A 
ATOM     33  C   UNL A   1      37.781  29.797  28.003  1.00  0.00     0.010 A 
ATOM     34  C   UNL A   1      37.822  29.406  29.356  1.00  0.00    -0.014 A 
BRANCH  34  35
ATOM     35  C   UNL A   1      39.191  29.172  29.852  1.00  0.00     0.031 A 
ATOM     36  C   UNL A   1      39.874  27.947  29.380  1.00  0.00     0.074 A 
ATOM     37  C   UNL A   1      39.946  30.171  30.378  1.00  0.00     0.049 A 
ATOM     38  N   UNL A   1      41.053  27.589  29.742  1.00  0.00    -0.248 NA
ATOM     39  C   UNL A   1      39.256  26.986  28.470  1.00  0.00     0.031 C 
ATOM     40  C   UNL A   1      41.398  30.361  30.264  1.00  0.00     0.029 A 
ATOM     41  N   UNL A   1      39.559  31.305  31.093  1.00  0.00    -0.354 N 
ATOM     42  C   UNL A   1      41.481  26.606  28.880  1.00  0.00     0.074 A 
ATOM     43  C   UNL A   1      40.282  26.175  28.210  1.00  0.00     0.031 C 
ATOM     44  C   UNL A   1      41.791  31.365  31.069  1.00  0.00     0.029 A 
ATOM     45  C   UNL A   1      40.642  31.763  31.860  1.00  0.00     0.049 A 
ATOM     46  H   UNL A   1      38.666  31.719  31.064  1.00  0.00     0.167 HD
ATOM     47  C   UNL A   1      42.825  26.389  28.775  1.00  0.00     0.037 A 
ATOM     48  C   UNL A   1      40.512  31.829  33.212  1.00  0.00     0.037 A 
ATOM     49  C   UNL A   1      43.551  27.216  29.768  1.00  0.00     0.049 A 
ATOM     50  C   UNL A   1      41.352  30.740  33.833  1.00  0.00     0.074 A 
ATOM     51  C   UNL A   1      44.339  28.354  29.717  1.00  0.00     0.029 A 
ATOM     52  N   UNL A   1      43.232  27.059  31.109  1.00  0.00    -0.354 N 
ATOM     53  N   UNL A   1      42.174  30.001  33.138  1.00  0.00    -0.248 NA
ATOM     54  C   UNL A   1      41.324  30.345  35.235  1.00  0.00     0.031 C 
ATOM     55  C   UNL A   1      44.447  28.883  31.048  1.00  0.00     0.029 A 
ATOM     56  C   UNL A   1      43.757  28.052  31.915  1.00  0.00     0.049 A 
ATOM     57  H   UNL A   1      42.687  26.315  31.453  1.00  0.00     0.167 HD
ATOM     58  C   UNL A   1      42.673  28.990  33.891  1.00  0.00     0.074 A 
ATOM     59  C   UNL A   1      42.118  29.255  35.214  1.00  0.00     0.031 C 
ATOM     60  C   UNL A   1      43.470  28.016  33.354  1.00  0.00     0.037 A 
BRANCH  47  61
ATOM     61  C   UNL A   1      43.523  25.564  27.697  1.00  0.00     0.058 A 
ATOM     62  C   UNL A   1      43.316  24.167  27.636  1.00  0.00     0.135 A 
ATOM     63  C   UNL A   1      44.424  26.042  26.718  1.00  0.00     0.135 A 
ATOM     64  F   UNL A   1      42.473  23.549  28.476  1.00  0.00    -0.206 F 
ATOM     65  C   UNL A   1      43.960  23.329  26.717  1.00  0.00     0.059 A 
ATOM     66  C   UNL A   1      45.081  25.227  25.790  1.00  0.00     0.059 A 
ATOM     67  F   UNL A   1      44.727  27.330  26.575  1.00  0.00    -0.206 F 
ATOM     68  C   UNL A   1      44.847  23.867  25.797  1.00  0.00     0.060 A 
BRANCH  68  69
ATOM     69  S   UNL A   1      45.664  22.789  24.611  1.00  0.00     0.124 S 
ATOM     70  O   UNL A   1      44.537  22.273  23.842  1.00  0.00    -0.237 OA
ATOM     71  O   UNL A   1      46.543  23.719  23.909  1.00  0.00    -0.237 OA
ATOM     72  O   UNL A   1      46.345  21.805  25.450  1.00  0.00    -0.744 OA
ENDBRANCH  68  69
ENDBRANCH  47  61
BRANCH  48  73
ATOM     73  C   UNL A   1      39.141  32.330  33.583  1.00  0.00     0.058 A 
ATOM     74  C   UNL A   1      38.855  33.684  33.281  1.00  0.00     0.135 A 
ATOM     75  C   UNL A   1      38.041  31.457  33.647  1.00  0.00     0.135 A 
ATOM     76  F   UNL A   1      39.858  34.574  33.186  1.00  0.00    -0.206 F 
ATOM     77  C   UNL A   1      37.580  34.115  32.903  1.00  0.00     0.059 A 
ATOM     78  C   UNL A   1      36.758  31.864  33.247  1.00  0.00     0.059 A 
ATOM     79  F   UNL A   1      38.232  30.157  33.915  1.00  0.00    -0.206 F 
ATOM     80  C   UNL A   1      36.548  33.182  32.828  1.00  0.00     0.060 A 
BRANCH  80  81
ATOM     81  S   UNL A   1      35.036  33.629  31.915  1.00  0.00     0.124 S 
ATOM     82  O   UNL A   1      34.045  32.745  32.514  1.00  0.00    -0.237 OA
ATOM     83  O   UNL A   1      34.880  35.051  32.223  1.00  0.00    -0.237 OA
ATOM     84  O   UNL A   1      35.395  33.346  30.531  1.00  0.00    -0.744 OA
ENDBRANCH  80  81
ENDBRANCH  48  73
BRANCH  60  85
ATOM     85  C   UNL A   1      44.025  26.906  34.197  1.00  0.00     0.058 A 
ATOM     86  C   UNL A   1      45.407  26.738  34.374  1.00  0.00     0.135 A 
ATOM     87  C   UNL A   1      43.201  25.930  34.798  1.00  0.00     0.135 A 
ATOM     88  F   UNL A   1      46.287  27.521  33.731  1.00  0.00    -0.206 F 
ATOM     89  C   UNL A   1      45.929  25.758  35.209  1.00  0.00     0.059 A 
ATOM     90  C   UNL A   1      43.705  24.893  35.568  1.00  0.00     0.059 A 
ATOM     91  F   UNL A   1      41.866  25.959  34.702  1.00  0.00    -0.206 F 
ATOM     92  C   UNL A   1      45.067  24.846  35.811  1.00  0.00     0.060 A 
BRANCH  92  93
ATOM     93  S   UNL A   1      45.738  23.593  36.906  1.00  0.00     0.124 S 
ATOM     94  O   UNL A   1      45.317  22.355  36.256  1.00  0.00    -0.237 OA
ATOM     95  O   UNL A   1      47.165  23.889  36.839  1.00  0.00    -0.237 OA
ATOM     96  O   UNL A   1      45.092  23.875  38.183  1.00  0.00    -0.744 OA
ENDBRANCH  92  93
ENDBRANCH  60  85
ENDBRANCH  34  35
ENDBRANCH  27  29
ENDBRANCH  26  27
ENDBRANCH  25  26
ENDBRANCH  24  25
ENDBRANCH   1  24
TORSDOF 20
ENDMDL
MODEL 2
REMARK VINA RESULT:     -11.5      1.409      2.763
REMARK SMILES Cc1cccc(CN(C)c2ccc(C(=O)OCCOCCOC(=O)c3ccc(-c4c5nc(c(-c6c(F)cc(S(=O)(=O)[O-])cc6F)c6ccc([nH]6)c(-c6c(F)cc(S(=O)(=O)[O-])cc6F)c6nc(c(-c7c(F)cc(S(=O)(=O)[O-])cc7F)c7ccc4[nH]7)C=C6)C=C5)cc3)cc2C)n1
REMARK SMILES IDX 19 1 18 2 17 3 16 4 14 5 15 6 13 7 10 8 11 9 92 10 12 11
REMARK SMILES IDX 91 12 93 13 8 14 9 15 7 16 6 17 1 18 2 19 3 20 94 21 4 22
REMARK SMILES IDX 5 23 20 24 21 25 22 26 23 27 24 28 25 29 26 30 90 31 27 32
REMARK SMILES IDX 89 33 28 34 29 35 30 36 83 37 31 38 88 39 82 40 84 41 32 42
REMARK SMILES IDX 87 43 81 44 80 45 33 47 67 48 46 49 66 50 47 51 50 52 65 53
REMARK SMILES IDX 85 54 48 55 49 56 64 58 86 59 51 60 34 61 35 62 44 63 36 64
REMARK SMILES IDX 37 65 43 66 45 67 38 68 39 69 40 70 41 71 42 72 68 73 69 74
REMARK SMILES IDX 78 75 70 76 71 77 77 78 79 79 72 80 73 81 74 82 75 83 76 84
REMARK SMILES IDX 52 85 53 86 62 87 54 88 55 89 61 90 63 91 56 92 57 93 58 94
REMARK SMILES IDX 59 95 60 96
REMARK H PARENT 84 46 50 57
REMARK Flexibility Score: inf
ROOT
ATOM      1  O   UNL A   1      31.348  28.951  24.887  1.00  0.00    -0.374 OA
ENDROOT
BRANCH   1   2
ATOM      2  C   UNL A   1      30.847  28.860  23.561  1.00  0.00     0.202 C 
BRANCH   2   3
ATOM      3  C   UNL A   1      31.956  28.254  22.770  1.00  0.00     0.261 C 
BRANCH   3   4
ATOM      4  O   UNL A   1      32.036  26.832  22.955  1.00  0.00    -0.460 OA
BRANCH   4   5
ATOM      5  C   UNL A   1      32.946  26.058  22.303  1.00  0.00     0.338 C 
ATOM      6  O   UNL A   1      33.654  26.313  21.360  1.00  0.00    -0.246 OA
BRANCH   5   7
ATOM      7  C   UNL A   1      33.026  24.816  23.092  1.00  0.00     0.060 A 
ATOM      8  C   UNL A   1      33.484  22.405  24.463  1.00  0.00     0.040 A 
ATOM      9  C   UNL A   1      34.119  23.599  24.806  1.00  0.00     0.027 A 
ATOM     10  C   UNL A   1      32.694  22.410  23.295  1.00  0.00    -0.027 A 
ATOM     11  C   UNL A   1      33.830  24.800  24.217  1.00  0.00     0.018 A 
ATOM     12  C   UNL A   1      32.476  23.628  22.610  1.00  0.00     0.021 A 
ATOM     13  C   UNL A   1      32.154  21.160  22.660  1.00  0.00     0.046 C 
BRANCH   8  14
ATOM     14  N   UNL A   1      33.675  21.303  25.290  1.00  0.00    -0.368 N 
ATOM     15  C   UNL A   1      34.473  21.514  26.483  1.00  0.00     0.144 C 
BRANCH  14  16
ATOM     16  C   UNL A   1      32.675  20.197  25.274  1.00  0.00     0.172 C 
BRANCH  16  17
ATOM     17  C   UNL A   1      33.210  18.762  25.144  1.00  0.00     0.060 A 
ATOM     18  C   UNL A   1      31.893  15.391  25.869  1.00  0.00     0.067 C 
ATOM     19  C   UNL A   1      32.816  16.469  25.379  1.00  0.00     0.038 A 
ATOM     20  C   UNL A   1      33.825  16.155  24.473  1.00  0.00     0.023 A 
ATOM     21  N   UNL A   1      32.525  17.747  25.751  1.00  0.00    -0.256 NA
ATOM     22  C   UNL A   1      34.572  17.188  23.923  1.00  0.00     0.004 A 
ATOM     23  C   UNL A   1      34.262  18.505  24.253  1.00  0.00     0.026 A 
ENDBRANCH  16  17
ENDBRANCH  14  16
ENDBRANCH   8  14
ENDBRANCH   5   7
ENDBRANCH   4   5
ENDBRANCH   3   4
ENDBRANCH   2   3
ENDBRANCH   1   2
BRANCH   1  24
ATOM     24  C   UNL A   1      31.539  30.253  25.382  1.00  0.00     0.202 C 
BRANCH  24  25
ATOM     25  C   UNL A   1      32.258  30.263  26.733  1.00  0.00     0.261 C 
BRANCH  25  26
ATOM     26  O   UNL A   1      33.693  30.210  26.553  1.00  0.00    -0.460 OA
BRANCH  26  27
ATOM     27  C   UNL A   1      34.455  30.976  27.394  1.00  0.00     0.338 C 
ATOM     28  O   UNL A   1      34.227  32.150  27.628  1.00  0.00    -0.246 OA
BRANCH  27  29
ATOM     29  C   UNL A   1      35.535  30.160  28.029  1.00  0.00     0.060 A 
ATOM     30  C   UNL A   1      35.495  29.785  29.388  1.00  0.00     0.016 A 
ATOM     31  C   UNL A   1      36.690  29.928  27.296  1.00  0.00     0.016 A 
ATOM     32  C   UNL A   1      36.661  29.331  30.045  1.00  0.00     0.010 A 
ATOM     33  C   UNL A   1      37.844  29.580  27.961  1.00  0.00     0.010 A 
ATOM     34  C   UNL A   1      37.862  29.306  29.342  1.00  0.00    -0.014 A 
BRANCH  34  35
ATOM     35  C   UNL A   1      39.221  29.100  29.877  1.00  0.00     0.031 A 
ATOM     36  C   UNL A   1      39.926  27.867  29.457  1.00  0.00     0.074 A 
ATOM     37  C   UNL A   1      39.956  30.122  30.389  1.00  0.00     0.049 A 
ATOM     38  N   UNL A   1      41.100  27.532  29.857  1.00  0.00    -0.248 NA
ATOM     39  C   UNL A   1      39.337  26.874  28.564  1.00  0.00     0.031 C 
ATOM     40  C   UNL A   1      41.408  30.321  30.302  1.00  0.00     0.029 A 
ATOM     41  N   UNL A   1      39.542  31.272  31.060  1.00  0.00    -0.354 N 
ATOM     42  C   UNL A   1      41.555  26.527  29.035  1.00  0.00     0.074 A 
ATOM     43  C   UNL A   1      40.376  26.065  28.351  1.00  0.00     0.031 C 
ATOM     44  C   UNL A   1      41.773  31.353  31.084  1.00  0.00     0.029 A 
ATOM     45  C   UNL A   1      40.603  31.764  31.837  1.00  0.00     0.049 A 
ATOM     46  H   UNL A   1      38.647  31.677  30.998  1.00  0.00     0.167 HD
ATOM     47  C   UNL A   1      42.903  26.320  28.967  1.00  0.00     0.037 A 
ATOM     48  C   UNL A   1      40.442  31.869  33.183  1.00  0.00     0.037 A 
ATOM     49  C   UNL A   1      43.599  27.183  29.950  1.00  0.00     0.049 A 
ATOM     50  C   UNL A   1      41.277  30.808  33.856  1.00  0.00     0.074 A 
ATOM     51  C   UNL A   1      44.378  28.327  29.883  1.00  0.00     0.029 A 
ATOM     52  N   UNL A   1      43.251  27.064  31.289  1.00  0.00    -0.354 N 
ATOM     53  N   UNL A   1      42.122  30.056  33.203  1.00  0.00    -0.248 NA
ATOM     54  C   UNL A   1      41.220  30.455  35.268  1.00  0.00     0.031 C 
ATOM     55  C   UNL A   1      44.451  28.897  31.199  1.00  0.00     0.029 A 
ATOM     56  C   UNL A   1      43.749  28.085  32.076  1.00  0.00     0.049 A 
ATOM     57  H   UNL A   1      42.705  26.325  31.643  1.00  0.00     0.167 HD
ATOM     58  C   UNL A   1      42.611  29.073  33.997  1.00  0.00     0.074 A 
ATOM     59  C   UNL A   1      42.024  29.373  35.299  1.00  0.00     0.031 C 
ATOM     60  C   UNL A   1      43.429  28.091  33.508  1.00  0.00     0.037 A 
BRANCH  47  61
ATOM     61  C   UNL A   1      43.633  25.470  27.931  1.00  0.00     0.058 A 
ATOM     62  C   UNL A   1      43.936  26.014  26.661  1.00  0.00     0.135 A 
ATOM     63  C   UNL A   1      44.039  24.123  28.077  1.00  0.00     0.135 A 
ATOM     64  F   UNL A   1      43.643  27.287  26.360  1.00  0.00    -0.206 F 
ATOM     65  C   UNL A   1      44.551  25.286  25.635  1.00  0.00     0.059 A 
ATOM     66  C   UNL A   1      44.652  23.374  27.067  1.00  0.00     0.059 A 
ATOM     67  F   UNL A   1      43.885  23.435  29.205  1.00  0.00    -0.206 F 
ATOM     68  C   UNL A   1      44.903  23.962  25.844  1.00  0.00     0.060 A 
BRANCH  68  69
ATOM     69  S   UNL A   1      45.703  23.033  24.526  1.00  0.00     0.124 S 
ATOM     70  O   UNL A   1      44.565  22.616  23.714  1.00  0.00    -0.237 OA
ATOM     71  O   UNL A   1      46.576  24.039  23.931  1.00  0.00    -0.237 OA
ATOM     72  O   UNL A   1      46.389  21.954  25.232  1.00  0.00    -0.744 OA
ENDBRANCH  68  69
ENDBRANCH  47  61
BRANCH  48  73
ATOM     73  C   UNL A   1      39.059  32.368  33.508  1.00  0.00     0.058 A 
ATOM     74  C   UNL A   1      38.788  33.728  33.217  1.00  0.00     0.135 A 
ATOM     75  C   UNL A   1      37.955  31.498  33.513  1.00  0.00     0.135 A 
ATOM     76  F   UNL A   1      39.796  34.616  33.177  1.00  0.00    -0.206 F 
ATOM     77  C   UNL A   1      37.530  34.169  32.796  1.00  0.00     0.059 A 
ATOM     78  C   UNL A   1      36.690  31.916  33.069  1.00  0.00     0.059 A 
ATOM     79  F   UNL A   1      38.132  30.193  33.766  1.00  0.00    -0.206 F 
ATOM     80  C   UNL A   1      36.500  33.241  32.664  1.00  0.00     0.060 A 
BRANCH  80  81
ATOM     81  S   UNL A   1      35.026  33.708  31.699  1.00  0.00     0.124 S 
ATOM     82  O   UNL A   1      34.800  35.080  32.133  1.00  0.00    -0.237 OA
ATOM     83  O   UNL A   1      35.481  33.552  30.317  1.00  0.00    -0.237 OA
ATOM     84  O   UNL A   1      34.034  32.728  32.124  1.00  0.00    -0.744 OA
ENDBRANCH  80  81
ENDBRANCH  48  73
BRANCH  60  85
ATOM     85  C   UNL A   1      43.975  27.012  34.397  1.00  0.00     0.058 A 
ATOM     86  C   UNL A   1      43.146  26.021  34.943  1.00  0.00     0.135 A 
ATOM     87  C   UNL A   1      45.330  26.972  34.791  1.00  0.00     0.135 A 
ATOM     88  F   UNL A   1      41.817  26.047  34.751  1.00  0.00    -0.206 F 
ATOM     89  C   UNL A   1      43.651  24.977  35.708  1.00  0.00     0.059 A 
ATOM     90  C   UNL A   1      45.841  25.987  35.623  1.00  0.00     0.059 A 
ATOM     91  F   UNL A   1      46.231  27.862  34.356  1.00  0.00    -0.206 F 
ATOM     92  C   UNL A   1      45.004  24.964  36.033  1.00  0.00     0.060 A 
BRANCH  92  93
ATOM     93  S   UNL A   1      45.662  23.606  37.004  1.00  0.00     0.124 S 
ATOM     94  O   UNL A   1      47.083  23.934  37.075  1.00  0.00    -0.237 OA
ATOM     95  O   UNL A   1      44.914  23.755  38.249  1.00  0.00    -0.237 OA
ATOM     96  O   UNL A   1      45.335  22.428  36.208  1.00  0.00    -0.744 OA
ENDBRANCH  92  93
ENDBRANCH  60  85
ENDBRANCH  34  35
ENDBRANCH  27  29
ENDBRANCH  26  27
ENDBRANCH  25  26
ENDBRANCH  24  25
ENDBRANCH   1  24
TORSDOF 20
ENDMDL
MODEL 3
REMARK VINA RESULT:     -11.3      3.905     10.364
REMARK SMILES Cc1cccc(CN(C)c2ccc(C(=O)OCCOCCOC(=O)c3ccc(-c4c5nc(c(-c6c(F)cc(S(=O)(=O)[O-])cc6F)c6ccc([nH]6)c(-c6c(F)cc(S(=O)(=O)[O-])cc6F)c6nc(c(-c7c(F)cc(S(=O)(=O)[O-])cc7F)c7ccc4[nH]7)C=C6)C=C5)cc3)cc2C)n1
REMARK SMILES IDX 19 1 18 2 17 3 16 4 14 5 15 6 13 7 10 8 11 9 92 10 12 11
REMARK SMILES IDX 91 12 93 13 8 14 9 15 7 16 6 17 1 18 2 19 3 20 94 21 4 22
REMARK SMILES IDX 5 23 20 24 21 25 22 26 23 27 24 28 25 29 26 30 90 31 27 32
REMARK SMILES IDX 89 33 28 34 29 35 30 36 83 37 31 38 88 39 82 40 84 41 32 42
REMARK SMILES IDX 87 43 81 44 80 45 33 47 67 48 46 49 66 50 47 51 50 52 65 53
REMARK SMILES IDX 85 54 48 55 49 56 64 58 86 59 51 60 34 61 35 62 44 63 36 64
REMARK SMILES IDX 37 65 43 66 45 67 38 68 39 69 40 70 41 71 42 72 68 73 69 74
REMARK SMILES IDX 78 75 70 76 71 77 77 78 79 79 72 80 73 81 74 82 75 83 76 84
REMARK SMILES IDX 52 85 53 86 62 87 54 88 55 89 61 90 63 91 56 92 57 93 58 94
REMARK SMILES IDX 59 95 60 96
REMARK H PARENT 84 46 50 57
REMARK Flexibility Score: inf
ROOT
ATOM      1  O   UNL A   1      35.043  20.847  25.392  1.00  0.00    -0.374 OA
ENDROOT
BRANCH   1   2
ATOM      2  C   UNL A   1      33.836  20.729  24.653  1.00  0.00     0.202 C 
BRANCH   2   3
ATOM      3  C   UNL A   1      32.749  20.835  25.668  1.00  0.00     0.261 C 
BRANCH   3   4
ATOM      4  O   UNL A   1      32.098  22.114  25.631  1.00  0.00    -0.460 OA
BRANCH   4   5
ATOM      5  C   UNL A   1      32.185  23.012  26.650  1.00  0.00     0.338 C 
ATOM      6  O   UNL A   1      32.295  22.834  27.838  1.00  0.00    -0.246 OA
BRANCH   5   7
ATOM      7  C   UNL A   1      32.272  24.328  25.995  1.00  0.00     0.060 A 
ATOM      8  C   UNL A   1      32.145  26.766  24.601  1.00  0.00     0.040 A 
ATOM      9  C   UNL A   1      31.346  26.490  25.711  1.00  0.00     0.027 A 
ATOM     10  C   UNL A   1      32.935  25.711  24.100  1.00  0.00    -0.027 A 
ATOM     11  C   UNL A   1      31.470  25.352  26.461  1.00  0.00     0.018 A 
ATOM     12  C   UNL A   1      32.986  24.487  24.807  1.00  0.00     0.021 A 
ATOM     13  C   UNL A   1      33.649  25.771  22.780  1.00  0.00     0.046 C 
BRANCH   8  14
ATOM     14  N   UNL A   1      32.103  28.051  24.069  1.00  0.00    -0.368 N 
ATOM     15  C   UNL A   1      33.271  28.883  24.286  1.00  0.00     0.144 C 
BRANCH  14  16
ATOM     16  C   UNL A   1      31.223  28.327  22.897  1.00  0.00     0.172 C 
BRANCH  16  17
ATOM     17  C   UNL A   1      29.840  28.935  23.179  1.00  0.00     0.060 A 
ATOM     18  C   UNL A   1      28.395  32.330  23.086  1.00  0.00     0.067 C 
ATOM     19  C   UNL A   1      28.480  30.837  23.218  1.00  0.00     0.038 A 
ATOM     20  C   UNL A   1      27.323  30.069  23.129  1.00  0.00     0.023 A 
ATOM     21  N   UNL A   1      29.728  30.293  23.283  1.00  0.00    -0.256 NA
ATOM     22  C   UNL A   1      27.441  28.686  23.106  1.00  0.00     0.004 A 
ATOM     23  C   UNL A   1      28.708  28.109  23.126  1.00  0.00     0.026 A 
ENDBRANCH  16  17
ENDBRANCH  14  16
ENDBRANCH   8  14
ENDBRANCH   5   7
ENDBRANCH   4   5
ENDBRANCH   3   4
ENDBRANCH   2   3
ENDBRANCH   1   2
BRANCH   1  24
ATOM     24  C   UNL A   1      36.145  21.362  24.688  1.00  0.00     0.202 C 
BRANCH  24  25
ATOM     25  C   UNL A   1      37.470  21.101  25.409  1.00  0.00     0.261 C 
BRANCH  25  26
ATOM     26  O   UNL A   1      38.314  22.276  25.373  1.00  0.00    -0.460 OA
BRANCH  26  27
ATOM     27  C   UNL A   1      39.162  22.465  26.433  1.00  0.00     0.338 C 
ATOM     28  O   UNL A   1      39.683  21.554  27.050  1.00  0.00    -0.246 OA
BRANCH  27  29
ATOM     29  C   UNL A   1      39.408  23.922  26.665  1.00  0.00     0.060 A 
ATOM     30  C   UNL A   1      40.123  24.720  25.749  1.00  0.00     0.016 A 
ATOM     31  C   UNL A   1      39.076  24.448  27.906  1.00  0.00     0.016 A 
ATOM     32  C   UNL A   1      40.642  25.976  26.138  1.00  0.00     0.010 A 
ATOM     33  C   UNL A   1      39.664  25.625  28.311  1.00  0.00     0.010 A 
ATOM     34  C   UNL A   1      40.478  26.392  27.455  1.00  0.00    -0.014 A 
BRANCH  34  35
ATOM     35  C   UNL A   1      41.124  27.531  28.134  1.00  0.00     0.031 A 
ATOM     36  C   UNL A   1      40.270  28.702  28.437  1.00  0.00     0.074 A 
ATOM     37  C   UNL A   1      42.299  27.398  28.802  1.00  0.00     0.049 A 
ATOM     38  N   UNL A   1      40.690  29.779  28.997  1.00  0.00    -0.248 NA
ATOM     39  C   UNL A   1      38.853  28.770  28.092  1.00  0.00     0.031 C 
ATOM     40  C   UNL A   1      42.721  28.083  30.030  1.00  0.00     0.029 A 
ATOM     41  N   UNL A   1      43.376  26.546  28.557  1.00  0.00    -0.354 N 
ATOM     42  C   UNL A   1      39.591  30.498  29.408  1.00  0.00     0.074 A 
ATOM     43  C   UNL A   1      38.490  29.901  28.698  1.00  0.00     0.031 C 
ATOM     44  C   UNL A   1      44.017  27.817  30.277  1.00  0.00     0.029 A 
ATOM     45  C   UNL A   1      44.535  27.083  29.139  1.00  0.00     0.049 A 
ATOM     46  H   UNL A   1      43.331  25.699  28.056  1.00  0.00     0.167 HD
ATOM     47  C   UNL A   1      39.767  31.423  30.396  1.00  0.00     0.037 A 
ATOM     48  C   UNL A   1      45.599  27.375  28.342  1.00  0.00     0.037 A 
ATOM     49  C   UNL A   1      41.206  31.545  30.727  1.00  0.00     0.049 A 
ATOM     50  C   UNL A   1      45.724  28.875  28.230  1.00  0.00     0.074 A 
ATOM     51  C   UNL A   1      42.014  31.150  31.781  1.00  0.00     0.029 A 
ATOM     52  N   UNL A   1      42.085  31.887  29.708  1.00  0.00    -0.354 N 
ATOM     53  N   UNL A   1      45.003  29.697  28.942  1.00  0.00    -0.248 NA
ATOM     54  C   UNL A   1      46.601  29.584  27.309  1.00  0.00     0.031 C 
ATOM     55  C   UNL A   1      43.381  31.231  31.352  1.00  0.00     0.029 A 
ATOM     56  C   UNL A   1      43.413  31.709  30.051  1.00  0.00     0.049 A 
ATOM     57  H   UNL A   1      41.793  32.223  28.831  1.00  0.00     0.167 HD
ATOM     58  C   UNL A   1      45.178  30.977  28.532  1.00  0.00     0.074 A 
ATOM     59  C   UNL A   1      46.209  30.859  27.505  1.00  0.00     0.031 C 
ATOM     60  C   UNL A   1      44.444  32.008  29.051  1.00  0.00     0.037 A 
BRANCH  47  61
ATOM     61  C   UNL A   1      38.661  32.118  31.186  1.00  0.00     0.058 A 
ATOM     62  C   UNL A   1      38.474  31.811  32.554  1.00  0.00     0.135 A 
ATOM     63  C   UNL A   1      37.729  33.059  30.689  1.00  0.00     0.135 A 
ATOM     64  F   UNL A   1      39.285  30.956  33.194  1.00  0.00    -0.206 F 
ATOM     65  C   UNL A   1      37.450  32.359  33.337  1.00  0.00     0.059 A 
ATOM     66  C   UNL A   1      36.698  33.619  31.449  1.00  0.00     0.059 A 
ATOM     67  F   UNL A   1      37.753  33.515  29.439  1.00  0.00    -0.206 F 
ATOM     68  C   UNL A   1      36.560  33.261  32.775  1.00  0.00     0.060 A 
BRANCH  68  69
ATOM     69  S   UNL A   1      35.252  33.971  33.786  1.00  0.00     0.124 S 
ATOM     70  O   UNL A   1      35.484  35.402  33.623  1.00  0.00    -0.237 OA
ATOM     71  O   UNL A   1      34.052  33.444  33.147  1.00  0.00    -0.237 OA
ATOM     72  O   UNL A   1      35.526  33.447  35.122  1.00  0.00    -0.744 OA
ENDBRANCH  68  69
ENDBRANCH  47  61
BRANCH  48  73
ATOM     73  C   UNL A   1      45.781  26.304  27.299  1.00  0.00     0.058 A 
ATOM     74  C   UNL A   1      46.167  25.022  27.763  1.00  0.00     0.135 A 
ATOM     75  C   UNL A   1      45.071  26.342  26.086  1.00  0.00     0.135 A 
ATOM     76  F   UNL A   1      46.834  24.905  28.925  1.00  0.00    -0.206 F 
ATOM     77  C   UNL A   1      45.735  23.841  27.152  1.00  0.00     0.059 A 
ATOM     78  C   UNL A   1      44.608  25.168  25.470  1.00  0.00     0.059 A 
ATOM     79  F   UNL A   1      44.660  27.517  25.588  1.00  0.00    -0.206 F 
ATOM     80  C   UNL A   1      44.901  23.925  26.039  1.00  0.00     0.060 A 
BRANCH  80  81
ATOM     81  S   UNL A   1      43.982  22.437  25.528  1.00  0.00     0.124 S 
ATOM     82  O   UNL A   1      45.035  21.432  25.471  1.00  0.00    -0.237 OA
ATOM     83  O   UNL A   1      43.010  22.270  26.609  1.00  0.00    -0.237 OA
ATOM     84  O   UNL A   1      43.403  22.834  24.251  1.00  0.00    -0.744 OA
ENDBRANCH  80  81
ENDBRANCH  48  73
BRANCH  60  85
ATOM     85  C   UNL A   1      44.652  33.423  28.597  1.00  0.00     0.058 A 
ATOM     86  C   UNL A   1      44.273  33.847  27.315  1.00  0.00     0.135 A 
ATOM     87  C   UNL A   1      45.302  34.386  29.401  1.00  0.00     0.135 A 
ATOM     88  F   UNL A   1      43.779  32.980  26.417  1.00  0.00    -0.206 F 
ATOM     89  C   UNL A   1      44.396  35.171  26.910  1.00  0.00     0.059 A 
ATOM     90  C   UNL A   1      45.511  35.692  28.986  1.00  0.00     0.059 A 
ATOM     91  F   UNL A   1      45.728  34.117  30.642  1.00  0.00    -0.206 F 
ATOM     92  C   UNL A   1      45.007  36.089  27.759  1.00  0.00     0.060 A 
BRANCH  92  93
ATOM     93  S   UNL A   1      45.148  37.802  27.246  1.00  0.00     0.124 S 
ATOM     94  O   UNL A   1      43.777  38.126  26.863  1.00  0.00    -0.237 OA
ATOM     95  O   UNL A   1      45.627  38.430  28.474  1.00  0.00    -0.237 OA
ATOM     96  O   UNL A   1      46.106  37.752  26.148  1.00  0.00    -0.744 OA
ENDBRANCH  92  93
ENDBRANCH  60  85
ENDBRANCH  34  35
ENDBRANCH  27  29
ENDBRANCH  26  27
ENDBRANCH  25  26
ENDBRANCH  24  25
ENDBRANCH   1  24
TORSDOF 20
ENDMDL
