MODEL 1
REMARK VINA RESULT:     -12.4      0.000      0.000
REMARK SMILES C[C@]12CC/C(=N\OCC(=O)OCCOCCOC(=O)c3ccc(-c4c5nc(c(-c6c(F)cc(S(=O)(=O)[O-])cc6F)c6ccc([nH]6)c(-c6c(F)cc(S(=O)(=O)[O-])cc6F)c6nc(c(-c7c(F)cc(S(=O)(=O)[O-])cc7F)c7ccc4[nH]7)C=C6)C=C5)cc3)C=C1CC[C@@H]1[C@@H]2CC[C@]2(C)[C@H]1CC[C@]2(C)O
REMARK SMILES IDX 14 1 13 2 12 3 11 4 9 5 10 6 8 7 7 8 6 9 100 10 99 11 98 12
REMARK SMILES IDX 94 13 97 14 96 15 93 16 95 17 90 18 92 19 89 20 91 21 88 22
REMARK SMILES IDX 2 23 87 24 3 25 1 26 86 27 4 28 5 29 101 30 15 32 16 33
REMARK SMILES IDX 17 34 18 35 19 36 20 37 21 38 85 39 22 40 84 41 23 42 24 43
REMARK SMILES IDX 25 44 78 45 26 46 83 47 77 48 79 49 27 50 82 51 76 52 75 53
REMARK SMILES IDX 28 55 62 56 41 57 61 58 42 59 45 60 60 61 80 62 43 63 44 64
REMARK SMILES IDX 59 66 81 67 46 68 29 69 30 70 39 71 31 72 32 73 38 74 40 75
REMARK SMILES IDX 33 76 34 77 35 78 36 79 37 80 63 81 64 82 73 83 65 84 66 85
REMARK SMILES IDX 72 86 74 87 67 88 68 89 69 90 70 91 71 92 47 93 48 94 57 95
REMARK SMILES IDX 49 96 50 97 56 98 58 99 51 100 52 101 53 102 54 103 55 104
REMARK H PARENT 101 31 79 54 45 65
REMARK Flexibility Score: inf
ROOT
ATOM      1  O   UNL A   1      44.384  21.448  24.281  1.00  0.00    -0.374 OA
ENDROOT
BRANCH   1   2
ATOM      2  C   UNL A   1      44.969  20.365  25.002  1.00  0.00     0.202 C 
BRANCH   2   3
ATOM      3  C   UNL A   1      44.372  18.978  24.738  1.00  0.00     0.261 C 
BRANCH   3   4
ATOM      4  O   UNL A   1      42.964  18.911  25.020  1.00  0.00    -0.461 OA
BRANCH   4   5
ATOM      5  C   UNL A   1      42.632  18.544  26.290  1.00  0.00     0.347 C 
ATOM      6  O   UNL A   1      43.154  17.623  26.913  1.00  0.00    -0.248 OA
BRANCH   5   7
ATOM      7  C   UNL A   1      41.532  19.401  26.906  1.00  0.00     0.386 C 
BRANCH   7   8
ATOM      8  O   UNL A   1      40.759  20.253  26.086  1.00  0.00    -0.384 OA
BRANCH   8   9
ATOM      9  N   UNL A   1      39.586  19.609  25.656  1.00  0.00    -0.091 NA
ATOM     10  C   UNL A   1      32.228  26.029  22.952  1.00  0.00     0.042 C 
ATOM     11  C   UNL A   1      32.300  24.715  23.708  1.00  0.00     0.068 C 
ATOM     12  C   UNL A   1      31.008  23.869  23.742  1.00  0.00     0.036 C 
ATOM     13  C   UNL A   1      32.639  24.793  25.242  1.00  0.00    -0.001 C 
ATOM     14  C   UNL A   1      31.192  22.894  24.936  1.00  0.00     0.007 C 
ATOM     15  C   UNL A   1      32.507  23.290  25.651  1.00  0.00     0.001 C 
ATOM     16  C   UNL A   1      33.981  25.365  25.688  1.00  0.00     0.010 C 
ATOM     17  C   UNL A   1      31.596  25.692  25.978  1.00  0.00     0.015 C 
ATOM     18  C   UNL A   1      33.740  22.433  25.191  1.00  0.00    -0.003 C 
ATOM     19  C   UNL A   1      35.193  24.559  25.322  1.00  0.00     0.005 C 
ATOM     20  C   UNL A   1      33.721  20.945  25.579  1.00  0.00     0.008 C 
ATOM     21  C   UNL A   1      35.095  23.052  25.620  1.00  0.00     0.002 C 
ATOM     22  C   UNL A   1      34.815  20.216  24.776  1.00  0.00     0.032 C 
ATOM     23  C   UNL A   1      36.343  22.305  25.008  1.00  0.00    -0.008 C 
ATOM     24  C   UNL A   1      36.196  20.787  25.018  1.00  0.00    -0.062 C 
ATOM     25  C   UNL A   1      37.579  22.710  25.857  1.00  0.00     0.018 C 
ATOM     26  C   UNL A   1      36.583  22.696  23.524  1.00  0.00     0.016 C 
ATOM     27  C   UNL A   1      37.261  19.973  25.145  1.00  0.00     0.027 C 
ATOM     28  C   UNL A   1      38.849  21.971  25.493  1.00  0.00     0.061 C 
ATOM     29  C   UNL A   1      38.630  20.474  25.455  1.00  0.00     0.080 C 
BRANCH  11  30
ATOM     30  O   UNL A   1      33.265  23.992  22.934  1.00  0.00    -0.390 OA
ATOM     31  H   UNL A   1      32.829  23.257  22.476  1.00  0.00     0.211 HD
ENDBRANCH  11  30
ENDBRANCH   8   9
ENDBRANCH   7   8
ENDBRANCH   5   7
ENDBRANCH   4   5
ENDBRANCH   3   4
ENDBRANCH   2   3
ENDBRANCH   1   2
BRANCH   1  32
ATOM     32  C   UNL A   1      43.341  22.170  24.944  1.00  0.00     0.202 C 
BRANCH  32  33
ATOM     33  C   UNL A   1      43.796  23.055  26.106  1.00  0.00     0.261 C 
BRANCH  33  34
ATOM     34  O   UNL A   1      42.723  23.880  26.596  1.00  0.00    -0.460 OA
BRANCH  34  35
ATOM     35  C   UNL A   1      42.703  25.124  26.061  1.00  0.00     0.338 C 
ATOM     36  O   UNL A   1      43.002  25.437  24.923  1.00  0.00    -0.246 OA
BRANCH  35  37
ATOM     37  C   UNL A   1      42.083  26.076  27.000  1.00  0.00     0.060 A 
ATOM     38  C   UNL A   1      42.593  27.380  27.033  1.00  0.00     0.016 A 
ATOM     39  C   UNL A   1      41.140  25.657  27.938  1.00  0.00     0.016 A 
ATOM     40  C   UNL A   1      42.200  28.256  28.043  1.00  0.00     0.010 A 
ATOM     41  C   UNL A   1      40.748  26.540  28.954  1.00  0.00     0.010 A 
ATOM     42  C   UNL A   1      41.306  27.830  29.036  1.00  0.00    -0.014 A 
BRANCH  42  43
ATOM     43  C   UNL A   1      41.064  28.692  30.223  1.00  0.00     0.031 A 
ATOM     44  C   UNL A   1      41.929  28.529  31.446  1.00  0.00     0.074 A 
ATOM     45  C   UNL A   1      40.108  29.640  30.200  1.00  0.00     0.049 A 
ATOM     46  N   UNL A   1      41.871  29.156  32.593  1.00  0.00    -0.248 NA
ATOM     47  C   UNL A   1      43.005  27.528  31.363  1.00  0.00     0.031 C 
ATOM     48  C   UNL A   1      39.235  29.927  29.062  1.00  0.00     0.029 A 
ATOM     49  N   UNL A   1      39.711  30.534  31.163  1.00  0.00    -0.354 N 
ATOM     50  C   UNL A   1      42.894  28.623  33.371  1.00  0.00     0.074 A 
ATOM     51  C   UNL A   1      43.540  27.602  32.573  1.00  0.00     0.031 C 
ATOM     52  C   UNL A   1      38.397  30.923  29.397  1.00  0.00     0.029 A 
ATOM     53  C   UNL A   1      38.650  31.320  30.782  1.00  0.00     0.049 A 
ATOM     54  H   UNL A   1      40.145  30.606  32.044  1.00  0.00     0.167 HD
ATOM     55  C   UNL A   1      43.264  28.958  34.630  1.00  0.00     0.037 A 
ATOM     56  C   UNL A   1      37.947  32.238  31.475  1.00  0.00     0.037 A 
ATOM     57  C   UNL A   1      42.623  29.979  35.419  1.00  0.00     0.049 A 
ATOM     58  C   UNL A   1      38.332  32.545  32.899  1.00  0.00     0.074 A 
ATOM     59  C   UNL A   1      42.940  30.405  36.697  1.00  0.00     0.029 A 
ATOM     60  N   UNL A   1      41.528  30.727  35.011  1.00  0.00    -0.354 N 
ATOM     61  N   UNL A   1      39.313  32.046  33.614  1.00  0.00    -0.248 NA
ATOM     62  C   UNL A   1      37.517  33.540  33.612  1.00  0.00     0.031 C 
ATOM     63  C   UNL A   1      42.007  31.375  37.079  1.00  0.00     0.029 A 
ATOM     64  C   UNL A   1      41.140  31.591  36.021  1.00  0.00     0.049 A 
ATOM     65  H   UNL A   1      41.091  30.653  34.131  1.00  0.00     0.167 HD
ATOM     66  C   UNL A   1      39.246  32.682  34.850  1.00  0.00     0.074 A 
ATOM     67  C   UNL A   1      38.136  33.610  34.783  1.00  0.00     0.031 C 
ATOM     68  C   UNL A   1      40.034  32.514  35.941  1.00  0.00     0.037 A 
BRANCH  55  69
ATOM     69  C   UNL A   1      44.405  28.197  35.250  1.00  0.00     0.058 A 
ATOM     70  C   UNL A   1      44.199  27.015  35.979  1.00  0.00     0.135 A 
ATOM     71  C   UNL A   1      45.728  28.636  35.077  1.00  0.00     0.135 A 
ATOM     72  F   UNL A   1      42.954  26.558  36.187  1.00  0.00    -0.206 F 
ATOM     73  C   UNL A   1      45.261  26.309  36.537  1.00  0.00     0.059 A 
ATOM     74  C   UNL A   1      46.808  27.932  35.604  1.00  0.00     0.059 A 
ATOM     75  F   UNL A   1      45.983  29.759  34.389  1.00  0.00    -0.206 F 
ATOM     76  C   UNL A   1      46.563  26.777  36.345  1.00  0.00     0.060 A 
BRANCH  76  77
ATOM     77  S   UNL A   1      47.930  25.850  37.073  1.00  0.00     0.124 S 
ATOM     78  O   UNL A   1      47.812  26.217  38.482  1.00  0.00    -0.237 OA
ATOM     79  O   UNL A   1      47.584  24.471  36.747  1.00  0.00    -0.237 OA
ATOM     80  O   UNL A   1      49.105  26.379  36.385  1.00  0.00    -0.744 OA
ENDBRANCH  76  77
ENDBRANCH  55  69
BRANCH  56  81
ATOM     81  C   UNL A   1      36.790  32.921  30.838  1.00  0.00     0.058 A 
ATOM     82  C   UNL A   1      35.470  32.580  31.168  1.00  0.00     0.135 A 
ATOM     83  C   UNL A   1      36.984  33.933  29.883  1.00  0.00     0.135 A 
ATOM     84  F   UNL A   1      35.233  31.610  32.064  1.00  0.00    -0.206 F 
ATOM     85  C   UNL A   1      34.383  33.210  30.571  1.00  0.00     0.059 A 
ATOM     86  C   UNL A   1      35.914  34.596  29.292  1.00  0.00     0.059 A 
ATOM     87  F   UNL A   1      38.226  34.302  29.537  1.00  0.00    -0.206 F 
ATOM     88  C   UNL A   1      34.616  34.221  29.636  1.00  0.00     0.060 A 
BRANCH  88  89
ATOM     89  S   UNL A   1      33.199  35.071  28.906  1.00  0.00     0.124 S 
ATOM     90  O   UNL A   1      32.387  35.353  30.084  1.00  0.00    -0.237 OA
ATOM     91  O   UNL A   1      33.828  36.225  28.271  1.00  0.00    -0.237 OA
ATOM     92  O   UNL A   1      32.653  34.079  27.984  1.00  0.00    -0.744 OA
ENDBRANCH  88  89
ENDBRANCH  56  81
BRANCH  68  93
ATOM     93  C   UNL A   1      39.748  33.367  37.146  1.00  0.00     0.058 A 
ATOM     94  C   UNL A   1      38.795  32.992  38.106  1.00  0.00     0.135 A 
ATOM     95  C   UNL A   1      40.480  34.542  37.377  1.00  0.00     0.135 A 
ATOM     96  F   UNL A   1      38.061  31.881  37.932  1.00  0.00    -0.206 F 
ATOM     97  C   UNL A   1      38.565  33.762  39.242  1.00  0.00     0.059 A 
ATOM     98  C   UNL A   1      40.286  35.314  38.519  1.00  0.00     0.059 A 
ATOM     99  F   UNL A   1      41.412  34.942  36.496  1.00  0.00    -0.206 F 
ATOM    100  C   UNL A   1      39.319  34.920  39.442  1.00  0.00     0.060 A 
BRANCH 100 101
ATOM    101  S   UNL A   1      39.041  35.887  40.941  1.00  0.00     0.124 S 
ATOM    102  O   UNL A   1      38.065  35.064  41.646  1.00  0.00    -0.237 OA
ATOM    103  O   UNL A   1      40.374  35.936  41.534  1.00  0.00    -0.237 OA
ATOM    104  O   UNL A   1      38.539  37.162  40.436  1.00  0.00    -0.744 OA
ENDBRANCH 100 101
ENDBRANCH  68  93
ENDBRANCH  42  43
ENDBRANCH  35  37
ENDBRANCH  34  35
ENDBRANCH  33  34
ENDBRANCH  32  33
ENDBRANCH   1  32
TORSDOF 20
ENDMDL
MODEL 2
REMARK VINA RESULT:     -12.2      0.708      7.891
REMARK SMILES C[C@]12CC/C(=N\OCC(=O)OCCOCCOC(=O)c3ccc(-c4c5nc(c(-c6c(F)cc(S(=O)(=O)[O-])cc6F)c6ccc([nH]6)c(-c6c(F)cc(S(=O)(=O)[O-])cc6F)c6nc(c(-c7c(F)cc(S(=O)(=O)[O-])cc7F)c7ccc4[nH]7)C=C6)C=C5)cc3)C=C1CC[C@@H]1[C@@H]2CC[C@]2(C)[C@H]1CC[C@]2(C)O
REMARK SMILES IDX 14 1 13 2 12 3 11 4 9 5 10 6 8 7 7 8 6 9 100 10 99 11 98 12
REMARK SMILES IDX 94 13 97 14 96 15 93 16 95 17 90 18 92 19 89 20 91 21 88 22
REMARK SMILES IDX 2 23 87 24 3 25 1 26 86 27 4 28 5 29 101 30 15 32 16 33
REMARK SMILES IDX 17 34 18 35 19 36 20 37 21 38 85 39 22 40 84 41 23 42 24 43
REMARK SMILES IDX 25 44 78 45 26 46 83 47 77 48 79 49 27 50 82 51 76 52 75 53
REMARK SMILES IDX 28 55 62 56 41 57 61 58 42 59 45 60 60 61 80 62 43 63 44 64
REMARK SMILES IDX 59 66 81 67 46 68 29 69 30 70 39 71 31 72 32 73 38 74 40 75
REMARK SMILES IDX 33 76 34 77 35 78 36 79 37 80 63 81 64 82 73 83 65 84 66 85
REMARK SMILES IDX 72 86 74 87 67 88 68 89 69 90 70 91 71 92 47 93 48 94 57 95
REMARK SMILES IDX 49 96 50 97 56 98 58 99 51 100 52 101 53 102 54 103 55 104
REMARK H PARENT 101 31 79 54 45 65
REMARK Flexibility Score: inf
ROOT
ATOM      1  O   UNL A   1      44.170  21.589  24.252  1.00  0.00    -0.374 OA
ENDROOT
BRANCH   1   2
ATOM      2  C   UNL A   1      44.898  20.521  24.856  1.00  0.00     0.202 C 
BRANCH   2   3
ATOM      3  C   UNL A   1      44.339  19.112  24.631  1.00  0.00     0.261 C 
BRANCH   3   4
ATOM      4  O   UNL A   1      42.929  19.019  24.900  1.00  0.00    -0.461 OA
BRANCH   4   5
ATOM      5  C   UNL A   1      42.592  18.569  26.141  1.00  0.00     0.347 C 
ATOM      6  O   UNL A   1      43.204  17.707  26.765  1.00  0.00    -0.248 OA
BRANCH   5   7
ATOM      7  C   UNL A   1      41.358  19.251  26.724  1.00  0.00     0.386 C 
BRANCH   7   8
ATOM      8  O   UNL A   1      40.593  20.128  25.924  1.00  0.00    -0.384 OA
BRANCH   8   9
ATOM      9  N   UNL A   1      39.394  19.518  25.513  1.00  0.00    -0.091 NA
ATOM     10  C   UNL A   1      32.121  26.145  23.093  1.00  0.00     0.042 C 
ATOM     11  C   UNL A   1      32.182  24.818  23.828  1.00  0.00     0.068 C 
ATOM     12  C   UNL A   1      30.873  24.001  23.881  1.00  0.00     0.036 C 
ATOM     13  C   UNL A   1      32.561  24.864  25.354  1.00  0.00    -0.001 C 
ATOM     14  C   UNL A   1      31.064  23.004  25.056  1.00  0.00     0.007 C 
ATOM     15  C   UNL A   1      32.405  23.358  25.743  1.00  0.00     0.001 C 
ATOM     16  C   UNL A   1      33.927  25.399  25.774  1.00  0.00     0.010 C 
ATOM     17  C   UNL A   1      31.558  25.775  26.130  1.00  0.00     0.015 C 
ATOM     18  C   UNL A   1      33.606  22.481  25.239  1.00  0.00    -0.003 C 
ATOM     19  C   UNL A   1      35.111  24.570  25.365  1.00  0.00     0.005 C 
ATOM     20  C   UNL A   1      33.562  20.988  25.606  1.00  0.00     0.008 C 
ATOM     21  C   UNL A   1      34.985  23.062  25.643  1.00  0.00     0.002 C 
ATOM     22  C   UNL A   1      34.618  20.247  24.764  1.00  0.00     0.032 C 
ATOM     23  C   UNL A   1      36.200  22.296  24.988  1.00  0.00    -0.008 C 
ATOM     24  C   UNL A   1      36.018  20.782  24.980  1.00  0.00    -0.062 C 
ATOM     25  C   UNL A   1      37.465  22.660  25.812  1.00  0.00     0.018 C 
ATOM     26  C   UNL A   1      36.412  22.705  23.504  1.00  0.00     0.016 C 
ATOM     27  C   UNL A   1      37.067  19.942  25.067  1.00  0.00     0.027 C 
ATOM     28  C   UNL A   1      38.709  21.898  25.404  1.00  0.00     0.061 C 
ATOM     29  C   UNL A   1      38.454  20.407  25.350  1.00  0.00     0.080 C 
BRANCH  11  30
ATOM     30  O   UNL A   1      33.111  24.085  23.018  1.00  0.00    -0.390 OA
ATOM     31  H   UNL A   1      33.288  24.578  22.202  1.00  0.00     0.211 HD
ENDBRANCH  11  30
ENDBRANCH   8   9
ENDBRANCH   7   8
ENDBRANCH   5   7
ENDBRANCH   4   5
ENDBRANCH   3   4
ENDBRANCH   2   3
ENDBRANCH   1   2
BRANCH   1  32
ATOM     32  C   UNL A   1      43.312  22.346  25.111  1.00  0.00     0.202 C 
BRANCH  32  33
ATOM     33  C   UNL A   1      44.018  23.107  26.235  1.00  0.00     0.261 C 
BRANCH  33  34
ATOM     34  O   UNL A   1      43.152  24.085  26.840  1.00  0.00    -0.460 OA
BRANCH  34  35
ATOM     35  C   UNL A   1      43.496  25.365  26.564  1.00  0.00     0.338 C 
ATOM     36  O   UNL A   1      44.130  25.762  25.602  1.00  0.00    -0.246 OA
BRANCH  35  37
ATOM     37  C   UNL A   1      42.839  26.288  27.506  1.00  0.00     0.060 A 
ATOM     38  C   UNL A   1      43.374  27.575  27.634  1.00  0.00     0.016 A 
ATOM     39  C   UNL A   1      41.827  25.850  28.361  1.00  0.00     0.016 A 
ATOM     40  C   UNL A   1      42.937  28.413  28.659  1.00  0.00     0.010 A 
ATOM     41  C   UNL A   1      41.391  26.694  29.391  1.00  0.00     0.010 A 
ATOM     42  C   UNL A   1      41.972  27.964  29.571  1.00  0.00    -0.014 A 
BRANCH  42  43
ATOM     43  C   UNL A   1      41.672  28.775  30.781  1.00  0.00     0.031 A 
ATOM     44  C   UNL A   1      40.500  29.722  30.767  1.00  0.00     0.074 A 
ATOM     45  C   UNL A   1      42.413  28.642  31.897  1.00  0.00     0.049 A 
ATOM     46  N   UNL A   1      40.080  30.537  31.700  1.00  0.00    -0.248 NA
ATOM     47  C   UNL A   1      39.691  29.749  29.538  1.00  0.00     0.031 C 
ATOM     48  C   UNL A   1      43.545  27.729  32.053  1.00  0.00     0.029 A 
ATOM     49  N   UNL A   1      42.325  29.278  33.111  1.00  0.00    -0.354 N 
ATOM     50  C   UNL A   1      38.966  31.180  31.171  1.00  0.00     0.074 A 
ATOM     51  C   UNL A   1      38.790  30.678  29.825  1.00  0.00     0.031 C 
ATOM     52  C   UNL A   1      44.053  27.872  33.289  1.00  0.00     0.029 A 
ATOM     53  C   UNL A   1      43.305  28.908  34.000  1.00  0.00     0.049 A 
ATOM     54  H   UNL A   1      41.625  29.937  33.325  1.00  0.00     0.167 HD
ATOM     55  C   UNL A   1      38.160  32.098  31.757  1.00  0.00     0.037 A 
ATOM     56  C   UNL A   1      43.585  29.368  35.236  1.00  0.00     0.037 A 
ATOM     57  C   UNL A   1      38.334  32.592  33.099  1.00  0.00     0.049 A 
ATOM     58  C   UNL A   1      42.717  30.441  35.840  1.00  0.00     0.074 A 
ATOM     59  C   UNL A   1      37.557  33.506  33.788  1.00  0.00     0.029 A 
ATOM     60  N   UNL A   1      39.361  32.219  33.954  1.00  0.00    -0.354 N 
ATOM     61  N   UNL A   1      41.655  31.025  35.336  1.00  0.00    -0.248 NA
ATOM     62  C   UNL A   1      43.082  30.918  37.183  1.00  0.00     0.031 C 
ATOM     63  C   UNL A   1      38.141  33.724  35.040  1.00  0.00     0.029 A 
ATOM     64  C   UNL A   1      39.254  32.906  35.152  1.00  0.00     0.049 A 
ATOM     65  H   UNL A   1      40.064  31.563  33.740  1.00  0.00     0.167 HD
ATOM     66  C   UNL A   1      41.215  31.920  36.306  1.00  0.00     0.074 A 
ATOM     67  C   UNL A   1      42.116  31.793  37.433  1.00  0.00     0.031 C 
ATOM     68  C   UNL A   1      40.157  32.768  36.269  1.00  0.00     0.037 A 
BRANCH  55  69
ATOM     69  C   UNL A   1      37.024  32.653  30.941  1.00  0.00     0.058 A 
ATOM     70  C   UNL A   1      35.732  32.106  30.998  1.00  0.00     0.135 A 
ATOM     71  C   UNL A   1      37.222  33.775  30.119  1.00  0.00     0.135 A 
ATOM     72  F   UNL A   1      35.490  31.025  31.756  1.00  0.00    -0.206 F 
ATOM     73  C   UNL A   1      34.684  32.634  30.251  1.00  0.00     0.059 A 
ATOM     74  C   UNL A   1      36.182  34.337  29.382  1.00  0.00     0.059 A 
ATOM     75  F   UNL A   1      38.437  34.339  30.026  1.00  0.00    -0.206 F 
ATOM     76  C   UNL A   1      34.919  33.750  29.444  1.00  0.00     0.060 A 
BRANCH  76  77
ATOM     77  S   UNL A   1      33.549  34.425  28.481  1.00  0.00     0.124 S 
ATOM     78  O   UNL A   1      34.216  35.487  27.734  1.00  0.00    -0.237 OA
ATOM     79  O   UNL A   1      33.119  33.272  27.698  1.00  0.00    -0.237 OA
ATOM     80  O   UNL A   1      32.605  34.874  29.501  1.00  0.00    -0.744 OA
ENDBRANCH  76  77
ENDBRANCH  55  69
BRANCH  56  81
ATOM     81  C   UNL A   1      44.755  28.830  35.979  1.00  0.00     0.058 A 
ATOM     82  C   UNL A   1      46.036  29.377  35.817  1.00  0.00     0.135 A 
ATOM     83  C   UNL A   1      44.612  27.754  36.871  1.00  0.00     0.135 A 
ATOM     84  F   UNL A   1      46.226  30.396  34.966  1.00  0.00    -0.206 F 
ATOM     85  C   UNL A   1      47.136  28.874  36.505  1.00  0.00     0.059 A 
ATOM     86  C   UNL A   1      45.691  27.251  37.590  1.00  0.00     0.059 A 
ATOM     87  F   UNL A   1      43.407  27.199  37.068  1.00  0.00    -0.206 F 
ATOM     88  C   UNL A   1      46.952  27.812  37.393  1.00  0.00     0.060 A 
BRANCH  88  89
ATOM     89  S   UNL A   1      48.375  27.201  38.321  1.00  0.00     0.124 S 
ATOM     90  O   UNL A   1      48.499  25.841  37.809  1.00  0.00    -0.237 OA
ATOM     91  O   UNL A   1      49.426  28.133  37.921  1.00  0.00    -0.237 OA
ATOM     92  O   UNL A   1      47.943  27.316  39.711  1.00  0.00    -0.744 OA
ENDBRANCH  88  89
ENDBRANCH  56  81
BRANCH  68  93
ATOM     93  C   UNL A   1      39.895  33.609  37.488  1.00  0.00     0.058 A 
ATOM     94  C   UNL A   1      40.527  34.848  37.679  1.00  0.00     0.135 A 
ATOM     95  C   UNL A   1      38.951  33.202  38.445  1.00  0.00     0.135 A 
ATOM     96  F   UNL A   1      41.442  35.283  36.799  1.00  0.00    -0.206 F 
ATOM     97  C   UNL A   1      40.247  35.643  38.787  1.00  0.00     0.059 A 
ATOM     98  C   UNL A   1      38.636  33.992  39.545  1.00  0.00     0.059 A 
ATOM     99  F   UNL A   1      38.309  32.030  38.305  1.00  0.00    -0.206 F 
ATOM    100  C   UNL A   1      39.297  35.208  39.713  1.00  0.00     0.060 A 
BRANCH 100 101
ATOM    101  S   UNL A   1      38.912  36.270  41.122  1.00  0.00     0.124 S 
ATOM    102  O   UNL A   1      38.585  37.529  40.462  1.00  0.00    -0.237 OA
ATOM    103  O   UNL A   1      37.791  35.571  41.744  1.00  0.00    -0.237 OA
ATOM    104  O   UNL A   1      40.150  36.270  41.897  1.00  0.00    -0.744 OA
ENDBRANCH 100 101
ENDBRANCH  68  93
ENDBRANCH  42  43
ENDBRANCH  35  37
ENDBRANCH  34  35
ENDBRANCH  33  34
ENDBRANCH  32  33
ENDBRANCH   1  32
TORSDOF 20
ENDMDL
MODEL 3
REMARK VINA RESULT:     -11.8      5.984     12.416
REMARK SMILES C[C@]12CC/C(=N\OCC(=O)OCCOCCOC(=O)c3ccc(-c4c5nc(c(-c6c(F)cc(S(=O)(=O)[O-])cc6F)c6ccc([nH]6)c(-c6c(F)cc(S(=O)(=O)[O-])cc6F)c6nc(c(-c7c(F)cc(S(=O)(=O)[O-])cc7F)c7ccc4[nH]7)C=C6)C=C5)cc3)C=C1CC[C@@H]1[C@@H]2CC[C@]2(C)[C@H]1CC[C@]2(C)O
REMARK SMILES IDX 14 1 13 2 12 3 11 4 9 5 10 6 8 7 7 8 6 9 100 10 99 11 98 12
REMARK SMILES IDX 94 13 97 14 96 15 93 16 95 17 90 18 92 19 89 20 91 21 88 22
REMARK SMILES IDX 2 23 87 24 3 25 1 26 86 27 4 28 5 29 101 30 15 32 16 33
REMARK SMILES IDX 17 34 18 35 19 36 20 37 21 38 85 39 22 40 84 41 23 42 24 43
REMARK SMILES IDX 25 44 78 45 26 46 83 47 77 48 79 49 27 50 82 51 76 52 75 53
REMARK SMILES IDX 28 55 62 56 41 57 61 58 42 59 45 60 60 61 80 62 43 63 44 64
REMARK SMILES IDX 59 66 81 67 46 68 29 69 30 70 39 71 31 72 32 73 38 74 40 75
REMARK SMILES IDX 33 76 34 77 35 78 36 79 37 80 63 81 64 82 73 83 65 84 66 85
REMARK SMILES IDX 72 86 74 87 67 88 68 89 69 90 70 91 71 92 47 93 48 94 57 95
REMARK SMILES IDX 49 96 50 97 56 98 58 99 51 100 52 101 53 102 54 103 55 104
REMARK H PARENT 101 31 79 54 45 65
REMARK Flexibility Score: inf
ROOT
ATOM      1  O   UNL A   1      36.696  34.196  33.997  1.00  0.00    -0.374 OA
ENDROOT
BRANCH   1   2
ATOM      2  C   UNL A   1      36.267  34.936  32.854  1.00  0.00     0.202 C 
BRANCH   2   3
ATOM      3  C   UNL A   1      34.751  35.056  32.658  1.00  0.00     0.261 C 
BRANCH   3   4
ATOM      4  O   UNL A   1      34.358  34.990  31.277  1.00  0.00    -0.461 OA
BRANCH   4   5
ATOM      5  C   UNL A   1      34.413  33.756  30.703  1.00  0.00     0.347 C 
ATOM      6  O   UNL A   1      34.152  32.703  31.279  1.00  0.00    -0.248 OA
BRANCH   5   7
ATOM      7  C   UNL A   1      34.824  33.782  29.235  1.00  0.00     0.386 C 
BRANCH   7   8
ATOM      8  O   UNL A   1      34.861  32.581  28.492  1.00  0.00    -0.384 OA
BRANCH   8   9
ATOM      9  N   UNL A   1      33.686  32.421  27.736  1.00  0.00    -0.091 NA
ATOM     10  C   UNL A   1      31.729  22.775  25.329  1.00  0.00     0.042 C 
ATOM     11  C   UNL A   1      31.631  24.113  24.620  1.00  0.00     0.068 C 
ATOM     12  C   UNL A   1      30.636  24.197  23.442  1.00  0.00     0.036 C 
ATOM     13  C   UNL A   1      32.940  24.655  23.936  1.00  0.00    -0.001 C 
ATOM     14  C   UNL A   1      31.083  25.435  22.619  1.00  0.00     0.007 C 
ATOM     15  C   UNL A   1      32.401  25.951  23.248  1.00  0.00     0.001 C 
ATOM     16  C   UNL A   1      34.166  24.961  24.793  1.00  0.00     0.010 C 
ATOM     17  C   UNL A   1      33.472  23.619  22.896  1.00  0.00     0.015 C 
ATOM     18  C   UNL A   1      32.177  27.123  24.269  1.00  0.00    -0.003 C 
ATOM     19  C   UNL A   1      34.027  26.109  25.751  1.00  0.00     0.005 C 
ATOM     20  C   UNL A   1      31.681  28.455  23.682  1.00  0.00     0.008 C 
ATOM     21  C   UNL A   1      33.419  27.391  25.156  1.00  0.00     0.002 C 
ATOM     22  C   UNL A   1      31.212  29.356  24.840  1.00  0.00     0.032 C 
ATOM     23  C   UNL A   1      33.150  28.437  26.307  1.00  0.00    -0.008 C 
ATOM     24  C   UNL A   1      32.305  29.623  25.853  1.00  0.00    -0.062 C 
ATOM     25  C   UNL A   1      34.534  28.945  26.795  1.00  0.00     0.018 C 
ATOM     26  C   UNL A   1      32.380  27.803  27.498  1.00  0.00     0.016 C 
ATOM     27  C   UNL A   1      32.456  30.848  26.391  1.00  0.00     0.027 C 
ATOM     28  C   UNL A   1      34.458  30.066  27.811  1.00  0.00     0.061 C 
ATOM     29  C   UNL A   1      33.557  31.186  27.337  1.00  0.00     0.080 C 
BRANCH  11  30
ATOM     30  O   UNL A   1      31.128  24.955  25.665  1.00  0.00    -0.390 OA
ATOM     31  H   UNL A   1      31.220  24.502  26.518  1.00  0.00     0.211 HD
ENDBRANCH  11  30
ENDBRANCH   8   9
ENDBRANCH   7   8
ENDBRANCH   5   7
ENDBRANCH   4   5
ENDBRANCH   3   4
ENDBRANCH   2   3
ENDBRANCH   1   2
BRANCH   1  32
ATOM     32  C   UNL A   1      36.482  32.782  33.960  1.00  0.00     0.202 C 
BRANCH  32  33
ATOM     33  C   UNL A   1      37.029  32.070  32.721  1.00  0.00     0.261 C 
BRANCH  33  34
ATOM     34  O   UNL A   1      36.845  30.644  32.803  1.00  0.00    -0.460 OA
BRANCH  34  35
ATOM     35  C   UNL A   1      36.957  30.010  31.611  1.00  0.00     0.338 C 
ATOM     36  O   UNL A   1      36.051  29.557  30.935  1.00  0.00    -0.246 OA
BRANCH  35  37
ATOM     37  C   UNL A   1      38.343  30.089  31.117  1.00  0.00     0.060 A 
ATOM     38  C   UNL A   1      38.531  30.329  29.750  1.00  0.00     0.016 A 
ATOM     39  C   UNL A   1      39.424  29.773  31.939  1.00  0.00     0.016 A 
ATOM     40  C   UNL A   1      39.800  30.197  29.188  1.00  0.00     0.010 A 
ATOM     41  C   UNL A   1      40.698  29.640  31.371  1.00  0.00     0.010 A 
ATOM     42  C   UNL A   1      40.886  29.811  29.986  1.00  0.00    -0.014 A 
BRANCH  42  43
ATOM     43  C   UNL A   1      42.181  29.464  29.343  1.00  0.00     0.031 A 
ATOM     44  C   UNL A   1      42.387  28.075  28.795  1.00  0.00     0.074 A 
ATOM     45  C   UNL A   1      43.152  30.387  29.212  1.00  0.00     0.049 A 
ATOM     46  N   UNL A   1      43.443  27.558  28.221  1.00  0.00    -0.248 NA
ATOM     47  C   UNL A   1      41.248  27.150  28.903  1.00  0.00     0.031 C 
ATOM     48  C   UNL A   1      43.060  31.776  29.661  1.00  0.00     0.029 A 
ATOM     49  N   UNL A   1      44.409  30.293  28.666  1.00  0.00    -0.354 N 
ATOM     50  C   UNL A   1      43.102  26.246  27.909  1.00  0.00     0.074 A 
ATOM     51  C   UNL A   1      41.749  26.040  28.379  1.00  0.00     0.031 C 
ATOM     52  C   UNL A   1      44.216  32.402  29.381  1.00  0.00     0.029 A 
ATOM     53  C   UNL A   1      45.141  31.451  28.765  1.00  0.00     0.049 A 
ATOM     54  H   UNL A   1      44.753  29.473  28.243  1.00  0.00     0.167 HD
ATOM     55  C   UNL A   1      43.846  25.303  27.281  1.00  0.00     0.037 A 
ATOM     56  C   UNL A   1      46.419  31.712  28.421  1.00  0.00     0.037 A 
ATOM     57  C   UNL A   1      45.191  25.514  26.809  1.00  0.00     0.049 A 
ATOM     58  C   UNL A   1      47.250  30.627  27.788  1.00  0.00     0.074 A 
ATOM     59  C   UNL A   1      46.017  24.626  26.142  1.00  0.00     0.029 A 
ATOM     60  N   UNL A   1      45.910  26.690  26.961  1.00  0.00    -0.354 N 
ATOM     61  N   UNL A   1      46.908  29.398  27.481  1.00  0.00    -0.248 NA
ATOM     62  C   UNL A   1      48.642  30.962  27.453  1.00  0.00     0.031 C 
ATOM     63  C   UNL A   1      47.253  25.249  25.935  1.00  0.00     0.029 A 
ATOM     64  C   UNL A   1      47.179  26.542  26.427  1.00  0.00     0.049 A 
ATOM     65  H   UNL A   1      45.568  27.509  27.387  1.00  0.00     0.167 HD
ATOM     66  C   UNL A   1      48.033  28.822  26.898  1.00  0.00     0.074 A 
ATOM     67  C   UNL A   1      49.063  29.840  26.884  1.00  0.00     0.031 C 
ATOM     68  C   UNL A   1      48.197  27.566  26.416  1.00  0.00     0.037 A 
BRANCH  55  69
ATOM     69  C   UNL A   1      43.232  23.943  27.087  1.00  0.00     0.058 A 
ATOM     70  C   UNL A   1      42.663  23.554  25.864  1.00  0.00     0.135 A 
ATOM     71  C   UNL A   1      43.249  23.001  28.129  1.00  0.00     0.135 A 
ATOM     72  F   UNL A   1      42.608  24.418  24.838  1.00  0.00    -0.206 F 
ATOM     73  C   UNL A   1      42.111  22.288  25.688  1.00  0.00     0.059 A 
ATOM     74  C   UNL A   1      42.725  21.721  27.968  1.00  0.00     0.059 A 
ATOM     75  F   UNL A   1      43.779  23.321  29.319  1.00  0.00    -0.206 F 
ATOM     76  C   UNL A   1      42.145  21.379  26.747  1.00  0.00     0.060 A 
BRANCH  76  77
ATOM     77  S   UNL A   1      41.425  19.741  26.505  1.00  0.00     0.124 S 
ATOM     78  O   UNL A   1      42.214  19.241  25.383  1.00  0.00    -0.237 OA
ATOM     79  O   UNL A   1      41.671  19.097  27.790  1.00  0.00    -0.237 OA
ATOM     80  O   UNL A   1      40.024  20.026  26.207  1.00  0.00    -0.744 OA
ENDBRANCH  76  77
ENDBRANCH  55  69
BRANCH  56  81
ATOM     81  C   UNL A   1      46.998  33.055  28.688  1.00  0.00     0.058 A 
ATOM     82  C   UNL A   1      47.542  33.379  29.939  1.00  0.00     0.135 A 
ATOM     83  C   UNL A   1      47.021  34.044  27.691  1.00  0.00     0.135 A 
ATOM     84  F   UNL A   1      47.531  32.473  30.929  1.00  0.00    -0.206 F 
ATOM     85  C   UNL A   1      48.080  34.635  30.198  1.00  0.00     0.059 A 
ATOM     86  C   UNL A   1      47.577  35.298  27.916  1.00  0.00     0.059 A 
ATOM     87  F   UNL A   1      46.520  33.783  26.474  1.00  0.00    -0.206 F 
ATOM     88  C   UNL A   1      48.097  35.587  29.177  1.00  0.00     0.060 A 
BRANCH  88  89
ATOM     89  S   UNL A   1      48.846  37.198  29.505  1.00  0.00     0.124 S 
ATOM     90  O   UNL A   1      49.139  37.101  30.930  1.00  0.00    -0.237 OA
ATOM     91  O   UNL A   1      50.002  37.186  28.612  1.00  0.00    -0.237 OA
ATOM     92  O   UNL A   1      47.792  38.138  29.138  1.00  0.00    -0.744 OA
ENDBRANCH  88  89
ENDBRANCH  56  81
BRANCH  68  93
ATOM     93  C   UNL A   1      49.527  27.221  25.805  1.00  0.00     0.058 A 
ATOM     94  C   UNL A   1      50.594  26.743  26.583  1.00  0.00     0.135 A 
ATOM     95  C   UNL A   1      49.718  27.309  24.417  1.00  0.00     0.135 A 
ATOM     96  F   UNL A   1      50.468  26.645  27.916  1.00  0.00    -0.206 F 
ATOM     97  C   UNL A   1      51.809  26.383  26.007  1.00  0.00     0.059 A 
ATOM     98  C   UNL A   1      50.915  26.930  23.817  1.00  0.00     0.059 A 
ATOM     99  F   UNL A   1      48.727  27.750  23.625  1.00  0.00    -0.206 F 
ATOM    100  C   UNL A   1      51.959  26.477  24.622  1.00  0.00     0.060 A 
BRANCH 100 101
ATOM    101  S   UNL A   1      53.525  25.966  23.884  1.00  0.00     0.124 S 
ATOM    102  O   UNL A   1      53.664  24.607  24.397  1.00  0.00    -0.237 OA
ATOM    103  O   UNL A   1      53.250  26.079  22.454  1.00  0.00    -0.237 OA
ATOM    104  O   UNL A   1      54.482  26.936  24.410  1.00  0.00    -0.744 OA
ENDBRANCH 100 101
ENDBRANCH  68  93
ENDBRANCH  42  43
ENDBRANCH  35  37
ENDBRANCH  34  35
ENDBRANCH  33  34
ENDBRANCH  32  33
ENDBRANCH   1  32
TORSDOF 20
ENDMDL
