MODEL 1
REMARK VINA RESULT:     -11.4      0.000      0.000
REMARK SMILES Cc1cccc2c1N=CN1C2=[NH+]NC(=O)[C@@H]1CC(=O)OCCOCCOC(=O)c1ccc(-c2c3nc(c(-c4c(F)cc(S(=O)(=O)[O-])cc4F)c4ccc([nH]4)c(-c4c(F)cc(S(=O)(=O)[O-])cc4F)c4nc(c(-c5c(F)cc(S(=O)(=O)[O-])cc5F)c5ccc2[nH]5)C=C4)C=C3)cc1
REMARK SMILES IDX 24 1 23 2 22 3 21 4 20 5 18 6 19 7 17 8 16 9 1 10 2 11 3 12
REMARK SMILES IDX 7 13 4 14 6 15 8 16 5 17 11 18 9 19 10 20 12 21 13 22 14 24
REMARK SMILES IDX 15 26 25 27 26 28 27 29 28 30 29 31 30 32 94 33 31 34 93 35
REMARK SMILES IDX 32 36 33 37 34 38 87 39 35 40 92 41 86 42 88 43 36 44 91 45
REMARK SMILES IDX 85 46 84 47 37 49 71 50 50 51 70 52 51 53 54 54 69 55 89 56
REMARK SMILES IDX 52 57 53 58 68 60 90 61 55 62 38 63 39 64 48 65 40 66 41 67
REMARK SMILES IDX 47 68 49 69 42 70 43 71 44 72 45 73 46 74 72 75 73 76 82 77
REMARK SMILES IDX 74 78 75 79 81 80 83 81 76 82 77 83 78 84 79 85 80 86 56 87
REMARK SMILES IDX 57 88 66 89 58 90 59 91 65 92 67 93 60 94 61 95 62 96 63 97
REMARK SMILES IDX 64 98
REMARK H PARENT 12 23 13 25 88 48 54 59
REMARK Flexibility Score: inf
ROOT
ATOM      1  C   UNL A   1      32.032  30.054  26.141  1.00  0.00     0.202 C 
ENDROOT
BRANCH   1   2
ATOM      2  O   UNL A   1      31.970  29.899  24.720  1.00  0.00    -0.374 OA
BRANCH   2   3
ATOM      3  C   UNL A   1      30.807  29.270  24.180  1.00  0.00     0.202 C 
BRANCH   3   4
ATOM      4  C   UNL A   1      30.938  27.775  23.869  1.00  0.00     0.261 C 
BRANCH   4   5
ATOM      5  O   UNL A   1      30.958  26.967  25.059  1.00  0.00    -0.463 OA
BRANCH   5   6
ATOM      6  C   UNL A   1      31.921  26.016  25.079  1.00  0.00     0.310 C 
ATOM      7  O   UNL A   1      32.556  25.635  24.102  1.00  0.00    -0.252 OA
BRANCH   6   8
ATOM      8  C   UNL A   1      32.252  25.540  26.466  1.00  0.00     0.183 C 
BRANCH   8   9
ATOM      9  C   UNL A   1      32.041  24.064  26.796  1.00  0.00     0.286 C 
ATOM     10  C   UNL A   1      37.286  20.731  24.910  1.00  0.00     0.047 C 
ATOM     11  C   UNL A   1      35.835  20.340  24.967  1.00  0.00    -0.024 A 
ATOM     12  C   UNL A   1      35.458  19.033  24.619  1.00  0.00     0.006 A 
ATOM     13  C   UNL A   1      34.861  21.258  25.398  1.00  0.00     0.085 A 
ATOM     14  C   UNL A   1      34.128  18.626  24.707  1.00  0.00     0.001 A 
ATOM     15  C   UNL A   1      33.517  20.841  25.446  1.00  0.00     0.092 A 
ATOM     16  N   UNL A   1      35.266  22.549  25.808  1.00  0.00    -0.215 NA
ATOM     17  C   UNL A   1      33.154  19.527  25.130  1.00  0.00     0.019 A 
ATOM     18  C   UNL A   1      32.492  21.850  25.853  1.00  0.00     0.309 C 
ATOM     19  C   UNL A   1      34.335  23.358  26.190  1.00  0.00     0.317 C 
ATOM     20  N   UNL A   1      32.981  23.105  26.201  1.00  0.00    -0.202 N 
ATOM     21  N   UNL A   1      31.243  21.483  25.862  1.00  0.00    -0.169 N 
ATOM     22  N   UNL A   1      30.315  22.401  26.211  1.00  0.00    -0.193 N 
ATOM     23  H   UNL A   1      30.982  20.564  25.621  1.00  0.00     0.340 HD
ATOM     24  C   UNL A   1      30.575  23.685  26.599  1.00  0.00     0.300 C 
ATOM     25  H   UNL A   1      29.371  22.122  26.182  1.00  0.00     0.216 HD
ATOM     26  O   UNL A   1      29.647  24.451  26.864  1.00  0.00    -0.267 OA
ENDBRANCH   8   9
ENDBRANCH   6   8
ENDBRANCH   5   6
ENDBRANCH   4   5
ENDBRANCH   3   4
ENDBRANCH   2   3
ENDBRANCH   1   2
BRANCH   1  27
ATOM     27  C   UNL A   1      33.285  29.505  26.835  1.00  0.00     0.261 C 
BRANCH  27  28
ATOM     28  O   UNL A   1      33.552  30.164  28.088  1.00  0.00    -0.460 OA
BRANCH  28  29
ATOM     29  C   UNL A   1      34.631  30.985  28.066  1.00  0.00     0.338 C 
ATOM     30  O   UNL A   1      34.627  32.196  27.923  1.00  0.00    -0.246 OA
BRANCH  29  31
ATOM     31  C   UNL A   1      35.876  30.220  28.255  1.00  0.00     0.060 A 
ATOM     32  C   UNL A   1      36.225  29.711  29.512  1.00  0.00     0.016 A 
ATOM     33  C   UNL A   1      36.791  30.179  27.207  1.00  0.00     0.016 A 
ATOM     34  C   UNL A   1      37.505  29.179  29.724  1.00  0.00     0.010 A 
ATOM     35  C   UNL A   1      38.060  29.635  27.422  1.00  0.00     0.010 A 
ATOM     36  C   UNL A   1      38.447  29.153  28.685  1.00  0.00    -0.014 A 
BRANCH  36  37
ATOM     37  C   UNL A   1      39.871  28.775  28.923  1.00  0.00     0.031 A 
ATOM     38  C   UNL A   1      40.816  29.799  29.509  1.00  0.00     0.074 A 
ATOM     39  C   UNL A   1      40.347  27.552  28.609  1.00  0.00     0.049 A 
ATOM     40  N   UNL A   1      42.112  29.734  29.682  1.00  0.00    -0.248 NA
ATOM     41  C   UNL A   1      40.219  31.076  29.934  1.00  0.00     0.031 C 
ATOM     42  C   UNL A   1      39.567  26.453  28.045  1.00  0.00     0.029 A 
ATOM     43  N   UNL A   1      41.619  27.038  28.711  1.00  0.00    -0.354 N 
ATOM     44  C   UNL A   1      42.486  30.964  30.213  1.00  0.00     0.074 A 
ATOM     45  C   UNL A   1      41.289  31.776  30.279  1.00  0.00     0.031 C 
ATOM     46  C   UNL A   1      40.374  25.395  27.851  1.00  0.00     0.029 A 
ATOM     47  C   UNL A   1      41.736  25.747  28.251  1.00  0.00     0.049 A 
ATOM     48  H   UNL A   1      42.377  27.547  29.080  1.00  0.00     0.167 HD
ATOM     49  C   UNL A   1      43.700  31.377  30.646  1.00  0.00     0.037 A 
ATOM     50  C   UNL A   1      42.813  24.943  28.151  1.00  0.00     0.037 A 
ATOM     51  C   UNL A   1      44.886  30.564  30.648  1.00  0.00     0.049 A 
ATOM     52  C   UNL A   1      44.164  25.427  28.612  1.00  0.00     0.074 A 
ATOM     53  C   UNL A   1      46.148  30.884  31.117  1.00  0.00     0.029 A 
ATOM     54  N   UNL A   1      44.953  29.261  30.177  1.00  0.00    -0.354 N 
ATOM     55  N   UNL A   1      44.492  26.588  29.123  1.00  0.00    -0.248 NA
ATOM     56  C   UNL A   1      45.289  24.486  28.492  1.00  0.00     0.031 C 
ATOM     57  C   UNL A   1      46.986  29.783  30.911  1.00  0.00     0.029 A 
ATOM     58  C   UNL A   1      46.236  28.767  30.340  1.00  0.00     0.049 A 
ATOM     59  H   UNL A   1      44.201  28.764  29.784  1.00  0.00     0.167 HD
ATOM     60  C   UNL A   1      45.850  26.505  29.414  1.00  0.00     0.074 A 
ATOM     61  C   UNL A   1      46.286  25.182  29.022  1.00  0.00     0.031 C 
ATOM     62  C   UNL A   1      46.660  27.443  29.965  1.00  0.00     0.037 A 
BRANCH  49  63
ATOM     63  C   UNL A   1      43.801  32.777  31.183  1.00  0.00     0.058 A 
ATOM     64  C   UNL A   1      43.578  33.055  32.541  1.00  0.00     0.135 A 
ATOM     65  C   UNL A   1      44.142  33.846  30.340  1.00  0.00     0.135 A 
ATOM     66  F   UNL A   1      43.235  32.069  33.385  1.00  0.00    -0.206 F 
ATOM     67  C   UNL A   1      43.653  34.350  33.038  1.00  0.00     0.059 A 
ATOM     68  C   UNL A   1      44.249  35.148  30.822  1.00  0.00     0.059 A 
ATOM     69  F   UNL A   1      44.368  33.634  29.034  1.00  0.00    -0.206 F 
ATOM     70  C   UNL A   1      43.985  35.391  32.170  1.00  0.00     0.060 A 
BRANCH  70  71
ATOM     71  S   UNL A   1      44.068  37.068  32.830  1.00  0.00     0.124 S 
ATOM     72  O   UNL A   1      43.002  37.042  33.826  1.00  0.00    -0.237 OA
ATOM     73  O   UNL A   1      45.427  37.130  33.360  1.00  0.00    -0.237 OA
ATOM     74  O   UNL A   1      43.816  37.906  31.661  1.00  0.00    -0.744 OA
ENDBRANCH  70  71
ENDBRANCH  49  63
BRANCH  50  75
ATOM     75  C   UNL A   1      42.665  23.568  27.604  1.00  0.00     0.058 A 
ATOM     76  C   UNL A   1      42.428  22.479  28.455  1.00  0.00     0.135 A 
ATOM     77  C   UNL A   1      42.769  23.316  26.228  1.00  0.00     0.135 A 
ATOM     78  F   UNL A   1      42.338  22.672  29.780  1.00  0.00    -0.206 F 
ATOM     79  C   UNL A   1      42.308  21.184  27.964  1.00  0.00     0.059 A 
ATOM     80  C   UNL A   1      42.634  22.030  25.710  1.00  0.00     0.059 A 
ATOM     81  F   UNL A   1      42.994  24.327  25.374  1.00  0.00    -0.206 F 
ATOM     82  C   UNL A   1      42.412  20.970  26.588  1.00  0.00     0.060 A 
BRANCH  82  83
ATOM     83  S   UNL A   1      42.214  19.288  25.961  1.00  0.00     0.124 S 
ATOM     84  O   UNL A   1      42.699  18.495  27.084  1.00  0.00    -0.237 OA
ATOM     85  O   UNL A   1      40.778  19.223  25.706  1.00  0.00    -0.237 OA
ATOM     86  O   UNL A   1      43.055  19.274  24.768  1.00  0.00    -0.744 OA
ENDBRANCH  82  83
ENDBRANCH  50  75
BRANCH  62  87
ATOM     87  C   UNL A   1      48.095  27.076  30.220  1.00  0.00     0.058 A 
ATOM     88  C   UNL A   1      49.105  27.370  29.291  1.00  0.00     0.135 A 
ATOM     89  C   UNL A   1      48.476  26.507  31.447  1.00  0.00     0.135 A 
ATOM     90  F   UNL A   1      48.793  27.908  28.102  1.00  0.00    -0.206 F 
ATOM     91  C   UNL A   1      50.444  27.112  29.570  1.00  0.00     0.059 A 
ATOM     92  C   UNL A   1      49.811  26.258  31.754  1.00  0.00     0.059 A 
ATOM     93  F   UNL A   1      47.549  26.213  32.372  1.00  0.00    -0.206 F 
ATOM     94  C   UNL A   1      50.787  26.561  30.807  1.00  0.00     0.060 A 
BRANCH  94  95
ATOM     95  S   UNL A   1      52.535  26.294  31.180  1.00  0.00     0.124 S 
ATOM     96  O   UNL A   1      53.129  26.322  29.848  1.00  0.00    -0.237 OA
ATOM     97  O   UNL A   1      52.849  27.433  32.037  1.00  0.00    -0.237 OA
ATOM     98  O   UNL A   1      52.546  24.996  31.846  1.00  0.00    -0.744 OA
ENDBRANCH  94  95
ENDBRANCH  62  87
ENDBRANCH  36  37
ENDBRANCH  29  31
ENDBRANCH  28  29
ENDBRANCH  27  28
ENDBRANCH   1  27
TORSDOF 18
ENDMDL
MODEL 2
REMARK VINA RESULT:     -11.3      2.448      3.353
REMARK SMILES Cc1cccc2c1N=CN1C2=[NH+]NC(=O)[C@@H]1CC(=O)OCCOCCOC(=O)c1ccc(-c2c3nc(c(-c4c(F)cc(S(=O)(=O)[O-])cc4F)c4ccc([nH]4)c(-c4c(F)cc(S(=O)(=O)[O-])cc4F)c4nc(c(-c5c(F)cc(S(=O)(=O)[O-])cc5F)c5ccc2[nH]5)C=C4)C=C3)cc1
REMARK SMILES IDX 24 1 23 2 22 3 21 4 20 5 18 6 19 7 17 8 16 9 1 10 2 11 3 12
REMARK SMILES IDX 7 13 4 14 6 15 8 16 5 17 11 18 9 19 10 20 12 21 13 22 14 24
REMARK SMILES IDX 15 26 25 27 26 28 27 29 28 30 29 31 30 32 94 33 31 34 93 35
REMARK SMILES IDX 32 36 33 37 34 38 87 39 35 40 92 41 86 42 88 43 36 44 91 45
REMARK SMILES IDX 85 46 84 47 37 49 71 50 50 51 70 52 51 53 54 54 69 55 89 56
REMARK SMILES IDX 52 57 53 58 68 60 90 61 55 62 38 63 39 64 48 65 40 66 41 67
REMARK SMILES IDX 47 68 49 69 42 70 43 71 44 72 45 73 46 74 72 75 73 76 82 77
REMARK SMILES IDX 74 78 75 79 81 80 83 81 76 82 77 83 78 84 79 85 80 86 56 87
REMARK SMILES IDX 57 88 66 89 58 90 59 91 65 92 67 93 60 94 61 95 62 96 63 97
REMARK SMILES IDX 64 98
REMARK H PARENT 12 23 13 25 88 48 54 59
REMARK Flexibility Score: inf
ROOT
ATOM      1  C   UNL A   1      34.618  32.833  28.047  1.00  0.00     0.202 C 
ENDROOT
BRANCH   1   2
ATOM      2  O   UNL A   1      34.723  31.596  27.334  1.00  0.00    -0.374 OA
BRANCH   2   3
ATOM      3  C   UNL A   1      33.762  30.583  27.638  1.00  0.00     0.202 C 
BRANCH   3   4
ATOM      4  C   UNL A   1      33.651  29.441  26.620  1.00  0.00     0.261 C 
BRANCH   4   5
ATOM      5  O   UNL A   1      33.484  28.158  27.251  1.00  0.00    -0.463 OA
BRANCH   5   6
ATOM      6  C   UNL A   1      32.234  27.647  27.167  1.00  0.00     0.310 C 
ATOM      7  O   UNL A   1      31.271  28.025  27.825  1.00  0.00    -0.252 OA
BRANCH   6   8
ATOM      8  C   UNL A   1      32.084  26.632  26.068  1.00  0.00     0.183 C 
BRANCH   8   9
ATOM      9  C   UNL A   1      31.872  25.171  26.454  1.00  0.00     0.286 C 
ATOM     10  C   UNL A   1      37.318  21.863  25.194  1.00  0.00     0.047 C 
ATOM     11  C   UNL A   1      35.874  21.445  25.147  1.00  0.00    -0.024 A 
ATOM     12  C   UNL A   1      35.552  20.113  24.836  1.00  0.00     0.006 A 
ATOM     13  C   UNL A   1      34.850  22.361  25.446  1.00  0.00     0.085 A 
ATOM     14  C   UNL A   1      34.226  19.682  24.832  1.00  0.00     0.001 A 
ATOM     15  C   UNL A   1      33.515  21.918  25.401  1.00  0.00     0.092 A 
ATOM     16  N   UNL A   1      35.196  23.680  25.823  1.00  0.00    -0.215 NA
ATOM     17  C   UNL A   1      33.204  20.582  25.124  1.00  0.00     0.019 A 
ATOM     18  C   UNL A   1      32.441  22.923  25.668  1.00  0.00     0.309 C 
ATOM     19  C   UNL A   1      34.221  24.486  26.082  1.00  0.00     0.317 C 
ATOM     20  N   UNL A   1      32.877  24.204  25.991  1.00  0.00    -0.202 N 
ATOM     21  N   UNL A   1      31.203  22.529  25.589  1.00  0.00    -0.169 N 
ATOM     22  N   UNL A   1      30.232  23.443  25.810  1.00  0.00    -0.193 N 
ATOM     23  H   UNL A   1      30.980  21.594  25.374  1.00  0.00     0.340 HD
ATOM     24  C   UNL A   1      30.436  24.750  26.153  1.00  0.00     0.300 C 
ATOM     25  H   UNL A   1      29.299  23.142  25.717  1.00  0.00     0.216 HD
ATOM     26  O   UNL A   1      29.475  25.508  26.299  1.00  0.00    -0.267 OA
ENDBRANCH   8   9
ENDBRANCH   6   8
ENDBRANCH   5   6
ENDBRANCH   4   5
ENDBRANCH   3   4
ENDBRANCH   2   3
ENDBRANCH   1   2
BRANCH   1  27
ATOM     27  C   UNL A   1      34.953  32.790  29.544  1.00  0.00     0.261 C 
BRANCH  27  28
ATOM     28  O   UNL A   1      36.333  32.451  29.788  1.00  0.00    -0.460 OA
BRANCH  28  29
ATOM     29  C   UNL A   1      36.508  31.419  30.650  1.00  0.00     0.338 C 
ATOM     30  O   UNL A   1      35.822  31.153  31.621  1.00  0.00    -0.246 OA
BRANCH  29  31
ATOM     31  C   UNL A   1      37.672  30.603  30.261  1.00  0.00     0.060 A 
ATOM     32  C   UNL A   1      38.534  30.074  31.229  1.00  0.00     0.016 A 
ATOM     33  C   UNL A   1      38.008  30.533  28.912  1.00  0.00     0.016 A 
ATOM     34  C   UNL A   1      39.749  29.489  30.843  1.00  0.00     0.010 A 
ATOM     35  C   UNL A   1      39.214  29.937  28.534  1.00  0.00     0.010 A 
ATOM     36  C   UNL A   1      40.114  29.432  29.490  1.00  0.00    -0.014 A 
BRANCH  36  37
ATOM     37  C   UNL A   1      41.475  28.996  29.058  1.00  0.00     0.031 A 
ATOM     38  C   UNL A   1      42.597  30.008  29.030  1.00  0.00     0.074 A 
ATOM     39  C   UNL A   1      41.730  27.729  28.671  1.00  0.00     0.049 A 
ATOM     40  N   UNL A   1      43.818  29.886  28.574  1.00  0.00    -0.248 NA
ATOM     41  C   UNL A   1      42.290  31.344  29.567  1.00  0.00     0.031 C 
ATOM     42  C   UNL A   1      40.761  26.634  28.648  1.00  0.00     0.029 A 
ATOM     43  N   UNL A   1      42.890  27.155  28.206  1.00  0.00    -0.354 N 
ATOM     44  C   UNL A   1      44.415  31.130  28.749  1.00  0.00     0.074 A 
ATOM     45  C   UNL A   1      43.404  32.009  29.298  1.00  0.00     0.031 C 
ATOM     46  C   UNL A   1      41.366  25.523  28.194  1.00  0.00     0.029 A 
ATOM     47  C   UNL A   1      42.758  25.829  27.867  1.00  0.00     0.049 A 
ATOM     48  H   UNL A   1      43.738  27.649  28.123  1.00  0.00     0.167 HD
ATOM     49  C   UNL A   1      45.694  31.508  28.515  1.00  0.00     0.037 A 
ATOM     50  C   UNL A   1      43.647  24.961  27.344  1.00  0.00     0.037 A 
ATOM     51  C   UNL A   1      46.727  30.633  28.030  1.00  0.00     0.049 A 
ATOM     52  C   UNL A   1      45.061  25.405  27.064  1.00  0.00     0.074 A 
ATOM     53  C   UNL A   1      48.064  30.919  27.814  1.00  0.00     0.029 A 
ATOM     54  N   UNL A   1      46.547  29.298  27.706  1.00  0.00    -0.354 N 
ATOM     55  N   UNL A   1      45.607  26.581  27.249  1.00  0.00    -0.248 NA
ATOM     56  C   UNL A   1      45.981  24.397  26.512  1.00  0.00     0.031 C 
ATOM     57  C   UNL A   1      48.689  29.762  27.339  1.00  0.00     0.029 A 
ATOM     58  C   UNL A   1      47.746  28.748  27.288  1.00  0.00     0.049 A 
ATOM     59  H   UNL A   1      45.692  28.813  27.764  1.00  0.00     0.167 HD
ATOM     60  C   UNL A   1      46.939  26.447  26.868  1.00  0.00     0.074 A 
ATOM     61  C   UNL A   1      47.118  25.076  26.441  1.00  0.00     0.031 C 
ATOM     62  C   UNL A   1      47.924  27.378  26.880  1.00  0.00     0.037 A 
BRANCH  49  63
ATOM     63  C   UNL A   1      46.055  32.937  28.809  1.00  0.00     0.058 A 
ATOM     64  C   UNL A   1      46.536  33.323  30.070  1.00  0.00     0.135 A 
ATOM     65  C   UNL A   1      45.939  33.924  27.818  1.00  0.00     0.135 A 
ATOM     66  F   UNL A   1      46.652  32.418  31.055  1.00  0.00    -0.206 F 
ATOM     67  C   UNL A   1      46.855  34.646  30.351  1.00  0.00     0.059 A 
ATOM     68  C   UNL A   1      46.278  35.251  28.069  1.00  0.00     0.059 A 
ATOM     69  F   UNL A   1      45.486  33.607  26.595  1.00  0.00    -0.206 F 
ATOM     70  C   UNL A   1      46.718  35.604  29.345  1.00  0.00     0.060 A 
BRANCH  70  71
ATOM     71  S   UNL A   1      47.127  37.319  29.729  1.00  0.00     0.124 S 
ATOM     72  O   UNL A   1      48.362  37.160  30.490  1.00  0.00    -0.237 OA
ATOM     73  O   UNL A   1      47.272  37.911  28.404  1.00  0.00    -0.237 OA
ATOM     74  O   UNL A   1      45.972  37.780  30.496  1.00  0.00    -0.744 OA
ENDBRANCH  70  71
ENDBRANCH  49  63
BRANCH  50  75
ATOM     75  C   UNL A   1      43.240  23.559  27.062  1.00  0.00     0.058 A 
ATOM     76  C   UNL A   1      42.947  23.147  25.754  1.00  0.00     0.135 A 
ATOM     77  C   UNL A   1      43.125  22.613  28.091  1.00  0.00     0.135 A 
ATOM     78  F   UNL A   1      43.028  24.023  24.742  1.00  0.00    -0.206 F 
ATOM     79  C   UNL A   1      42.544  21.846  25.475  1.00  0.00     0.059 A 
ATOM     80  C   UNL A   1      42.741  21.300  27.834  1.00  0.00     0.059 A 
ATOM     81  F   UNL A   1      43.396  22.961  29.359  1.00  0.00    -0.206 F 
ATOM     82  C   UNL A   1      42.445  20.928  26.522  1.00  0.00     0.060 A 
BRANCH  82  83
ATOM     83  S   UNL A   1      41.959  19.232  26.139  1.00  0.00     0.124 S 
ATOM     84  O   UNL A   1      40.519  19.371  25.961  1.00  0.00    -0.237 OA
ATOM     85  O   UNL A   1      42.729  18.960  24.928  1.00  0.00    -0.237 OA
ATOM     86  O   UNL A   1      42.380  18.486  27.321  1.00  0.00    -0.744 OA
ENDBRANCH  82  83
ENDBRANCH  50  75
BRANCH  62  87
ATOM     87  C   UNL A   1      49.303  26.953  26.459  1.00  0.00     0.058 A 
ATOM     88  C   UNL A   1      50.176  26.307  27.347  1.00  0.00     0.135 A 
ATOM     89  C   UNL A   1      49.719  27.113  25.127  1.00  0.00     0.135 A 
ATOM     90  F   UNL A   1      49.828  26.136  28.632  1.00  0.00    -0.206 F 
ATOM     91  C   UNL A   1      51.416  25.834  26.929  1.00  0.00     0.059 A 
ATOM     92  C   UNL A   1      50.948  26.630  24.683  1.00  0.00     0.059 A 
ATOM     93  F   UNL A   1      48.918  27.718  24.236  1.00  0.00    -0.206 F 
ATOM     94  C   UNL A   1      51.790  25.995  25.593  1.00  0.00     0.060 A 
BRANCH  94  95
ATOM     95  S   UNL A   1      53.374  25.316  25.050  1.00  0.00     0.124 S 
ATOM     96  O   UNL A   1      53.361  25.641  23.627  1.00  0.00    -0.237 OA
ATOM     97  O   UNL A   1      54.330  26.064  25.861  1.00  0.00    -0.237 OA
ATOM     98  O   UNL A   1      53.264  23.897  25.372  1.00  0.00    -0.744 OA
ENDBRANCH  94  95
ENDBRANCH  62  87
ENDBRANCH  36  37
ENDBRANCH  29  31
ENDBRANCH  28  29
ENDBRANCH  27  28
ENDBRANCH   1  27
TORSDOF 18
ENDMDL
MODEL 3
REMARK VINA RESULT:     -11.2      4.842     10.620
REMARK SMILES Cc1cccc2c1N=CN1C2=[NH+]NC(=O)[C@@H]1CC(=O)OCCOCCOC(=O)c1ccc(-c2c3nc(c(-c4c(F)cc(S(=O)(=O)[O-])cc4F)c4ccc([nH]4)c(-c4c(F)cc(S(=O)(=O)[O-])cc4F)c4nc(c(-c5c(F)cc(S(=O)(=O)[O-])cc5F)c5ccc2[nH]5)C=C4)C=C3)cc1
REMARK SMILES IDX 24 1 23 2 22 3 21 4 20 5 18 6 19 7 17 8 16 9 1 10 2 11 3 12
REMARK SMILES IDX 7 13 4 14 6 15 8 16 5 17 11 18 9 19 10 20 12 21 13 22 14 24
REMARK SMILES IDX 15 26 25 27 26 28 27 29 28 30 29 31 30 32 94 33 31 34 93 35
REMARK SMILES IDX 32 36 33 37 34 38 87 39 35 40 92 41 86 42 88 43 36 44 91 45
REMARK SMILES IDX 85 46 84 47 37 49 71 50 50 51 70 52 51 53 54 54 69 55 89 56
REMARK SMILES IDX 52 57 53 58 68 60 90 61 55 62 38 63 39 64 48 65 40 66 41 67
REMARK SMILES IDX 47 68 49 69 42 70 43 71 44 72 45 73 46 74 72 75 73 76 82 77
REMARK SMILES IDX 74 78 75 79 81 80 83 81 76 82 77 83 78 84 79 85 80 86 56 87
REMARK SMILES IDX 57 88 66 89 58 90 59 91 65 92 67 93 60 94 61 95 62 96 63 97
REMARK SMILES IDX 64 98
REMARK H PARENT 12 23 13 25 88 48 54 59
REMARK Flexibility Score: inf
ROOT
ATOM      1  C   UNL A   1      39.649  21.649  26.146  1.00  0.00     0.202 C 
ENDROOT
BRANCH   1   2
ATOM      2  O   UNL A   1      38.232  21.850  26.155  1.00  0.00    -0.374 OA
BRANCH   2   3
ATOM      3  C   UNL A   1      37.536  21.667  24.921  1.00  0.00     0.202 C 
BRANCH   3   4
ATOM      4  C   UNL A   1      36.068  21.239  25.037  1.00  0.00     0.261 C 
BRANCH   4   5
ATOM      5  O   UNL A   1      35.564  21.369  26.378  1.00  0.00    -0.463 OA
BRANCH   5   6
ATOM      6  C   UNL A   1      34.261  21.726  26.458  1.00  0.00     0.310 C 
ATOM      7  O   UNL A   1      33.632  21.873  27.500  1.00  0.00    -0.252 OA
BRANCH   6   8
ATOM      8  C   UNL A   1      33.660  22.068  25.123  1.00  0.00     0.183 C 
BRANCH   8   9
ATOM      9  C   UNL A   1      32.539  23.103  25.076  1.00  0.00     0.286 C 
ATOM     10  C   UNL A   1      35.033  28.947  26.422  1.00  0.00     0.047 C 
ATOM     11  C   UNL A   1      33.677  28.362  26.707  1.00  0.00    -0.024 A 
ATOM     12  C   UNL A   1      32.697  29.158  27.322  1.00  0.00     0.006 A 
ATOM     13  C   UNL A   1      33.372  27.041  26.331  1.00  0.00     0.085 A 
ATOM     14  C   UNL A   1      31.417  28.661  27.555  1.00  0.00     0.001 A 
ATOM     15  C   UNL A   1      32.084  26.543  26.608  1.00  0.00     0.092 A 
ATOM     16  N   UNL A   1      34.348  26.276  25.653  1.00  0.00    -0.215 NA
ATOM     17  C   UNL A   1      31.104  27.354  27.190  1.00  0.00     0.019 A 
ATOM     18  C   UNL A   1      31.800  25.120  26.251  1.00  0.00     0.309 C 
ATOM     19  C   UNL A   1      34.023  25.068  25.334  1.00  0.00     0.317 C 
ATOM     20  N   UNL A   1      32.835  24.434  25.623  1.00  0.00    -0.202 N 
ATOM     21  N   UNL A   1      30.625  24.641  26.540  1.00  0.00    -0.169 N 
ATOM     22  N   UNL A   1      30.375  23.348  26.236  1.00  0.00    -0.193 N 
ATOM     23  H   UNL A   1      29.938  25.203  26.968  1.00  0.00     0.340 HD
ATOM     24  C   UNL A   1      31.242  22.499  25.608  1.00  0.00     0.300 C 
ATOM     25  H   UNL A   1      29.494  22.987  26.488  1.00  0.00     0.216 HD
ATOM     26  O   UNL A   1      30.922  21.325  25.408  1.00  0.00    -0.267 OA
ENDBRANCH   8   9
ENDBRANCH   6   8
ENDBRANCH   5   6
ENDBRANCH   4   5
ENDBRANCH   3   4
ENDBRANCH   2   3
ENDBRANCH   1   2
BRANCH   1  27
ATOM     27  C   UNL A   1      40.515  22.876  26.456  1.00  0.00     0.261 C 
BRANCH  27  28
ATOM     28  O   UNL A   1      39.777  24.109  26.353  1.00  0.00    -0.460 OA
BRANCH  28  29
ATOM     29  C   UNL A   1      40.554  25.216  26.249  1.00  0.00     0.338 C 
ATOM     30  O   UNL A   1      41.142  25.606  25.255  1.00  0.00    -0.246 OA
BRANCH  29  31
ATOM     31  C   UNL A   1      40.607  25.943  27.530  1.00  0.00     0.060 A 
ATOM     32  C   UNL A   1      39.567  25.833  28.462  1.00  0.00     0.016 A 
ATOM     33  C   UNL A   1      41.611  26.889  27.712  1.00  0.00     0.016 A 
ATOM     34  C   UNL A   1      39.525  26.691  29.571  1.00  0.00     0.010 A 
ATOM     35  C   UNL A   1      41.569  27.731  28.825  1.00  0.00     0.010 A 
ATOM     36  C   UNL A   1      40.515  27.666  29.755  1.00  0.00    -0.014 A 
BRANCH  36  37
ATOM     37  C   UNL A   1      40.400  28.717  30.809  1.00  0.00     0.031 A 
ATOM     38  C   UNL A   1      41.293  28.639  32.026  1.00  0.00     0.074 A 
ATOM     39  C   UNL A   1      39.507  29.724  30.719  1.00  0.00     0.049 A 
ATOM     40  N   UNL A   1      41.280  29.362  33.117  1.00  0.00    -0.248 NA
ATOM     41  C   UNL A   1      42.322  27.586  32.019  1.00  0.00     0.031 C 
ATOM     42  C   UNL A   1      38.581  29.945  29.610  1.00  0.00     0.029 A 
ATOM     43  N   UNL A   1      39.225  30.746  31.595  1.00  0.00    -0.354 N 
ATOM     44  C   UNL A   1      42.279  28.840  33.930  1.00  0.00     0.074 A 
ATOM     45  C   UNL A   1      42.839  27.702  33.233  1.00  0.00     0.031 C 
ATOM     46  C   UNL A   1      37.835  31.033  29.871  1.00  0.00     0.029 A 
ATOM     47  C   UNL A   1      38.208  31.573  31.177  1.00  0.00     0.049 A 
ATOM     48  H   UNL A   1      39.707  30.875  32.444  1.00  0.00     0.167 HD
ATOM     49  C   UNL A   1      42.725  29.280  35.131  1.00  0.00     0.037 A 
ATOM     50  C   UNL A   1      37.634  32.635  31.777  1.00  0.00     0.037 A 
ATOM     51  C   UNL A   1      42.226  30.446  35.809  1.00  0.00     0.049 A 
ATOM     52  C   UNL A   1      38.124  33.097  33.126  1.00  0.00     0.074 A 
ATOM     53  C   UNL A   1      42.656  30.995  37.004  1.00  0.00     0.029 A 
ATOM     54  N   UNL A   1      41.200  31.253  35.344  1.00  0.00    -0.354 N 
ATOM     55  N   UNL A   1      39.079  32.597  33.871  1.00  0.00    -0.248 NA
ATOM     56  C   UNL A   1      37.464  34.275  33.710  1.00  0.00     0.031 C 
ATOM     57  C   UNL A   1      41.876  32.124  37.274  1.00  0.00     0.029 A 
ATOM     58  C   UNL A   1      40.980  32.294  36.230  1.00  0.00     0.049 A 
ATOM     59  H   UNL A   1      40.701  31.108  34.508  1.00  0.00     0.167 HD
ATOM     60  C   UNL A   1      39.155  33.417  34.993  1.00  0.00     0.074 A 
ATOM     61  C   UNL A   1      38.150  34.445  34.833  1.00  0.00     0.031 C 
ATOM     62  C   UNL A   1      39.990  33.326  36.057  1.00  0.00     0.037 A 
BRANCH  49  63
ATOM     63  C   UNL A   1      43.838  28.506  35.779  1.00  0.00     0.058 A 
ATOM     64  C   UNL A   1      45.184  28.805  35.517  1.00  0.00     0.135 A 
ATOM     65  C   UNL A   1      43.558  27.470  36.684  1.00  0.00     0.135 A 
ATOM     66  F   UNL A   1      45.504  29.777  34.648  1.00  0.00    -0.206 F 
ATOM     67  C   UNL A   1      46.215  28.080  36.102  1.00  0.00     0.059 A 
ATOM     68  C   UNL A   1      44.575  26.748  37.302  1.00  0.00     0.059 A 
ATOM     69  F   UNL A   1      42.287  27.146  36.971  1.00  0.00    -0.206 F 
ATOM     70  C   UNL A   1      45.901  27.050  36.989  1.00  0.00     0.060 A 
BRANCH  70  71
ATOM     71  S   UNL A   1      47.252  26.112  37.732  1.00  0.00     0.124 S 
ATOM     72  O   UNL A   1      48.416  26.742  37.116  1.00  0.00    -0.237 OA
ATOM     73  O   UNL A   1      47.070  26.373  39.156  1.00  0.00    -0.237 OA
ATOM     74  O   UNL A   1      46.984  24.739  37.310  1.00  0.00    -0.744 OA
ENDBRANCH  70  71
ENDBRANCH  49  63
BRANCH  50  75
ATOM     75  C   UNL A   1      36.530  33.364  31.099  1.00  0.00     0.058 A 
ATOM     76  C   UNL A   1      35.208  33.245  31.551  1.00  0.00     0.135 A 
ATOM     77  C   UNL A   1      36.773  34.181  29.985  1.00  0.00     0.135 A 
ATOM     78  F   UNL A   1      34.929  32.461  32.604  1.00  0.00    -0.206 F 
ATOM     79  C   UNL A   1      34.160  33.902  30.916  1.00  0.00     0.059 A 
ATOM     80  C   UNL A   1      35.743  34.864  29.344  1.00  0.00     0.059 A 
ATOM     81  F   UNL A   1      38.022  34.327  29.517  1.00  0.00    -0.206 F 
ATOM     82  C   UNL A   1      34.438  34.712  29.814  1.00  0.00     0.060 A 
BRANCH  82  83
ATOM     83  S   UNL A   1      33.072  35.591  29.024  1.00  0.00     0.124 S 
ATOM     84  O   UNL A   1      32.314  36.056  30.179  1.00  0.00    -0.237 OA
ATOM     85  O   UNL A   1      33.772  36.622  28.263  1.00  0.00    -0.237 OA
ATOM     86  O   UNL A   1      32.428  34.558  28.219  1.00  0.00    -0.744 OA
ENDBRANCH  82  83
ENDBRANCH  50  75
BRANCH  62  87
ATOM     87  C   UNL A   1      39.895  34.381  37.123  1.00  0.00     0.058 A 
ATOM     88  C   UNL A   1      40.581  35.600  37.013  1.00  0.00     0.135 A 
ATOM     89  C   UNL A   1      39.036  34.207  38.221  1.00  0.00     0.135 A 
ATOM     90  F   UNL A   1      41.419  35.813  35.987  1.00  0.00    -0.206 F 
ATOM     91  C   UNL A   1      40.419  36.611  37.956  1.00  0.00     0.059 A 
ATOM     92  C   UNL A   1      38.844  35.212  39.165  1.00  0.00     0.059 A 
ATOM     93  F   UNL A   1      38.351  33.062  38.368  1.00  0.00    -0.206 F 
ATOM     94  C   UNL A   1      39.544  36.409  39.025  1.00  0.00     0.060 A 
BRANCH  94  95
ATOM     95  S   UNL A   1      39.293  37.756  40.204  1.00  0.00     0.124 S 
ATOM     96  O   UNL A   1      40.591  38.420  40.173  1.00  0.00    -0.237 OA
ATOM     97  O   UNL A   1      38.188  38.496  39.603  1.00  0.00    -0.237 OA
ATOM     98  O   UNL A   1      38.970  37.063  41.448  1.00  0.00    -0.744 OA
ENDBRANCH  94  95
ENDBRANCH  62  87
ENDBRANCH  36  37
ENDBRANCH  29  31
ENDBRANCH  28  29
ENDBRANCH  27  28
ENDBRANCH   1  27
TORSDOF 18
ENDMDL
