MODEL 1
REMARK VINA RESULT:     -11.5      0.000      0.000
REMARK SMILES Cc1ccc(S(=O)(=O)n2cc(C(=O)C(=O)NCC(=O)OCCOCCOC(=O)c3ccc(-c4c5nc(c(-c6c(F)cc(S(=O)(=O)[O-])cc6F)c6ccc([nH]6)c(-c6c(F)cc(S(=O)(=O)[O-])cc6F)c6nc(c(-c7c(F)cc(S(=O)(=O)[O-])cc7F)c7ccc4[nH]7)C=C6)C=C5)cc3)c3ccccc32)cc1
REMARK SMILES IDX 22 1 21 2 20 3 18 4 19 5 17 6 16 7 14 8 15 9 12 11 13 12
REMARK SMILES IDX 11 13 9 14 10 15 100 16 95 17 99 18 96 19 98 20 97 21 6 22
REMARK SMILES IDX 7 23 8 24 5 25 1 26 2 27 3 28 102 29 4 30 101 31 23 32 24 33
REMARK SMILES IDX 25 34 26 35 27 36 28 37 29 38 30 39 94 40 31 41 93 42 32 43
REMARK SMILES IDX 33 44 34 45 87 46 35 47 92 48 86 49 88 50 36 51 91 52 85 53
REMARK SMILES IDX 84 54 37 56 71 57 50 58 70 59 51 60 54 61 69 62 89 63 52 64
REMARK SMILES IDX 53 65 68 67 90 68 55 69 38 70 39 71 48 72 40 73 41 74 47 75
REMARK SMILES IDX 49 76 42 77 43 78 44 79 45 80 46 81 72 82 73 83 82 84 74 85
REMARK SMILES IDX 75 86 81 87 83 88 76 89 77 90 78 91 79 92 80 93 56 94 57 95
REMARK SMILES IDX 66 96 58 97 59 98 65 99 67 100 60 101 61 102 62 103 63 104
REMARK SMILES IDX 64 105
REMARK H PARENT 16 10 88 55 54 66
REMARK Flexibility Score: inf
ROOT
ATOM      1  C   UNL A   1      34.406  30.833  27.254  1.00  0.00     0.202 C 
ENDROOT
BRANCH   1   2
ATOM      2  C   UNL A   1      33.231  29.896  27.283  1.00  0.00     0.261 C 
BRANCH   2   3
ATOM      3  O   UNL A   1      33.370  28.868  26.287  1.00  0.00    -0.462 OA
BRANCH   3   4
ATOM      4  C   UNL A   1      32.900  29.093  25.023  1.00  0.00     0.325 C 
ATOM      5  O   UNL A   1      33.567  29.298  24.022  1.00  0.00    -0.250 OA
BRANCH   4   6
ATOM      6  C   UNL A   1      31.378  29.086  25.018  1.00  0.00     0.239 C 
BRANCH   6   7
ATOM      7  N   UNL A   1      30.866  29.427  23.692  1.00  0.00    -0.338 N 
ATOM      8  C   UNL A   1      30.050  28.663  22.885  1.00  0.00     0.292 C 
ATOM      9  O   UNL A   1      29.902  29.008  21.718  1.00  0.00    -0.265 OA
ATOM     10  H   UNL A   1      31.136  30.303  23.334  1.00  0.00     0.164 HD
BRANCH   8  11
ATOM     11  C   UNL A   1      29.336  27.406  23.462  1.00  0.00     0.252 C 
ATOM     12  O   UNL A   1      28.115  27.423  23.585  1.00  0.00    -0.283 OA
BRANCH  11  13
ATOM     13  C   UNL A   1      30.080  26.182  23.767  1.00  0.00     0.054 A 
ATOM     14  N   UNL A   1      30.914  24.399  24.810  1.00  0.00    -0.240 N 
ATOM     15  C   UNL A   1      29.996  25.409  24.909  1.00  0.00     0.117 A 
ATOM     16  C   UNL A   1      31.610  24.466  23.623  1.00  0.00     0.065 A 
ATOM     17  C   UNL A   1      31.092  25.576  22.941  1.00  0.00     0.012 A 
ATOM     18  C   UNL A   1      32.663  23.698  23.092  1.00  0.00     0.028 A 
ATOM     19  C   UNL A   1      31.636  25.905  21.679  1.00  0.00     0.011 A 
ATOM     20  C   UNL A   1      33.200  24.072  21.857  1.00  0.00     0.002 A 
ATOM     21  C   UNL A   1      32.690  25.157  21.154  1.00  0.00     0.001 A 
BRANCH  14  22
ATOM     22  S   UNL A   1      31.261  23.343  26.095  1.00  0.00     0.268 S 
ATOM     23  O   UNL A   1      30.516  22.125  25.813  1.00  0.00    -0.201 OA
ATOM     24  O   UNL A   1      31.068  24.097  27.314  1.00  0.00    -0.201 OA
BRANCH  22  25
ATOM     25  C   UNL A   1      32.985  22.931  26.015  1.00  0.00     0.088 A 
ATOM     26  C   UNL A   1      37.076  21.768  25.395  1.00  0.00     0.044 C 
ATOM     27  C   UNL A   1      35.654  22.169  25.648  1.00  0.00    -0.051 A 
ATOM     28  C   UNL A   1      34.622  21.253  25.417  1.00  0.00     0.005 A 
ATOM     29  C   UNL A   1      35.339  23.456  26.105  1.00  0.00     0.005 A 
ATOM     30  C   UNL A   1      33.291  21.632  25.596  1.00  0.00     0.022 A 
ATOM     31  C   UNL A   1      34.008  23.836  26.304  1.00  0.00     0.022 A 
ENDBRANCH  22  25
ENDBRANCH  14  22
ENDBRANCH  11  13
ENDBRANCH   8  11
ENDBRANCH   6   7
ENDBRANCH   4   6
ENDBRANCH   3   4
ENDBRANCH   2   3
ENDBRANCH   1   2
BRANCH   1  32
ATOM     32  O   UNL A   1      34.012  31.977  28.013  1.00  0.00    -0.374 OA
BRANCH  32  33
ATOM     33  C   UNL A   1      34.878  33.091  27.970  1.00  0.00     0.202 C 
BRANCH  33  34
ATOM     34  C   UNL A   1      36.288  32.834  28.516  1.00  0.00     0.261 C 
BRANCH  34  35
ATOM     35  O   UNL A   1      36.294  32.757  29.958  1.00  0.00    -0.460 OA
BRANCH  35  36
ATOM     36  C   UNL A   1      37.477  33.057  30.575  1.00  0.00     0.338 C 
ATOM     37  O   UNL A   1      37.730  34.145  31.059  1.00  0.00    -0.246 OA
BRANCH  36  38
ATOM     38  C   UNL A   1      38.368  31.862  30.596  1.00  0.00     0.060 A 
ATOM     39  C   UNL A   1      38.015  30.681  31.271  1.00  0.00     0.016 A 
ATOM     40  C   UNL A   1      39.652  32.004  30.085  1.00  0.00     0.016 A 
ATOM     41  C   UNL A   1      38.991  29.706  31.558  1.00  0.00     0.010 A 
ATOM     42  C   UNL A   1      40.624  31.112  30.475  1.00  0.00     0.010 A 
ATOM     43  C   UNL A   1      40.316  29.959  31.221  1.00  0.00    -0.014 A 
BRANCH  43  44
ATOM     44  C   UNL A   1      41.507  29.163  31.545  1.00  0.00     0.031 A 
ATOM     45  C   UNL A   1      41.761  27.982  30.673  1.00  0.00     0.074 A 
ATOM     46  C   UNL A   1      42.521  29.677  32.288  1.00  0.00     0.049 A 
ATOM     47  N   UNL A   1      42.791  27.224  30.761  1.00  0.00    -0.248 NA
ATOM     48  C   UNL A   1      40.861  27.557  29.601  1.00  0.00     0.031 C 
ATOM     49  C   UNL A   1      43.955  29.392  32.155  1.00  0.00     0.029 A 
ATOM     50  N   UNL A   1      42.506  30.610  33.336  1.00  0.00    -0.354 N 
ATOM     51  C   UNL A   1      42.874  26.455  29.622  1.00  0.00     0.074 A 
ATOM     52  C   UNL A   1      41.607  26.646  28.967  1.00  0.00     0.031 C 
ATOM     53  C   UNL A   1      44.616  29.860  33.228  1.00  0.00     0.029 A 
ATOM     54  C   UNL A   1      43.610  30.329  34.162  1.00  0.00     0.049 A 
ATOM     55  H   UNL A   1      41.844  31.328  33.470  1.00  0.00     0.167 HD
ATOM     56  C   UNL A   1      44.067  25.846  29.361  1.00  0.00     0.037 A 
ATOM     57  C   UNL A   1      43.438  29.939  35.453  1.00  0.00     0.037 A 
ATOM     58  C   UNL A   1      44.975  26.040  30.504  1.00  0.00     0.049 A 
ATOM     59  C   UNL A   1      43.996  28.555  35.620  1.00  0.00     0.074 A 
ATOM     60  C   UNL A   1      46.061  26.867  30.738  1.00  0.00     0.029 A 
ATOM     61  N   UNL A   1      44.585  25.550  31.748  1.00  0.00    -0.354 N 
ATOM     62  N   UNL A   1      44.119  27.720  34.623  1.00  0.00    -0.248 NA
ATOM     63  C   UNL A   1      44.571  28.040  36.854  1.00  0.00     0.031 C 
ATOM     64  C   UNL A   1      46.297  26.889  32.142  1.00  0.00     0.029 A 
ATOM     65  C   UNL A   1      45.366  26.065  32.761  1.00  0.00     0.049 A 
ATOM     66  H   UNL A   1      43.845  24.915  31.887  1.00  0.00     0.167 HD
ATOM     67  C   UNL A   1      44.827  26.626  35.022  1.00  0.00     0.074 A 
ATOM     68  C   UNL A   1      45.066  26.861  36.435  1.00  0.00     0.031 C 
ATOM     69  C   UNL A   1      45.171  25.637  34.145  1.00  0.00     0.037 A 
BRANCH  56  70
ATOM     70  C   UNL A   1      44.514  25.202  28.057  1.00  0.00     0.058 A 
ATOM     71  C   UNL A   1      44.682  23.797  27.982  1.00  0.00     0.135 A 
ATOM     72  C   UNL A   1      44.822  25.876  26.856  1.00  0.00     0.135 A 
ATOM     73  F   UNL A   1      44.417  23.001  29.026  1.00  0.00    -0.206 F 
ATOM     74  C   UNL A   1      45.137  23.133  26.838  1.00  0.00     0.059 A 
ATOM     75  C   UNL A   1      45.292  25.235  25.703  1.00  0.00     0.059 A 
ATOM     76  F   UNL A   1      44.665  27.192  26.713  1.00  0.00    -0.206 F 
ATOM     77  C   UNL A   1      45.447  23.861  25.701  1.00  0.00     0.060 A 
BRANCH  77  78
ATOM     78  S   UNL A   1      46.030  22.992  24.235  1.00  0.00     0.124 S 
ATOM     79  O   UNL A   1      46.562  21.758  24.803  1.00  0.00    -0.237 OA
ATOM     80  O   UNL A   1      44.806  22.857  23.452  1.00  0.00    -0.237 OA
ATOM     81  O   UNL A   1      47.029  23.898  23.675  1.00  0.00    -0.744 OA
ENDBRANCH  77  78
ENDBRANCH  56  70
BRANCH  57  82
ATOM     82  C   UNL A   1      42.222  30.566  36.059  1.00  0.00     0.058 A 
ATOM     83  C   UNL A   1      42.301  31.951  36.335  1.00  0.00     0.135 A 
ATOM     84  C   UNL A   1      40.943  30.037  35.824  1.00  0.00     0.135 A 
ATOM     85  F   UNL A   1      43.496  32.517  36.575  1.00  0.00    -0.206 F 
ATOM     86  C   UNL A   1      41.201  32.798  36.195  1.00  0.00     0.059 A 
ATOM     87  C   UNL A   1      39.828  30.872  35.679  1.00  0.00     0.059 A 
ATOM     88  F   UNL A   1      40.792  28.731  35.560  1.00  0.00    -0.206 F 
ATOM     89  C   UNL A   1      39.982  32.256  35.797  1.00  0.00     0.060 A 
BRANCH  89  90
ATOM     90  S   UNL A   1      38.684  33.389  35.226  1.00  0.00     0.124 S 
ATOM     91  O   UNL A   1      39.350  34.091  34.137  1.00  0.00    -0.237 OA
ATOM     92  O   UNL A   1      37.619  32.470  34.828  1.00  0.00    -0.237 OA
ATOM     93  O   UNL A   1      38.392  34.189  36.410  1.00  0.00    -0.744 OA
ENDBRANCH  89  90
ENDBRANCH  57  82
BRANCH  69  94
ATOM     94  C   UNL A   1      45.429  24.193  34.522  1.00  0.00     0.058 A 
ATOM     95  C   UNL A   1      46.674  23.702  34.950  1.00  0.00     0.135 A 
ATOM     96  C   UNL A   1      44.356  23.268  34.627  1.00  0.00     0.135 A 
ATOM     97  F   UNL A   1      47.754  24.487  35.050  1.00  0.00    -0.206 F 
ATOM     98  C   UNL A   1      46.864  22.383  35.349  1.00  0.00     0.059 A 
ATOM     99  C   UNL A   1      44.508  21.971  35.102  1.00  0.00     0.059 A 
ATOM    100  F   UNL A   1      43.097  23.588  34.297  1.00  0.00    -0.206 F 
ATOM    101  C   UNL A   1      45.776  21.523  35.421  1.00  0.00     0.060 A 
BRANCH 101 102
ATOM    102  S   UNL A   1      46.040  19.832  35.959  1.00  0.00     0.124 S 
ATOM    103  O   UNL A   1      47.462  19.662  35.679  1.00  0.00    -0.237 OA
ATOM    104  O   UNL A   1      45.677  19.893  37.373  1.00  0.00    -0.237 OA
ATOM    105  O   UNL A   1      45.132  19.060  35.118  1.00  0.00    -0.744 OA
ENDBRANCH 101 102
ENDBRANCH  69  94
ENDBRANCH  43  44
ENDBRANCH  36  38
ENDBRANCH  35  36
ENDBRANCH  34  35
ENDBRANCH  33  34
ENDBRANCH  32  33
ENDBRANCH   1  32
TORSDOF 22
ENDMDL
MODEL 2
REMARK VINA RESULT:     -11.1      5.190     10.719
REMARK SMILES Cc1ccc(S(=O)(=O)n2cc(C(=O)C(=O)NCC(=O)OCCOCCOC(=O)c3ccc(-c4c5nc(c(-c6c(F)cc(S(=O)(=O)[O-])cc6F)c6ccc([nH]6)c(-c6c(F)cc(S(=O)(=O)[O-])cc6F)c6nc(c(-c7c(F)cc(S(=O)(=O)[O-])cc7F)c7ccc4[nH]7)C=C6)C=C5)cc3)c3ccccc32)cc1
REMARK SMILES IDX 22 1 21 2 20 3 18 4 19 5 17 6 16 7 14 8 15 9 12 11 13 12
REMARK SMILES IDX 11 13 9 14 10 15 100 16 95 17 99 18 96 19 98 20 97 21 6 22
REMARK SMILES IDX 7 23 8 24 5 25 1 26 2 27 3 28 102 29 4 30 101 31 23 32 24 33
REMARK SMILES IDX 25 34 26 35 27 36 28 37 29 38 30 39 94 40 31 41 93 42 32 43
REMARK SMILES IDX 33 44 34 45 87 46 35 47 92 48 86 49 88 50 36 51 91 52 85 53
REMARK SMILES IDX 84 54 37 56 71 57 50 58 70 59 51 60 54 61 69 62 89 63 52 64
REMARK SMILES IDX 53 65 68 67 90 68 55 69 38 70 39 71 48 72 40 73 41 74 47 75
REMARK SMILES IDX 49 76 42 77 43 78 44 79 45 80 46 81 72 82 73 83 82 84 74 85
REMARK SMILES IDX 75 86 81 87 83 88 76 89 77 90 78 91 79 92 80 93 56 94 57 95
REMARK SMILES IDX 66 96 58 97 59 98 65 99 67 100 60 101 61 102 62 103 63 104
REMARK SMILES IDX 64 105
REMARK H PARENT 16 10 88 55 54 66
REMARK Flexibility Score: inf
ROOT
ATOM      1  C   UNL A   1      46.370  30.793  26.620  1.00  0.00     0.202 C 
ENDROOT
BRANCH   1   2
ATOM      2  C   UNL A   1      44.994  31.298  26.954  1.00  0.00     0.261 C 
BRANCH   2   3
ATOM      3  O   UNL A   1      43.984  30.473  26.348  1.00  0.00    -0.462 OA
BRANCH   3   4
ATOM      4  C   UNL A   1      43.220  29.661  27.139  1.00  0.00     0.325 C 
ATOM      5  O   UNL A   1      42.530  30.003  28.086  1.00  0.00    -0.250 OA
BRANCH   4   6
ATOM      6  C   UNL A   1      43.361  28.210  26.698  1.00  0.00     0.239 C 
BRANCH   6   7
ATOM      7  N   UNL A   1      42.729  27.314  27.663  1.00  0.00    -0.338 N 
ATOM      8  C   UNL A   1      42.068  26.132  27.404  1.00  0.00     0.292 C 
ATOM      9  O   UNL A   1      41.409  25.627  28.306  1.00  0.00    -0.265 OA
ATOM     10  H   UNL A   1      42.781  27.586  28.608  1.00  0.00     0.164 HD
BRANCH   8  11
ATOM     11  C   UNL A   1      42.176  25.468  26.000  1.00  0.00     0.252 C 
ATOM     12  O   UNL A   1      42.165  26.186  25.005  1.00  0.00    -0.283 OA
BRANCH  11  13
ATOM     13  C   UNL A   1      42.384  24.026  25.855  1.00  0.00     0.054 A 
ATOM     14  N   UNL A   1      42.102  21.817  25.900  1.00  0.00    -0.240 N 
ATOM     15  C   UNL A   1      41.472  23.017  26.093  1.00  0.00     0.117 A 
ATOM     16  C   UNL A   1      43.416  21.993  25.529  1.00  0.00     0.065 A 
ATOM     17  C   UNL A   1      43.615  23.380  25.479  1.00  0.00     0.012 A 
ATOM     18  C   UNL A   1      44.462  21.088  25.268  1.00  0.00     0.028 A 
ATOM     19  C   UNL A   1      44.897  23.866  25.136  1.00  0.00     0.011 A 
ATOM     20  C   UNL A   1      45.725  21.602  24.966  1.00  0.00     0.002 A 
ATOM     21  C   UNL A   1      45.942  22.973  24.893  1.00  0.00     0.001 A 
BRANCH  14  22
ATOM     22  S   UNL A   1      41.378  20.328  26.281  1.00  0.00     0.268 S 
ATOM     23  O   UNL A   1      41.486  20.200  27.728  1.00  0.00    -0.201 OA
ATOM     24  O   UNL A   1      41.943  19.349  25.379  1.00  0.00    -0.201 OA
BRANCH  22  25
ATOM     25  C   UNL A   1      39.650  20.444  25.895  1.00  0.00     0.088 A 
ATOM     26  C   UNL A   1      35.570  21.109  24.719  1.00  0.00     0.044 C 
ATOM     27  C   UNL A   1      36.981  20.859  25.159  1.00  0.00    -0.051 A 
ATOM     28  C   UNL A   1      37.721  21.895  25.741  1.00  0.00     0.005 A 
ATOM     29  C   UNL A   1      37.577  19.602  24.990  1.00  0.00     0.005 A 
ATOM     30  C   UNL A   1      39.052  21.691  26.104  1.00  0.00     0.022 A 
ATOM     31  C   UNL A   1      38.906  19.386  25.369  1.00  0.00     0.022 A 
ENDBRANCH  22  25
ENDBRANCH  14  22
ENDBRANCH  11  13
ENDBRANCH   8  11
ENDBRANCH   6   7
ENDBRANCH   4   6
ENDBRANCH   3   4
ENDBRANCH   2   3
ENDBRANCH   1   2
BRANCH   1  32
ATOM     32  O   UNL A   1      46.217  29.990  25.449  1.00  0.00    -0.374 OA
BRANCH  32  33
ATOM     33  C   UNL A   1      46.846  28.726  25.465  1.00  0.00     0.202 C 
BRANCH  33  34
ATOM     34  C   UNL A   1      46.912  28.055  26.842  1.00  0.00     0.261 C 
BRANCH  34  35
ATOM     35  O   UNL A   1      46.276  26.759  26.833  1.00  0.00    -0.460 OA
BRANCH  35  36
ATOM     36  C   UNL A   1      47.007  25.722  27.344  1.00  0.00     0.338 C 
ATOM     37  O   UNL A   1      47.979  25.242  26.790  1.00  0.00    -0.246 OA
BRANCH  36  38
ATOM     38  C   UNL A   1      46.463  25.309  28.669  1.00  0.00     0.060 A 
ATOM     39  C   UNL A   1      45.160  24.803  28.815  1.00  0.00     0.016 A 
ATOM     40  C   UNL A   1      47.212  25.611  29.798  1.00  0.00     0.016 A 
ATOM     41  C   UNL A   1      44.559  24.738  30.088  1.00  0.00     0.010 A 
ATOM     42  C   UNL A   1      46.581  25.664  31.020  1.00  0.00     0.010 A 
ATOM     43  C   UNL A   1      45.250  25.240  31.185  1.00  0.00    -0.014 A 
BRANCH  43  44
ATOM     44  C   UNL A   1      44.773  25.405  32.565  1.00  0.00     0.031 A 
ATOM     45  C   UNL A   1      44.184  26.731  32.899  1.00  0.00     0.074 A 
ATOM     46  C   UNL A   1      44.495  24.331  33.350  1.00  0.00     0.049 A 
ATOM     47  N   UNL A   1      43.650  27.024  34.026  1.00  0.00    -0.248 NA
ATOM     48  C   UNL A   1      44.139  27.857  31.965  1.00  0.00     0.031 C 
ATOM     49  C   UNL A   1      43.446  24.224  34.372  1.00  0.00     0.029 A 
ATOM     50  N   UNL A   1      45.081  23.057  33.399  1.00  0.00    -0.354 N 
ATOM     51  C   UNL A   1      42.926  28.187  33.886  1.00  0.00     0.074 A 
ATOM     52  C   UNL A   1      43.326  28.705  32.603  1.00  0.00     0.031 C 
ATOM     53  C   UNL A   1      43.653  23.131  35.126  1.00  0.00     0.029 A 
ATOM     54  C   UNL A   1      44.928  22.578  34.714  1.00  0.00     0.049 A 
ATOM     55  H   UNL A   1      45.519  22.586  32.653  1.00  0.00     0.167 HD
ATOM     56  C   UNL A   1      42.010  28.479  34.855  1.00  0.00     0.037 A 
ATOM     57  C   UNL A   1      46.010  22.326  35.498  1.00  0.00     0.037 A 
ATOM     58  C   UNL A   1      42.137  27.508  35.954  1.00  0.00     0.049 A 
ATOM     59  C   UNL A   1      45.964  23.234  36.693  1.00  0.00     0.074 A 
ATOM     60  C   UNL A   1      41.404  26.402  36.349  1.00  0.00     0.029 A 
ATOM     61  N   UNL A   1      43.356  27.425  36.625  1.00  0.00    -0.354 N 
ATOM     62  N   UNL A   1      45.323  24.372  36.689  1.00  0.00    -0.248 NA
ATOM     63  C   UNL A   1      46.505  22.902  38.004  1.00  0.00     0.031 C 
ATOM     64  C   UNL A   1      42.211  25.639  37.240  1.00  0.00     0.029 A 
ATOM     65  C   UNL A   1      43.428  26.287  37.400  1.00  0.00     0.049 A 
ATOM     66  H   UNL A   1      44.075  28.094  36.554  1.00  0.00     0.167 HD
ATOM     67  C   UNL A   1      45.285  24.885  37.951  1.00  0.00     0.074 A 
ATOM     68  C   UNL A   1      46.061  23.941  38.735  1.00  0.00     0.031 C 
ATOM     69  C   UNL A   1      44.598  26.030  38.240  1.00  0.00     0.037 A 
BRANCH  56  70
ATOM     70  C   UNL A   1      40.897  29.515  34.797  1.00  0.00     0.058 A 
ATOM     71  C   UNL A   1      40.814  30.521  35.791  1.00  0.00     0.135 A 
ATOM     72  C   UNL A   1      39.867  29.581  33.834  1.00  0.00     0.135 A 
ATOM     73  F   UNL A   1      41.721  30.616  36.772  1.00  0.00    -0.206 F 
ATOM     74  C   UNL A   1      39.795  31.477  35.839  1.00  0.00     0.059 A 
ATOM     75  C   UNL A   1      38.829  30.520  33.869  1.00  0.00     0.059 A 
ATOM     76  F   UNL A   1      39.813  28.758  32.786  1.00  0.00    -0.206 F 
ATOM     77  C   UNL A   1      38.800  31.467  34.876  1.00  0.00     0.060 A 
BRANCH  77  78
ATOM     78  S   UNL A   1      37.495  32.707  34.948  1.00  0.00     0.124 S 
ATOM     79  O   UNL A   1      37.141  32.694  36.364  1.00  0.00    -0.237 OA
ATOM     80  O   UNL A   1      38.182  33.904  34.475  1.00  0.00    -0.237 OA
ATOM     81  O   UNL A   1      36.472  32.180  34.049  1.00  0.00    -0.744 OA
ENDBRANCH  77  78
ENDBRANCH  56  70
BRANCH  57  82
ATOM     82  C   UNL A   1      47.179  21.861  34.688  1.00  0.00     0.058 A 
ATOM     83  C   UNL A   1      48.241  22.783  34.532  1.00  0.00     0.135 A 
ATOM     84  C   UNL A   1      47.504  20.498  34.603  1.00  0.00     0.135 A 
ATOM     85  F   UNL A   1      47.995  24.103  34.597  1.00  0.00    -0.206 F 
ATOM     86  C   UNL A   1      49.575  22.377  34.490  1.00  0.00     0.059 A 
ATOM     87  C   UNL A   1      48.837  20.071  34.561  1.00  0.00     0.059 A 
ATOM     88  F   UNL A   1      46.548  19.568  34.736  1.00  0.00    -0.206 F 
ATOM     89  C   UNL A   1      49.866  21.017  34.576  1.00  0.00     0.060 A 
BRANCH  89  90
ATOM     90  S   UNL A   1      51.578  20.526  34.929  1.00  0.00     0.124 S 
ATOM     91  O   UNL A   1      52.320  21.253  33.907  1.00  0.00    -0.237 OA
ATOM     92  O   UNL A   1      51.762  20.999  36.300  1.00  0.00    -0.237 OA
ATOM     93  O   UNL A   1      51.549  19.076  34.780  1.00  0.00    -0.744 OA
ENDBRANCH  89  90
ENDBRANCH  57  82
BRANCH  69  94
ATOM     94  C   UNL A   1      44.917  26.970  39.381  1.00  0.00     0.058 A 
ATOM     95  C   UNL A   1      44.645  26.690  40.731  1.00  0.00     0.135 A 
ATOM     96  C   UNL A   1      45.683  28.146  39.161  1.00  0.00     0.135 A 
ATOM     97  F   UNL A   1      44.061  25.549  41.119  1.00  0.00    -0.206 F 
ATOM     98  C   UNL A   1      45.008  27.549  41.764  1.00  0.00     0.059 A 
ATOM     99  C   UNL A   1      46.126  28.974  40.185  1.00  0.00     0.059 A 
ATOM    100  F   UNL A   1      46.061  28.537  37.936  1.00  0.00    -0.206 F 
ATOM    101  C   UNL A   1      45.747  28.689  41.483  1.00  0.00     0.060 A 
BRANCH 101 102
ATOM    102  S   UNL A   1      46.223  29.770  42.833  1.00  0.00     0.124 S 
ATOM    103  O   UNL A   1      46.377  31.044  42.137  1.00  0.00    -0.237 OA
ATOM    104  O   UNL A   1      45.075  29.675  43.731  1.00  0.00    -0.237 OA
ATOM    105  O   UNL A   1      47.454  29.170  43.334  1.00  0.00    -0.744 OA
ENDBRANCH 101 102
ENDBRANCH  69  94
ENDBRANCH  43  44
ENDBRANCH  36  38
ENDBRANCH  35  36
ENDBRANCH  34  35
ENDBRANCH  33  34
ENDBRANCH  32  33
ENDBRANCH   1  32
TORSDOF 22
ENDMDL
MODEL 3
REMARK VINA RESULT:     -11.0      4.262     10.598
REMARK SMILES Cc1ccc(S(=O)(=O)n2cc(C(=O)C(=O)NCC(=O)OCCOCCOC(=O)c3ccc(-c4c5nc(c(-c6c(F)cc(S(=O)(=O)[O-])cc6F)c6ccc([nH]6)c(-c6c(F)cc(S(=O)(=O)[O-])cc6F)c6nc(c(-c7c(F)cc(S(=O)(=O)[O-])cc7F)c7ccc4[nH]7)C=C6)C=C5)cc3)c3ccccc32)cc1
REMARK SMILES IDX 22 1 21 2 20 3 18 4 19 5 17 6 16 7 14 8 15 9 12 11 13 12
REMARK SMILES IDX 11 13 9 14 10 15 100 16 95 17 99 18 96 19 98 20 97 21 6 22
REMARK SMILES IDX 7 23 8 24 5 25 1 26 2 27 3 28 102 29 4 30 101 31 23 32 24 33
REMARK SMILES IDX 25 34 26 35 27 36 28 37 29 38 30 39 94 40 31 41 93 42 32 43
REMARK SMILES IDX 33 44 34 45 87 46 35 47 92 48 86 49 88 50 36 51 91 52 85 53
REMARK SMILES IDX 84 54 37 56 71 57 50 58 70 59 51 60 54 61 69 62 89 63 52 64
REMARK SMILES IDX 53 65 68 67 90 68 55 69 38 70 39 71 48 72 40 73 41 74 47 75
REMARK SMILES IDX 49 76 42 77 43 78 44 79 45 80 46 81 72 82 73 83 82 84 74 85
REMARK SMILES IDX 75 86 81 87 83 88 76 89 77 90 78 91 79 92 80 93 56 94 57 95
REMARK SMILES IDX 66 96 58 97 59 98 65 99 67 100 60 101 61 102 62 103 63 104
REMARK SMILES IDX 64 105
REMARK H PARENT 16 10 88 55 54 66
REMARK Flexibility Score: inf
ROOT
ATOM      1  C   UNL A   1      45.491  30.389  27.079  1.00  0.00     0.202 C 
ENDROOT
BRANCH   1   2
ATOM      2  C   UNL A   1      44.017  30.298  27.359  1.00  0.00     0.261 C 
BRANCH   2   3
ATOM      3  O   UNL A   1      43.268  30.199  26.135  1.00  0.00    -0.462 OA
BRANCH   3   4
ATOM      4  C   UNL A   1      42.402  29.156  25.964  1.00  0.00     0.325 C 
ATOM      5  O   UNL A   1      42.201  28.535  24.932  1.00  0.00    -0.250 OA
BRANCH   4   6
ATOM      6  C   UNL A   1      41.662  28.865  27.262  1.00  0.00     0.239 C 
BRANCH   6   7
ATOM      7  N   UNL A   1      40.552  27.944  27.028  1.00  0.00    -0.338 N 
ATOM      8  C   UNL A   1      39.636  27.481  27.948  1.00  0.00     0.292 C 
ATOM      9  O   UNL A   1      38.914  26.544  27.626  1.00  0.00    -0.265 OA
ATOM     10  H   UNL A   1      40.447  27.615  26.106  1.00  0.00     0.164 HD
BRANCH   8  11
ATOM     11  C   UNL A   1      39.532  28.149  29.350  1.00  0.00     0.252 C 
ATOM     12  O   UNL A   1      40.122  27.636  30.296  1.00  0.00    -0.283 OA
BRANCH  11  13
ATOM     13  C   UNL A   1      38.827  29.420  29.537  1.00  0.00     0.054 A 
ATOM     14  N   UNL A   1      37.312  31.050  29.443  1.00  0.00    -0.240 N 
ATOM     15  C   UNL A   1      37.546  29.738  29.130  1.00  0.00     0.117 A 
ATOM     16  C   UNL A   1      38.403  31.622  30.059  1.00  0.00     0.065 A 
ATOM     17  C   UNL A   1      39.368  30.609  30.143  1.00  0.00     0.012 A 
ATOM     18  C   UNL A   1      38.661  32.927  30.518  1.00  0.00     0.028 A 
ATOM     19  C   UNL A   1      40.619  30.915  30.724  1.00  0.00     0.011 A 
ATOM     20  C   UNL A   1      39.920  33.205  31.057  1.00  0.00     0.002 A 
ATOM     21  C   UNL A   1      40.886  32.212  31.166  1.00  0.00     0.001 A 
BRANCH  14  22
ATOM     22  S   UNL A   1      35.921  31.881  28.934  1.00  0.00     0.268 S 
ATOM     23  O   UNL A   1      36.391  32.897  28.002  1.00  0.00    -0.201 OA
ATOM     24  O   UNL A   1      35.178  32.219  30.129  1.00  0.00    -0.201 OA
BRANCH  22  25
ATOM     25  C   UNL A   1      34.914  30.750  28.008  1.00  0.00     0.088 A 
ATOM     26  C   UNL A   1      32.406  28.358  25.466  1.00  0.00     0.044 C 
ATOM     27  C   UNL A   1      33.271  29.172  26.381  1.00  0.00    -0.051 A 
ATOM     28  C   UNL A   1      32.832  30.426  26.820  1.00  0.00     0.005 A 
ATOM     29  C   UNL A   1      34.522  28.698  26.801  1.00  0.00     0.005 A 
ATOM     30  C   UNL A   1      33.651  31.215  27.627  1.00  0.00     0.022 A 
ATOM     31  C   UNL A   1      35.340  29.477  27.625  1.00  0.00     0.022 A 
ENDBRANCH  22  25
ENDBRANCH  14  22
ENDBRANCH  11  13
ENDBRANCH   8  11
ENDBRANCH   6   7
ENDBRANCH   4   6
ENDBRANCH   3   4
ENDBRANCH   2   3
ENDBRANCH   1   2
BRANCH   1  32
ATOM     32  O   UNL A   1      45.679  29.812  25.786  1.00  0.00    -0.374 OA
BRANCH  32  33
ATOM     33  C   UNL A   1      46.397  28.597  25.736  1.00  0.00     0.202 C 
BRANCH  33  34
ATOM     34  C   UNL A   1      46.333  27.756  27.016  1.00  0.00     0.261 C 
BRANCH  34  35
ATOM     35  O   UNL A   1      45.740  26.461  26.772  1.00  0.00    -0.460 OA
BRANCH  35  36
ATOM     36  C   UNL A   1      46.442  25.379  27.227  1.00  0.00     0.338 C 
ATOM     37  O   UNL A   1      47.319  24.825  26.589  1.00  0.00    -0.246 OA
BRANCH  36  38
ATOM     38  C   UNL A   1      46.002  25.019  28.605  1.00  0.00     0.060 A 
ATOM     39  C   UNL A   1      44.739  24.458  28.862  1.00  0.00     0.016 A 
ATOM     40  C   UNL A   1      46.802  25.424  29.666  1.00  0.00     0.016 A 
ATOM     41  C   UNL A   1      44.222  24.439  30.172  1.00  0.00     0.010 A 
ATOM     42  C   UNL A   1      46.245  25.518  30.920  1.00  0.00     0.010 A 
ATOM     43  C   UNL A   1      44.951  25.038  31.193  1.00  0.00    -0.014 A 
BRANCH  43  44
ATOM     44  C   UNL A   1      44.550  25.261  32.589  1.00  0.00     0.031 A 
ATOM     45  C   UNL A   1      44.012  26.612  32.907  1.00  0.00     0.074 A 
ATOM     46  C   UNL A   1      44.288  24.221  33.424  1.00  0.00     0.049 A 
ATOM     47  N   UNL A   1      43.544  26.956  34.050  1.00  0.00    -0.248 NA
ATOM     48  C   UNL A   1      43.945  27.707  31.940  1.00  0.00     0.031 C 
ATOM     49  C   UNL A   1      43.292  24.175  34.501  1.00  0.00     0.029 A 
ATOM     50  N   UNL A   1      44.845  22.935  33.486  1.00  0.00    -0.354 N 
ATOM     51  C   UNL A   1      42.843  28.132  33.908  1.00  0.00     0.074 A 
ATOM     52  C   UNL A   1      43.187  28.597  32.589  1.00  0.00     0.031 C 
ATOM     53  C   UNL A   1      43.511  23.102  35.281  1.00  0.00     0.029 A 
ATOM     54  C   UNL A   1      44.749  22.503  34.823  1.00  0.00     0.049 A 
ATOM     55  H   UNL A   1      45.231  22.428  32.735  1.00  0.00     0.167 HD
ATOM     56  C   UNL A   1      41.986  28.479  34.912  1.00  0.00     0.037 A 
ATOM     57  C   UNL A   1      45.864  22.249  35.558  1.00  0.00     0.037 A 
ATOM     58  C   UNL A   1      42.147  27.542  36.036  1.00  0.00     0.049 A 
ATOM     59  C   UNL A   1      45.903  23.197  36.723  1.00  0.00     0.074 A 
ATOM     60  C   UNL A   1      41.408  26.469  36.505  1.00  0.00     0.029 A 
ATOM     61  N   UNL A   1      43.396  27.449  36.645  1.00  0.00    -0.354 N 
ATOM     62  N   UNL A   1      45.290  24.351  36.713  1.00  0.00    -0.248 NA
ATOM     63  C   UNL A   1      46.502  22.894  38.014  1.00  0.00     0.031 C 
ATOM     64  C   UNL A   1      42.242  25.714  37.379  1.00  0.00     0.029 A 
ATOM     65  C   UNL A   1      43.482  26.336  37.455  1.00  0.00     0.049 A 
ATOM     66  H   UNL A   1      44.126  28.097  36.514  1.00  0.00     0.167 HD
ATOM     67  C   UNL A   1      45.330  24.905  37.957  1.00  0.00     0.074 A 
ATOM     68  C   UNL A   1      46.123  23.967  38.732  1.00  0.00     0.031 C 
ATOM     69  C   UNL A   1      44.687  26.076  38.241  1.00  0.00     0.037 A 
BRANCH  56  70
ATOM     70  C   UNL A   1      40.897  29.541  34.875  1.00  0.00     0.058 A 
ATOM     71  C   UNL A   1      39.810  29.410  33.976  1.00  0.00     0.135 A 
ATOM     72  C   UNL A   1      40.851  30.716  35.655  1.00  0.00     0.135 A 
ATOM     73  F   UNL A   1      39.687  28.345  33.172  1.00  0.00    -0.206 F 
ATOM     74  C   UNL A   1      38.797  30.365  33.844  1.00  0.00     0.059 A 
ATOM     75  C   UNL A   1      39.855  31.693  35.531  1.00  0.00     0.059 A 
ATOM     76  F   UNL A   1      41.751  30.984  36.601  1.00  0.00    -0.206 F 
ATOM     77  C   UNL A   1      38.828  31.510  34.622  1.00  0.00     0.060 A 
BRANCH  77  78
ATOM     78  S   UNL A   1      37.515  32.730  34.444  1.00  0.00     0.124 S 
ATOM     79  O   UNL A   1      36.898  32.709  35.765  1.00  0.00    -0.237 OA
ATOM     80  O   UNL A   1      38.263  33.938  34.110  1.00  0.00    -0.237 OA
ATOM     81  O   UNL A   1      36.691  32.191  33.366  1.00  0.00    -0.744 OA
ENDBRANCH  77  78
ENDBRANCH  56  70
BRANCH  57  82
ATOM     82  C   UNL A   1      46.978  21.728  34.706  1.00  0.00     0.058 A 
ATOM     83  C   UNL A   1      48.091  22.584  34.535  1.00  0.00     0.135 A 
ATOM     84  C   UNL A   1      47.213  20.349  34.587  1.00  0.00     0.135 A 
ATOM     85  F   UNL A   1      47.931  23.915  34.630  1.00  0.00    -0.206 F 
ATOM     86  C   UNL A   1      49.395  22.096  34.445  1.00  0.00     0.059 A 
ATOM     87  C   UNL A   1      48.515  19.840  34.498  1.00  0.00     0.059 A 
ATOM     88  F   UNL A   1      46.204  19.478  34.732  1.00  0.00    -0.206 F 
ATOM     89  C   UNL A   1      49.601  20.719  34.499  1.00  0.00     0.060 A 
BRANCH  89  90
ATOM     90  S   UNL A   1      51.288  20.116  34.792  1.00  0.00     0.124 S 
ATOM     91  O   UNL A   1      51.829  20.054  33.440  1.00  0.00    -0.237 OA
ATOM     92  O   UNL A   1      51.849  21.158  35.650  1.00  0.00    -0.237 OA
ATOM     93  O   UNL A   1      51.076  18.830  35.448  1.00  0.00    -0.744 OA
ENDBRANCH  89  90
ENDBRANCH  57  82
BRANCH  69  94
ATOM     94  C   UNL A   1      45.088  27.045  39.332  1.00  0.00     0.058 A 
ATOM     95  C   UNL A   1      45.661  28.306  39.092  1.00  0.00     0.135 A 
ATOM     96  C   UNL A   1      44.744  26.796  40.687  1.00  0.00     0.135 A 
ATOM     97  F   UNL A   1      45.910  28.752  37.855  1.00  0.00    -0.206 F 
ATOM     98  C   UNL A   1      45.962  29.201  40.115  1.00  0.00     0.059 A 
ATOM     99  C   UNL A   1      44.959  27.710  41.712  1.00  0.00     0.059 A 
ATOM    100  F   UNL A   1      44.154  25.659  41.080  1.00  0.00    -0.206 F 
ATOM    101  C   UNL A   1      45.609  28.895  41.422  1.00  0.00     0.060 A 
BRANCH 101 102
ATOM    102  S   UNL A   1      45.986  30.073  42.721  1.00  0.00     0.124 S 
ATOM    103  O   UNL A   1      44.648  30.506  43.110  1.00  0.00    -0.237 OA
ATOM    104  O   UNL A   1      46.693  29.247  43.697  1.00  0.00    -0.237 OA
ATOM    105  O   UNL A   1      46.805  31.074  42.048  1.00  0.00    -0.744 OA
ENDBRANCH 101 102
ENDBRANCH  69  94
ENDBRANCH  43  44
ENDBRANCH  36  38
ENDBRANCH  35  36
ENDBRANCH  34  35
ENDBRANCH  33  34
ENDBRANCH  32  33
ENDBRANCH   1  32
TORSDOF 22
ENDMDL
