MODEL 1
REMARK VINA RESULT:     -10.7      0.000      0.000
REMARK SMILES N#CCOc1ccc2[nH]cc([C@H](C(=O)OCCOCCOC(=O)c3ccc(-c4c5nc(c(-c6c(F)cc(S(=O)(=O)[O-])cc6F)c6ccc([nH]6)c(-c6c(F)cc(S(=O)(=O)[O-])cc6F)c6nc(c(-c7c(F)cc(S(=O)(=O)[O-])cc7F)c7ccc4[nH]7)C=C6)C=C5)cc3)[NH+]3CC[NH+]([C@@H]4CCS(=O)(=O)C4)CC3)c2c1
REMARK SMILES IDX 17 1 16 2 15 3 13 4 14 5 12 6 11 7 5 8 6 9 104 10 7 11
REMARK SMILES IDX 103 12 8 13 9 14 10 15 4 17 3 18 2 19 1 20 90 21 91 22
REMARK SMILES IDX 102 23 92 25 101 26 93 27 94 29 95 30 100 31 96 32 97 33
REMARK SMILES IDX 98 34 99 35 18 36 19 37 20 38 21 39 22 40 23 41 24 42 25 43
REMARK SMILES IDX 89 44 26 45 88 46 27 47 28 48 29 49 82 50 30 51 87 52 81 53
REMARK SMILES IDX 83 54 31 55 86 56 80 57 79 58 32 60 66 61 45 62 65 63 46 64
REMARK SMILES IDX 49 65 64 66 84 67 47 68 48 69 63 71 85 72 50 73 33 74 34 75
REMARK SMILES IDX 43 76 35 77 36 78 42 79 44 80 37 81 38 82 39 83 40 84 41 85
REMARK SMILES IDX 67 86 68 87 77 88 69 89 70 90 76 91 78 92 71 93 72 94 73 95
REMARK SMILES IDX 74 96 75 97 51 98 52 99 61 100 53 101 54 102 60 103 62 104
REMARK SMILES IDX 55 105 56 106 57 107 58 108 59 109
REMARK H PARENT 9 16 90 24 93 28 83 59 49 70
REMARK Flexibility Score: inf
ROOT
ATOM      1  C   UNL A   1      37.571  23.974  26.268  1.00  0.00     0.202 C 
ENDROOT
BRANCH   1   2
ATOM      2  C   UNL A   1      36.637  23.555  25.122  1.00  0.00     0.261 C 
BRANCH   2   3
ATOM      3  O   UNL A   1      35.587  24.487  24.843  1.00  0.00    -0.459 OA
BRANCH   3   4
ATOM      4  C   UNL A   1      34.387  24.149  25.405  1.00  0.00     0.370 C 
ATOM      5  O   UNL A   1      34.312  23.646  26.519  1.00  0.00    -0.245 OA
BRANCH   4   6
ATOM      6  C   UNL A   1      33.204  24.422  24.439  1.00  0.00     0.328 C 
BRANCH   6   7
ATOM      7  C   UNL A   1      33.427  25.595  23.513  1.00  0.00     0.046 A 
ATOM      8  C   UNL A   1      33.168  28.633  25.504  1.00  0.00     0.121 A 
ATOM      9  C   UNL A   1      32.721  29.430  24.441  1.00  0.00     0.048 A 
ATOM     10  C   UNL A   1      33.869  27.487  25.202  1.00  0.00     0.057 A 
ATOM     11  C   UNL A   1      32.925  29.079  23.094  1.00  0.00     0.030 A 
ATOM     12  C   UNL A   1      33.644  26.931  23.942  1.00  0.00     0.013 A 
ATOM     13  C   UNL A   1      33.274  27.753  22.888  1.00  0.00     0.046 A 
ATOM     14  N   UNL A   1      33.279  26.972  21.759  1.00  0.00    -0.361 N 
ATOM     15  C   UNL A   1      33.261  25.651  22.137  1.00  0.00     0.094 A 
ATOM     16  H   UNL A   1      33.294  27.303  20.832  1.00  0.00     0.166 HD
BRANCH   8  17
ATOM     17  O   UNL A   1      32.994  28.736  26.868  1.00  0.00    -0.479 OA
BRANCH  17  18
ATOM     18  C   UNL A   1      31.691  28.611  27.458  1.00  0.00     0.349 C 
BRANCH  18  19
ATOM     19  C   UNL A   1      31.203  27.228  27.057  1.00  0.00     0.104 C 
ATOM     20  N   UNL A   1      30.800  26.081  26.724  1.00  0.00    -0.195 NA
ENDBRANCH  18  19
ENDBRANCH  17  18
ENDBRANCH   8  17
ENDBRANCH   6   7
BRANCH   6  21
ATOM     21  N   UNL A   1      32.755  23.256  23.654  1.00  0.00    -0.310 N 
ATOM     22  C   UNL A   1      33.800  22.283  23.305  1.00  0.00     0.325 C 
ATOM     23  C   UNL A   1      31.575  22.621  24.235  1.00  0.00     0.325 C 
ATOM     24  H   UNL A   1      32.486  23.654  22.754  1.00  0.00     0.349 HD
ATOM     25  C   UNL A   1      34.003  21.048  24.218  1.00  0.00     0.324 C 
ATOM     26  C   UNL A   1      31.845  21.539  25.292  1.00  0.00     0.324 C 
ATOM     27  N   UNL A   1      32.809  20.518  24.893  1.00  0.00    -0.322 N 
ATOM     28  H   UNL A   1      33.099  20.213  25.822  1.00  0.00     0.348 HD
BRANCH  27  29
ATOM     29  C   UNL A   1      32.354  19.220  24.416  1.00  0.00     0.200 C 
ATOM     30  C   UNL A   1      32.104  18.149  25.488  1.00  0.00     0.082 C 
ATOM     31  C   UNL A   1      33.234  18.598  23.322  1.00  0.00     0.201 C 
ATOM     32  C   UNL A   1      33.370  17.337  25.681  1.00  0.00     0.143 C 
ATOM     33  S   UNL A   1      34.175  17.299  24.098  1.00  0.00     0.156 S 
ATOM     34  O   UNL A   1      35.545  17.714  24.271  1.00  0.00    -0.229 OA
ATOM     35  O   UNL A   1      33.837  16.040  23.451  1.00  0.00    -0.229 OA
ENDBRANCH  27  29
ENDBRANCH   6  21
ENDBRANCH   4   6
ENDBRANCH   3   4
ENDBRANCH   2   3
ENDBRANCH   1   2
BRANCH   1  36
ATOM     36  O   UNL A   1      38.969  23.743  26.153  1.00  0.00    -0.374 OA
BRANCH  36  37
ATOM     37  C   UNL A   1      39.565  22.640  26.825  1.00  0.00     0.202 C 
BRANCH  37  38
ATOM     38  C   UNL A   1      39.713  21.285  26.121  1.00  0.00     0.261 C 
BRANCH  38  39
ATOM     39  O   UNL A   1      40.491  20.317  26.850  1.00  0.00    -0.460 OA
BRANCH  39  40
ATOM     40  C   UNL A   1      41.704  20.046  26.307  1.00  0.00     0.338 C 
ATOM     41  O   UNL A   1      41.992  19.078  25.620  1.00  0.00    -0.246 OA
BRANCH  40  42
ATOM     42  C   UNL A   1      42.644  21.170  26.486  1.00  0.00     0.060 A 
ATOM     43  C   UNL A   1      42.835  21.642  27.793  1.00  0.00     0.016 A 
ATOM     44  C   UNL A   1      43.222  21.838  25.406  1.00  0.00     0.016 A 
ATOM     45  C   UNL A   1      43.531  22.827  28.023  1.00  0.00     0.010 A 
ATOM     46  C   UNL A   1      43.920  23.033  25.639  1.00  0.00     0.010 A 
ATOM     47  C   UNL A   1      44.035  23.561  26.943  1.00  0.00    -0.014 A 
BRANCH  47  48
ATOM     48  C   UNL A   1      44.515  24.954  27.153  1.00  0.00     0.031 A 
ATOM     49  C   UNL A   1      43.507  26.029  27.421  1.00  0.00     0.074 A 
ATOM     50  C   UNL A   1      45.823  25.271  27.159  1.00  0.00     0.049 A 
ATOM     51  N   UNL A   1      43.717  27.294  27.666  1.00  0.00    -0.248 NA
ATOM     52  C   UNL A   1      42.096  25.621  27.489  1.00  0.00     0.031 C 
ATOM     53  C   UNL A   1      46.904  24.305  27.128  1.00  0.00     0.029 A 
ATOM     54  N   UNL A   1      46.475  26.475  27.163  1.00  0.00    -0.354 N 
ATOM     55  C   UNL A   1      42.476  27.822  27.982  1.00  0.00     0.074 A 
ATOM     56  C   UNL A   1      41.505  26.762  27.815  1.00  0.00     0.031 C 
ATOM     57  C   UNL A   1      48.071  24.930  26.914  1.00  0.00     0.029 A 
ATOM     58  C   UNL A   1      47.825  26.362  26.906  1.00  0.00     0.049 A 
ATOM     59  H   UNL A   1      46.026  27.334  27.332  1.00  0.00     0.167 HD
ATOM     60  C   UNL A   1      42.189  29.068  28.424  1.00  0.00     0.037 A 
ATOM     61  C   UNL A   1      48.767  27.304  26.719  1.00  0.00     0.037 A 
ATOM     62  C   UNL A   1      43.168  30.114  28.561  1.00  0.00     0.049 A 
ATOM     63  C   UNL A   1      48.401  28.720  27.037  1.00  0.00     0.074 A 
ATOM     64  C   UNL A   1      42.985  31.409  29.009  1.00  0.00     0.029 A 
ATOM     65  N   UNL A   1      44.512  29.991  28.234  1.00  0.00    -0.354 N 
ATOM     66  N   UNL A   1      47.231  29.196  27.393  1.00  0.00    -0.248 NA
ATOM     67  C   UNL A   1      49.485  29.708  27.027  1.00  0.00     0.031 C 
ATOM     68  C   UNL A   1      44.206  32.085  28.899  1.00  0.00     0.029 A 
ATOM     69  C   UNL A   1      45.163  31.198  28.432  1.00  0.00     0.049 A 
ATOM     70  H   UNL A   1      44.940  29.166  27.908  1.00  0.00     0.167 HD
ATOM     71  C   UNL A   1      47.450  30.526  27.718  1.00  0.00     0.074 A 
ATOM     72  C   UNL A   1      48.861  30.782  27.494  1.00  0.00     0.031 C 
ATOM     73  C   UNL A   1      46.565  31.438  28.192  1.00  0.00     0.037 A 
BRANCH  60  74
ATOM     74  C   UNL A   1      40.758  29.351  28.775  1.00  0.00     0.058 A 
ATOM     75  C   UNL A   1      40.341  29.486  30.110  1.00  0.00     0.135 A 
ATOM     76  C   UNL A   1      39.792  29.485  27.767  1.00  0.00     0.135 A 
ATOM     77  F   UNL A   1      41.222  29.338  31.112  1.00  0.00    -0.206 F 
ATOM     78  C   UNL A   1      39.009  29.719  30.434  1.00  0.00     0.059 A 
ATOM     79  C   UNL A   1      38.459  29.743  28.067  1.00  0.00     0.059 A 
ATOM     80  F   UNL A   1      40.138  29.353  26.478  1.00  0.00    -0.206 F 
ATOM     81  C   UNL A   1      38.074  29.843  29.405  1.00  0.00     0.060 A 
BRANCH  81  82
ATOM     82  S   UNL A   1      36.348  30.137  29.838  1.00  0.00     0.124 S 
ATOM     83  O   UNL A   1      36.338  31.585  30.027  1.00  0.00    -0.237 OA
ATOM     84  O   UNL A   1      35.642  29.648  28.658  1.00  0.00    -0.237 OA
ATOM     85  O   UNL A   1      36.162  29.345  31.050  1.00  0.00    -0.744 OA
ENDBRANCH  81  82
ENDBRANCH  60  74
BRANCH  61  86
ATOM     86  C   UNL A   1      50.142  26.919  26.303  1.00  0.00     0.058 A 
ATOM     87  C   UNL A   1      51.125  26.570  27.239  1.00  0.00     0.135 A 
ATOM     88  C   UNL A   1      50.491  26.876  24.943  1.00  0.00     0.135 A 
ATOM     89  F   UNL A   1      50.839  26.591  28.549  1.00  0.00    -0.206 F 
ATOM     90  C   UNL A   1      52.412  26.213  26.845  1.00  0.00     0.059 A 
ATOM     91  C   UNL A   1      51.766  26.501  24.523  1.00  0.00     0.059 A 
ATOM     92  F   UNL A   1      49.585  27.205  24.009  1.00  0.00    -0.206 F 
ATOM     93  C   UNL A   1      52.724  26.182  25.485  1.00  0.00     0.060 A 
BRANCH  93  94
ATOM     94  S   UNL A   1      54.397  25.700  24.998  1.00  0.00     0.124 S 
ATOM     95  O   UNL A   1      55.197  26.302  26.060  1.00  0.00    -0.237 OA
ATOM     96  O   UNL A   1      54.312  24.243  25.018  1.00  0.00    -0.237 OA
ATOM     97  O   UNL A   1      54.557  26.296  23.676  1.00  0.00    -0.744 OA
ENDBRANCH  93  94
ENDBRANCH  61  86
BRANCH  73  98
ATOM     98  C   UNL A   1      47.113  32.794  28.529  1.00  0.00     0.058 A 
ATOM     99  C   UNL A   1      47.148  33.831  27.585  1.00  0.00     0.135 A 
ATOM    100  C   UNL A   1      47.591  33.062  29.822  1.00  0.00     0.135 A 
ATOM    101  F   UNL A   1      46.711  33.619  26.333  1.00  0.00    -0.206 F 
ATOM    102  C   UNL A   1      47.668  35.080  27.901  1.00  0.00     0.059 A 
ATOM    103  C   UNL A   1      48.088  34.313  30.168  1.00  0.00     0.059 A 
ATOM    104  F   UNL A   1      47.573  32.105  30.763  1.00  0.00    -0.206 F 
ATOM    105  C   UNL A   1      48.137  35.311  29.195  1.00  0.00     0.060 A 
BRANCH 105 106
ATOM    106  S   UNL A   1      48.792  36.942  29.599  1.00  0.00     0.124 S 
ATOM    107  O   UNL A   1      48.318  37.735  28.469  1.00  0.00    -0.237 OA
ATOM    108  O   UNL A   1      48.158  37.225  30.883  1.00  0.00    -0.237 OA
ATOM    109  O   UNL A   1      50.234  36.724  29.654  1.00  0.00    -0.744 OA
ENDBRANCH 105 106
ENDBRANCH  73  98
ENDBRANCH  47  48
ENDBRANCH  40  42
ENDBRANCH  39  40
ENDBRANCH  38  39
ENDBRANCH  37  38
ENDBRANCH  36  37
ENDBRANCH   1  36
TORSDOF 23
ENDMDL
MODEL 2
REMARK VINA RESULT:     -10.7      0.939      7.783
REMARK SMILES N#CCOc1ccc2[nH]cc([C@H](C(=O)OCCOCCOC(=O)c3ccc(-c4c5nc(c(-c6c(F)cc(S(=O)(=O)[O-])cc6F)c6ccc([nH]6)c(-c6c(F)cc(S(=O)(=O)[O-])cc6F)c6nc(c(-c7c(F)cc(S(=O)(=O)[O-])cc7F)c7ccc4[nH]7)C=C6)C=C5)cc3)[NH+]3CC[NH+]([C@@H]4CCS(=O)(=O)C4)CC3)c2c1
REMARK SMILES IDX 17 1 16 2 15 3 13 4 14 5 12 6 11 7 5 8 6 9 104 10 7 11
REMARK SMILES IDX 103 12 8 13 9 14 10 15 4 17 3 18 2 19 1 20 90 21 91 22
REMARK SMILES IDX 102 23 92 25 101 26 93 27 94 29 95 30 100 31 96 32 97 33
REMARK SMILES IDX 98 34 99 35 18 36 19 37 20 38 21 39 22 40 23 41 24 42 25 43
REMARK SMILES IDX 89 44 26 45 88 46 27 47 28 48 29 49 82 50 30 51 87 52 81 53
REMARK SMILES IDX 83 54 31 55 86 56 80 57 79 58 32 60 66 61 45 62 65 63 46 64
REMARK SMILES IDX 49 65 64 66 84 67 47 68 48 69 63 71 85 72 50 73 33 74 34 75
REMARK SMILES IDX 43 76 35 77 36 78 42 79 44 80 37 81 38 82 39 83 40 84 41 85
REMARK SMILES IDX 67 86 68 87 77 88 69 89 70 90 76 91 78 92 71 93 72 94 73 95
REMARK SMILES IDX 74 96 75 97 51 98 52 99 61 100 53 101 54 102 60 103 62 104
REMARK SMILES IDX 55 105 56 106 57 107 58 108 59 109
REMARK H PARENT 9 16 90 24 93 28 83 59 49 70
REMARK Flexibility Score: inf
ROOT
ATOM      1  C   UNL A   1      37.446  23.039  24.955  1.00  0.00     0.202 C 
ENDROOT
BRANCH   1   2
ATOM      2  C   UNL A   1      36.486  23.955  25.730  1.00  0.00     0.261 C 
BRANCH   2   3
ATOM      3  O   UNL A   1      35.376  24.435  24.962  1.00  0.00    -0.459 OA
BRANCH   3   4
ATOM      4  C   UNL A   1      34.159  24.075  25.470  1.00  0.00     0.370 C 
ATOM      5  O   UNL A   1      34.033  23.651  26.611  1.00  0.00    -0.245 OA
BRANCH   4   6
ATOM      6  C   UNL A   1      33.033  24.213  24.411  1.00  0.00     0.328 C 
BRANCH   6   7
ATOM      7  C   UNL A   1      33.212  25.387  23.476  1.00  0.00     0.046 A 
ATOM      8  C   UNL A   1      31.877  28.335  25.145  1.00  0.00     0.121 A 
ATOM      9  C   UNL A   1      31.527  28.992  23.957  1.00  0.00     0.048 A 
ATOM     10  C   UNL A   1      32.851  27.365  25.084  1.00  0.00     0.057 A 
ATOM     11  C   UNL A   1      32.102  28.666  22.715  1.00  0.00     0.030 A 
ATOM     12  C   UNL A   1      33.040  26.747  23.847  1.00  0.00     0.013 A 
ATOM     13  C   UNL A   1      32.757  27.445  22.683  1.00  0.00     0.046 A 
ATOM     14  N   UNL A   1      33.183  26.660  21.641  1.00  0.00    -0.361 N 
ATOM     15  C   UNL A   1      33.356  25.375  22.097  1.00  0.00     0.094 A 
ATOM     16  H   UNL A   1      33.339  26.967  20.718  1.00  0.00     0.166 HD
BRANCH   8  17
ATOM     17  O   UNL A   1      31.378  28.426  26.428  1.00  0.00    -0.479 OA
BRANCH  17  18
ATOM     18  C   UNL A   1      32.249  28.672  27.543  1.00  0.00     0.349 C 
BRANCH  18  19
ATOM     19  C   UNL A   1      32.763  30.088  27.341  1.00  0.00     0.104 C 
ATOM     20  N   UNL A   1      33.190  31.263  27.173  1.00  0.00    -0.195 NA
ENDBRANCH  18  19
ENDBRANCH  17  18
ENDBRANCH   8  17
ENDBRANCH   6   7
BRANCH   6  21
ATOM     21  N   UNL A   1      32.761  22.996  23.624  1.00  0.00    -0.310 N 
ATOM     22  C   UNL A   1      33.884  22.057  23.494  1.00  0.00     0.325 C 
ATOM     23  C   UNL A   1      31.527  22.333  24.040  1.00  0.00     0.325 C 
ATOM     24  H   UNL A   1      32.626  23.342  22.674  1.00  0.00     0.349 HD
ATOM     25  C   UNL A   1      33.985  20.873  24.487  1.00  0.00     0.324 C 
ATOM     26  C   UNL A   1      31.665  21.310  25.179  1.00  0.00     0.324 C 
ATOM     27  N   UNL A   1      32.718  20.318  24.989  1.00  0.00    -0.322 N 
ATOM     28  H   UNL A   1      32.866  20.066  25.967  1.00  0.00     0.348 HD
BRANCH  27  29
ATOM     29  C   UNL A   1      32.396  18.982  24.510  1.00  0.00     0.200 C 
ATOM     30  C   UNL A   1      32.228  17.895  25.583  1.00  0.00     0.082 C 
ATOM     31  C   UNL A   1      33.351  18.441  23.436  1.00  0.00     0.201 C 
ATOM     32  C   UNL A   1      33.561  17.207  25.804  1.00  0.00     0.143 C 
ATOM     33  S   UNL A   1      34.396  17.239  24.236  1.00  0.00     0.156 S 
ATOM     34  O   UNL A   1      35.717  17.782  24.432  1.00  0.00    -0.229 OA
ATOM     35  O   UNL A   1      34.189  15.951  23.589  1.00  0.00    -0.229 OA
ENDBRANCH  27  29
ENDBRANCH   6  21
ENDBRANCH   4   6
ENDBRANCH   3   4
ENDBRANCH   2   3
ENDBRANCH   1   2
BRANCH   1  36
ATOM     36  O   UNL A   1      37.233  21.634  24.963  1.00  0.00    -0.374 OA
BRANCH  36  37
ATOM     37  C   UNL A   1      38.321  20.752  25.217  1.00  0.00     0.202 C 
BRANCH  37  38
ATOM     38  C   UNL A   1      39.471  21.175  26.139  1.00  0.00     0.261 C 
BRANCH  38  39
ATOM     39  O   UNL A   1      40.156  20.082  26.778  1.00  0.00    -0.460 OA
BRANCH  39  40
ATOM     40  C   UNL A   1      41.397  19.834  26.291  1.00  0.00     0.338 C 
ATOM     41  O   UNL A   1      41.737  18.865  25.630  1.00  0.00    -0.246 OA
BRANCH  40  42
ATOM     42  C   UNL A   1      42.302  20.982  26.497  1.00  0.00     0.060 A 
ATOM     43  C   UNL A   1      42.471  21.435  27.814  1.00  0.00     0.016 A 
ATOM     44  C   UNL A   1      42.866  21.686  25.433  1.00  0.00     0.016 A 
ATOM     45  C   UNL A   1      43.131  22.636  28.069  1.00  0.00     0.010 A 
ATOM     46  C   UNL A   1      43.527  22.897  25.692  1.00  0.00     0.010 A 
ATOM     47  C   UNL A   1      43.619  23.404  27.006  1.00  0.00    -0.014 A 
BRANCH  47  48
ATOM     48  C   UNL A   1      44.056  24.806  27.245  1.00  0.00     0.031 A 
ATOM     49  C   UNL A   1      45.518  25.124  27.187  1.00  0.00     0.074 A 
ATOM     50  C   UNL A   1      43.181  25.805  27.464  1.00  0.00     0.049 A 
ATOM     51  N   UNL A   1      46.103  26.282  27.329  1.00  0.00    -0.248 NA
ATOM     52  C   UNL A   1      46.430  24.017  26.862  1.00  0.00     0.031 C 
ATOM     53  C   UNL A   1      41.742  25.681  27.335  1.00  0.00     0.029 A 
ATOM     54  N   UNL A   1      43.352  27.103  27.865  1.00  0.00    -0.354 N 
ATOM     55  C   UNL A   1      47.441  26.060  27.047  1.00  0.00     0.074 A 
ATOM     56  C   UNL A   1      47.598  24.641  26.809  1.00  0.00     0.031 C 
ATOM     57  C   UNL A   1      41.141  26.772  27.835  1.00  0.00     0.029 A 
ATOM     58  C   UNL A   1      42.172  27.723  28.218  1.00  0.00     0.049 A 
ATOM     59  H   UNL A   1      44.228  27.549  27.897  1.00  0.00     0.167 HD
ATOM     60  C   UNL A   1      48.433  26.973  26.944  1.00  0.00     0.037 A 
ATOM     61  C   UNL A   1      41.940  28.933  28.758  1.00  0.00     0.037 A 
ATOM     62  C   UNL A   1      48.259  28.377  27.207  1.00  0.00     0.049 A 
ATOM     63  C   UNL A   1      43.085  29.895  28.813  1.00  0.00     0.074 A 
ATOM     64  C   UNL A   1      49.196  29.391  27.124  1.00  0.00     0.029 A 
ATOM     65  N   UNL A   1      47.072  28.966  27.625  1.00  0.00    -0.354 N 
ATOM     66  N   UNL A   1      44.338  29.686  28.487  1.00  0.00    -0.248 NA
ATOM     67  C   UNL A   1      42.780  31.273  29.212  1.00  0.00     0.031 C 
ATOM     68  C   UNL A   1      48.590  30.580  27.545  1.00  0.00     0.029 A 
ATOM     69  C   UNL A   1      47.261  30.321  27.841  1.00  0.00     0.049 A 
ATOM     70  H   UNL A   1      46.219  28.488  27.749  1.00  0.00     0.167 HD
ATOM     71  C   UNL A   1      44.960  30.922  28.571  1.00  0.00     0.074 A 
ATOM     72  C   UNL A   1      43.947  31.868  29.002  1.00  0.00     0.031 C 
ATOM     73  C   UNL A   1      46.245  31.245  28.283  1.00  0.00     0.037 A 
BRANCH  60  74
ATOM     74  C   UNL A   1      49.785  26.465  26.541  1.00  0.00     0.058 A 
ATOM     75  C   UNL A   1      50.715  26.013  27.493  1.00  0.00     0.135 A 
ATOM     76  C   UNL A   1      50.158  26.430  25.190  1.00  0.00     0.135 A 
ATOM     77  F   UNL A   1      50.417  26.051  28.801  1.00  0.00    -0.206 F 
ATOM     78  C   UNL A   1      51.979  25.570  27.119  1.00  0.00     0.059 A 
ATOM     79  C   UNL A   1      51.408  25.968  24.791  1.00  0.00     0.059 A 
ATOM     80  F   UNL A   1      49.310  26.861  24.244  1.00  0.00    -0.206 F 
ATOM     81  C   UNL A   1      52.317  25.553  25.765  1.00  0.00     0.060 A 
BRANCH  81  82
ATOM     82  S   UNL A   1      53.963  24.983  25.293  1.00  0.00     0.124 S 
ATOM     83  O   UNL A   1      54.271  25.876  24.180  1.00  0.00    -0.237 OA
ATOM     84  O   UNL A   1      54.731  25.203  26.514  1.00  0.00    -0.237 OA
ATOM     85  O   UNL A   1      53.748  23.585  24.934  1.00  0.00    -0.744 OA
ENDBRANCH  81  82
ENDBRANCH  60  74
BRANCH  61  86
ATOM     86  C   UNL A   1      40.568  29.313  29.190  1.00  0.00     0.058 A 
ATOM     87  C   UNL A   1      40.211  29.366  30.543  1.00  0.00     0.135 A 
ATOM     88  C   UNL A   1      39.589  29.652  28.242  1.00  0.00     0.135 A 
ATOM     89  F   UNL A   1      41.112  29.055  31.487  1.00  0.00    -0.206 F 
ATOM     90  C   UNL A   1      38.924  29.719  30.944  1.00  0.00     0.059 A 
ATOM     91  C   UNL A   1      38.301  30.029  28.619  1.00  0.00     0.059 A 
ATOM     92  F   UNL A   1      39.883  29.612  26.932  1.00  0.00    -0.206 F 
ATOM     93  C   UNL A   1      37.976  30.048  29.974  1.00  0.00     0.060 A 
BRANCH  93  94
ATOM     94  S   UNL A   1      36.318  30.520  30.520  1.00  0.00     0.124 S 
ATOM     95  O   UNL A   1      35.478  29.739  29.617  1.00  0.00    -0.237 OA
ATOM     96  O   UNL A   1      36.322  30.087  31.914  1.00  0.00    -0.237 OA
ATOM     97  O   UNL A   1      36.286  31.964  30.317  1.00  0.00    -0.744 OA
ENDBRANCH  93  94
ENDBRANCH  61  86
BRANCH  73  98
ATOM     98  C   UNL A   1      46.617  32.695  28.397  1.00  0.00     0.058 A 
ATOM     99  C   UNL A   1      47.145  33.228  29.582  1.00  0.00     0.135 A 
ATOM    100  C   UNL A   1      46.457  33.554  27.299  1.00  0.00     0.135 A 
ATOM    101  F   UNL A   1      47.306  32.448  30.662  1.00  0.00    -0.206 F 
ATOM    102  C   UNL A   1      47.475  34.574  29.684  1.00  0.00     0.059 A 
ATOM    103  C   UNL A   1      46.808  34.897  27.370  1.00  0.00     0.059 A 
ATOM    104  F   UNL A   1      45.962  33.090  26.141  1.00  0.00    -0.206 F 
ATOM    105  C   UNL A   1      47.302  35.401  28.573  1.00  0.00     0.060 A 
BRANCH 105 106
ATOM    106  S   UNL A   1      47.752  37.142  28.712  1.00  0.00     0.124 S 
ATOM    107  O   UNL A   1      46.987  37.731  27.618  1.00  0.00    -0.237 OA
ATOM    108  O   UNL A   1      47.296  37.477  30.057  1.00  0.00    -0.237 OA
ATOM    109  O   UNL A   1      49.201  37.132  28.533  1.00  0.00    -0.744 OA
ENDBRANCH 105 106
ENDBRANCH  73  98
ENDBRANCH  47  48
ENDBRANCH  40  42
ENDBRANCH  39  40
ENDBRANCH  38  39
ENDBRANCH  37  38
ENDBRANCH  36  37
ENDBRANCH   1  36
TORSDOF 23
ENDMDL
MODEL 3
REMARK VINA RESULT:     -10.6      2.535      9.235
REMARK SMILES N#CCOc1ccc2[nH]cc([C@H](C(=O)OCCOCCOC(=O)c3ccc(-c4c5nc(c(-c6c(F)cc(S(=O)(=O)[O-])cc6F)c6ccc([nH]6)c(-c6c(F)cc(S(=O)(=O)[O-])cc6F)c6nc(c(-c7c(F)cc(S(=O)(=O)[O-])cc7F)c7ccc4[nH]7)C=C6)C=C5)cc3)[NH+]3CC[NH+]([C@@H]4CCS(=O)(=O)C4)CC3)c2c1
REMARK SMILES IDX 17 1 16 2 15 3 13 4 14 5 12 6 11 7 5 8 6 9 104 10 7 11
REMARK SMILES IDX 103 12 8 13 9 14 10 15 4 17 3 18 2 19 1 20 90 21 91 22
REMARK SMILES IDX 102 23 92 25 101 26 93 27 94 29 95 30 100 31 96 32 97 33
REMARK SMILES IDX 98 34 99 35 18 36 19 37 20 38 21 39 22 40 23 41 24 42 25 43
REMARK SMILES IDX 89 44 26 45 88 46 27 47 28 48 29 49 82 50 30 51 87 52 81 53
REMARK SMILES IDX 83 54 31 55 86 56 80 57 79 58 32 60 66 61 45 62 65 63 46 64
REMARK SMILES IDX 49 65 64 66 84 67 47 68 48 69 63 71 85 72 50 73 33 74 34 75
REMARK SMILES IDX 43 76 35 77 36 78 42 79 44 80 37 81 38 82 39 83 40 84 41 85
REMARK SMILES IDX 67 86 68 87 77 88 69 89 70 90 76 91 78 92 71 93 72 94 73 95
REMARK SMILES IDX 74 96 75 97 51 98 52 99 61 100 53 101 54 102 60 103 62 104
REMARK SMILES IDX 55 105 56 106 57 107 58 108 59 109
REMARK H PARENT 9 16 90 24 93 28 83 59 49 70
REMARK Flexibility Score: inf
ROOT
ATOM      1  C   UNL A   1      34.432  29.901  27.596  1.00  0.00     0.202 C 
ENDROOT
BRANCH   1   2
ATOM      2  C   UNL A   1      33.180  29.113  27.182  1.00  0.00     0.261 C 
BRANCH   2   3
ATOM      3  O   UNL A   1      33.404  27.714  26.970  1.00  0.00    -0.459 OA
BRANCH   3   4
ATOM      4  C   UNL A   1      32.279  27.025  26.612  1.00  0.00     0.370 C 
ATOM      5  O   UNL A   1      31.185  27.268  27.105  1.00  0.00    -0.245 OA
BRANCH   4   6
ATOM      6  C   UNL A   1      32.597  25.901  25.589  1.00  0.00     0.328 C 
BRANCH   6   7
ATOM      7  C   UNL A   1      32.156  24.526  26.032  1.00  0.00     0.046 A 
ATOM      8  C   UNL A   1      34.193  22.090  24.251  1.00  0.00     0.121 A 
ATOM      9  C   UNL A   1      33.214  21.087  24.266  1.00  0.00     0.048 A 
ATOM     10  C   UNL A   1      34.118  23.081  25.204  1.00  0.00     0.057 A 
ATOM     11  C   UNL A   1      32.148  21.085  25.185  1.00  0.00     0.030 A 
ATOM     12  C   UNL A   1      32.858  23.325  25.753  1.00  0.00     0.013 A 
ATOM     13  C   UNL A   1      31.932  22.295  25.825  1.00  0.00     0.046 A 
ATOM     14  N   UNL A   1      30.866  22.775  26.543  1.00  0.00    -0.361 N 
ATOM     15  C   UNL A   1      30.938  24.147  26.579  1.00  0.00     0.094 A 
ATOM     16  H   UNL A   1      30.165  22.227  26.965  1.00  0.00     0.166 HD
BRANCH   8  17
ATOM     17  O   UNL A   1      35.246  22.335  23.395  1.00  0.00    -0.479 OA
BRANCH  17  18
ATOM     18  C   UNL A   1      36.344  23.170  23.794  1.00  0.00     0.349 C 
BRANCH  18  19
ATOM     19  C   UNL A   1      37.241  22.272  24.631  1.00  0.00     0.104 C 
ATOM     20  N   UNL A   1      37.987  21.528  25.325  1.00  0.00    -0.195 NA
ENDBRANCH  18  19
ENDBRANCH  17  18
ENDBRANCH   8  17
ENDBRANCH   6   7
BRANCH   6  21
ATOM     21  N   UNL A   1      32.119  26.152  24.216  1.00  0.00    -0.310 N 
ATOM     22  C   UNL A   1      30.729  25.761  23.944  1.00  0.00     0.325 C 
ATOM     23  C   UNL A   1      32.412  27.512  23.769  1.00  0.00     0.325 C 
ATOM     24  H   UNL A   1      32.666  25.509  23.644  1.00  0.00     0.349 HD
ATOM     25  C   UNL A   1      29.616  26.831  24.066  1.00  0.00     0.324 C 
ATOM     26  C   UNL A   1      31.352  28.573  24.105  1.00  0.00     0.324 C 
ATOM     27  N   UNL A   1      29.987  28.216  23.735  1.00  0.00    -0.322 N 
ATOM     28  H   UNL A   1      29.490  28.825  24.386  1.00  0.00     0.348 HD
BRANCH  27  29
ATOM     29  C   UNL A   1      29.392  28.740  22.514  1.00  0.00     0.200 C 
ATOM     30  C   UNL A   1      30.117  29.924  21.857  1.00  0.00     0.082 C 
ATOM     31  C   UNL A   1      27.905  29.104  22.634  1.00  0.00     0.201 C 
ATOM     32  C   UNL A   1      29.529  31.219  22.384  1.00  0.00     0.143 C 
ATOM     33  S   UNL A   1      27.817  30.882  22.714  1.00  0.00     0.156 S 
ATOM     34  O   UNL A   1      27.518  31.305  24.061  1.00  0.00    -0.229 OA
ATOM     35  O   UNL A   1      27.037  31.353  21.578  1.00  0.00    -0.229 OA
ENDBRANCH  27  29
ENDBRANCH   6  21
ENDBRANCH   4   6
ENDBRANCH   3   4
ENDBRANCH   2   3
ENDBRANCH   1   2
BRANCH   1  36
ATOM     36  O   UNL A   1      34.404  31.322  27.576  1.00  0.00    -0.374 OA
BRANCH  36  37
ATOM     37  C   UNL A   1      35.206  32.062  28.490  1.00  0.00     0.202 C 
BRANCH  37  38
ATOM     38  C   UNL A   1      35.142  31.774  29.995  1.00  0.00     0.261 C 
BRANCH  38  39
ATOM     39  O   UNL A   1      36.427  31.620  30.627  1.00  0.00    -0.460 OA
BRANCH  39  40
ATOM     40  C   UNL A   1      36.946  30.370  30.549  1.00  0.00     0.338 C 
ATOM     41  O   UNL A   1      36.341  29.321  30.710  1.00  0.00    -0.246 OA
BRANCH  40  42
ATOM     42  C   UNL A   1      38.339  30.388  30.059  1.00  0.00     0.060 A 
ATOM     43  C   UNL A   1      38.546  30.070  28.708  1.00  0.00     0.016 A 
ATOM     44  C   UNL A   1      39.427  30.574  30.911  1.00  0.00     0.016 A 
ATOM     45  C   UNL A   1      39.834  29.855  28.221  1.00  0.00     0.010 A 
ATOM     46  C   UNL A   1      40.723  30.353  30.421  1.00  0.00     0.010 A 
ATOM     47  C   UNL A   1      40.930  29.943  29.086  1.00  0.00    -0.014 A 
BRANCH  47  48
ATOM     48  C   UNL A   1      42.259  29.434  28.651  1.00  0.00     0.031 A 
ATOM     49  C   UNL A   1      43.362  30.418  28.406  1.00  0.00     0.074 A 
ATOM     50  C   UNL A   1      42.517  28.120  28.516  1.00  0.00     0.049 A 
ATOM     51  N   UNL A   1      44.597  30.182  28.058  1.00  0.00    -0.248 NA
ATOM     52  C   UNL A   1      43.057  31.836  28.647  1.00  0.00     0.031 C 
ATOM     53  C   UNL A   1      41.618  27.059  28.923  1.00  0.00     0.029 A 
ATOM     54  N   UNL A   1      43.582  27.444  27.982  1.00  0.00    -0.354 N 
ATOM     55  C   UNL A   1      45.237  31.410  28.102  1.00  0.00     0.074 A 
ATOM     56  C   UNL A   1      44.234  32.403  28.426  1.00  0.00     0.031 C 
ATOM     57  C   UNL A   1      42.056  25.880  28.455  1.00  0.00     0.029 A 
ATOM     58  C   UNL A   1      43.338  26.099  27.805  1.00  0.00     0.049 A 
ATOM     59  H   UNL A   1      44.435  27.875  27.747  1.00  0.00     0.167 HD
ATOM     60  C   UNL A   1      46.554  31.669  27.939  1.00  0.00     0.037 A 
ATOM     61  C   UNL A   1      44.076  25.139  27.218  1.00  0.00     0.037 A 
ATOM     62  C   UNL A   1      47.530  30.669  27.595  1.00  0.00     0.049 A 
ATOM     63  C   UNL A   1      45.491  25.476  26.867  1.00  0.00     0.074 A 
ATOM     64  C   UNL A   1      48.892  30.822  27.414  1.00  0.00     0.029 A 
ATOM     65  N   UNL A   1      47.245  29.330  27.359  1.00  0.00    -0.354 N 
ATOM     66  N   UNL A   1      46.101  26.633  26.969  1.00  0.00    -0.248 NA
ATOM     67  C   UNL A   1      46.347  24.373  26.417  1.00  0.00     0.031 C 
ATOM     68  C   UNL A   1      49.421  29.590  27.014  1.00  0.00     0.029 A 
ATOM     69  C   UNL A   1      48.399  28.654  26.997  1.00  0.00     0.049 A 
ATOM     70  H   UNL A   1      46.353  28.921  27.438  1.00  0.00     0.167 HD
ATOM     71  C   UNL A   1      47.430  26.386  26.664  1.00  0.00     0.074 A 
ATOM     72  C   UNL A   1      47.529  24.972  26.352  1.00  0.00     0.031 C 
ATOM     73  C   UNL A   1      48.477  27.249  26.677  1.00  0.00     0.037 A 
BRANCH  60  74
ATOM     74  C   UNL A   1      46.994  33.091  28.122  1.00  0.00     0.058 A 
ATOM     75  C   UNL A   1      46.924  34.024  27.073  1.00  0.00     0.135 A 
ATOM     76  C   UNL A   1      47.494  33.527  29.357  1.00  0.00     0.135 A 
ATOM     77  F   UNL A   1      46.478  33.650  25.864  1.00  0.00    -0.206 F 
ATOM     78  C   UNL A   1      47.360  35.334  27.238  1.00  0.00     0.059 A 
ATOM     79  C   UNL A   1      47.913  34.839  29.551  1.00  0.00     0.059 A 
ATOM     80  F   UNL A   1      47.592  32.672  30.386  1.00  0.00    -0.206 F 
ATOM     81  C   UNL A   1      47.856  35.732  28.480  1.00  0.00     0.060 A 
BRANCH  81  82
ATOM     82  S   UNL A   1      48.426  37.432  28.678  1.00  0.00     0.124 S 
ATOM     83  O   UNL A   1      49.093  37.366  29.975  1.00  0.00    -0.237 OA
ATOM     84  O   UNL A   1      49.302  37.604  27.523  1.00  0.00    -0.237 OA
ATOM     85  O   UNL A   1      47.191  38.210  28.646  1.00  0.00    -0.744 OA
ENDBRANCH  81  82
ENDBRANCH  60  74
BRANCH  61  86
ATOM     86  C   UNL A   1      43.516  23.775  27.021  1.00  0.00     0.058 A 
ATOM     87  C   UNL A   1      43.015  23.357  25.782  1.00  0.00     0.135 A 
ATOM     88  C   UNL A   1      43.494  22.853  28.079  1.00  0.00     0.135 A 
ATOM     89  F   UNL A   1      43.018  24.201  24.739  1.00  0.00    -0.206 F 
ATOM     90  C   UNL A   1      42.489  22.080  25.601  1.00  0.00     0.059 A 
ATOM     91  C   UNL A   1      42.993  21.562  27.919  1.00  0.00     0.059 A 
ATOM     92  F   UNL A   1      43.961  23.208  29.287  1.00  0.00    -0.206 F 
ATOM     93  C   UNL A   1      42.482  21.189  26.677  1.00  0.00     0.060 A 
BRANCH  93  94
ATOM     94  S   UNL A   1      41.809  19.532  26.413  1.00  0.00     0.124 S 
ATOM     95  O   UNL A   1      42.484  19.133  25.182  1.00  0.00    -0.237 OA
ATOM     96  O   UNL A   1      42.233  18.835  27.624  1.00  0.00    -0.237 OA
ATOM     97  O   UNL A   1      40.372  19.758  26.297  1.00  0.00    -0.744 OA
ENDBRANCH  93  94
ENDBRANCH  61  86
BRANCH  73  98
ATOM     98  C   UNL A   1      49.828  26.672  26.372  1.00  0.00     0.058 A 
ATOM     99  C   UNL A   1      50.313  26.586  25.059  1.00  0.00     0.135 A 
ATOM    100  C   UNL A   1      50.654  26.217  27.412  1.00  0.00     0.135 A 
ATOM    101  F   UNL A   1      49.556  26.999  24.030  1.00  0.00    -0.206 F 
ATOM    102  C   UNL A   1      51.561  26.039  24.783  1.00  0.00     0.059 A 
ATOM    103  C   UNL A   1      51.917  25.694  27.162  1.00  0.00     0.059 A 
ATOM    104  F   UNL A   1      50.238  26.284  28.686  1.00  0.00    -0.206 F 
ATOM    105  C   UNL A   1      52.355  25.595  25.842  1.00  0.00     0.060 A 
BRANCH 105 106
ATOM    106  S   UNL A   1      53.980  24.905  25.472  1.00  0.00     0.124 S 
ATOM    107  O   UNL A   1      54.528  25.914  24.572  1.00  0.00    -0.237 OA
ATOM    108  O   UNL A   1      54.597  24.832  26.793  1.00  0.00    -0.237 OA
ATOM    109  O   UNL A   1      53.670  23.617  24.860  1.00  0.00    -0.744 OA
ENDBRANCH 105 106
ENDBRANCH  73  98
ENDBRANCH  47  48
ENDBRANCH  40  42
ENDBRANCH  39  40
ENDBRANCH  38  39
ENDBRANCH  37  38
ENDBRANCH  36  37
ENDBRANCH   1  36
TORSDOF 23
ENDMDL
