MODEL 1
REMARK VINA RESULT:      -9.1      0.000      0.000
REMARK SMILES COc1cccc(-c2ccc(=O)n(CC(=O)N[C@@H](C(=O)OCCOCCOC(=O)c3ccc(-c4c5nc(c(-c6c(F)cc(S(=O)(=O)[O-])cc6F)c6ccc([nH]6)c(-c6c(F)cc(S(=O)(=O)[O-])cc6F)c6nc(c(-c7c(F)cc(S(=O)(=O)[O-])cc7F)c7ccc4[nH]7)C=C6)C=C5)cc3)C(C)C)n2)c1
REMARK SMILES IDX 23 1 22 2 21 3 19 4 20 5 18 6 17 7 15 8 16 9 14 11 13 12
REMARK SMILES IDX 8 13 9 14 99 15 10 16 11 17 12 18 7 19 3 20 4 21 100 22 5 23
REMARK SMILES IDX 6 24 2 25 1 26 96 27 97 28 98 29 24 30 25 31 26 32 27 33
REMARK SMILES IDX 28 34 29 35 30 36 31 37 95 38 32 39 94 40 33 41 34 42 35 43
REMARK SMILES IDX 88 44 36 45 93 46 87 47 89 48 37 49 92 50 86 51 85 52 38 54
REMARK SMILES IDX 72 55 51 56 71 57 52 58 55 59 70 60 90 61 53 62 54 63 69 65
REMARK SMILES IDX 91 66 56 67 39 68 40 69 49 70 41 71 42 72 48 73 50 74 43 75
REMARK SMILES IDX 44 76 45 77 46 78 47 79 73 80 74 81 83 82 75 83 76 84 82 85
REMARK SMILES IDX 84 86 77 87 78 88 79 89 80 90 81 91 57 92 58 93 67 94 59 95
REMARK SMILES IDX 60 96 66 97 68 98 61 99 62 100 63 101 64 102 65 103
REMARK H PARENT 17 10 89 53 55 64
REMARK Flexibility Score: inf
ROOT
ATOM      1  C   UNL A   1      36.647  31.237  32.674  1.00  0.00     0.202 C 
ENDROOT
BRANCH   1   2
ATOM      2  C   UNL A   1      35.368  32.042  32.419  1.00  0.00     0.261 C 
BRANCH   2   3
ATOM      3  O   UNL A   1      35.327  33.293  33.120  1.00  0.00    -0.462 OA
BRANCH   3   4
ATOM      4  C   UNL A   1      35.704  34.385  32.391  1.00  0.00     0.328 C 
ATOM      5  O   UNL A   1      36.812  34.905  32.471  1.00  0.00    -0.250 OA
BRANCH   4   6
ATOM      6  C   UNL A   1      34.604  34.882  31.420  1.00  0.00     0.194 C 
BRANCH   6   7
ATOM      7  N   UNL A   1      35.035  34.930  30.011  1.00  0.00    -0.341 N 
ATOM      8  C   UNL A   1      34.577  34.227  28.936  1.00  0.00     0.242 C 
ATOM      9  O   UNL A   1      34.846  34.682  27.819  1.00  0.00    -0.273 OA
ATOM     10  H   UNL A   1      35.761  35.565  29.817  1.00  0.00     0.164 HD
BRANCH   8  11
ATOM     11  C   UNL A   1      33.637  33.035  29.110  1.00  0.00     0.248 C 
BRANCH  11  12
ATOM     12  N   UNL A   1      34.181  31.849  28.465  1.00  0.00    -0.220 N 
ATOM     13  C   UNL A   1      33.794  30.019  27.154  1.00  0.00     0.091 A 
ATOM     14  C   UNL A   1      35.181  29.538  27.300  1.00  0.00     0.036 A 
ATOM     15  N   UNL A   1      33.326  31.109  27.678  1.00  0.00    -0.169 NA
ATOM     16  C   UNL A   1      36.005  30.307  28.014  1.00  0.00     0.075 A 
ATOM     17  C   UNL A   1      35.526  31.550  28.649  1.00  0.00     0.267 A 
ATOM     18  O   UNL A   1      36.307  32.225  29.312  1.00  0.00    -0.268 OA
BRANCH  13  19
ATOM     19  C   UNL A   1      32.890  29.169  26.352  1.00  0.00     0.006 A 
ATOM     20  C   UNL A   1      31.402  28.930  24.474  1.00  0.00     0.119 A 
ATOM     21  C   UNL A   1      31.039  27.662  24.931  1.00  0.00     0.046 A 
ATOM     22  C   UNL A   1      32.303  29.704  25.203  1.00  0.00     0.056 A 
ATOM     23  C   UNL A   1      31.621  27.134  26.084  1.00  0.00     0.005 A 
ATOM     24  C   UNL A   1      32.562  27.882  26.788  1.00  0.00     0.011 A 
BRANCH  20  25
ATOM     25  O   UNL A   1      30.785  29.352  23.326  1.00  0.00    -0.497 OA
ATOM     26  C   UNL A   1      29.607  28.614  23.007  1.00  0.00     0.278 C 
ENDBRANCH  20  25
ENDBRANCH  13  19
ENDBRANCH  11  12
ENDBRANCH   8  11
ENDBRANCH   6   7
BRANCH   6  27
ATOM     27  C   UNL A   1      34.064  36.290  31.812  1.00  0.00     0.017 C 
ATOM     28  C   UNL A   1      32.843  36.655  30.953  1.00  0.00     0.010 C 
ATOM     29  C   UNL A   1      33.668  36.414  33.287  1.00  0.00     0.010 C 
ENDBRANCH   6  27
ENDBRANCH   4   6
ENDBRANCH   3   4
ENDBRANCH   2   3
ENDBRANCH   1   2
BRANCH   1  30
ATOM     30  O   UNL A   1      36.649  29.865  32.296  1.00  0.00    -0.374 OA
BRANCH  30  31
ATOM     31  C   UNL A   1      37.793  29.080  32.630  1.00  0.00     0.202 C 
BRANCH  31  32
ATOM     32  C   UNL A   1      38.499  28.305  31.512  1.00  0.00     0.261 C 
BRANCH  32  33
ATOM     33  O   UNL A   1      38.265  28.864  30.207  1.00  0.00    -0.460 OA
BRANCH  33  34
ATOM     34  C   UNL A   1      39.386  29.052  29.470  1.00  0.00     0.338 C 
ATOM     35  O   UNL A   1      39.812  28.318  28.584  1.00  0.00    -0.246 OA
BRANCH  34  36
ATOM     36  C   UNL A   1      39.977  30.378  29.721  1.00  0.00     0.060 A 
ATOM     37  C   UNL A   1      41.347  30.427  30.007  1.00  0.00     0.016 A 
ATOM     38  C   UNL A   1      39.190  31.527  29.816  1.00  0.00     0.016 A 
ATOM     39  C   UNL A   1      41.924  31.612  30.456  1.00  0.00     0.010 A 
ATOM     40  C   UNL A   1      39.772  32.716  30.278  1.00  0.00     0.010 A 
ATOM     41  C   UNL A   1      41.130  32.751  30.641  1.00  0.00    -0.014 A 
BRANCH  41  42
ATOM     42  C   UNL A   1      41.701  33.918  31.358  1.00  0.00     0.031 A 
ATOM     43  C   UNL A   1      41.586  33.987  32.857  1.00  0.00     0.074 A 
ATOM     44  C   UNL A   1      42.368  34.875  30.687  1.00  0.00     0.049 A 
ATOM     45  N   UNL A   1      42.035  34.897  33.683  1.00  0.00    -0.248 NA
ATOM     46  C   UNL A   1      40.874  32.878  33.515  1.00  0.00     0.031 C 
ATOM     47  C   UNL A   1      42.579  34.899  29.241  1.00  0.00     0.029 A 
ATOM     48  N   UNL A   1      42.992  36.010  31.139  1.00  0.00    -0.354 N 
ATOM     49  C   UNL A   1      41.663  34.474  34.954  1.00  0.00     0.074 A 
ATOM     50  C   UNL A   1      40.928  33.239  34.790  1.00  0.00     0.031 C 
ATOM     51  C   UNL A   1      43.278  36.002  28.921  1.00  0.00     0.029 A 
ATOM     52  C   UNL A   1      43.543  36.771  30.137  1.00  0.00     0.049 A 
ATOM     53  H   UNL A   1      43.040  36.256  32.091  1.00  0.00     0.167 HD
ATOM     54  C   UNL A   1      41.919  35.057  36.151  1.00  0.00     0.037 A 
ATOM     55  C   UNL A   1      44.177  37.959  30.193  1.00  0.00     0.037 A 
ATOM     56  C   UNL A   1      42.646  36.289  36.313  1.00  0.00     0.049 A 
ATOM     57  C   UNL A   1      44.398  38.619  31.529  1.00  0.00     0.074 A 
ATOM     58  C   UNL A   1      42.965  36.954  37.483  1.00  0.00     0.029 A 
ATOM     59  N   UNL A   1      43.159  37.048  35.270  1.00  0.00    -0.354 N 
ATOM     60  N   UNL A   1      44.062  38.195  32.724  1.00  0.00    -0.248 NA
ATOM     61  C   UNL A   1      45.089  39.916  31.524  1.00  0.00     0.031 C 
ATOM     62  C   UNL A   1      43.638  38.135  37.147  1.00  0.00     0.029 A 
ATOM     63  C   UNL A   1      43.776  38.183  35.769  1.00  0.00     0.049 A 
ATOM     64  H   UNL A   1      43.094  36.813  34.316  1.00  0.00     0.167 HD
ATOM     65  C   UNL A   1      44.520  39.160  33.614  1.00  0.00     0.074 A 
ATOM     66  C   UNL A   1      45.168  40.184  32.820  1.00  0.00     0.031 C 
ATOM     67  C   UNL A   1      44.419  39.193  34.966  1.00  0.00     0.037 A 
BRANCH  54  68
ATOM     68  C   UNL A   1      41.387  34.376  37.381  1.00  0.00     0.058 A 
ATOM     69  C   UNL A   1      42.154  33.440  38.095  1.00  0.00     0.135 A 
ATOM     70  C   UNL A   1      40.107  34.683  37.869  1.00  0.00     0.135 A 
ATOM     71  F   UNL A   1      43.378  33.099  37.662  1.00  0.00    -0.206 F 
ATOM     72  C   UNL A   1      41.661  32.815  39.236  1.00  0.00     0.059 A 
ATOM     73  C   UNL A   1      39.603  34.087  39.022  1.00  0.00     0.059 A 
ATOM     74  F   UNL A   1      39.332  35.570  37.225  1.00  0.00    -0.206 F 
ATOM     75  C   UNL A   1      40.382  33.144  39.690  1.00  0.00     0.060 A 
BRANCH  75  76
ATOM     76  S   UNL A   1      39.755  32.327  41.173  1.00  0.00     0.124 S 
ATOM     77  O   UNL A   1      40.900  31.507  41.561  1.00  0.00    -0.237 OA
ATOM     78  O   UNL A   1      39.459  33.453  42.052  1.00  0.00    -0.237 OA
ATOM     79  O   UNL A   1      38.592  31.590  40.690  1.00  0.00    -0.744 OA
ENDBRANCH  75  76
ENDBRANCH  54  68
BRANCH  55  80
ATOM     80  C   UNL A   1      44.646  38.606  28.940  1.00  0.00     0.058 A 
ATOM     81  C   UNL A   1      43.805  39.443  28.194  1.00  0.00     0.135 A 
ATOM     82  C   UNL A   1      45.953  38.403  28.468  1.00  0.00     0.135 A 
ATOM     83  F   UNL A   1      42.544  39.660  28.599  1.00  0.00    -0.206 F 
ATOM     84  C   UNL A   1      44.238  40.054  27.022  1.00  0.00     0.059 A 
ATOM     85  C   UNL A   1      46.417  39.020  27.311  1.00  0.00     0.059 A 
ATOM     86  F   UNL A   1      46.801  37.620  29.152  1.00  0.00    -0.206 F 
ATOM     87  C   UNL A   1      45.548  39.839  26.590  1.00  0.00     0.060 A 
BRANCH  87  88
ATOM     88  S   UNL A   1      46.125  40.690  25.105  1.00  0.00     0.124 S 
ATOM     89  O   UNL A   1      46.677  39.586  24.330  1.00  0.00    -0.237 OA
ATOM     90  O   UNL A   1      44.894  41.281  24.592  1.00  0.00    -0.237 OA
ATOM     91  O   UNL A   1      47.097  41.647  25.627  1.00  0.00    -0.744 OA
ENDBRANCH  87  88
ENDBRANCH  55  80
BRANCH  67  92
ATOM     92  C   UNL A   1      45.046  40.360  35.678  1.00  0.00     0.058 A 
ATOM     93  C   UNL A   1      46.326  40.276  36.247  1.00  0.00     0.135 A 
ATOM     94  C   UNL A   1      44.375  41.592  35.753  1.00  0.00     0.135 A 
ATOM     95  F   UNL A   1      47.008  39.120  36.207  1.00  0.00    -0.206 F 
ATOM     96  C   UNL A   1      46.909  41.365  36.888  1.00  0.00     0.059 A 
ATOM     97  C   UNL A   1      44.948  42.700  36.368  1.00  0.00     0.059 A 
ATOM     98  F   UNL A   1      43.152  41.729  35.215  1.00  0.00    -0.206 F 
ATOM     99  C   UNL A   1      46.211  42.572  36.945  1.00  0.00     0.060 A 
BRANCH  99 100
ATOM    100  S   UNL A   1      46.985  43.986  37.760  1.00  0.00     0.124 S 
ATOM    101  O   UNL A   1      48.369  43.537  37.873  1.00  0.00    -0.237 OA
ATOM    102  O   UNL A   1      46.745  45.067  36.811  1.00  0.00    -0.237 OA
ATOM    103  O   UNL A   1      46.254  44.093  39.019  1.00  0.00    -0.744 OA
ENDBRANCH  99 100
ENDBRANCH  67  92
ENDBRANCH  41  42
ENDBRANCH  34  36
ENDBRANCH  33  34
ENDBRANCH  32  33
ENDBRANCH  31  32
ENDBRANCH  30  31
ENDBRANCH   1  30
TORSDOF 23
ENDMDL
MODEL 2
REMARK VINA RESULT:      -8.9      4.731     11.617
REMARK SMILES COc1cccc(-c2ccc(=O)n(CC(=O)N[C@@H](C(=O)OCCOCCOC(=O)c3ccc(-c4c5nc(c(-c6c(F)cc(S(=O)(=O)[O-])cc6F)c6ccc([nH]6)c(-c6c(F)cc(S(=O)(=O)[O-])cc6F)c6nc(c(-c7c(F)cc(S(=O)(=O)[O-])cc7F)c7ccc4[nH]7)C=C6)C=C5)cc3)C(C)C)n2)c1
REMARK SMILES IDX 23 1 22 2 21 3 19 4 20 5 18 6 17 7 15 8 16 9 14 11 13 12
REMARK SMILES IDX 8 13 9 14 99 15 10 16 11 17 12 18 7 19 3 20 4 21 100 22 5 23
REMARK SMILES IDX 6 24 2 25 1 26 96 27 97 28 98 29 24 30 25 31 26 32 27 33
REMARK SMILES IDX 28 34 29 35 30 36 31 37 95 38 32 39 94 40 33 41 34 42 35 43
REMARK SMILES IDX 88 44 36 45 93 46 87 47 89 48 37 49 92 50 86 51 85 52 38 54
REMARK SMILES IDX 72 55 51 56 71 57 52 58 55 59 70 60 90 61 53 62 54 63 69 65
REMARK SMILES IDX 91 66 56 67 39 68 40 69 49 70 41 71 42 72 48 73 50 74 43 75
REMARK SMILES IDX 44 76 45 77 46 78 47 79 73 80 74 81 83 82 75 83 76 84 82 85
REMARK SMILES IDX 84 86 77 87 78 88 79 89 80 90 81 91 57 92 58 93 67 94 59 95
REMARK SMILES IDX 60 96 66 97 68 98 61 99 62 100 63 101 64 102 65 103
REMARK H PARENT 17 10 89 53 55 64
REMARK Flexibility Score: inf
ROOT
ATOM      1  C   UNL A   1      37.695  33.627  36.655  1.00  0.00     0.202 C 
ENDROOT
BRANCH   1   2
ATOM      2  C   UNL A   1      37.383  32.820  35.388  1.00  0.00     0.261 C 
BRANCH   2   3
ATOM      3  O   UNL A   1      38.533  32.574  34.567  1.00  0.00    -0.462 OA
BRANCH   3   4
ATOM      4  C   UNL A   1      38.413  32.956  33.261  1.00  0.00     0.328 C 
ATOM      5  O   UNL A   1      38.095  34.088  32.912  1.00  0.00    -0.250 OA
BRANCH   4   6
ATOM      6  C   UNL A   1      38.756  31.827  32.259  1.00  0.00     0.194 C 
BRANCH   6   7
ATOM      7  N   UNL A   1      37.739  30.761  32.196  1.00  0.00    -0.341 N 
ATOM      8  C   UNL A   1      37.223  30.112  31.113  1.00  0.00     0.242 C 
ATOM      9  O   UNL A   1      36.653  29.037  31.329  1.00  0.00    -0.273 OA
ATOM     10  H   UNL A   1      37.378  30.475  33.066  1.00  0.00     0.164 HD
BRANCH   8  11
ATOM     11  C   UNL A   1      37.489  30.606  29.692  1.00  0.00     0.248 C 
BRANCH  11  12
ATOM     12  N   UNL A   1      36.287  31.190  29.114  1.00  0.00    -0.220 N 
ATOM     13  C   UNL A   1      34.743  32.872  29.169  1.00  0.00     0.091 A 
ATOM     14  C   UNL A   1      33.949  32.268  28.082  1.00  0.00     0.036 A 
ATOM     15  N   UNL A   1      35.848  32.384  29.642  1.00  0.00    -0.169 NA
ATOM     16  C   UNL A   1      34.431  31.145  27.546  1.00  0.00     0.075 A 
ATOM     17  C   UNL A   1      35.674  30.533  28.053  1.00  0.00     0.267 A 
ATOM     18  O   UNL A   1      36.080  29.492  27.548  1.00  0.00    -0.268 OA
BRANCH  13  19
ATOM     19  C   UNL A   1      34.210  34.121  29.749  1.00  0.00     0.006 A 
ATOM     20  C   UNL A   1      33.749  35.466  31.693  1.00  0.00     0.119 A 
ATOM     21  C   UNL A   1      33.049  36.371  30.893  1.00  0.00     0.046 A 
ATOM     22  C   UNL A   1      34.303  34.318  31.130  1.00  0.00     0.056 A 
ATOM     23  C   UNL A   1      32.952  36.167  29.516  1.00  0.00     0.005 A 
ATOM     24  C   UNL A   1      33.549  35.049  28.939  1.00  0.00     0.011 A 
BRANCH  20  25
ATOM     25  O   UNL A   1      33.799  35.762  33.030  1.00  0.00    -0.497 OA
ATOM     26  C   UNL A   1      34.869  35.117  33.718  1.00  0.00     0.278 C 
ENDBRANCH  20  25
ENDBRANCH  13  19
ENDBRANCH  11  12
ENDBRANCH   8  11
ENDBRANCH   6   7
BRANCH   6  27
ATOM     27  C   UNL A   1      40.134  31.166  32.563  1.00  0.00     0.017 C 
ATOM     28  C   UNL A   1      39.952  29.940  33.473  1.00  0.00     0.010 C 
ATOM     29  C   UNL A   1      40.900  30.726  31.312  1.00  0.00     0.010 C 
ENDBRANCH   6  27
ENDBRANCH   4   6
ENDBRANCH   3   4
ENDBRANCH   2   3
ENDBRANCH   1   2
BRANCH   1  30
ATOM     30  O   UNL A   1      37.668  32.936  37.899  1.00  0.00    -0.374 OA
BRANCH  30  31
ATOM     31  C   UNL A   1      38.700  33.219  38.844  1.00  0.00     0.202 C 
BRANCH  31  32
ATOM     32  C   UNL A   1      38.934  34.677  39.254  1.00  0.00     0.261 C 
BRANCH  32  33
ATOM     33  O   UNL A   1      40.284  35.117  39.022  1.00  0.00    -0.460 OA
BRANCH  33  34
ATOM     34  C   UNL A   1      40.391  36.185  38.197  1.00  0.00     0.338 C 
ATOM     35  O   UNL A   1      40.063  37.340  38.448  1.00  0.00    -0.246 OA
BRANCH  34  36
ATOM     36  C   UNL A   1      41.142  35.846  36.976  1.00  0.00     0.060 A 
ATOM     37  C   UNL A   1      40.400  35.555  35.825  1.00  0.00     0.016 A 
ATOM     38  C   UNL A   1      42.528  35.677  36.988  1.00  0.00     0.016 A 
ATOM     39  C   UNL A   1      41.032  35.028  34.701  1.00  0.00     0.010 A 
ATOM     40  C   UNL A   1      43.160  35.136  35.860  1.00  0.00     0.010 A 
ATOM     41  C   UNL A   1      42.408  34.770  34.729  1.00  0.00    -0.014 A 
BRANCH  41  42
ATOM     42  C   UNL A   1      43.014  33.977  33.631  1.00  0.00     0.031 A 
ATOM     43  C   UNL A   1      43.383  34.667  32.345  1.00  0.00     0.074 A 
ATOM     44  C   UNL A   1      43.287  32.671  33.799  1.00  0.00     0.049 A 
ATOM     45  N   UNL A   1      43.946  34.175  31.271  1.00  0.00    -0.248 NA
ATOM     46  C   UNL A   1      43.084  36.106  32.260  1.00  0.00     0.031 C 
ATOM     47  C   UNL A   1      43.011  31.901  35.010  1.00  0.00     0.029 A 
ATOM     48  N   UNL A   1      43.861  31.763  32.945  1.00  0.00    -0.354 N 
ATOM     49  C   UNL A   1      44.070  35.239  30.385  1.00  0.00     0.074 A 
ATOM     50  C   UNL A   1      43.499  36.399  31.035  1.00  0.00     0.031 C 
ATOM     51  C   UNL A   1      43.409  30.631  34.820  1.00  0.00     0.029 A 
ATOM     52  C   UNL A   1      43.946  30.494  33.466  1.00  0.00     0.049 A 
ATOM     53  H   UNL A   1      44.182  31.998  32.044  1.00  0.00     0.167 HD
ATOM     54  C   UNL A   1      44.618  35.251  29.146  1.00  0.00     0.037 A 
ATOM     55  C   UNL A   1      44.393  29.351  32.909  1.00  0.00     0.037 A 
ATOM     56  C   UNL A   1      45.180  34.095  28.497  1.00  0.00     0.049 A 
ATOM     57  C   UNL A   1      44.942  29.376  31.507  1.00  0.00     0.074 A 
ATOM     58  C   UNL A   1      45.768  34.008  27.247  1.00  0.00     0.029 A 
ATOM     59  N   UNL A   1      45.217  32.821  29.045  1.00  0.00    -0.354 N 
ATOM     60  N   UNL A   1      45.075  30.394  30.691  1.00  0.00    -0.248 NA
ATOM     61  C   UNL A   1      45.409  28.098  30.952  1.00  0.00     0.031 C 
ATOM     62  C   UNL A   1      46.124  32.673  27.023  1.00  0.00     0.029 A 
ATOM     63  C   UNL A   1      45.799  31.938  28.150  1.00  0.00     0.049 A 
ATOM     64  H   UNL A   1      44.878  32.580  29.937  1.00  0.00     0.167 HD
ATOM     65  C   UNL A   1      45.660  29.885  29.536  1.00  0.00     0.074 A 
ATOM     66  C   UNL A   1      45.866  28.469  29.765  1.00  0.00     0.031 C 
ATOM     67  C   UNL A   1      46.000  30.530  28.393  1.00  0.00     0.037 A 
BRANCH  54  68
ATOM     68  C   UNL A   1      44.614  36.556  28.399  1.00  0.00     0.058 A 
ATOM     69  C   UNL A   1      45.712  37.431  28.440  1.00  0.00     0.135 A 
ATOM     70  C   UNL A   1      43.513  36.924  27.611  1.00  0.00     0.135 A 
ATOM     71  F   UNL A   1      46.785  37.135  29.191  1.00  0.00    -0.206 F 
ATOM     72  C   UNL A   1      45.708  38.636  27.744  1.00  0.00     0.059 A 
ATOM     73  C   UNL A   1      43.496  38.114  26.888  1.00  0.00     0.059 A 
ATOM     74  F   UNL A   1      42.437  36.124  27.537  1.00  0.00    -0.206 F 
ATOM     75  C   UNL A   1      44.593  38.969  26.972  1.00  0.00     0.060 A 
BRANCH  75  76
ATOM     76  S   UNL A   1      44.602  40.535  26.073  1.00  0.00     0.124 S 
ATOM     77  O   UNL A   1      44.865  41.488  27.148  1.00  0.00    -0.237 OA
ATOM     78  O   UNL A   1      45.688  40.344  25.118  1.00  0.00    -0.237 OA
ATOM     79  O   UNL A   1      43.265  40.600  25.491  1.00  0.00    -0.744 OA
ENDBRANCH  75  76
ENDBRANCH  54  68
BRANCH  55  80
ATOM     80  C   UNL A   1      44.335  28.082  33.679  1.00  0.00     0.058 A 
ATOM     81  C   UNL A   1      45.398  27.678  34.497  1.00  0.00     0.135 A 
ATOM     82  C   UNL A   1      43.204  27.251  33.616  1.00  0.00     0.135 A 
ATOM     83  F   UNL A   1      46.504  28.433  34.582  1.00  0.00    -0.206 F 
ATOM     84  C   UNL A   1      45.349  26.492  35.223  1.00  0.00     0.059 A 
ATOM     85  C   UNL A   1      43.122  26.072  34.350  1.00  0.00     0.059 A 
ATOM     86  F   UNL A   1      42.154  27.599  32.856  1.00  0.00    -0.206 F 
ATOM     87  C   UNL A   1      44.204  25.697  35.146  1.00  0.00     0.060 A 
BRANCH  87  88
ATOM     88  S   UNL A   1      44.119  24.195  36.145  1.00  0.00     0.124 S 
ATOM     89  O   UNL A   1      43.800  24.734  37.461  1.00  0.00    -0.237 OA
ATOM     90  O   UNL A   1      43.054  23.447  35.483  1.00  0.00    -0.237 OA
ATOM     91  O   UNL A   1      45.454  23.623  35.999  1.00  0.00    -0.744 OA
ENDBRANCH  87  88
ENDBRANCH  55  80
BRANCH  67  92
ATOM     92  C   UNL A   1      46.657  29.720  27.310  1.00  0.00     0.058 A 
ATOM     93  C   UNL A   1      48.049  29.560  27.250  1.00  0.00     0.135 A 
ATOM     94  C   UNL A   1      45.879  29.058  26.346  1.00  0.00     0.135 A 
ATOM     95  F   UNL A   1      48.840  30.176  28.144  1.00  0.00    -0.206 F 
ATOM     96  C   UNL A   1      48.651  28.793  26.256  1.00  0.00     0.059 A 
ATOM     97  C   UNL A   1      46.457  28.266  25.359  1.00  0.00     0.059 A 
ATOM     98  F   UNL A   1      44.541  29.168  26.366  1.00  0.00    -0.206 F 
ATOM     99  C   UNL A   1      47.846  28.151  25.314  1.00  0.00     0.060 A 
BRANCH  99 100
ATOM    100  S   UNL A   1      48.634  27.140  24.041  1.00  0.00     0.124 S 
ATOM    101  O   UNL A   1      47.715  27.312  22.921  1.00  0.00    -0.237 OA
ATOM    102  O   UNL A   1      49.938  27.778  23.895  1.00  0.00    -0.237 OA
ATOM    103  O   UNL A   1      48.659  25.807  24.635  1.00  0.00    -0.744 OA
ENDBRANCH  99 100
ENDBRANCH  67  92
ENDBRANCH  41  42
ENDBRANCH  34  36
ENDBRANCH  33  34
ENDBRANCH  32  33
ENDBRANCH  31  32
ENDBRANCH  30  31
ENDBRANCH   1  30
TORSDOF 23
ENDMDL
MODEL 3
REMARK VINA RESULT:      -8.8      9.286     14.827
REMARK SMILES COc1cccc(-c2ccc(=O)n(CC(=O)N[C@@H](C(=O)OCCOCCOC(=O)c3ccc(-c4c5nc(c(-c6c(F)cc(S(=O)(=O)[O-])cc6F)c6ccc([nH]6)c(-c6c(F)cc(S(=O)(=O)[O-])cc6F)c6nc(c(-c7c(F)cc(S(=O)(=O)[O-])cc7F)c7ccc4[nH]7)C=C6)C=C5)cc3)C(C)C)n2)c1
REMARK SMILES IDX 23 1 22 2 21 3 19 4 20 5 18 6 17 7 15 8 16 9 14 11 13 12
REMARK SMILES IDX 8 13 9 14 99 15 10 16 11 17 12 18 7 19 3 20 4 21 100 22 5 23
REMARK SMILES IDX 6 24 2 25 1 26 96 27 97 28 98 29 24 30 25 31 26 32 27 33
REMARK SMILES IDX 28 34 29 35 30 36 31 37 95 38 32 39 94 40 33 41 34 42 35 43
REMARK SMILES IDX 88 44 36 45 93 46 87 47 89 48 37 49 92 50 86 51 85 52 38 54
REMARK SMILES IDX 72 55 51 56 71 57 52 58 55 59 70 60 90 61 53 62 54 63 69 65
REMARK SMILES IDX 91 66 56 67 39 68 40 69 49 70 41 71 42 72 48 73 50 74 43 75
REMARK SMILES IDX 44 76 45 77 46 78 47 79 73 80 74 81 83 82 75 83 76 84 82 85
REMARK SMILES IDX 84 86 77 87 78 88 79 89 80 90 81 91 57 92 58 93 67 94 59 95
REMARK SMILES IDX 60 96 66 97 68 98 61 99 62 100 63 101 64 102 65 103
REMARK H PARENT 17 10 89 53 55 64
REMARK Flexibility Score: inf
ROOT
ATOM      1  C   UNL A   1      54.838  22.519  35.088  1.00  0.00     0.202 C 
ENDROOT
BRANCH   1   2
ATOM      2  C   UNL A   1      53.719  21.720  35.766  1.00  0.00     0.261 C 
BRANCH   2   3
ATOM      3  O   UNL A   1      53.775  20.312  35.497  1.00  0.00    -0.462 OA
BRANCH   3   4
ATOM      4  C   UNL A   1      52.696  19.800  34.835  1.00  0.00     0.328 C 
ATOM      5  O   UNL A   1      52.761  18.844  34.068  1.00  0.00    -0.250 OA
BRANCH   4   6
ATOM      6  C   UNL A   1      51.368  20.521  35.177  1.00  0.00     0.194 C 
BRANCH   6   7
ATOM      7  N   UNL A   1      50.525  19.787  36.137  1.00  0.00    -0.341 N 
ATOM      8  C   UNL A   1      49.699  20.262  37.112  1.00  0.00     0.242 C 
ATOM      9  O   UNL A   1      48.847  19.481  37.548  1.00  0.00    -0.273 OA
ATOM     10  H   UNL A   1      50.565  18.806  36.064  1.00  0.00     0.164 HD
BRANCH   8  11
ATOM     11  C   UNL A   1      49.717  21.735  37.517  1.00  0.00     0.248 C 
BRANCH  11  12
ATOM     12  N   UNL A   1      48.367  22.219  37.769  1.00  0.00    -0.220 N 
ATOM     13  C   UNL A   1      46.405  22.999  36.899  1.00  0.00     0.091 A 
ATOM     14  C   UNL A   1      45.825  23.227  38.236  1.00  0.00     0.036 A 
ATOM     15  N   UNL A   1      47.585  22.509  36.674  1.00  0.00    -0.169 NA
ATOM     16  C   UNL A   1      46.580  22.878  39.279  1.00  0.00     0.075 A 
ATOM     17  C   UNL A   1      47.938  22.331  39.086  1.00  0.00     0.267 A 
ATOM     18  O   UNL A   1      48.611  22.036  40.069  1.00  0.00    -0.268 OA
BRANCH  13  19
ATOM     19  C   UNL A   1      45.559  23.376  35.748  1.00  0.00     0.006 A 
ATOM     20  C   UNL A   1      43.584  24.464  34.902  1.00  0.00     0.119 A 
ATOM     21  C   UNL A   1      43.846  23.939  33.634  1.00  0.00     0.046 A 
ATOM     22  C   UNL A   1      44.421  24.154  35.973  1.00  0.00     0.056 A 
ATOM     23  C   UNL A   1      44.980  23.155  33.416  1.00  0.00     0.005 A 
ATOM     24  C   UNL A   1      45.849  22.886  34.471  1.00  0.00     0.011 A 
BRANCH  20  25
ATOM     25  O   UNL A   1      42.455  25.231  35.010  1.00  0.00    -0.497 OA
ATOM     26  C   UNL A   1      41.578  24.812  36.054  1.00  0.00     0.278 C 
ENDBRANCH  20  25
ENDBRANCH  13  19
ENDBRANCH  11  12
ENDBRANCH   8  11
ENDBRANCH   6   7
BRANCH   6  27
ATOM     27  C   UNL A   1      50.515  20.817  33.907  1.00  0.00     0.017 C 
ATOM     28  C   UNL A   1      49.347  19.822  33.802  1.00  0.00     0.010 C 
ATOM     29  C   UNL A   1      49.942  22.237  33.863  1.00  0.00     0.010 C 
ENDBRANCH   6  27
ENDBRANCH   4   6
ENDBRANCH   3   4
ENDBRANCH   2   3
ENDBRANCH   1   2
BRANCH   1  30
ATOM     30  O   UNL A   1      54.614  22.965  33.755  1.00  0.00    -0.374 OA
BRANCH  30  31
ATOM     31  C   UNL A   1      54.300  24.343  33.554  1.00  0.00     0.202 C 
BRANCH  31  32
ATOM     32  C   UNL A   1      52.847  24.725  33.249  1.00  0.00     0.261 C 
BRANCH  32  33
ATOM     33  O   UNL A   1      52.342  25.755  34.117  1.00  0.00    -0.460 OA
BRANCH  33  34
ATOM     34  C   UNL A   1      51.371  25.344  34.966  1.00  0.00     0.338 C 
ATOM     35  O   UNL A   1      51.501  24.566  35.906  1.00  0.00    -0.246 OA
BRANCH  34  36
ATOM     36  C   UNL A   1      50.122  26.097  34.758  1.00  0.00     0.060 A 
ATOM     37  C   UNL A   1      48.939  25.524  35.241  1.00  0.00     0.016 A 
ATOM     38  C   UNL A   1      50.085  27.260  33.986  1.00  0.00     0.016 A 
ATOM     39  C   UNL A   1      47.706  26.075  34.898  1.00  0.00     0.010 A 
ATOM     40  C   UNL A   1      48.843  27.806  33.634  1.00  0.00     0.010 A 
ATOM     41  C   UNL A   1      47.649  27.190  34.052  1.00  0.00    -0.014 A 
BRANCH  41  42
ATOM     42  C   UNL A   1      46.338  27.603  33.493  1.00  0.00     0.031 A 
ATOM     43  C   UNL A   1      45.589  28.739  34.138  1.00  0.00     0.074 A 
ATOM     44  C   UNL A   1      45.848  27.013  32.387  1.00  0.00     0.049 A 
ATOM     45  N   UNL A   1      44.447  29.278  33.799  1.00  0.00    -0.248 NA
ATOM     46  C   UNL A   1      46.216  29.353  35.320  1.00  0.00     0.031 C 
ATOM     47  C   UNL A   1      46.498  25.930  31.652  1.00  0.00     0.029 A 
ATOM     48  N   UNL A   1      44.690  27.247  31.691  1.00  0.00    -0.354 N 
ATOM     49  C   UNL A   1      44.217  30.293  34.721  1.00  0.00     0.074 A 
ATOM     50  C   UNL A   1      45.325  30.277  35.651  1.00  0.00     0.031 C 
ATOM     51  C   UNL A   1      45.723  25.585  30.609  1.00  0.00     0.029 A 
ATOM     52  C   UNL A   1      44.514  26.408  30.617  1.00  0.00     0.049 A 
ATOM     53  H   UNL A   1      44.045  27.950  31.937  1.00  0.00     0.167 HD
ATOM     54  C   UNL A   1      43.181  31.165  34.781  1.00  0.00     0.037 A 
ATOM     55  C   UNL A   1      43.488  26.307  29.749  1.00  0.00     0.037 A 
ATOM     56  C   UNL A   1      42.076  31.175  33.859  1.00  0.00     0.049 A 
ATOM     57  C   UNL A   1      42.318  27.247  29.872  1.00  0.00     0.074 A 
ATOM     58  C   UNL A   1      40.984  32.025  33.831  1.00  0.00     0.029 A 
ATOM     59  N   UNL A   1      41.917  30.287  32.804  1.00  0.00    -0.354 N 
ATOM     60  N   UNL A   1      42.126  28.217  30.734  1.00  0.00    -0.248 NA
ATOM     61  C   UNL A   1      41.227  27.083  28.900  1.00  0.00     0.031 C 
ATOM     62  C   UNL A   1      40.145  31.626  32.783  1.00  0.00     0.029 A 
ATOM     63  C   UNL A   1      40.736  30.556  32.132  1.00  0.00     0.049 A 
ATOM     64  H   UNL A   1      42.551  29.571  32.569  1.00  0.00     0.167 HD
ATOM     65  C   UNL A   1      40.906  28.793  30.396  1.00  0.00     0.074 A 
ATOM     66  C   UNL A   1      40.411  28.070  29.242  1.00  0.00     0.031 C 
ATOM     67  C   UNL A   1      40.257  29.829  30.983  1.00  0.00     0.037 A 
BRANCH  54  68
ATOM     68  C   UNL A   1      43.185  32.168  35.901  1.00  0.00     0.058 A 
ATOM     69  C   UNL A   1      42.676  31.855  37.172  1.00  0.00     0.135 A 
ATOM     70  C   UNL A   1      43.730  33.447  35.711  1.00  0.00     0.135 A 
ATOM     71  F   UNL A   1      42.129  30.651  37.404  1.00  0.00    -0.206 F 
ATOM     72  C   UNL A   1      42.686  32.783  38.208  1.00  0.00     0.059 A 
ATOM     73  C   UNL A   1      43.771  34.385  36.739  1.00  0.00     0.059 A 
ATOM     74  F   UNL A   1      44.229  33.799  34.515  1.00  0.00    -0.206 F 
ATOM     75  C   UNL A   1      43.233  34.047  37.981  1.00  0.00     0.060 A 
BRANCH  75  76
ATOM     76  S   UNL A   1      43.241  35.243  39.334  1.00  0.00     0.124 S 
ATOM     77  O   UNL A   1      42.683  36.425  38.682  1.00  0.00    -0.237 OA
ATOM     78  O   UNL A   1      42.382  34.602  40.325  1.00  0.00    -0.237 OA
ATOM     79  O   UNL A   1      44.652  35.335  39.698  1.00  0.00    -0.744 OA
ENDBRANCH  75  76
ENDBRANCH  54  68
BRANCH  55  80
ATOM     80  C   UNL A   1      43.519  25.268  28.686  1.00  0.00     0.058 A 
ATOM     81  C   UNL A   1      43.236  23.926  28.971  1.00  0.00     0.135 A 
ATOM     82  C   UNL A   1      43.828  25.605  27.358  1.00  0.00     0.135 A 
ATOM     83  F   UNL A   1      42.945  23.554  30.227  1.00  0.00    -0.206 F 
ATOM     84  C   UNL A   1      43.261  22.950  27.980  1.00  0.00     0.059 A 
ATOM     85  C   UNL A   1      43.838  24.652  26.346  1.00  0.00     0.059 A 
ATOM     86  F   UNL A   1      44.097  26.878  27.031  1.00  0.00    -0.206 F 
ATOM     87  C   UNL A   1      43.560  23.323  26.669  1.00  0.00     0.060 A 
BRANCH  87  88
ATOM     88  S   UNL A   1      43.523  22.063  25.375  1.00  0.00     0.124 S 
ATOM     89  O   UNL A   1      42.274  21.373  25.673  1.00  0.00    -0.237 OA
ATOM     90  O   UNL A   1      43.536  22.871  24.160  1.00  0.00    -0.237 OA
ATOM     91  O   UNL A   1      44.743  21.300  25.620  1.00  0.00    -0.744 OA
ENDBRANCH  87  88
ENDBRANCH  55  80
BRANCH  67  92
ATOM     92  C   UNL A   1      38.954  30.263  30.372  1.00  0.00     0.058 A 
ATOM     93  C   UNL A   1      37.756  29.579  30.626  1.00  0.00     0.135 A 
ATOM     94  C   UNL A   1      38.896  31.407  29.558  1.00  0.00     0.135 A 
ATOM     95  F   UNL A   1      37.756  28.477  31.393  1.00  0.00    -0.206 F 
ATOM     96  C   UNL A   1      36.549  29.997  30.073  1.00  0.00     0.059 A 
ATOM     97  C   UNL A   1      37.697  31.856  29.015  1.00  0.00     0.059 A 
ATOM     98  F   UNL A   1      40.012  32.105  29.293  1.00  0.00    -0.206 F 
ATOM     99  C   UNL A   1      36.530  31.136  29.267  1.00  0.00     0.060 A 
BRANCH  99 100
ATOM    100  S   UNL A   1      34.955  31.684  28.572  1.00  0.00     0.124 S 
ATOM    101  O   UNL A   1      34.259  32.160  29.762  1.00  0.00    -0.237 OA
ATOM    102  O   UNL A   1      35.370  32.714  27.626  1.00  0.00    -0.237 OA
ATOM    103  O   UNL A   1      34.411  30.471  27.969  1.00  0.00    -0.744 OA
ENDBRANCH  99 100
ENDBRANCH  67  92
ENDBRANCH  41  42
ENDBRANCH  34  36
ENDBRANCH  33  34
ENDBRANCH  32  33
ENDBRANCH  31  32
ENDBRANCH  30  31
ENDBRANCH   1  30
TORSDOF 23
ENDMDL
