MODEL 1
REMARK VINA RESULT:     -13.1      0.000      0.000
REMARK SMILES C[C@]12C(=O)N(c3ccc(C(=O)OCCOCCOC(=O)c4ccc(-c5c6nc(c(-c7c(F)cc(S(=O)(=O)[O-])cc7F)c7ccc([nH]7)c(-c7c(F)cc(S(=O)(=O)[O-])cc7F)c7nc(c(-c8c(F)cc(S(=O)(=O)[O-])cc8F)c8ccc5[nH]8)C=C7)C=C6)cc4)cc3)C(=O)[C@H]1[C@H]1c3ccccc3[C@@H]2c2ccccc21
REMARK SMILES IDX 16 1 15 2 14 3 13 4 12 5 10 6 11 7 9 8 6 9 7 10 88 11 8 12
REMARK SMILES IDX 87 13 5 14 1 15 2 16 3 17 91 18 99 19 4 20 89 21 92 22 98 23
REMARK SMILES IDX 100 24 90 25 93 26 105 27 97 28 101 29 94 30 104 31 96 32
REMARK SMILES IDX 102 33 95 34 103 35 17 36 18 37 19 38 20 39 21 40 22 41
REMARK SMILES IDX 86 42 23 43 85 44 24 45 25 46 26 47 79 48 27 49 84 50 78 51
REMARK SMILES IDX 80 52 28 53 83 54 77 55 76 56 29 58 63 59 42 60 62 61 43 62
REMARK SMILES IDX 46 63 61 64 81 65 44 66 45 67 60 69 82 70 47 71 30 72 31 73
REMARK SMILES IDX 40 74 32 75 33 76 39 77 41 78 34 79 35 80 36 81 37 82 38 83
REMARK SMILES IDX 64 84 65 85 74 86 66 87 67 88 73 89 75 90 68 91 69 92 70 93
REMARK SMILES IDX 71 94 72 95 48 96 49 97 58 98 50 99 51 100 57 101 59 102
REMARK SMILES IDX 52 103 53 104 54 105 55 106 56 107
REMARK H PARENT 80 57 46 68
REMARK Flexibility Score: inf
ROOT
ATOM      1  C   UNL A   1      41.266  21.100  26.476  1.00  0.00     0.202 C 
ENDROOT
BRANCH   1   2
ATOM      2  O   UNL A   1      39.925  20.756  26.140  1.00  0.00    -0.374 OA
BRANCH   2   3
ATOM      3  C   UNL A   1      38.967  21.808  26.028  1.00  0.00     0.202 C 
BRANCH   3   4
ATOM      4  C   UNL A   1      37.904  21.707  24.927  1.00  0.00     0.261 C 
BRANCH   4   5
ATOM      5  O   UNL A   1      36.896  22.727  25.039  1.00  0.00    -0.460 OA
BRANCH   5   6
ATOM      6  C   UNL A   1      35.722  22.295  25.555  1.00  0.00     0.338 C 
ATOM      7  O   UNL A   1      35.562  21.478  26.449  1.00  0.00    -0.246 OA
BRANCH   6   8
ATOM      8  C   UNL A   1      34.604  23.123  25.064  1.00  0.00     0.060 A 
ATOM      9  C   UNL A   1      32.387  24.783  24.547  1.00  0.00     0.052 A 
ATOM     10  C   UNL A   1      33.559  25.291  25.140  1.00  0.00     0.028 A 
ATOM     11  C   UNL A   1      32.398  23.447  24.116  1.00  0.00     0.028 A 
ATOM     12  C   UNL A   1      34.639  24.467  25.430  1.00  0.00     0.018 A 
ATOM     13  C   UNL A   1      33.514  22.619  24.355  1.00  0.00     0.018 A 
BRANCH   9  14
ATOM     14  N   UNL A   1      31.199  25.553  24.639  1.00  0.00    -0.250 N 
ATOM     15  C   UNL A   1      28.221  26.961  23.878  1.00  0.00     0.024 C 
ATOM     16  C   UNL A   1      29.753  27.117  23.785  1.00  0.00     0.071 C 
ATOM     17  C   UNL A   1      30.332  25.746  23.620  1.00  0.00     0.241 C 
ATOM     18  C   UNL A   1      30.294  27.734  25.159  1.00  0.00     0.107 C 
ATOM     19  C   UNL A   1      30.233  27.890  22.500  1.00  0.00     0.066 C 
ATOM     20  O   UNL A   1      30.022  24.984  22.713  1.00  0.00    -0.273 OA
ATOM     21  C   UNL A   1      30.786  26.333  25.679  1.00  0.00     0.238 C 
ATOM     22  C   UNL A   1      30.857  29.168  24.685  1.00  0.00     0.063 C 
ATOM     23  C   UNL A   1      31.744  28.113  22.651  1.00  0.00    -0.036 A 
ATOM     24  C   UNL A   1      29.577  29.253  22.581  1.00  0.00    -0.036 A 
ATOM     25  O   UNL A   1      30.757  26.018  26.865  1.00  0.00    -0.274 OA
ATOM     26  C   UNL A   1      32.083  28.833  23.821  1.00  0.00    -0.036 A 
ATOM     27  C   UNL A   1      29.874  29.927  23.787  1.00  0.00    -0.036 A 
ATOM     28  C   UNL A   1      32.740  27.597  21.836  1.00  0.00     0.005 A 
ATOM     29  C   UNL A   1      28.812  29.842  21.584  1.00  0.00     0.005 A 
ATOM     30  C   UNL A   1      33.408  29.025  24.192  1.00  0.00     0.004 A 
ATOM     31  C   UNL A   1      29.406  31.218  23.984  1.00  0.00     0.004 A 
ATOM     32  C   UNL A   1      34.075  27.779  22.215  1.00  0.00     0.000 A 
ATOM     33  C   UNL A   1      28.341  31.136  21.791  1.00  0.00     0.000 A 
ATOM     34  C   UNL A   1      34.405  28.485  23.382  1.00  0.00     0.000 A 
ATOM     35  C   UNL A   1      28.637  31.819  22.980  1.00  0.00     0.000 A 
ENDBRANCH   9  14
ENDBRANCH   6   8
ENDBRANCH   5   6
ENDBRANCH   4   5
ENDBRANCH   3   4
ENDBRANCH   2   3
ENDBRANCH   1   2
BRANCH   1  36
ATOM     36  C   UNL A   1      41.841  22.422  25.949  1.00  0.00     0.261 C 
BRANCH  36  37
ATOM     37  O   UNL A   1      41.928  23.454  26.942  1.00  0.00    -0.460 OA
BRANCH  37  38
ATOM     38  C   UNL A   1      42.121  24.705  26.450  1.00  0.00     0.338 C 
ATOM     39  O   UNL A   1      42.359  25.015  25.293  1.00  0.00    -0.246 OA
BRANCH  38  40
ATOM     40  C   UNL A   1      41.811  25.693  27.501  1.00  0.00     0.060 A 
ATOM     41  C   UNL A   1      40.718  25.526  28.353  1.00  0.00     0.016 A 
ATOM     42  C   UNL A   1      42.657  26.801  27.637  1.00  0.00     0.016 A 
ATOM     43  C   UNL A   1      40.480  26.474  29.353  1.00  0.00     0.010 A 
ATOM     44  C   UNL A   1      42.415  27.746  28.634  1.00  0.00     0.010 A 
ATOM     45  C   UNL A   1      41.329  27.586  29.506  1.00  0.00    -0.014 A 
BRANCH  45  46
ATOM     46  C   UNL A   1      41.127  28.540  30.627  1.00  0.00     0.031 A 
ATOM     47  C   UNL A   1      42.010  28.510  31.840  1.00  0.00     0.074 A 
ATOM     48  C   UNL A   1      40.119  29.428  30.550  1.00  0.00     0.049 A 
ATOM     49  N   UNL A   1      41.991  29.289  32.892  1.00  0.00    -0.248 NA
ATOM     50  C   UNL A   1      43.044  27.465  31.883  1.00  0.00     0.031 C 
ATOM     51  C   UNL A   1      39.179  29.535  29.433  1.00  0.00     0.029 A 
ATOM     52  N   UNL A   1      39.720  30.410  31.419  1.00  0.00    -0.354 N 
ATOM     53  C   UNL A   1      43.021  28.848  33.713  1.00  0.00     0.074 A 
ATOM     54  C   UNL A   1      43.606  27.693  33.062  1.00  0.00     0.031 C 
ATOM     55  C   UNL A   1      38.332  30.548  29.670  1.00  0.00     0.029 A 
ATOM     56  C   UNL A   1      38.645  31.140  30.969  1.00  0.00     0.049 A 
ATOM     57  H   UNL A   1      40.160  30.578  32.283  1.00  0.00     0.167 HD
ATOM     58  C   UNL A   1      43.450  29.371  34.889  1.00  0.00     0.037 A 
ATOM     59  C   UNL A   1      37.985  32.168  31.536  1.00  0.00     0.037 A 
ATOM     60  C   UNL A   1      42.844  30.505  35.543  1.00  0.00     0.049 A 
ATOM     61  C   UNL A   1      38.439  32.689  32.871  1.00  0.00     0.074 A 
ATOM     62  C   UNL A   1      43.222  31.119  36.725  1.00  0.00     0.029 A 
ATOM     63  N   UNL A   1      41.725  31.185  35.084  1.00  0.00    -0.354 N 
ATOM     64  N   UNL A   1      39.450  32.296  33.610  1.00  0.00    -0.248 NA
ATOM     65  C   UNL A   1      37.661  33.792  33.450  1.00  0.00     0.031 C 
ATOM     66  C   UNL A   1      42.299  32.134  37.008  1.00  0.00     0.029 A 
ATOM     67  C   UNL A   1      41.378  32.191  35.974  1.00  0.00     0.049 A 
ATOM     68  H   UNL A   1      41.246  30.983  34.247  1.00  0.00     0.167 HD
ATOM     69  C   UNL A   1      39.437  33.112  34.735  1.00  0.00     0.074 A 
ATOM     70  C   UNL A   1      38.334  34.037  34.566  1.00  0.00     0.031 C 
ATOM     71  C   UNL A   1      40.263  33.093  35.813  1.00  0.00     0.037 A 
BRANCH  58  72
ATOM     72  C   UNL A   1      44.637  28.716  35.545  1.00  0.00     0.058 A 
ATOM     73  C   UNL A   1      44.479  27.681  36.482  1.00  0.00     0.135 A 
ATOM     74  C   UNL A   1      45.947  29.099  35.213  1.00  0.00     0.135 A 
ATOM     75  F   UNL A   1      43.250  27.279  36.845  1.00  0.00    -0.206 F 
ATOM     76  C   UNL A   1      45.573  27.077  37.093  1.00  0.00     0.059 A 
ATOM     77  C   UNL A   1      47.058  28.488  35.791  1.00  0.00     0.059 A 
ATOM     78  F   UNL A   1      46.160  30.078  34.320  1.00  0.00    -0.206 F 
ATOM     79  C   UNL A   1      46.860  27.489  36.744  1.00  0.00     0.060 A 
BRANCH  79  80
ATOM     80  S   UNL A   1      48.263  26.708  37.566  1.00  0.00     0.124 S 
ATOM     81  O   UNL A   1      49.142  27.853  37.790  1.00  0.00    -0.237 OA
ATOM     82  O   UNL A   1      47.647  26.141  38.761  1.00  0.00    -0.237 OA
ATOM     83  O   UNL A   1      48.737  25.738  36.585  1.00  0.00    -0.744 OA
ENDBRANCH  79  80
ENDBRANCH  58  72
BRANCH  59  84
ATOM     84  C   UNL A   1      36.845  32.792  30.812  1.00  0.00     0.058 A 
ATOM     85  C   UNL A   1      35.522  32.459  31.138  1.00  0.00     0.135 A 
ATOM     86  C   UNL A   1      37.052  33.768  29.825  1.00  0.00     0.135 A 
ATOM     87  F   UNL A   1      35.275  31.523  32.066  1.00  0.00    -0.206 F 
ATOM     88  C   UNL A   1      34.443  33.074  30.514  1.00  0.00     0.059 A 
ATOM     89  C   UNL A   1      35.989  34.418  29.207  1.00  0.00     0.059 A 
ATOM     90  F   UNL A   1      38.299  34.129  29.488  1.00  0.00    -0.206 F 
ATOM     91  C   UNL A   1      34.687  34.064  29.558  1.00  0.00     0.060 A 
BRANCH  91  92
ATOM     92  S   UNL A   1      33.274  34.915  28.823  1.00  0.00     0.124 S 
ATOM     93  O   UNL A   1      32.470  35.225  30.000  1.00  0.00    -0.237 OA
ATOM     94  O   UNL A   1      33.915  36.052  28.168  1.00  0.00    -0.237 OA
ATOM     95  O   UNL A   1      32.711  33.915  27.921  1.00  0.00    -0.744 OA
ENDBRANCH  91  92
ENDBRANCH  59  84
BRANCH  71  96
ATOM     96  C   UNL A   1      39.998  34.099  36.903  1.00  0.00     0.058 A 
ATOM     97  C   UNL A   1      40.464  35.421  36.812  1.00  0.00     0.135 A 
ATOM     98  C   UNL A   1      39.242  33.752  38.036  1.00  0.00     0.135 A 
ATOM     99  F   UNL A   1      41.195  35.808  35.755  1.00  0.00    -0.206 F 
ATOM    100  C   UNL A   1      40.220  36.351  37.818  1.00  0.00     0.059 A 
ATOM    101  C   UNL A   1      38.959  34.676  39.039  1.00  0.00     0.059 A 
ATOM    102  F   UNL A   1      38.761  32.506  38.173  1.00  0.00    -0.206 F 
ATOM    103  C   UNL A   1      39.466  35.969  38.928  1.00  0.00     0.060 A 
BRANCH 103 104
ATOM    104  S   UNL A   1      39.149  37.193  40.217  1.00  0.00     0.124 S 
ATOM    105  O   UNL A   1      38.311  36.436  41.142  1.00  0.00    -0.237 OA
ATOM    106  O   UNL A   1      40.495  37.502  40.690  1.00  0.00    -0.237 OA
ATOM    107  O   UNL A   1      38.477  38.275  39.504  1.00  0.00    -0.744 OA
ENDBRANCH 103 104
ENDBRANCH  71  96
ENDBRANCH  45  46
ENDBRANCH  38  40
ENDBRANCH  37  38
ENDBRANCH  36  37
ENDBRANCH   1  36
TORSDOF 18
ENDMDL
MODEL 2
REMARK VINA RESULT:     -13.0      5.920     11.640
REMARK SMILES C[C@]12C(=O)N(c3ccc(C(=O)OCCOCCOC(=O)c4ccc(-c5c6nc(c(-c7c(F)cc(S(=O)(=O)[O-])cc7F)c7ccc([nH]7)c(-c7c(F)cc(S(=O)(=O)[O-])cc7F)c7nc(c(-c8c(F)cc(S(=O)(=O)[O-])cc8F)c8ccc5[nH]8)C=C7)C=C6)cc4)cc3)C(=O)[C@H]1[C@H]1c3ccccc3[C@@H]2c2ccccc21
REMARK SMILES IDX 16 1 15 2 14 3 13 4 12 5 10 6 11 7 9 8 6 9 7 10 88 11 8 12
REMARK SMILES IDX 87 13 5 14 1 15 2 16 3 17 91 18 99 19 4 20 89 21 92 22 98 23
REMARK SMILES IDX 100 24 90 25 93 26 105 27 97 28 101 29 94 30 104 31 96 32
REMARK SMILES IDX 102 33 95 34 103 35 17 36 18 37 19 38 20 39 21 40 22 41
REMARK SMILES IDX 86 42 23 43 85 44 24 45 25 46 26 47 79 48 27 49 84 50 78 51
REMARK SMILES IDX 80 52 28 53 83 54 77 55 76 56 29 58 63 59 42 60 62 61 43 62
REMARK SMILES IDX 46 63 61 64 81 65 44 66 45 67 60 69 82 70 47 71 30 72 31 73
REMARK SMILES IDX 40 74 32 75 33 76 39 77 41 78 34 79 35 80 36 81 37 82 38 83
REMARK SMILES IDX 64 84 65 85 74 86 66 87 67 88 73 89 75 90 68 91 69 92 70 93
REMARK SMILES IDX 71 94 72 95 48 96 49 97 58 98 50 99 51 100 57 101 59 102
REMARK SMILES IDX 52 103 53 104 54 105 55 106 56 107
REMARK H PARENT 80 57 46 68
REMARK Flexibility Score: inf
ROOT
ATOM      1  C   UNL A   1      34.404  32.808  30.323  1.00  0.00     0.202 C 
ENDROOT
BRANCH   1   2
ATOM      2  O   UNL A   1      35.029  33.238  29.118  1.00  0.00    -0.374 OA
BRANCH   2   3
ATOM      3  C   UNL A   1      35.120  32.311  28.037  1.00  0.00     0.202 C 
BRANCH   3   4
ATOM      4  C   UNL A   1      33.836  31.613  27.570  1.00  0.00     0.261 C 
BRANCH   4   5
ATOM      5  O   UNL A   1      33.768  30.242  28.001  1.00  0.00    -0.460 OA
BRANCH   5   6
ATOM      6  C   UNL A   1      34.500  29.386  27.250  1.00  0.00     0.338 C 
ATOM      7  O   UNL A   1      35.715  29.263  27.240  1.00  0.00    -0.246 OA
BRANCH   6   8
ATOM      8  C   UNL A   1      33.624  28.405  26.581  1.00  0.00     0.060 A 
ATOM      9  C   UNL A   1      31.990  26.299  25.670  1.00  0.00     0.052 A 
ATOM     10  C   UNL A   1      31.603  27.108  26.753  1.00  0.00     0.028 A 
ATOM     11  C   UNL A   1      33.164  26.644  24.982  1.00  0.00     0.028 A 
ATOM     12  C   UNL A   1      32.423  28.124  27.228  1.00  0.00     0.018 A 
ATOM     13  C   UNL A   1      33.974  27.710  25.424  1.00  0.00     0.018 A 
BRANCH   9  14
ATOM     14  N   UNL A   1      31.327  25.058  25.485  1.00  0.00    -0.250 N 
ATOM     15  C   UNL A   1      30.035  21.991  26.078  1.00  0.00     0.024 C 
ATOM     16  C   UNL A   1      31.286  22.768  25.619  1.00  0.00     0.071 C 
ATOM     17  C   UNL A   1      31.321  24.052  26.389  1.00  0.00     0.241 C 
ATOM     18  C   UNL A   1      31.139  23.112  24.063  1.00  0.00     0.107 C 
ATOM     19  C   UNL A   1      32.642  22.061  25.996  1.00  0.00     0.066 C 
ATOM     20  O   UNL A   1      31.327  24.110  27.611  1.00  0.00    -0.273 OA
ATOM     21  C   UNL A   1      30.713  24.597  24.357  1.00  0.00     0.238 C 
ATOM     22  C   UNL A   1      32.338  22.252  23.414  1.00  0.00     0.063 C 
ATOM     23  C   UNL A   1      33.765  22.860  25.319  1.00  0.00    -0.036 A 
ATOM     24  C   UNL A   1      32.594  20.709  25.317  1.00  0.00    -0.036 A 
ATOM     25  O   UNL A   1      29.913  25.210  23.656  1.00  0.00    -0.274 OA
ATOM     26  C   UNL A   1      33.618  22.940  23.914  1.00  0.00    -0.036 A 
ATOM     27  C   UNL A   1      32.380  20.808  23.924  1.00  0.00    -0.036 A 
ATOM     28  C   UNL A   1      34.782  23.557  25.954  1.00  0.00     0.005 A 
ATOM     29  C   UNL A   1      32.794  19.485  25.941  1.00  0.00     0.005 A 
ATOM     30  C   UNL A   1      34.467  23.723  23.142  1.00  0.00     0.004 A 
ATOM     31  C   UNL A   1      32.381  19.658  23.146  1.00  0.00     0.004 A 
ATOM     32  C   UNL A   1      35.630  24.356  25.180  1.00  0.00     0.000 A 
ATOM     33  C   UNL A   1      32.788  18.335  25.155  1.00  0.00     0.000 A 
ATOM     34  C   UNL A   1      35.473  24.439  23.788  1.00  0.00     0.000 A 
ATOM     35  C   UNL A   1      32.586  18.422  23.769  1.00  0.00     0.000 A 
ENDBRANCH   9  14
ENDBRANCH   6   8
ENDBRANCH   5   6
ENDBRANCH   4   5
ENDBRANCH   3   4
ENDBRANCH   2   3
ENDBRANCH   1   2
BRANCH   1  36
ATOM     36  C   UNL A   1      35.282  32.232  31.444  1.00  0.00     0.261 C 
BRANCH  36  37
ATOM     37  O   UNL A   1      36.579  31.805  31.003  1.00  0.00    -0.460 OA
BRANCH  37  38
ATOM     38  C   UNL A   1      36.700  30.468  30.796  1.00  0.00     0.338 C 
ATOM     39  O   UNL A   1      35.803  29.639  30.784  1.00  0.00    -0.246 OA
BRANCH  38  40
ATOM     40  C   UNL A   1      38.085  30.163  30.390  1.00  0.00     0.060 A 
ATOM     41  C   UNL A   1      39.046  29.774  31.324  1.00  0.00     0.016 A 
ATOM     42  C   UNL A   1      38.410  30.253  29.030  1.00  0.00     0.016 A 
ATOM     43  C   UNL A   1      40.339  29.467  30.889  1.00  0.00     0.010 A 
ATOM     44  C   UNL A   1      39.702  29.949  28.600  1.00  0.00     0.010 A 
ATOM     45  C   UNL A   1      40.674  29.545  29.525  1.00  0.00    -0.014 A 
BRANCH  45  46
ATOM     46  C   UNL A   1      42.021  29.128  29.056  1.00  0.00     0.031 A 
ATOM     47  C   UNL A   1      43.174  30.089  29.051  1.00  0.00     0.074 A 
ATOM     48  C   UNL A   1      42.193  27.869  28.611  1.00  0.00     0.049 A 
ATOM     49  N   UNL A   1      44.419  29.881  28.705  1.00  0.00    -0.248 NA
ATOM     50  C   UNL A   1      42.890  31.466  29.484  1.00  0.00     0.031 C 
ATOM     51  C   UNL A   1      41.142  26.853  28.544  1.00  0.00     0.029 A 
ATOM     52  N   UNL A   1      43.310  27.228  28.140  1.00  0.00    -0.354 N 
ATOM     53  C   UNL A   1      45.076  31.089  28.897  1.00  0.00     0.074 A 
ATOM     54  C   UNL A   1      44.076  32.042  29.336  1.00  0.00     0.031 C 
ATOM     55  C   UNL A   1      41.671  25.707  28.089  1.00  0.00     0.029 A 
ATOM     56  C   UNL A   1      43.088  25.915  27.800  1.00  0.00     0.049 A 
ATOM     57  H   UNL A   1      44.187  27.666  28.053  1.00  0.00     0.167 HD
ATOM     58  C   UNL A   1      46.394  31.371  28.744  1.00  0.00     0.037 A 
ATOM     59  C   UNL A   1      43.928  24.983  27.311  1.00  0.00     0.037 A 
ATOM     60  C   UNL A   1      47.379  30.422  28.282  1.00  0.00     0.049 A 
ATOM     61  C   UNL A   1      45.372  25.337  27.087  1.00  0.00     0.074 A 
ATOM     62  C   UNL A   1      48.740  30.608  28.115  1.00  0.00     0.029 A 
ATOM     63  N   UNL A   1      47.108  29.116  27.897  1.00  0.00    -0.354 N 
ATOM     64  N   UNL A   1      45.991  26.469  27.327  1.00  0.00    -0.248 NA
ATOM     65  C   UNL A   1      46.231  24.287  26.526  1.00  0.00     0.031 C 
ATOM     66  C   UNL A   1      49.282  29.435  27.577  1.00  0.00     0.029 A 
ATOM     67  C   UNL A   1      48.270  28.496  27.462  1.00  0.00     0.049 A 
ATOM     68  H   UNL A   1      46.220  28.692  27.928  1.00  0.00     0.167 HD
ATOM     69  C   UNL A   1      47.315  26.263  26.956  1.00  0.00     0.074 A 
ATOM     70  C   UNL A   1      47.412  24.890  26.502  1.00  0.00     0.031 C 
ATOM     71  C   UNL A   1      48.355  27.136  26.986  1.00  0.00     0.037 A 
BRANCH  58  72
ATOM     72  C   UNL A   1      46.848  32.767  29.080  1.00  0.00     0.058 A 
ATOM     73  C   UNL A   1      46.863  33.786  28.113  1.00  0.00     0.135 A 
ATOM     74  C   UNL A   1      47.239  33.104  30.386  1.00  0.00     0.135 A 
ATOM     75  F   UNL A   1      46.508  33.520  26.846  1.00  0.00    -0.206 F 
ATOM     76  C   UNL A   1      47.286  35.075  28.419  1.00  0.00     0.059 A 
ATOM     77  C   UNL A   1      47.638  34.396  30.722  1.00  0.00     0.059 A 
ATOM     78  F   UNL A   1      47.239  32.174  31.354  1.00  0.00    -0.206 F 
ATOM     79  C   UNL A   1      47.674  35.371  29.726  1.00  0.00     0.060 A 
BRANCH  79  80
ATOM     80  S   UNL A   1      48.241  37.044  30.095  1.00  0.00     0.124 S 
ATOM     81  O   UNL A   1      47.534  37.321  31.342  1.00  0.00    -0.237 OA
ATOM     82  O   UNL A   1      49.684  36.864  30.212  1.00  0.00    -0.237 OA
ATOM     83  O   UNL A   1      47.797  37.817  28.940  1.00  0.00    -0.744 OA
ENDBRANCH  79  80
ENDBRANCH  58  72
BRANCH  59  84
ATOM     84  C   UNL A   1      43.420  23.612  27.039  1.00  0.00     0.058 A 
ATOM     85  C   UNL A   1      43.124  23.205  25.729  1.00  0.00     0.135 A 
ATOM     86  C   UNL A   1      43.272  22.669  28.067  1.00  0.00     0.135 A 
ATOM     87  F   UNL A   1      43.239  24.075  24.715  1.00  0.00    -0.206 F 
ATOM     88  C   UNL A   1      42.705  21.910  25.447  1.00  0.00     0.059 A 
ATOM     89  C   UNL A   1      42.880  21.360  27.807  1.00  0.00     0.059 A 
ATOM     90  F   UNL A   1      43.554  23.007  29.335  1.00  0.00    -0.206 F 
ATOM     91  C   UNL A   1      42.599  20.990  26.493  1.00  0.00     0.060 A 
BRANCH  91  92
ATOM     92  S   UNL A   1      42.138  19.289  26.097  1.00  0.00     0.124 S 
ATOM     93  O   UNL A   1      42.962  19.025  24.923  1.00  0.00    -0.237 OA
ATOM     94  O   UNL A   1      42.517  18.582  27.317  1.00  0.00    -0.237 OA
ATOM     95  O   UNL A   1      40.701  19.378  25.852  1.00  0.00    -0.744 OA
ENDBRANCH  91  92
ENDBRANCH  59  84
BRANCH  71  96
ATOM     96  C   UNL A   1      49.692  26.633  26.503  1.00  0.00     0.058 A 
ATOM     97  C   UNL A   1      50.567  25.939  27.355  1.00  0.00     0.135 A 
ATOM     98  C   UNL A   1      50.090  26.816  25.168  1.00  0.00     0.135 A 
ATOM     99  F   UNL A   1      50.241  25.740  28.642  1.00  0.00    -0.206 F 
ATOM    100  C   UNL A   1      51.801  25.474  26.910  1.00  0.00     0.059 A 
ATOM    101  C   UNL A   1      51.306  26.331  24.694  1.00  0.00     0.059 A 
ATOM    102  F   UNL A   1      49.290  27.463  24.305  1.00  0.00    -0.206 F 
ATOM    103  C   UNL A   1      52.162  25.675  25.577  1.00  0.00     0.060 A 
BRANCH 103 104
ATOM    104  S   UNL A   1      53.761  25.054  25.015  1.00  0.00     0.124 S 
ATOM    105  O   UNL A   1      53.480  23.633  24.837  1.00  0.00    -0.237 OA
ATOM    106  O   UNL A   1      53.976  25.816  23.788  1.00  0.00    -0.237 OA
ATOM    107  O   UNL A   1      54.662  25.382  26.115  1.00  0.00    -0.744 OA
ENDBRANCH 103 104
ENDBRANCH  71  96
ENDBRANCH  45  46
ENDBRANCH  38  40
ENDBRANCH  37  38
ENDBRANCH  36  37
ENDBRANCH   1  36
TORSDOF 18
ENDMDL
MODEL 3
REMARK VINA RESULT:     -13.0      0.990      2.047
REMARK SMILES C[C@]12C(=O)N(c3ccc(C(=O)OCCOCCOC(=O)c4ccc(-c5c6nc(c(-c7c(F)cc(S(=O)(=O)[O-])cc7F)c7ccc([nH]7)c(-c7c(F)cc(S(=O)(=O)[O-])cc7F)c7nc(c(-c8c(F)cc(S(=O)(=O)[O-])cc8F)c8ccc5[nH]8)C=C7)C=C6)cc4)cc3)C(=O)[C@H]1[C@H]1c3ccccc3[C@@H]2c2ccccc21
REMARK SMILES IDX 16 1 15 2 14 3 13 4 12 5 10 6 11 7 9 8 6 9 7 10 88 11 8 12
REMARK SMILES IDX 87 13 5 14 1 15 2 16 3 17 91 18 99 19 4 20 89 21 92 22 98 23
REMARK SMILES IDX 100 24 90 25 93 26 105 27 97 28 101 29 94 30 104 31 96 32
REMARK SMILES IDX 102 33 95 34 103 35 17 36 18 37 19 38 20 39 21 40 22 41
REMARK SMILES IDX 86 42 23 43 85 44 24 45 25 46 26 47 79 48 27 49 84 50 78 51
REMARK SMILES IDX 80 52 28 53 83 54 77 55 76 56 29 58 63 59 42 60 62 61 43 62
REMARK SMILES IDX 46 63 61 64 81 65 44 66 45 67 60 69 82 70 47 71 30 72 31 73
REMARK SMILES IDX 40 74 32 75 33 76 39 77 41 78 34 79 35 80 36 81 37 82 38 83
REMARK SMILES IDX 64 84 65 85 74 86 66 87 67 88 73 89 75 90 68 91 69 92 70 93
REMARK SMILES IDX 71 94 72 95 48 96 49 97 58 98 50 99 51 100 57 101 59 102
REMARK SMILES IDX 52 103 53 104 54 105 55 106 56 107
REMARK H PARENT 80 57 46 68
REMARK Flexibility Score: inf
ROOT
ATOM      1  C   UNL A   1      42.001  21.717  26.182  1.00  0.00     0.202 C 
ENDROOT
BRANCH   1   2
ATOM      2  O   UNL A   1      40.767  21.564  26.877  1.00  0.00    -0.374 OA
BRANCH   2   3
ATOM      3  C   UNL A   1      39.576  21.393  26.109  1.00  0.00     0.202 C 
BRANCH   3   4
ATOM      4  C   UNL A   1      38.527  22.512  26.138  1.00  0.00     0.261 C 
BRANCH   4   5
ATOM      5  O   UNL A   1      37.693  22.515  24.966  1.00  0.00    -0.460 OA
BRANCH   5   6
ATOM      6  C   UNL A   1      36.438  22.054  25.176  1.00  0.00     0.338 C 
ATOM      7  O   UNL A   1      36.111  21.032  25.758  1.00  0.00    -0.246 OA
BRANCH   6   8
ATOM      8  C   UNL A   1      35.443  23.083  24.815  1.00  0.00     0.060 A 
ATOM      9  C   UNL A   1      33.787  25.109  23.772  1.00  0.00     0.052 A 
ATOM     10  C   UNL A   1      33.937  23.876  23.112  1.00  0.00     0.028 A 
ATOM     11  C   UNL A   1      34.398  25.258  25.027  1.00  0.00     0.028 A 
ATOM     12  C   UNL A   1      34.782  22.889  23.604  1.00  0.00     0.018 A 
ATOM     13  C   UNL A   1      35.211  24.238  25.561  1.00  0.00     0.018 A 
BRANCH   9  14
ATOM     14  N   UNL A   1      33.248  26.201  23.043  1.00  0.00    -0.250 N 
ATOM     15  C   UNL A   1      32.577  29.348  22.007  1.00  0.00     0.024 C 
ATOM     16  C   UNL A   1      32.157  28.219  22.970  1.00  0.00     0.071 C 
ATOM     17  C   UNL A   1      33.405  27.500  23.385  1.00  0.00     0.241 C 
ATOM     18  C   UNL A   1      31.217  27.191  22.183  1.00  0.00     0.107 C 
ATOM     19  C   UNL A   1      31.549  28.738  24.326  1.00  0.00     0.066 C 
ATOM     20  O   UNL A   1      34.359  28.051  23.918  1.00  0.00    -0.273 OA
ATOM     21  C   UNL A   1      32.386  26.158  21.987  1.00  0.00     0.238 C 
ATOM     22  C   UNL A   1      29.811  27.367  22.951  1.00  0.00     0.063 C 
ATOM     23  C   UNL A   1      31.026  27.509  25.082  1.00  0.00    -0.036 A 
ATOM     24  C   UNL A   1      30.340  29.562  23.937  1.00  0.00    -0.036 A 
ATOM     25  O   UNL A   1      32.486  25.450  20.989  1.00  0.00    -0.274 OA
ATOM     26  C   UNL A   1      30.059  26.779  24.349  1.00  0.00    -0.036 A 
ATOM     27  C   UNL A   1      29.419  28.836  23.149  1.00  0.00    -0.036 A 
ATOM     28  C   UNL A   1      31.483  27.031  26.300  1.00  0.00     0.005 A 
ATOM     29  C   UNL A   1      30.090  30.869  24.334  1.00  0.00     0.005 A 
ATOM     30  C   UNL A   1      29.561  25.570  24.816  1.00  0.00     0.004 A 
ATOM     31  C   UNL A   1      28.223  29.429  22.769  1.00  0.00     0.004 A 
ATOM     32  C   UNL A   1      30.992  25.806  26.766  1.00  0.00     0.000 A 
ATOM     33  C   UNL A   1      28.891  31.459  23.945  1.00  0.00     0.000 A 
ATOM     34  C   UNL A   1      30.041  25.083  26.030  1.00  0.00     0.000 A 
ATOM     35  C   UNL A   1      27.965  30.744  23.171  1.00  0.00     0.000 A 
ENDBRANCH   9  14
ENDBRANCH   6   8
ENDBRANCH   5   6
ENDBRANCH   4   5
ENDBRANCH   3   4
ENDBRANCH   2   3
ENDBRANCH   1   2
BRANCH   1  36
ATOM     36  C   UNL A   1      42.519  23.135  25.905  1.00  0.00     0.261 C 
BRANCH  36  37
ATOM     37  O   UNL A   1      41.531  24.160  26.085  1.00  0.00    -0.460 OA
BRANCH  37  38
ATOM     38  C   UNL A   1      41.968  25.423  25.841  1.00  0.00     0.338 C 
ATOM     39  O   UNL A   1      42.284  25.899  24.761  1.00  0.00    -0.246 OA
BRANCH  38  40
ATOM     40  C   UNL A   1      41.829  26.230  27.067  1.00  0.00     0.060 A 
ATOM     41  C   UNL A   1      42.698  27.287  27.342  1.00  0.00     0.016 A 
ATOM     42  C   UNL A   1      40.783  25.922  27.947  1.00  0.00     0.016 A 
ATOM     43  C   UNL A   1      42.510  28.043  28.504  1.00  0.00     0.010 A 
ATOM     44  C   UNL A   1      40.600  26.676  29.106  1.00  0.00     0.010 A 
ATOM     45  C   UNL A   1      41.457  27.749  29.390  1.00  0.00    -0.014 A 
BRANCH  45  46
ATOM     46  C   UNL A   1      41.205  28.611  30.573  1.00  0.00     0.031 A 
ATOM     47  C   UNL A   1      42.049  28.501  31.809  1.00  0.00     0.074 A 
ATOM     48  C   UNL A   1      40.185  29.490  30.530  1.00  0.00     0.049 A 
ATOM     49  N   UNL A   1      41.985  29.198  32.915  1.00  0.00    -0.248 NA
ATOM     50  C   UNL A   1      43.097  27.470  31.805  1.00  0.00     0.031 C 
ATOM     51  C   UNL A   1      39.280  29.669  29.394  1.00  0.00     0.029 A 
ATOM     52  N   UNL A   1      39.744  30.397  31.458  1.00  0.00    -0.354 N 
ATOM     53  C   UNL A   1      42.995  28.709  33.734  1.00  0.00     0.074 A 
ATOM     54  C   UNL A   1      43.619  27.615  33.016  1.00  0.00     0.031 C 
ATOM     55  C   UNL A   1      38.410  30.650  29.680  1.00  0.00     0.029 A 
ATOM     56  C   UNL A   1      38.672  31.145  31.030  1.00  0.00     0.049 A 
ATOM     57  H   UNL A   1      40.154  30.505  32.346  1.00  0.00     0.167 HD
ATOM     58  C   UNL A   1      43.379  29.146  34.959  1.00  0.00     0.037 A 
ATOM     59  C   UNL A   1      37.979  32.118  31.650  1.00  0.00     0.037 A 
ATOM     60  C   UNL A   1      42.735  30.219  35.677  1.00  0.00     0.049 A 
ATOM     61  C   UNL A   1      38.382  32.541  33.036  1.00  0.00     0.074 A 
ATOM     62  C   UNL A   1      43.065  30.746  36.913  1.00  0.00     0.029 A 
ATOM     63  N   UNL A   1      41.620  30.917  35.234  1.00  0.00    -0.354 N 
ATOM     64  N   UNL A   1      39.375  32.107  33.775  1.00  0.00    -0.248 NA
ATOM     65  C   UNL A   1      37.570  33.587  33.671  1.00  0.00     0.031 C 
ATOM     66  C   UNL A   1      42.119  31.724  37.242  1.00  0.00     0.029 A 
ATOM     67  C   UNL A   1      41.230  31.848  36.186  1.00  0.00     0.049 A 
ATOM     68  H   UNL A   1      41.171  30.773  34.370  1.00  0.00     0.167 HD
ATOM     69  C   UNL A   1      39.314  32.835  34.958  1.00  0.00     0.074 A 
ATOM     70  C   UNL A   1      38.203  33.755  34.824  1.00  0.00     0.031 C 
ATOM     71  C   UNL A   1      40.106  32.745  36.058  1.00  0.00     0.037 A 
BRANCH  58  72
ATOM     72  C   UNL A   1      44.555  28.459  35.602  1.00  0.00     0.058 A 
ATOM     73  C   UNL A   1      44.384  27.348  36.445  1.00  0.00     0.135 A 
ATOM     74  C   UNL A   1      45.868  28.889  35.350  1.00  0.00     0.135 A 
ATOM     75  F   UNL A   1      43.152  26.898  36.728  1.00  0.00    -0.206 F 
ATOM     76  C   UNL A   1      45.468  26.714  37.043  1.00  0.00     0.059 A 
ATOM     77  C   UNL A   1      46.970  28.251  35.916  1.00  0.00     0.059 A 
ATOM     78  F   UNL A   1      46.093  29.942  34.549  1.00  0.00    -0.206 F 
ATOM     79  C   UNL A   1      46.757  27.174  36.776  1.00  0.00     0.060 A 
BRANCH  79  80
ATOM     80  S   UNL A   1      48.146  26.351  37.582  1.00  0.00     0.124 S 
ATOM     81  O   UNL A   1      48.971  27.491  37.974  1.00  0.00    -0.237 OA
ATOM     82  O   UNL A   1      47.493  25.638  38.675  1.00  0.00    -0.237 OA
ATOM     83  O   UNL A   1      48.703  25.509  36.529  1.00  0.00    -0.744 OA
ENDBRANCH  79  80
ENDBRANCH  58  72
BRANCH  59  84
ATOM     84  C   UNL A   1      36.853  32.780  30.940  1.00  0.00     0.058 A 
ATOM     85  C   UNL A   1      35.523  32.497  31.285  1.00  0.00     0.135 A 
ATOM     86  C   UNL A   1      37.081  33.743  29.945  1.00  0.00     0.135 A 
ATOM     87  F   UNL A   1      35.255  31.576  32.222  1.00  0.00    -0.206 F 
ATOM     88  C   UNL A   1      34.458  33.149  30.673  1.00  0.00     0.059 A 
ATOM     89  C   UNL A   1      36.034  34.429  29.338  1.00  0.00     0.059 A 
ATOM     90  F   UNL A   1      38.336  34.056  29.588  1.00  0.00    -0.206 F 
ATOM     91  C   UNL A   1      34.725  34.124  29.709  1.00  0.00     0.060 A 
BRANCH  91  92
ATOM     92  S   UNL A   1      33.335  35.023  28.989  1.00  0.00     0.124 S 
ATOM     93  O   UNL A   1      33.999  36.190  28.420  1.00  0.00    -0.237 OA
ATOM     94  O   UNL A   1      32.813  34.054  28.030  1.00  0.00    -0.237 OA
ATOM     95  O   UNL A   1      32.473  35.286  30.137  1.00  0.00    -0.744 OA
ENDBRANCH  91  92
ENDBRANCH  59  84
BRANCH  71  96
ATOM     96  C   UNL A   1      39.791  33.661  37.212  1.00  0.00     0.058 A 
ATOM     97  C   UNL A   1      40.362  34.941  37.310  1.00  0.00     0.135 A 
ATOM     98  C   UNL A   1      38.884  33.273  38.213  1.00  0.00     0.135 A 
ATOM     99  F   UNL A   1      41.239  35.362  36.386  1.00  0.00    -0.206 F 
ATOM    100  C   UNL A   1      40.073  35.788  38.375  1.00  0.00     0.059 A 
ATOM    101  C   UNL A   1      38.555  34.119  39.270  1.00  0.00     0.059 A 
ATOM    102  F   UNL A   1      38.299  32.067  38.165  1.00  0.00    -0.206 F 
ATOM    103  C   UNL A   1      39.167  35.368  39.351  1.00  0.00     0.060 A 
BRANCH 103 104
ATOM    104  S   UNL A   1      38.793  36.486  40.718  1.00  0.00     0.124 S 
ATOM    105  O   UNL A   1      40.107  36.648  41.334  1.00  0.00    -0.237 OA
ATOM    106  O   UNL A   1      38.269  37.660  40.026  1.00  0.00    -0.237 OA
ATOM    107  O   UNL A   1      37.817  35.744  41.510  1.00  0.00    -0.744 OA
ENDBRANCH 103 104
ENDBRANCH  71  96
ENDBRANCH  45  46
ENDBRANCH  38  40
ENDBRANCH  37  38
ENDBRANCH  36  37
ENDBRANCH   1  36
TORSDOF 18
ENDMDL
