MODEL 1
REMARK VINA RESULT:     -10.8      0.000      0.000
REMARK SMILES O=C(CNc1ccccc1C(=O)N1CCCC1)OCCOCCOC(=O)c1ccc(-c2c3nc(c(-c4c(F)cc(S(=O)(=O)[O-])cc4F)c4ccc([nH]4)c(-c4c(F)cc(S(=O)(=O)[O-])cc4F)c4nc(c(-c5c(F)cc(S(=O)(=O)[O-])cc5F)c5ccc2[nH]5)C=C4)C=C3)cc1
REMARK SMILES IDX 21 1 20 2 19 3 18 4 2 5 1 6 3 7 4 8 5 10 6 11 10 12 7 13
REMARK SMILES IDX 9 14 8 15 11 16 12 17 13 18 14 19 17 20 15 21 16 22 22 23
REMARK SMILES IDX 23 24 24 25 25 26 26 27 27 28 28 29 92 30 29 31 91 32 30 33
REMARK SMILES IDX 31 34 32 35 85 36 33 37 90 38 84 39 86 40 34 41 89 42 83 43
REMARK SMILES IDX 82 44 35 46 69 47 48 48 68 49 49 50 52 51 67 52 87 53 50 54
REMARK SMILES IDX 51 55 66 57 88 58 53 59 36 60 37 61 46 62 38 63 39 64 45 65
REMARK SMILES IDX 47 66 40 67 41 68 42 69 43 70 44 71 70 72 71 73 80 74 72 75
REMARK SMILES IDX 73 76 79 77 81 78 74 79 75 80 76 81 77 82 78 83 54 84 55 85
REMARK SMILES IDX 64 86 56 87 57 88 63 89 65 90 58 91 59 92 60 93 61 94 62 95
REMARK H PARENT 4 9 86 45 52 56
REMARK Flexibility Score: inf
ROOT
ATOM      1  O   UNL A   1      41.365  21.241  25.631  1.00  0.00    -0.374 OA
ENDROOT
BRANCH   1   2
ATOM      2  C   UNL A   1      40.396  21.189  26.677  1.00  0.00     0.202 C 
BRANCH   2   3
ATOM      3  C   UNL A   1      39.218  22.131  26.460  1.00  0.00     0.261 C 
BRANCH   3   4
ATOM      4  O   UNL A   1      38.552  21.884  25.209  1.00  0.00    -0.462 OA
BRANCH   4   5
ATOM      5  C   UNL A   1      37.717  20.835  25.028  1.00  0.00     0.325 C 
ATOM      6  O   UNL A   1      38.167  19.694  24.920  1.00  0.00    -0.250 OA
BRANCH   5   7
ATOM      7  C   UNL A   1      36.227  21.097  24.888  1.00  0.00     0.236 C 
BRANCH   7   8
ATOM      8  N   UNL A   1      35.378  20.054  25.447  1.00  0.00    -0.374 N 
ATOM      9  H   UNL A   1      35.412  19.866  26.412  1.00  0.00     0.161 HD
BRANCH   8  10
ATOM     10  C   UNL A   1      34.516  19.319  24.631  1.00  0.00     0.047 A 
ATOM     11  C   UNL A   1      34.978  18.006  24.345  1.00  0.00     0.026 A 
ATOM     12  C   UNL A   1      33.201  19.659  24.219  1.00  0.00     0.063 A 
ATOM     13  C   UNL A   1      34.180  17.037  23.737  1.00  0.00     0.002 A 
ATOM     14  C   UNL A   1      32.430  18.662  23.562  1.00  0.00     0.016 A 
ATOM     15  C   UNL A   1      32.898  17.367  23.341  1.00  0.00     0.001 A 
BRANCH  12  16
ATOM     16  C   UNL A   1      32.394  20.903  24.509  1.00  0.00     0.255 C 
ATOM     17  O   UNL A   1      31.534  20.822  25.395  1.00  0.00    -0.269 OA
ATOM     18  N   UNL A   1      32.571  22.127  23.889  1.00  0.00    -0.339 N 
ATOM     19  C   UNL A   1      32.956  22.444  22.529  1.00  0.00     0.120 C 
ATOM     20  C   UNL A   1      32.011  23.309  24.513  1.00  0.00     0.120 C 
ATOM     21  C   UNL A   1      33.287  23.941  22.564  1.00  0.00     0.023 C 
ATOM     22  C   UNL A   1      32.836  24.442  23.939  1.00  0.00     0.023 C 
ENDBRANCH  12  16
ENDBRANCH   8  10
ENDBRANCH   7   8
ENDBRANCH   5   7
ENDBRANCH   4   5
ENDBRANCH   3   4
ENDBRANCH   2   3
ENDBRANCH   1   2
BRANCH   1  23
ATOM     23  C   UNL A   1      42.639  21.780  25.998  1.00  0.00     0.202 C 
BRANCH  23  24
ATOM     24  C   UNL A   1      42.823  23.198  25.461  1.00  0.00     0.261 C 
BRANCH  24  25
ATOM     25  O   UNL A   1      42.220  24.107  26.386  1.00  0.00    -0.460 OA
BRANCH  25  26
ATOM     26  C   UNL A   1      42.266  25.407  26.014  1.00  0.00     0.338 C 
ATOM     27  O   UNL A   1      42.225  25.853  24.879  1.00  0.00    -0.246 OA
BRANCH  26  28
ATOM     28  C   UNL A   1      42.116  26.229  27.234  1.00  0.00     0.060 A 
ATOM     29  C   UNL A   1      41.141  25.836  28.158  1.00  0.00     0.016 A 
ATOM     30  C   UNL A   1      42.980  27.294  27.520  1.00  0.00     0.016 A 
ATOM     31  C   UNL A   1      41.000  26.531  29.354  1.00  0.00     0.010 A 
ATOM     32  C   UNL A   1      42.836  27.996  28.714  1.00  0.00     0.010 A 
ATOM     33  C   UNL A   1      41.820  27.637  29.612  1.00  0.00    -0.014 A 
BRANCH  33  34
ATOM     34  C   UNL A   1      41.441  28.552  30.706  1.00  0.00     0.031 A 
ATOM     35  C   UNL A   1      42.251  28.489  31.971  1.00  0.00     0.074 A 
ATOM     36  C   UNL A   1      40.453  29.447  30.545  1.00  0.00     0.049 A 
ATOM     37  N   UNL A   1      42.156  29.213  33.052  1.00  0.00    -0.248 NA
ATOM     38  C   UNL A   1      43.316  27.470  32.019  1.00  0.00     0.031 C 
ATOM     39  C   UNL A   1      39.623  29.588  29.348  1.00  0.00     0.029 A 
ATOM     40  N   UNL A   1      39.983  30.412  31.396  1.00  0.00    -0.354 N 
ATOM     41  C   UNL A   1      43.158  28.753  33.897  1.00  0.00     0.074 A 
ATOM     42  C   UNL A   1      43.817  27.654  33.230  1.00  0.00     0.031 C 
ATOM     43  C   UNL A   1      38.737  30.579  29.546  1.00  0.00     0.029 A 
ATOM     44  C   UNL A   1      38.930  31.131  30.887  1.00  0.00     0.049 A 
ATOM     45  H   UNL A   1      40.364  30.574  32.290  1.00  0.00     0.167 HD
ATOM     46  C   UNL A   1      43.511  29.224  35.114  1.00  0.00     0.037 A 
ATOM     47  C   UNL A   1      38.203  32.114  31.451  1.00  0.00     0.037 A 
ATOM     48  C   UNL A   1      42.832  30.307  35.772  1.00  0.00     0.049 A 
ATOM     49  C   UNL A   1      38.584  32.587  32.832  1.00  0.00     0.074 A 
ATOM     50  C   UNL A   1      43.086  30.859  37.013  1.00  0.00     0.029 A 
ATOM     51  N   UNL A   1      41.757  31.002  35.234  1.00  0.00    -0.354 N 
ATOM     52  N   UNL A   1      39.548  32.158  33.615  1.00  0.00    -0.248 NA
ATOM     53  C   UNL A   1      37.792  33.686  33.399  1.00  0.00     0.031 C 
ATOM     54  C   UNL A   1      42.139  31.863  37.243  1.00  0.00     0.029 A 
ATOM     55  C   UNL A   1      41.326  31.969  36.124  1.00  0.00     0.049 A 
ATOM     56  H   UNL A   1      41.360  30.831  34.349  1.00  0.00     0.167 HD
ATOM     57  C   UNL A   1      39.487  32.944  34.761  1.00  0.00     0.074 A 
ATOM     58  C   UNL A   1      38.410  33.893  34.553  1.00  0.00     0.031 C 
ATOM     59  C   UNL A   1      40.244  32.890  35.887  1.00  0.00     0.037 A 
BRANCH  46  60
ATOM     60  C   UNL A   1      44.669  28.561  35.806  1.00  0.00     0.058 A 
ATOM     61  C   UNL A   1      45.990  28.995  35.605  1.00  0.00     0.135 A 
ATOM     62  C   UNL A   1      44.458  27.495  36.694  1.00  0.00     0.135 A 
ATOM     63  F   UNL A   1      46.251  29.990  34.741  1.00  0.00    -0.206 F 
ATOM     64  C   UNL A   1      47.061  28.389  36.252  1.00  0.00     0.059 A 
ATOM     65  C   UNL A   1      45.513  26.890  37.372  1.00  0.00     0.059 A 
ATOM     66  F   UNL A   1      43.218  27.030  36.911  1.00  0.00    -0.206 F 
ATOM     67  C   UNL A   1      46.812  27.340  37.138  1.00  0.00     0.060 A 
BRANCH  67  68
ATOM     68  S   UNL A   1      48.211  26.585  37.994  1.00  0.00     0.124 S 
ATOM     69  O   UNL A   1      47.721  26.536  39.368  1.00  0.00    -0.237 OA
ATOM     70  O   UNL A   1      48.330  25.297  37.317  1.00  0.00    -0.237 OA
ATOM     71  O   UNL A   1      49.304  27.521  37.751  1.00  0.00    -0.744 OA
ENDBRANCH  67  68
ENDBRANCH  46  60
BRANCH  47  72
ATOM     72  C   UNL A   1      37.046  32.705  30.726  1.00  0.00     0.058 A 
ATOM     73  C   UNL A   1      37.204  33.784  29.843  1.00  0.00     0.135 A 
ATOM     74  C   UNL A   1      35.748  32.206  30.916  1.00  0.00     0.135 A 
ATOM     75  F   UNL A   1      38.424  34.303  29.632  1.00  0.00    -0.206 F 
ATOM     76  C   UNL A   1      36.117  34.362  29.194  1.00  0.00     0.059 A 
ATOM     77  C   UNL A   1      34.649  32.749  30.256  1.00  0.00     0.059 A 
ATOM     78  F   UNL A   1      35.540  31.166  31.739  1.00  0.00    -0.206 F 
ATOM     79  C   UNL A   1      34.842  33.836  29.408  1.00  0.00     0.060 A 
BRANCH  79  80
ATOM     80  S   UNL A   1      33.440  34.570  28.535  1.00  0.00     0.124 S 
ATOM     81  O   UNL A   1      34.077  35.680  27.837  1.00  0.00    -0.237 OA
ATOM     82  O   UNL A   1      32.989  33.463  27.697  1.00  0.00    -0.237 OA
ATOM     83  O   UNL A   1      32.531  34.940  29.614  1.00  0.00    -0.744 OA
ENDBRANCH  79  80
ENDBRANCH  47  72
BRANCH  59  84
ATOM     84  C   UNL A   1      39.936  33.897  36.961  1.00  0.00     0.058 A 
ATOM     85  C   UNL A   1      40.424  35.211  36.897  1.00  0.00     0.135 A 
ATOM     86  C   UNL A   1      39.131  33.544  38.055  1.00  0.00     0.135 A 
ATOM     87  F   UNL A   1      41.198  35.595  35.869  1.00  0.00    -0.206 F 
ATOM     88  C   UNL A   1      40.164  36.129  37.907  1.00  0.00     0.059 A 
ATOM     89  C   UNL A   1      38.832  34.457  39.061  1.00  0.00     0.059 A 
ATOM     90  F   UNL A   1      38.624  32.306  38.154  1.00  0.00    -0.206 F 
ATOM     91  C   UNL A   1      39.372  35.741  38.989  1.00  0.00     0.060 A 
BRANCH  91  92
ATOM     92  S   UNL A   1      39.052  36.936  40.302  1.00  0.00     0.124 S 
ATOM     93  O   UNL A   1      40.389  37.129  40.853  1.00  0.00    -0.237 OA
ATOM     94  O   UNL A   1      38.500  38.070  39.566  1.00  0.00    -0.237 OA
ATOM     95  O   UNL A   1      38.106  36.241  41.170  1.00  0.00    -0.744 OA
ENDBRANCH  91  92
ENDBRANCH  59  84
ENDBRANCH  33  34
ENDBRANCH  26  28
ENDBRANCH  25  26
ENDBRANCH  24  25
ENDBRANCH  23  24
ENDBRANCH   1  23
TORSDOF 20
ENDMDL
MODEL 2
REMARK VINA RESULT:     -10.7      0.809      2.384
REMARK SMILES O=C(CNc1ccccc1C(=O)N1CCCC1)OCCOCCOC(=O)c1ccc(-c2c3nc(c(-c4c(F)cc(S(=O)(=O)[O-])cc4F)c4ccc([nH]4)c(-c4c(F)cc(S(=O)(=O)[O-])cc4F)c4nc(c(-c5c(F)cc(S(=O)(=O)[O-])cc5F)c5ccc2[nH]5)C=C4)C=C3)cc1
REMARK SMILES IDX 21 1 20 2 19 3 18 4 2 5 1 6 3 7 4 8 5 10 6 11 10 12 7 13
REMARK SMILES IDX 9 14 8 15 11 16 12 17 13 18 14 19 17 20 15 21 16 22 22 23
REMARK SMILES IDX 23 24 24 25 25 26 26 27 27 28 28 29 92 30 29 31 91 32 30 33
REMARK SMILES IDX 31 34 32 35 85 36 33 37 90 38 84 39 86 40 34 41 89 42 83 43
REMARK SMILES IDX 82 44 35 46 69 47 48 48 68 49 49 50 52 51 67 52 87 53 50 54
REMARK SMILES IDX 51 55 66 57 88 58 53 59 36 60 37 61 46 62 38 63 39 64 45 65
REMARK SMILES IDX 47 66 40 67 41 68 42 69 43 70 44 71 70 72 71 73 80 74 72 75
REMARK SMILES IDX 73 76 79 77 81 78 74 79 75 80 76 81 77 82 78 83 54 84 55 85
REMARK SMILES IDX 64 86 56 87 57 88 63 89 65 90 58 91 59 92 60 93 61 94 62 95
REMARK H PARENT 4 9 86 45 52 56
REMARK Flexibility Score: inf
ROOT
ATOM      1  O   UNL A   1      42.181  21.401  25.410  1.00  0.00    -0.374 OA
ENDROOT
BRANCH   1   2
ATOM      2  C   UNL A   1      41.556  20.443  26.263  1.00  0.00     0.202 C 
BRANCH   2   3
ATOM      3  C   UNL A   1      40.082  20.732  26.522  1.00  0.00     0.261 C 
BRANCH   3   4
ATOM      4  O   UNL A   1      39.624  21.889  25.802  1.00  0.00    -0.462 OA
BRANCH   4   5
ATOM      5  C   UNL A   1      38.317  22.237  25.746  1.00  0.00     0.325 C 
ATOM      6  O   UNL A   1      37.918  23.250  26.319  1.00  0.00    -0.250 OA
BRANCH   5   7
ATOM      7  C   UNL A   1      37.344  21.317  25.028  1.00  0.00     0.236 C 
BRANCH   7   8
ATOM      8  N   UNL A   1      35.973  21.393  25.516  1.00  0.00    -0.374 N 
ATOM      9  H   UNL A   1      35.772  21.122  26.441  1.00  0.00     0.161 HD
BRANCH   8  10
ATOM     10  C   UNL A   1      34.943  21.847  24.691  1.00  0.00     0.047 A 
ATOM     11  C   UNL A   1      35.300  22.963  23.888  1.00  0.00     0.026 A 
ATOM     12  C   UNL A   1      33.687  21.233  24.445  1.00  0.00     0.063 A 
ATOM     13  C   UNL A   1      34.503  23.434  22.845  1.00  0.00     0.002 A 
ATOM     14  C   UNL A   1      32.878  21.766  23.405  1.00  0.00     0.016 A 
ATOM     15  C   UNL A   1      33.283  22.833  22.603  1.00  0.00     0.001 A 
BRANCH  12  16
ATOM     16  C   UNL A   1      33.107  19.964  25.022  1.00  0.00     0.255 C 
ATOM     17  O   UNL A   1      32.155  20.084  25.803  1.00  0.00    -0.269 OA
ATOM     18  N   UNL A   1      33.534  18.684  24.715  1.00  0.00    -0.339 N 
ATOM     19  C   UNL A   1      34.858  18.184  24.407  1.00  0.00     0.120 C 
ATOM     20  C   UNL A   1      32.665  17.567  25.029  1.00  0.00     0.120 C 
ATOM     21  C   UNL A   1      34.616  16.777  23.847  1.00  0.00     0.023 C 
ATOM     22  C   UNL A   1      33.135  16.474  24.092  1.00  0.00     0.023 C 
ENDBRANCH  12  16
ENDBRANCH   8  10
ENDBRANCH   7   8
ENDBRANCH   5   7
ENDBRANCH   4   5
ENDBRANCH   3   4
ENDBRANCH   2   3
ENDBRANCH   1   2
BRANCH   1  23
ATOM     23  C   UNL A   1      43.299  22.092  25.977  1.00  0.00     0.202 C 
BRANCH  23  24
ATOM     24  C   UNL A   1      43.269  23.581  25.639  1.00  0.00     0.261 C 
BRANCH  24  25
ATOM     25  O   UNL A   1      42.289  24.207  26.472  1.00  0.00    -0.460 OA
BRANCH  25  26
ATOM     26  C   UNL A   1      41.953  25.465  26.103  1.00  0.00     0.338 C 
ATOM     27  O   UNL A   1      41.600  25.842  24.999  1.00  0.00    -0.246 OA
BRANCH  26  28
ATOM     28  C   UNL A   1      41.836  26.276  27.334  1.00  0.00     0.060 A 
ATOM     29  C   UNL A   1      40.784  25.974  28.207  1.00  0.00     0.016 A 
ATOM     30  C   UNL A   1      42.795  27.238  27.680  1.00  0.00     0.016 A 
ATOM     31  C   UNL A   1      40.664  26.659  29.410  1.00  0.00     0.010 A 
ATOM     32  C   UNL A   1      42.672  27.930  28.883  1.00  0.00     0.010 A 
ATOM     33  C   UNL A   1      41.584  27.667  29.728  1.00  0.00    -0.014 A 
BRANCH  33  34
ATOM     34  C   UNL A   1      41.255  28.597  30.824  1.00  0.00     0.031 A 
ATOM     35  C   UNL A   1      42.090  28.518  32.072  1.00  0.00     0.074 A 
ATOM     36  C   UNL A   1      40.290  29.520  30.680  1.00  0.00     0.049 A 
ATOM     37  N   UNL A   1      42.040  29.249  33.151  1.00  0.00    -0.248 NA
ATOM     38  C   UNL A   1      43.126  27.468  32.104  1.00  0.00     0.031 C 
ATOM     39  C   UNL A   1      39.440  29.679  29.500  1.00  0.00     0.029 A 
ATOM     40  N   UNL A   1      39.867  30.502  31.535  1.00  0.00    -0.354 N 
ATOM     41  C   UNL A   1      43.046  28.765  33.977  1.00  0.00     0.074 A 
ATOM     42  C   UNL A   1      43.658  27.644  33.302  1.00  0.00     0.031 C 
ATOM     43  C   UNL A   1      38.587  30.697  29.711  1.00  0.00     0.029 A 
ATOM     44  C   UNL A   1      38.824  31.249  31.044  1.00  0.00     0.049 A 
ATOM     45  H   UNL A   1      40.272  30.658  32.419  1.00  0.00     0.167 HD
ATOM     46  C   UNL A   1      43.439  29.231  35.184  1.00  0.00     0.037 A 
ATOM     47  C   UNL A   1      38.139  32.256  31.619  1.00  0.00     0.037 A 
ATOM     48  C   UNL A   1      42.805  30.337  35.850  1.00  0.00     0.049 A 
ATOM     49  C   UNL A   1      38.563  32.724  32.988  1.00  0.00     0.074 A 
ATOM     50  C   UNL A   1      43.102  30.887  37.082  1.00  0.00     0.029 A 
ATOM     51  N   UNL A   1      41.739  31.060  35.331  1.00  0.00    -0.354 N 
ATOM     52  N   UNL A   1      39.530  32.272  33.753  1.00  0.00    -0.248 NA
ATOM     53  C   UNL A   1      37.815  33.848  33.566  1.00  0.00     0.031 C 
ATOM     54  C   UNL A   1      42.189  31.919  37.327  1.00  0.00     0.029 A 
ATOM     55  C   UNL A   1      41.356  32.043  36.225  1.00  0.00     0.049 A 
ATOM     56  H   UNL A   1      41.318  30.896  34.456  1.00  0.00     0.167 HD
ATOM     57  C   UNL A   1      39.517  33.065  34.896  1.00  0.00     0.074 A 
ATOM     58  C   UNL A   1      38.464  34.044  34.706  1.00  0.00     0.031 C 
ATOM     59  C   UNL A   1      40.296  32.994  36.005  1.00  0.00     0.037 A 
BRANCH  46  60
ATOM     60  C   UNL A   1      44.591  28.538  35.854  1.00  0.00     0.058 A 
ATOM     61  C   UNL A   1      45.917  28.956  35.652  1.00  0.00     0.135 A 
ATOM     62  C   UNL A   1      44.371  27.459  36.725  1.00  0.00     0.135 A 
ATOM     63  F   UNL A   1      46.186  29.963  34.805  1.00  0.00    -0.206 F 
ATOM     64  C   UNL A   1      46.984  28.322  36.279  1.00  0.00     0.059 A 
ATOM     65  C   UNL A   1      45.422  26.826  37.383  1.00  0.00     0.059 A 
ATOM     66  F   UNL A   1      43.126  27.009  36.941  1.00  0.00    -0.206 F 
ATOM     67  C   UNL A   1      46.725  27.261  37.147  1.00  0.00     0.060 A 
BRANCH  67  68
ATOM     68  S   UNL A   1      48.119  26.469  37.978  1.00  0.00     0.124 S 
ATOM     69  O   UNL A   1      49.042  26.260  36.867  1.00  0.00    -0.237 OA
ATOM     70  O   UNL A   1      48.517  27.482  38.951  1.00  0.00    -0.237 OA
ATOM     71  O   UNL A   1      47.534  25.258  38.544  1.00  0.00    -0.744 OA
ENDBRANCH  67  68
ENDBRANCH  46  60
BRANCH  47  72
ATOM     72  C   UNL A   1      36.984  32.877  30.915  1.00  0.00     0.058 A 
ATOM     73  C   UNL A   1      35.660  32.536  31.232  1.00  0.00     0.135 A 
ATOM     74  C   UNL A   1      37.186  33.820  29.895  1.00  0.00     0.135 A 
ATOM     75  F   UNL A   1      35.412  31.635  32.195  1.00  0.00    -0.206 F 
ATOM     76  C   UNL A   1      34.581  33.088  30.548  1.00  0.00     0.059 A 
ATOM     77  C   UNL A   1      36.122  34.407  29.216  1.00  0.00     0.059 A 
ATOM     78  F   UNL A   1      38.431  34.193  29.561  1.00  0.00    -0.206 F 
ATOM     79  C   UNL A   1      34.823  34.023  29.540  1.00  0.00     0.060 A 
BRANCH  79  80
ATOM     80  S   UNL A   1      33.415  34.761  28.681  1.00  0.00     0.124 S 
ATOM     81  O   UNL A   1      34.034  35.916  28.040  1.00  0.00    -0.237 OA
ATOM     82  O   UNL A   1      33.000  33.682  27.790  1.00  0.00    -0.237 OA
ATOM     83  O   UNL A   1      32.484  35.063  29.763  1.00  0.00    -0.744 OA
ENDBRANCH  79  80
ENDBRANCH  47  72
BRANCH  59  84
ATOM     84  C   UNL A   1      40.040  34.014  37.080  1.00  0.00     0.058 A 
ATOM     85  C   UNL A   1      39.172  33.751  38.151  1.00  0.00     0.135 A 
ATOM     86  C   UNL A   1      40.684  35.261  37.045  1.00  0.00     0.135 A 
ATOM     87  F   UNL A   1      38.532  32.573  38.228  1.00  0.00    -0.206 F 
ATOM     88  C   UNL A   1      38.913  34.707  39.125  1.00  0.00     0.059 A 
ATOM     89  C   UNL A   1      40.465  36.221  38.027  1.00  0.00     0.059 A 
ATOM     90  F   UNL A   1      41.539  35.555  36.053  1.00  0.00    -0.206 F 
ATOM     91  C   UNL A   1      39.559  35.943  39.051  1.00  0.00     0.060 A 
BRANCH  91  92
ATOM     92  S   UNL A   1      39.207  37.183  40.313  1.00  0.00     0.124 S 
ATOM     93  O   UNL A   1      38.497  38.195  39.537  1.00  0.00    -0.237 OA
ATOM     94  O   UNL A   1      38.397  36.435  41.270  1.00  0.00    -0.237 OA
ATOM     95  O   UNL A   1      40.531  37.568  40.790  1.00  0.00    -0.744 OA
ENDBRANCH  91  92
ENDBRANCH  59  84
ENDBRANCH  33  34
ENDBRANCH  26  28
ENDBRANCH  25  26
ENDBRANCH  24  25
ENDBRANCH  23  24
ENDBRANCH   1  23
TORSDOF 20
ENDMDL
MODEL 3
REMARK VINA RESULT:     -10.7      1.108      2.019
REMARK SMILES O=C(CNc1ccccc1C(=O)N1CCCC1)OCCOCCOC(=O)c1ccc(-c2c3nc(c(-c4c(F)cc(S(=O)(=O)[O-])cc4F)c4ccc([nH]4)c(-c4c(F)cc(S(=O)(=O)[O-])cc4F)c4nc(c(-c5c(F)cc(S(=O)(=O)[O-])cc5F)c5ccc2[nH]5)C=C4)C=C3)cc1
REMARK SMILES IDX 21 1 20 2 19 3 18 4 2 5 1 6 3 7 4 8 5 10 6 11 10 12 7 13
REMARK SMILES IDX 9 14 8 15 11 16 12 17 13 18 14 19 17 20 15 21 16 22 22 23
REMARK SMILES IDX 23 24 24 25 25 26 26 27 27 28 28 29 92 30 29 31 91 32 30 33
REMARK SMILES IDX 31 34 32 35 85 36 33 37 90 38 84 39 86 40 34 41 89 42 83 43
REMARK SMILES IDX 82 44 35 46 69 47 48 48 68 49 49 50 52 51 67 52 87 53 50 54
REMARK SMILES IDX 51 55 66 57 88 58 53 59 36 60 37 61 46 62 38 63 39 64 45 65
REMARK SMILES IDX 47 66 40 67 41 68 42 69 43 70 44 71 70 72 71 73 80 74 72 75
REMARK SMILES IDX 73 76 79 77 81 78 74 79 75 80 76 81 77 82 78 83 54 84 55 85
REMARK SMILES IDX 64 86 56 87 57 88 63 89 65 90 58 91 59 92 60 93 61 94 62 95
REMARK H PARENT 4 9 86 45 52 56
REMARK Flexibility Score: inf
ROOT
ATOM      1  O   UNL A   1      42.080  21.773  25.375  1.00  0.00    -0.374 OA
ENDROOT
BRANCH   1   2
ATOM      2  C   UNL A   1      41.761  20.854  26.419  1.00  0.00     0.202 C 
BRANCH   2   3
ATOM      3  C   UNL A   1      40.376  20.235  26.280  1.00  0.00     0.261 C 
BRANCH   3   4
ATOM      4  O   UNL A   1      39.370  21.221  25.990  1.00  0.00    -0.462 OA
BRANCH   4   5
ATOM      5  C   UNL A   1      38.220  20.914  25.346  1.00  0.00     0.325 C 
ATOM      6  O   UNL A   1      37.996  19.757  24.989  1.00  0.00    -0.250 OA
BRANCH   5   7
ATOM      7  C   UNL A   1      37.248  22.032  25.007  1.00  0.00     0.236 C 
BRANCH   7   8
ATOM      8  N   UNL A   1      35.924  21.876  25.594  1.00  0.00    -0.374 N 
ATOM      9  H   UNL A   1      35.792  22.065  26.550  1.00  0.00     0.161 HD
BRANCH   8  10
ATOM     10  C   UNL A   1      34.840  21.462  24.818  1.00  0.00     0.047 A 
ATOM     11  C   UNL A   1      34.499  20.093  24.993  1.00  0.00     0.026 A 
ATOM     12  C   UNL A   1      33.966  22.264  24.039  1.00  0.00     0.063 A 
ATOM     13  C   UNL A   1      33.326  19.533  24.487  1.00  0.00     0.002 A 
ATOM     14  C   UNL A   1      32.803  21.651  23.499  1.00  0.00     0.016 A 
ATOM     15  C   UNL A   1      32.473  20.316  23.734  1.00  0.00     0.001 A 
BRANCH  12  16
ATOM     16  C   UNL A   1      33.984  23.756  23.804  1.00  0.00     0.255 C 
ATOM     17  O   UNL A   1      34.752  24.179  22.932  1.00  0.00    -0.269 OA
ATOM     18  N   UNL A   1      33.182  24.673  24.461  1.00  0.00    -0.339 N 
ATOM     19  C   UNL A   1      32.690  24.684  25.823  1.00  0.00     0.120 C 
ATOM     20  C   UNL A   1      33.022  25.993  23.886  1.00  0.00     0.120 C 
ATOM     21  C   UNL A   1      31.610  25.773  25.831  1.00  0.00     0.023 C 
ATOM     22  C   UNL A   1      31.720  26.488  24.481  1.00  0.00     0.023 C 
ENDBRANCH  12  16
ENDBRANCH   8  10
ENDBRANCH   7   8
ENDBRANCH   5   7
ENDBRANCH   4   5
ENDBRANCH   3   4
ENDBRANCH   2   3
ENDBRANCH   1   2
BRANCH   1  23
ATOM     23  C   UNL A   1      42.991  22.817  25.732  1.00  0.00     0.202 C 
BRANCH  23  24
ATOM     24  C   UNL A   1      42.470  23.637  26.910  1.00  0.00     0.261 C 
BRANCH  24  25
ATOM     25  O   UNL A   1      41.212  24.205  26.536  1.00  0.00    -0.460 OA
BRANCH  25  26
ATOM     26  C   UNL A   1      41.269  25.499  26.143  1.00  0.00     0.338 C 
ATOM     27  O   UNL A   1      41.171  25.932  25.007  1.00  0.00    -0.246 OA
BRANCH  26  28
ATOM     28  C   UNL A   1      41.214  26.340  27.358  1.00  0.00     0.060 A 
ATOM     29  C   UNL A   1      40.193  26.075  28.278  1.00  0.00     0.016 A 
ATOM     30  C   UNL A   1      42.201  27.293  27.645  1.00  0.00     0.016 A 
ATOM     31  C   UNL A   1      40.131  26.788  29.469  1.00  0.00     0.010 A 
ATOM     32  C   UNL A   1      42.137  28.013  28.835  1.00  0.00     0.010 A 
ATOM     33  C   UNL A   1      41.079  27.787  29.728  1.00  0.00    -0.014 A 
BRANCH  33  34
ATOM     34  C   UNL A   1      40.809  28.747  30.815  1.00  0.00     0.031 A 
ATOM     35  C   UNL A   1      41.658  28.648  32.051  1.00  0.00     0.074 A 
ATOM     36  C   UNL A   1      39.885  29.711  30.670  1.00  0.00     0.049 A 
ATOM     37  N   UNL A   1      41.657  29.397  33.119  1.00  0.00    -0.248 NA
ATOM     38  C   UNL A   1      42.646  27.553  32.084  1.00  0.00     0.031 C 
ATOM     39  C   UNL A   1      39.025  29.891  29.500  1.00  0.00     0.029 A 
ATOM     40  N   UNL A   1      39.519  30.723  31.517  1.00  0.00    -0.354 N 
ATOM     41  C   UNL A   1      42.653  28.879  33.939  1.00  0.00     0.074 A 
ATOM     42  C   UNL A   1      43.203  27.722  33.272  1.00  0.00     0.031 C 
ATOM     43  C   UNL A   1      38.222  30.949  29.708  1.00  0.00     0.029 A 
ATOM     44  C   UNL A   1      38.503  31.509  31.030  1.00  0.00     0.049 A 
ATOM     45  H   UNL A   1      39.943  30.873  32.393  1.00  0.00     0.167 HD
ATOM     46  C   UNL A   1      43.084  29.344  35.133  1.00  0.00     0.037 A 
ATOM     47  C   UNL A   1      37.873  32.554  31.599  1.00  0.00     0.037 A 
ATOM     48  C   UNL A   1      42.511  30.487  35.791  1.00  0.00     0.049 A 
ATOM     49  C   UNL A   1      38.338  33.023  32.955  1.00  0.00     0.074 A 
ATOM     50  C   UNL A   1      42.850  31.041  37.011  1.00  0.00     0.029 A 
ATOM     51  N   UNL A   1      41.471  31.250  35.276  1.00  0.00    -0.354 N 
ATOM     52  N   UNL A   1      39.295  32.538  33.713  1.00  0.00    -0.248 NA
ATOM     53  C   UNL A   1      37.651  34.188  33.526  1.00  0.00     0.031 C 
ATOM     54  C   UNL A   1      41.988  32.117  37.252  1.00  0.00     0.029 A 
ATOM     55  C   UNL A   1      41.146  32.262  36.161  1.00  0.00     0.049 A 
ATOM     56  H   UNL A   1      41.030  31.093  34.410  1.00  0.00     0.167 HD
ATOM     57  C   UNL A   1      39.335  33.347  34.843  1.00  0.00     0.074 A 
ATOM     58  C   UNL A   1      38.324  34.370  34.653  1.00  0.00     0.031 C 
ATOM     59  C   UNL A   1      40.126  33.257  35.942  1.00  0.00     0.037 A 
BRANCH  46  60
ATOM     60  C   UNL A   1      44.214  28.609  35.797  1.00  0.00     0.058 A 
ATOM     61  C   UNL A   1      43.976  27.539  36.677  1.00  0.00     0.135 A 
ATOM     62  C   UNL A   1      45.547  28.961  35.539  1.00  0.00     0.135 A 
ATOM     63  F   UNL A   1      42.719  27.183  36.983  1.00  0.00    -0.206 F 
ATOM     64  C   UNL A   1      45.021  26.852  37.284  1.00  0.00     0.059 A 
ATOM     65  C   UNL A   1      46.609  28.270  36.117  1.00  0.00     0.059 A 
ATOM     66  F   UNL A   1      45.830  29.985  34.719  1.00  0.00    -0.206 F 
ATOM     67  C   UNL A   1      46.335  27.222  36.994  1.00  0.00     0.060 A 
BRANCH  67  68
ATOM     68  S   UNL A   1      47.680  26.299  37.767  1.00  0.00     0.124 S 
ATOM     69  O   UNL A   1      48.713  27.324  37.877  1.00  0.00    -0.237 OA
ATOM     70  O   UNL A   1      47.078  25.867  39.025  1.00  0.00    -0.237 OA
ATOM     71  O   UNL A   1      47.955  25.232  36.809  1.00  0.00    -0.744 OA
ENDBRANCH  67  68
ENDBRANCH  46  60
BRANCH  47  72
ATOM     72  C   UNL A   1      36.737  33.217  30.903  1.00  0.00     0.058 A 
ATOM     73  C   UNL A   1      36.945  34.127  29.856  1.00  0.00     0.135 A 
ATOM     74  C   UNL A   1      35.410  32.958  31.284  1.00  0.00     0.135 A 
ATOM     75  F   UNL A   1      38.194  34.414  29.457  1.00  0.00    -0.206 F 
ATOM     76  C   UNL A   1      35.885  34.776  29.230  1.00  0.00     0.059 A 
ATOM     77  C   UNL A   1      34.332  33.573  30.655  1.00  0.00     0.059 A 
ATOM     78  F   UNL A   1      35.152  32.085  32.271  1.00  0.00    -0.206 F 
ATOM     79  C   UNL A   1      34.580  34.492  29.638  1.00  0.00     0.060 A 
BRANCH  79  80
ATOM     80  S   UNL A   1      33.207  35.311  28.797  1.00  0.00     0.124 S 
ATOM     81  O   UNL A   1      32.455  35.854  29.922  1.00  0.00    -0.237 OA
ATOM     82  O   UNL A   1      33.899  36.287  27.961  1.00  0.00    -0.237 OA
ATOM     83  O   UNL A   1      32.562  34.222  28.072  1.00  0.00    -0.744 OA
ENDBRANCH  79  80
ENDBRANCH  47  72
BRANCH  59  84
ATOM     84  C   UNL A   1      39.933  34.303  37.005  1.00  0.00     0.058 A 
ATOM     85  C   UNL A   1      39.087  34.086  38.104  1.00  0.00     0.135 A 
ATOM     86  C   UNL A   1      40.615  35.527  36.930  1.00  0.00     0.135 A 
ATOM     87  F   UNL A   1      38.413  32.930  38.219  1.00  0.00    -0.206 F 
ATOM     88  C   UNL A   1      38.885  35.066  39.067  1.00  0.00     0.059 A 
ATOM     89  C   UNL A   1      40.453  36.511  37.901  1.00  0.00     0.059 A 
ATOM     90  F   UNL A   1      41.450  35.777  35.910  1.00  0.00    -0.206 F 
ATOM     91  C   UNL A   1      39.568  36.279  38.953  1.00  0.00     0.060 A 
BRANCH  91  92
ATOM     92  S   UNL A   1      39.290  37.551  40.202  1.00  0.00     0.124 S 
ATOM     93  O   UNL A   1      38.228  38.338  39.585  1.00  0.00    -0.237 OA
ATOM     94  O   UNL A   1      38.900  36.765  41.369  1.00  0.00    -0.237 OA
ATOM     95  O   UNL A   1      40.586  38.214  40.306  1.00  0.00    -0.744 OA
ENDBRANCH  91  92
ENDBRANCH  59  84
ENDBRANCH  33  34
ENDBRANCH  26  28
ENDBRANCH  25  26
ENDBRANCH  24  25
ENDBRANCH  23  24
ENDBRANCH   1  23
TORSDOF 20
ENDMDL
