MODEL 1
REMARK VINA RESULT:     -11.4      0.000      0.000
REMARK SMILES Cc1cc(=O)n2nc(C)c(C(=O)OCCOCCOC(=O)c3ccc(-c4c5nc(c(-c6c(F)cc(S(=O)(=O)[O-])cc6F)c6ccc([nH]6)c(-c6c(F)cc(S(=O)(=O)[O-])cc6F)c6nc(c(-c7c(F)cc(S(=O)(=O)[O-])cc7F)c7ccc4[nH]7)C=C6)C=C5)cc3)c2[nH]1
REMARK SMILES IDX 17 1 16 2 15 3 14 4 13 5 11 6 12 7 10 8 1 9 2 10 3 11 89 12
REMARK SMILES IDX 4 13 88 14 5 16 6 17 7 18 8 19 9 20 18 21 19 22 20 23 21 24
REMARK SMILES IDX 22 25 23 26 87 27 24 28 86 29 25 30 26 31 27 32 80 33 28 34
REMARK SMILES IDX 85 35 79 36 81 37 29 38 84 39 78 40 77 41 30 43 64 44 43 45
REMARK SMILES IDX 63 46 44 47 47 48 62 49 82 50 45 51 46 52 61 54 83 55 48 56
REMARK SMILES IDX 31 57 32 58 41 59 33 60 34 61 40 62 42 63 35 64 36 65 37 66
REMARK SMILES IDX 38 67 39 68 65 69 66 70 75 71 67 72 68 73 74 74 76 75 69 76
REMARK SMILES IDX 70 77 71 78 72 79 73 80 49 81 50 82 59 83 51 84 52 85 58 86
REMARK SMILES IDX 60 87 53 88 54 89 55 90 56 91 57 92
REMARK H PARENT 89 15 81 42 47 53
REMARK Flexibility Score: inf
ROOT
ATOM      1  C   UNL A   1      44.833  21.415  24.503  1.00  0.00     0.202 C 
ENDROOT
BRANCH   1   2
ATOM      2  O   UNL A   1      44.228  20.173  24.158  1.00  0.00    -0.374 OA
BRANCH   2   3
ATOM      3  C   UNL A   1      44.287  19.060  25.049  1.00  0.00     0.202 C 
BRANCH   3   4
ATOM      4  C   UNL A   1      43.000  18.618  25.750  1.00  0.00     0.261 C 
BRANCH   4   5
ATOM      5  O   UNL A   1      42.406  19.671  26.524  1.00  0.00    -0.459 OA
BRANCH   5   6
ATOM      6  C   UNL A   1      41.099  19.922  26.228  1.00  0.00     0.343 C 
ATOM      7  O   UNL A   1      40.323  19.098  25.760  1.00  0.00    -0.246 OA
BRANCH   6   8
ATOM      8  C   UNL A   1      40.660  21.224  26.678  1.00  0.00     0.125 A 
ATOM      9  C   UNL A   1      36.340  21.802  24.274  1.00  0.00     0.064 C 
ATOM     10  C   UNL A   1      37.455  22.341  25.126  1.00  0.00     0.019 A 
ATOM     11  C   UNL A   1      37.415  23.589  25.633  1.00  0.00     0.095 A 
ATOM     12  N   UNL A   1      38.519  21.495  25.386  1.00  0.00    -0.343 N 
ATOM     13  C   UNL A   1      38.500  24.067  26.537  1.00  0.00     0.274 A 
ATOM     14  C   UNL A   1      39.525  21.856  26.221  1.00  0.00     0.152 A 
ATOM     15  H   UNL A   1      38.546  20.610  24.955  1.00  0.00     0.168 HD
ATOM     16  O   UNL A   1      38.540  25.198  27.003  1.00  0.00    -0.267 OA
ATOM     17  N   UNL A   1      39.479  23.097  26.815  1.00  0.00    -0.179 N 
ATOM     18  N   UNL A   1      40.474  23.258  27.725  1.00  0.00    -0.168 NA
ATOM     19  C   UNL A   1      41.150  22.099  27.686  1.00  0.00     0.077 A 
ATOM     20  C   UNL A   1      42.262  21.868  28.646  1.00  0.00     0.070 C 
ENDBRANCH   6   8
ENDBRANCH   5   6
ENDBRANCH   4   5
ENDBRANCH   3   4
ENDBRANCH   2   3
ENDBRANCH   1   2
BRANCH   1  21
ATOM     21  C   UNL A   1      44.107  22.373  25.434  1.00  0.00     0.261 C 
BRANCH  21  22
ATOM     22  O   UNL A   1      43.408  23.369  24.712  1.00  0.00    -0.460 OA
BRANCH  22  23
ATOM     23  C   UNL A   1      43.802  24.629  25.016  1.00  0.00     0.338 C 
ATOM     24  O   UNL A   1      44.797  25.203  24.627  1.00  0.00    -0.246 OA
BRANCH  23  25
ATOM     25  C   UNL A   1      42.887  25.153  26.036  1.00  0.00     0.060 A 
ATOM     26  C   UNL A   1      41.886  25.990  25.545  1.00  0.00     0.016 A 
ATOM     27  C   UNL A   1      43.286  25.154  27.381  1.00  0.00     0.016 A 
ATOM     28  C   UNL A   1      41.519  27.054  26.327  1.00  0.00     0.010 A 
ATOM     29  C   UNL A   1      42.925  26.223  28.156  1.00  0.00     0.010 A 
ATOM     30  C   UNL A   1      42.140  27.211  27.572  1.00  0.00    -0.014 A 
BRANCH  30  31
ATOM     31  C   UNL A   1      41.853  28.410  28.318  1.00  0.00     0.031 A 
ATOM     32  C   UNL A   1      42.972  29.366  28.227  1.00  0.00     0.074 A 
ATOM     33  C   UNL A   1      40.679  28.612  28.943  1.00  0.00     0.049 A 
ATOM     34  N   UNL A   1      43.848  29.623  29.138  1.00  0.00    -0.248 NA
ATOM     35  C   UNL A   1      43.323  29.881  26.892  1.00  0.00     0.031 C 
ATOM     36  C   UNL A   1      39.452  27.814  28.888  1.00  0.00     0.029 A 
ATOM     37  N   UNL A   1      40.321  29.663  29.725  1.00  0.00    -0.354 N 
ATOM     38  C   UNL A   1      44.712  30.540  28.559  1.00  0.00     0.074 A 
ATOM     39  C   UNL A   1      44.497  30.460  27.140  1.00  0.00     0.031 C 
ATOM     40  C   UNL A   1      38.429  28.530  29.413  1.00  0.00     0.029 A 
ATOM     41  C   UNL A   1      38.953  29.770  29.961  1.00  0.00     0.049 A 
ATOM     42  H   UNL A   1      40.976  30.299  30.094  1.00  0.00     0.167 HD
ATOM     43  C   UNL A   1      45.319  31.495  29.313  1.00  0.00     0.037 A 
ATOM     44  C   UNL A   1      38.335  30.855  30.499  1.00  0.00     0.037 A 
ATOM     45  C   UNL A   1      45.264  31.158  30.713  1.00  0.00     0.049 A 
ATOM     46  C   UNL A   1      39.390  31.617  31.232  1.00  0.00     0.074 A 
ATOM     47  C   UNL A   1      45.758  30.112  31.470  1.00  0.00     0.029 A 
ATOM     48  N   UNL A   1      44.271  31.740  31.466  1.00  0.00    -0.354 N 
ATOM     49  N   UNL A   1      39.996  31.156  32.296  1.00  0.00    -0.248 NA
ATOM     50  C   UNL A   1      40.127  32.632  30.488  1.00  0.00     0.031 C 
ATOM     51  C   UNL A   1      44.737  29.833  32.424  1.00  0.00     0.029 A 
ATOM     52  C   UNL A   1      43.713  30.767  32.255  1.00  0.00     0.049 A 
ATOM     53  H   UNL A   1      44.006  32.688  31.442  1.00  0.00     0.167 HD
ATOM     54  C   UNL A   1      41.331  31.504  32.129  1.00  0.00     0.074 A 
ATOM     55  C   UNL A   1      41.341  32.460  31.022  1.00  0.00     0.031 C 
ATOM     56  C   UNL A   1      42.333  30.767  32.695  1.00  0.00     0.037 A 
BRANCH  43  57
ATOM     57  C   UNL A   1      45.592  32.892  28.823  1.00  0.00     0.058 A 
ATOM     58  C   UNL A   1      46.897  33.409  28.933  1.00  0.00     0.135 A 
ATOM     59  C   UNL A   1      44.585  33.834  28.510  1.00  0.00     0.135 A 
ATOM     60  F   UNL A   1      47.928  32.604  29.235  1.00  0.00    -0.206 F 
ATOM     61  C   UNL A   1      47.168  34.770  28.813  1.00  0.00     0.059 A 
ATOM     62  C   UNL A   1      44.843  35.184  28.327  1.00  0.00     0.059 A 
ATOM     63  F   UNL A   1      43.286  33.518  28.462  1.00  0.00    -0.206 F 
ATOM     64  C   UNL A   1      46.130  35.651  28.522  1.00  0.00     0.060 A 
BRANCH  64  65
ATOM     65  S   UNL A   1      46.456  37.418  28.470  1.00  0.00     0.124 S 
ATOM     66  O   UNL A   1      45.203  37.961  28.980  1.00  0.00    -0.237 OA
ATOM     67  O   UNL A   1      47.613  37.534  29.352  1.00  0.00    -0.237 OA
ATOM     68  O   UNL A   1      46.725  37.669  27.057  1.00  0.00    -0.744 OA
ENDBRANCH  64  65
ENDBRANCH  43  57
BRANCH  44  69
ATOM     69  C   UNL A   1      37.026  31.453  30.112  1.00  0.00     0.058 A 
ATOM     70  C   UNL A   1      36.230  32.155  31.039  1.00  0.00     0.135 A 
ATOM     71  C   UNL A   1      36.653  31.588  28.759  1.00  0.00     0.135 A 
ATOM     72  F   UNL A   1      36.523  32.110  32.347  1.00  0.00    -0.206 F 
ATOM     73  C   UNL A   1      35.157  32.969  30.645  1.00  0.00     0.059 A 
ATOM     74  C   UNL A   1      35.586  32.387  28.343  1.00  0.00     0.059 A 
ATOM     75  F   UNL A   1      37.373  31.015  27.784  1.00  0.00    -0.206 F 
ATOM     76  C   UNL A   1      34.855  33.093  29.289  1.00  0.00     0.060 A 
BRANCH  76  77
ATOM     77  S   UNL A   1      33.575  34.260  28.760  1.00  0.00     0.124 S 
ATOM     78  O   UNL A   1      32.917  34.581  30.021  1.00  0.00    -0.237 OA
ATOM     79  O   UNL A   1      34.364  35.331  28.162  1.00  0.00    -0.237 OA
ATOM     80  O   UNL A   1      32.773  33.481  27.820  1.00  0.00    -0.744 OA
ENDBRANCH  76  77
ENDBRANCH  44  69
BRANCH  56  81
ATOM     81  C   UNL A   1      41.968  29.709  33.708  1.00  0.00     0.058 A 
ATOM     82  C   UNL A   1      41.638  28.381  33.379  1.00  0.00     0.135 A 
ATOM     83  C   UNL A   1      42.187  29.998  35.062  1.00  0.00     0.135 A 
ATOM     84  F   UNL A   1      41.502  28.003  32.100  1.00  0.00    -0.206 F 
ATOM     85  C   UNL A   1      41.522  27.389  34.356  1.00  0.00     0.059 A 
ATOM     86  C   UNL A   1      42.105  29.020  36.049  1.00  0.00     0.059 A 
ATOM     87  F   UNL A   1      42.562  31.233  35.432  1.00  0.00    -0.206 F 
ATOM     88  C   UNL A   1      41.771  27.716  35.690  1.00  0.00     0.060 A 
BRANCH  88  89
ATOM     89  S   UNL A   1      41.739  26.412  36.941  1.00  0.00     0.124 S 
ATOM     90  O   UNL A   1      41.829  25.204  36.128  1.00  0.00    -0.237 OA
ATOM     91  O   UNL A   1      42.915  26.722  37.750  1.00  0.00    -0.237 OA
ATOM     92  O   UNL A   1      40.459  26.616  37.615  1.00  0.00    -0.744 OA
ENDBRANCH  88  89
ENDBRANCH  56  81
ENDBRANCH  30  31
ENDBRANCH  23  25
ENDBRANCH  22  23
ENDBRANCH  21  22
ENDBRANCH   1  21
TORSDOF 17
ENDMDL
MODEL 2
REMARK VINA RESULT:     -11.2      2.893      4.576
REMARK SMILES Cc1cc(=O)n2nc(C)c(C(=O)OCCOCCOC(=O)c3ccc(-c4c5nc(c(-c6c(F)cc(S(=O)(=O)[O-])cc6F)c6ccc([nH]6)c(-c6c(F)cc(S(=O)(=O)[O-])cc6F)c6nc(c(-c7c(F)cc(S(=O)(=O)[O-])cc7F)c7ccc4[nH]7)C=C6)C=C5)cc3)c2[nH]1
REMARK SMILES IDX 17 1 16 2 15 3 14 4 13 5 11 6 12 7 10 8 1 9 2 10 3 11 89 12
REMARK SMILES IDX 4 13 88 14 5 16 6 17 7 18 8 19 9 20 18 21 19 22 20 23 21 24
REMARK SMILES IDX 22 25 23 26 87 27 24 28 86 29 25 30 26 31 27 32 80 33 28 34
REMARK SMILES IDX 85 35 79 36 81 37 29 38 84 39 78 40 77 41 30 43 64 44 43 45
REMARK SMILES IDX 63 46 44 47 47 48 62 49 82 50 45 51 46 52 61 54 83 55 48 56
REMARK SMILES IDX 31 57 32 58 41 59 33 60 34 61 40 62 42 63 35 64 36 65 37 66
REMARK SMILES IDX 38 67 39 68 65 69 66 70 75 71 67 72 68 73 74 74 76 75 69 76
REMARK SMILES IDX 70 77 71 78 72 79 73 80 49 81 50 82 59 83 51 84 52 85 58 86
REMARK SMILES IDX 60 87 53 88 54 89 55 90 56 91 57 92
REMARK H PARENT 89 15 81 42 47 53
REMARK Flexibility Score: inf
ROOT
ATOM      1  C   UNL A   1      37.321  21.143  25.348  1.00  0.00     0.202 C 
ENDROOT
BRANCH   1   2
ATOM      2  O   UNL A   1      36.300  21.981  25.880  1.00  0.00    -0.374 OA
BRANCH   2   3
ATOM      3  C   UNL A   1      34.976  21.485  26.076  1.00  0.00     0.202 C 
BRANCH   3   4
ATOM      4  C   UNL A   1      34.097  22.150  27.137  1.00  0.00     0.261 C 
BRANCH   4   5
ATOM      5  O   UNL A   1      33.514  23.379  26.677  1.00  0.00    -0.459 OA
BRANCH   5   6
ATOM      6  C   UNL A   1      32.381  23.224  25.935  1.00  0.00     0.343 C 
ATOM      7  O   UNL A   1      31.270  23.006  26.402  1.00  0.00    -0.246 OA
BRANCH   6   8
ATOM      8  C   UNL A   1      32.584  23.508  24.531  1.00  0.00     0.125 A 
ATOM      9  C   UNL A   1      33.943  28.297  24.579  1.00  0.00     0.064 C 
ATOM     10  C   UNL A   1      33.530  27.052  23.843  1.00  0.00     0.019 A 
ATOM     11  C   UNL A   1      33.503  27.005  22.497  1.00  0.00     0.095 A 
ATOM     12  N   UNL A   1      33.198  25.946  24.606  1.00  0.00    -0.343 N 
ATOM     13  C   UNL A   1      33.164  25.733  21.796  1.00  0.00     0.274 A 
ATOM     14  C   UNL A   1      32.907  24.751  24.035  1.00  0.00     0.152 A 
ATOM     15  H   UNL A   1      33.173  26.028  25.588  1.00  0.00     0.168 HD
ATOM     16  O   UNL A   1      33.089  25.634  20.579  1.00  0.00    -0.267 OA
ATOM     17  N   UNL A   1      32.941  24.648  22.662  1.00  0.00    -0.179 N 
ATOM     18  N   UNL A   1      32.766  23.367  22.248  1.00  0.00    -0.168 NA
ATOM     19  C   UNL A   1      32.614  22.668  23.384  1.00  0.00     0.077 A 
ATOM     20  C   UNL A   1      32.506  21.187  23.323  1.00  0.00     0.070 C 
ENDBRANCH   6   8
ENDBRANCH   5   6
ENDBRANCH   4   5
ENDBRANCH   3   4
ENDBRANCH   2   3
ENDBRANCH   1   2
BRANCH   1  21
ATOM     21  C   UNL A   1      38.778  21.436  25.667  1.00  0.00     0.261 C 
BRANCH  21  22
ATOM     22  O   UNL A   1      38.910  22.588  26.478  1.00  0.00    -0.460 OA
BRANCH  22  23
ATOM     23  C   UNL A   1      40.058  22.611  27.197  1.00  0.00     0.338 C 
ATOM     24  O   UNL A   1      40.493  21.735  27.914  1.00  0.00    -0.246 OA
BRANCH  23  25
ATOM     25  C   UNL A   1      40.633  23.956  27.085  1.00  0.00     0.060 A 
ATOM     26  C   UNL A   1      41.781  24.163  27.847  1.00  0.00     0.016 A 
ATOM     27  C   UNL A   1      39.831  25.008  26.618  1.00  0.00     0.016 A 
ATOM     28  C   UNL A   1      41.940  25.399  28.418  1.00  0.00     0.010 A 
ATOM     29  C   UNL A   1      39.988  26.239  27.196  1.00  0.00     0.010 A 
ATOM     30  C   UNL A   1      40.969  26.376  28.172  1.00  0.00    -0.014 A 
BRANCH  30  31
ATOM     31  C   UNL A   1      41.072  27.620  28.892  1.00  0.00     0.031 A 
ATOM     32  C   UNL A   1      42.179  28.441  28.366  1.00  0.00     0.074 A 
ATOM     33  C   UNL A   1      40.210  27.970  29.864  1.00  0.00     0.049 A 
ATOM     34  N   UNL A   1      43.335  28.623  28.907  1.00  0.00    -0.248 NA
ATOM     35  C   UNL A   1      42.097  28.876  26.961  1.00  0.00     0.031 C 
ATOM     36  C   UNL A   1      38.968  27.314  30.279  1.00  0.00     0.029 A 
ATOM     37  N   UNL A   1      40.246  29.076  30.651  1.00  0.00    -0.354 N 
ATOM     38  C   UNL A   1      44.031  29.421  28.013  1.00  0.00     0.074 A 
ATOM     39  C   UNL A   1      43.334  29.327  26.759  1.00  0.00     0.031 C 
ATOM     40  C   UNL A   1      38.262  28.154  31.073  1.00  0.00     0.029 A 
ATOM     41  C   UNL A   1      39.059  29.341  31.329  1.00  0.00     0.049 A 
ATOM     42  H   UNL A   1      41.046  29.643  30.735  1.00  0.00     0.167 HD
ATOM     43  C   UNL A   1      44.949  30.321  28.454  1.00  0.00     0.037 A 
ATOM     44  C   UNL A   1      38.771  30.504  31.975  1.00  0.00     0.037 A 
ATOM     45  C   UNL A   1      45.347  30.031  29.808  1.00  0.00     0.049 A 
ATOM     46  C   UNL A   1      40.082  31.162  32.256  1.00  0.00     0.074 A 
ATOM     47  C   UNL A   1      45.967  28.958  30.418  1.00  0.00     0.029 A 
ATOM     48  N   UNL A   1      44.734  30.742  30.814  1.00  0.00    -0.354 N 
ATOM     49  N   UNL A   1      40.970  30.666  33.079  1.00  0.00    -0.248 NA
ATOM     50  C   UNL A   1      40.613  32.067  31.243  1.00  0.00     0.031 C 
ATOM     51  C   UNL A   1      45.315  28.822  31.678  1.00  0.00     0.029 A 
ATOM     52  C   UNL A   1      44.390  29.859  31.806  1.00  0.00     0.049 A 
ATOM     53  H   UNL A   1      44.569  31.713  30.820  1.00  0.00     0.167 HD
ATOM     54  C   UNL A   1      42.193  30.856  32.448  1.00  0.00     0.074 A 
ATOM     55  C   UNL A   1      41.913  31.774  31.343  1.00  0.00     0.031 C 
ATOM     56  C   UNL A   1      43.252  30.027  32.687  1.00  0.00     0.037 A 
BRANCH  43  57
ATOM     57  C   UNL A   1      45.170  31.665  27.811  1.00  0.00     0.058 A 
ATOM     58  C   UNL A   1      46.421  31.943  27.229  1.00  0.00     0.135 A 
ATOM     59  C   UNL A   1      44.314  32.778  27.984  1.00  0.00     0.135 A 
ATOM     60  F   UNL A   1      47.315  30.962  27.026  1.00  0.00    -0.206 F 
ATOM     61  C   UNL A   1      46.819  33.240  26.910  1.00  0.00     0.059 A 
ATOM     62  C   UNL A   1      44.668  34.067  27.618  1.00  0.00     0.059 A 
ATOM     63  F   UNL A   1      43.133  32.694  28.605  1.00  0.00    -0.206 F 
ATOM     64  C   UNL A   1      45.939  34.297  27.121  1.00  0.00     0.060 A 
BRANCH  64  65
ATOM     65  S   UNL A   1      46.484  35.981  26.810  1.00  0.00     0.124 S 
ATOM     66  O   UNL A   1      47.223  35.822  25.563  1.00  0.00    -0.237 OA
ATOM     67  O   UNL A   1      45.214  36.693  26.718  1.00  0.00    -0.237 OA
ATOM     68  O   UNL A   1      47.290  36.297  27.986  1.00  0.00    -0.744 OA
ENDBRANCH  64  65
ENDBRANCH  43  57
BRANCH  44  69
ATOM     69  C   UNL A   1      37.474  31.235  32.017  1.00  0.00     0.058 A 
ATOM     70  C   UNL A   1      36.930  31.710  33.226  1.00  0.00     0.135 A 
ATOM     71  C   UNL A   1      36.869  31.725  30.840  1.00  0.00     0.135 A 
ATOM     72  F   UNL A   1      37.456  31.322  34.398  1.00  0.00    -0.206 F 
ATOM     73  C   UNL A   1      35.881  32.641  33.265  1.00  0.00     0.059 A 
ATOM     74  C   UNL A   1      35.821  32.646  30.854  1.00  0.00     0.059 A 
ATOM     75  F   UNL A   1      37.341  31.388  29.630  1.00  0.00    -0.206 F 
ATOM     76  C   UNL A   1      35.345  33.119  32.070  1.00  0.00     0.060 A 
BRANCH  76  77
ATOM     77  S   UNL A   1      34.101  34.434  32.108  1.00  0.00     0.124 S 
ATOM     78  O   UNL A   1      33.096  33.876  33.005  1.00  0.00    -0.237 OA
ATOM     79  O   UNL A   1      34.863  35.563  32.628  1.00  0.00    -0.237 OA
ATOM     80  O   UNL A   1      33.691  34.554  30.711  1.00  0.00    -0.744 OA
ENDBRANCH  76  77
ENDBRANCH  44  69
BRANCH  56  81
ATOM     81  C   UNL A   1      43.158  29.045  33.829  1.00  0.00     0.058 A 
ATOM     82  C   UNL A   1      43.363  29.381  35.180  1.00  0.00     0.135 A 
ATOM     83  C   UNL A   1      42.617  27.780  33.559  1.00  0.00     0.135 A 
ATOM     84  F   UNL A   1      43.790  30.604  35.526  1.00  0.00    -0.206 F 
ATOM     85  C   UNL A   1      43.052  28.494  36.214  1.00  0.00     0.059 A 
ATOM     86  C   UNL A   1      42.274  26.892  34.573  1.00  0.00     0.059 A 
ATOM     87  F   UNL A   1      42.344  27.423  32.293  1.00  0.00    -0.206 F 
ATOM     88  C   UNL A   1      42.494  27.254  35.900  1.00  0.00     0.060 A 
BRANCH  88  89
ATOM     89  S   UNL A   1      41.981  26.152  37.238  1.00  0.00     0.124 S 
ATOM     90  O   UNL A   1      40.641  26.642  37.542  1.00  0.00    -0.237 OA
ATOM     91  O   UNL A   1      42.048  24.837  36.607  1.00  0.00    -0.237 OA
ATOM     92  O   UNL A   1      42.981  26.386  38.276  1.00  0.00    -0.744 OA
ENDBRANCH  88  89
ENDBRANCH  56  81
ENDBRANCH  30  31
ENDBRANCH  23  25
ENDBRANCH  22  23
ENDBRANCH  21  22
ENDBRANCH   1  21
TORSDOF 17
ENDMDL
MODEL 3
REMARK VINA RESULT:     -11.1      2.226      3.426
REMARK SMILES Cc1cc(=O)n2nc(C)c(C(=O)OCCOCCOC(=O)c3ccc(-c4c5nc(c(-c6c(F)cc(S(=O)(=O)[O-])cc6F)c6ccc([nH]6)c(-c6c(F)cc(S(=O)(=O)[O-])cc6F)c6nc(c(-c7c(F)cc(S(=O)(=O)[O-])cc7F)c7ccc4[nH]7)C=C6)C=C5)cc3)c2[nH]1
REMARK SMILES IDX 17 1 16 2 15 3 14 4 13 5 11 6 12 7 10 8 1 9 2 10 3 11 89 12
REMARK SMILES IDX 4 13 88 14 5 16 6 17 7 18 8 19 9 20 18 21 19 22 20 23 21 24
REMARK SMILES IDX 22 25 23 26 87 27 24 28 86 29 25 30 26 31 27 32 80 33 28 34
REMARK SMILES IDX 85 35 79 36 81 37 29 38 84 39 78 40 77 41 30 43 64 44 43 45
REMARK SMILES IDX 63 46 44 47 47 48 62 49 82 50 45 51 46 52 61 54 83 55 48 56
REMARK SMILES IDX 31 57 32 58 41 59 33 60 34 61 40 62 42 63 35 64 36 65 37 66
REMARK SMILES IDX 38 67 39 68 65 69 66 70 75 71 67 72 68 73 74 74 76 75 69 76
REMARK SMILES IDX 70 77 71 78 72 79 73 80 49 81 50 82 59 83 51 84 52 85 58 86
REMARK SMILES IDX 60 87 53 88 54 89 55 90 56 91 57 92
REMARK H PARENT 89 15 81 42 47 53
REMARK Flexibility Score: inf
ROOT
ATOM      1  C   UNL A   1      41.453  21.112  26.374  1.00  0.00     0.202 C 
ENDROOT
BRANCH   1   2
ATOM      2  O   UNL A   1      40.211  21.746  26.087  1.00  0.00    -0.374 OA
BRANCH   2   3
ATOM      3  C   UNL A   1      39.071  20.977  25.702  1.00  0.00     0.202 C 
BRANCH   3   4
ATOM      4  C   UNL A   1      37.714  21.678  25.616  1.00  0.00     0.261 C 
BRANCH   4   5
ATOM      5  O   UNL A   1      36.661  20.790  25.210  1.00  0.00    -0.459 OA
BRANCH   5   6
ATOM      6  C   UNL A   1      35.410  21.195  25.568  1.00  0.00     0.343 C 
ATOM      7  O   UNL A   1      35.173  22.078  26.382  1.00  0.00    -0.246 OA
BRANCH   6   8
ATOM      8  C   UNL A   1      34.371  20.591  24.763  1.00  0.00     0.125 A 
ATOM      9  C   UNL A   1      35.340  15.729  25.209  1.00  0.00     0.064 C 
ATOM     10  C   UNL A   1      34.596  16.871  24.574  1.00  0.00     0.019 A 
ATOM     11  C   UNL A   1      33.613  16.659  23.676  1.00  0.00     0.095 A 
ATOM     12  N   UNL A   1      34.946  18.151  24.965  1.00  0.00    -0.343 N 
ATOM     13  C   UNL A   1      32.842  17.809  23.123  1.00  0.00     0.274 A 
ATOM     14  C   UNL A   1      34.270  19.239  24.522  1.00  0.00     0.152 A 
ATOM     15  H   UNL A   1      35.707  18.275  25.580  1.00  0.00     0.168 HD
ATOM     16  O   UNL A   1      31.962  17.688  22.281  1.00  0.00    -0.267 OA
ATOM     17  N   UNL A   1      33.212  19.054  23.660  1.00  0.00    -0.179 N 
ATOM     18  N   UNL A   1      32.550  20.215  23.417  1.00  0.00    -0.168 NA
ATOM     19  C   UNL A   1      33.215  21.133  24.137  1.00  0.00     0.077 A 
ATOM     20  C   UNL A   1      32.700  22.526  24.201  1.00  0.00     0.070 C 
ENDBRANCH   6   8
ENDBRANCH   5   6
ENDBRANCH   4   5
ENDBRANCH   3   4
ENDBRANCH   2   3
ENDBRANCH   1   2
BRANCH   1  21
ATOM     21  C   UNL A   1      42.732  21.644  25.747  1.00  0.00     0.261 C 
BRANCH  21  22
ATOM     22  O   UNL A   1      43.155  22.843  26.369  1.00  0.00    -0.460 OA
BRANCH  22  23
ATOM     23  C   UNL A   1      43.001  23.938  25.586  1.00  0.00     0.338 C 
ATOM     24  O   UNL A   1      43.658  24.243  24.613  1.00  0.00    -0.246 OA
BRANCH  23  25
ATOM     25  C   UNL A   1      41.984  24.795  26.203  1.00  0.00     0.060 A 
ATOM     26  C   UNL A   1      41.662  25.936  25.472  1.00  0.00     0.016 A 
ATOM     27  C   UNL A   1      41.731  24.677  27.578  1.00  0.00     0.016 A 
ATOM     28  C   UNL A   1      41.392  27.079  26.179  1.00  0.00     0.010 A 
ATOM     29  C   UNL A   1      41.471  25.822  28.282  1.00  0.00     0.010 A 
ATOM     30  C   UNL A   1      41.421  27.019  27.577  1.00  0.00    -0.014 A 
BRANCH  30  31
ATOM     31  C   UNL A   1      41.280  28.255  28.304  1.00  0.00     0.031 A 
ATOM     32  C   UNL A   1      42.453  29.125  28.093  1.00  0.00     0.074 A 
ATOM     33  C   UNL A   1      40.178  28.559  29.013  1.00  0.00     0.049 A 
ATOM     34  N   UNL A   1      43.416  29.342  28.922  1.00  0.00    -0.248 NA
ATOM     35  C   UNL A   1      42.729  29.576  26.718  1.00  0.00     0.031 C 
ATOM     36  C   UNL A   1      38.898  27.852  29.082  1.00  0.00     0.029 A 
ATOM     37  N   UNL A   1      39.961  29.655  29.786  1.00  0.00    -0.354 N 
ATOM     38  C   UNL A   1      44.293  30.178  28.247  1.00  0.00     0.074 A 
ATOM     39  C   UNL A   1      43.957  30.075  26.853  1.00  0.00     0.031 C 
ATOM     40  C   UNL A   1      37.975  28.654  29.663  1.00  0.00     0.029 A 
ATOM     41  C   UNL A   1      38.627  29.866  30.126  1.00  0.00     0.049 A 
ATOM     42  H   UNL A   1      40.687  30.250  30.081  1.00  0.00     0.167 HD
ATOM     43  C   UNL A   1      45.024  31.106  28.919  1.00  0.00     0.037 A 
ATOM     44  C   UNL A   1      38.132  31.008  30.676  1.00  0.00     0.037 A 
ATOM     45  C   UNL A   1      45.060  30.812  30.329  1.00  0.00     0.049 A 
ATOM     46  C   UNL A   1      39.295  31.711  31.297  1.00  0.00     0.074 A 
ATOM     47  C   UNL A   1      45.539  29.754  31.078  1.00  0.00     0.029 A 
ATOM     48  N   UNL A   1      44.175  31.485  31.139  1.00  0.00    -0.354 N 
ATOM     49  N   UNL A   1      39.952  31.236  32.324  1.00  0.00    -0.248 NA
ATOM     50  C   UNL A   1      40.039  32.649  30.464  1.00  0.00     0.031 C 
ATOM     51  C   UNL A   1      44.583  29.576  32.119  1.00  0.00     0.029 A 
ATOM     52  C   UNL A   1      43.616  30.576  32.001  1.00  0.00     0.049 A 
ATOM     53  H   UNL A   1      43.976  32.449  31.104  1.00  0.00     0.167 HD
ATOM     54  C   UNL A   1      41.290  31.482  32.041  1.00  0.00     0.074 A 
ATOM     55  C   UNL A   1      41.276  32.403  30.905  1.00  0.00     0.031 C 
ATOM     56  C   UNL A   1      42.280  30.689  32.549  1.00  0.00     0.037 A 
BRANCH  43  57
ATOM     57  C   UNL A   1      45.354  32.466  28.362  1.00  0.00     0.058 A 
ATOM     58  C   UNL A   1      46.705  32.840  28.237  1.00  0.00     0.135 A 
ATOM     59  C   UNL A   1      44.413  33.510  28.209  1.00  0.00     0.135 A 
ATOM     60  F   UNL A   1      47.683  31.930  28.373  1.00  0.00    -0.206 F 
ATOM     61  C   UNL A   1      47.093  34.165  28.047  1.00  0.00     0.059 A 
ATOM     62  C   UNL A   1      44.776  34.824  27.960  1.00  0.00     0.059 A 
ATOM     63  F   UNL A   1      43.099  33.335  28.391  1.00  0.00    -0.206 F 
ATOM     64  C   UNL A   1      46.120  35.152  27.922  1.00  0.00     0.060 A 
BRANCH  64  65
ATOM     65  S   UNL A   1      46.615  36.873  27.781  1.00  0.00     0.124 S 
ATOM     66  O   UNL A   1      45.534  37.547  28.491  1.00  0.00    -0.237 OA
ATOM     67  O   UNL A   1      47.914  36.865  28.447  1.00  0.00    -0.237 OA
ATOM     68  O   UNL A   1      46.659  37.094  26.339  1.00  0.00    -0.744 OA
ENDBRANCH  64  65
ENDBRANCH  43  57
BRANCH  44  69
ATOM     69  C   UNL A   1      36.842  31.689  30.375  1.00  0.00     0.058 A 
ATOM     70  C   UNL A   1      36.072  32.297  31.386  1.00  0.00     0.135 A 
ATOM     71  C   UNL A   1      36.468  31.999  29.051  1.00  0.00     0.135 A 
ATOM     72  F   UNL A   1      36.368  32.084  32.676  1.00  0.00    -0.206 F 
ATOM     73  C   UNL A   1      35.024  33.186  31.102  1.00  0.00     0.059 A 
ATOM     74  C   UNL A   1      35.425  32.875  28.743  1.00  0.00     0.059 A 
ATOM     75  F   UNL A   1      37.166  31.527  28.008  1.00  0.00    -0.206 F 
ATOM     76  C   UNL A   1      34.720  33.484  29.774  1.00  0.00     0.060 A 
BRANCH  76  77
ATOM     77  S   UNL A   1      33.477  34.745  29.400  1.00  0.00     0.124 S 
ATOM     78  O   UNL A   1      32.876  34.976  30.708  1.00  0.00    -0.237 OA
ATOM     79  O   UNL A   1      34.291  35.833  28.871  1.00  0.00    -0.237 OA
ATOM     80  O   UNL A   1      32.610  34.089  28.425  1.00  0.00    -0.744 OA
ENDBRANCH  76  77
ENDBRANCH  44  69
BRANCH  56  81
ATOM     81  C   UNL A   1      41.926  29.688  33.622  1.00  0.00     0.058 A 
ATOM     82  C   UNL A   1      41.457  28.386  33.364  1.00  0.00     0.135 A 
ATOM     83  C   UNL A   1      42.294  29.987  34.941  1.00  0.00     0.135 A 
ATOM     84  F   UNL A   1      41.171  27.994  32.115  1.00  0.00    -0.206 F 
ATOM     85  C   UNL A   1      41.352  27.429  34.377  1.00  0.00     0.059 A 
ATOM     86  C   UNL A   1      42.224  29.041  35.959  1.00  0.00     0.059 A 
ATOM     87  F   UNL A   1      42.803  31.193  35.238  1.00  0.00    -0.206 F 
ATOM     88  C   UNL A   1      41.751  27.763  35.672  1.00  0.00     0.060 A 
BRANCH  88  89
ATOM     89  S   UNL A   1      41.729  26.494  36.958  1.00  0.00     0.124 S 
ATOM     90  O   UNL A   1      41.820  25.264  36.179  1.00  0.00    -0.237 OA
ATOM     91  O   UNL A   1      42.907  26.830  37.753  1.00  0.00    -0.237 OA
ATOM     92  O   UNL A   1      40.451  26.712  37.632  1.00  0.00    -0.744 OA
ENDBRANCH  88  89
ENDBRANCH  56  81
ENDBRANCH  30  31
ENDBRANCH  23  25
ENDBRANCH  22  23
ENDBRANCH  21  22
ENDBRANCH   1  21
TORSDOF 17
ENDMDL
