MODEL 1
REMARK VINA RESULT:     -11.4      0.000      0.000
REMARK SMILES Cc1nn(C)c(=O)c(C(=O)N2CCCC[C@H]2C(=O)OCCOCCOC(=O)c2ccc(-c3c4nc(c(-c5c(F)cc(S(=O)(=O)[O-])cc5F)c5ccc([nH]5)c(-c5c(F)cc(S(=O)(=O)[O-])cc5F)c5nc(c(-c6c(F)cc(S(=O)(=O)[O-])cc6F)c6ccc3[nH]6)C=C5)C=C4)cc2)c1C
REMARK SMILES IDX 23 1 22 2 21 3 20 4 19 5 17 6 18 7 16 8 11 9 12 10 13 11
REMARK SMILES IDX 15 12 14 13 9 14 10 15 8 16 1 17 2 18 3 19 94 20 4 21 95 22
REMARK SMILES IDX 5 23 6 24 7 25 24 26 25 27 26 28 27 29 28 30 29 31 93 32
REMARK SMILES IDX 30 33 92 34 31 35 32 36 33 37 86 38 34 39 91 40 85 41 87 42
REMARK SMILES IDX 35 43 90 44 84 45 83 46 36 48 70 49 49 50 69 51 50 52 53 53
REMARK SMILES IDX 68 54 88 55 51 56 52 57 67 59 89 60 54 61 37 62 38 63 47 64
REMARK SMILES IDX 39 65 40 66 46 67 48 68 41 69 42 70 43 71 44 72 45 73 71 74
REMARK SMILES IDX 72 75 81 76 73 77 74 78 80 79 82 80 75 81 76 82 77 83 78 84
REMARK SMILES IDX 79 85 55 86 56 87 65 88 57 89 58 90 64 91 66 92 59 93 60 94
REMARK SMILES IDX 61 95 62 96 63 97
REMARK H PARENT 87 47 53 58
REMARK Flexibility Score: inf
ROOT
ATOM      1  C   UNL A   1      39.647  21.828  26.227  1.00  0.00     0.202 C 
ENDROOT
BRANCH   1   2
ATOM      2  O   UNL A   1      38.304  21.925  25.741  1.00  0.00    -0.374 OA
BRANCH   2   3
ATOM      3  C   UNL A   1      37.725  20.871  24.989  1.00  0.00     0.202 C 
BRANCH   3   4
ATOM      4  C   UNL A   1      36.201  20.842  25.009  1.00  0.00     0.261 C 
BRANCH   4   5
ATOM      5  O   UNL A   1      35.670  22.051  24.456  1.00  0.00    -0.462 OA
BRANCH   5   6
ATOM      6  C   UNL A   1      34.322  22.180  24.533  1.00  0.00     0.328 C 
ATOM      7  O   UNL A   1      33.526  21.450  23.956  1.00  0.00    -0.250 OA
BRANCH   6   8
ATOM      8  C   UNL A   1      33.902  23.382  25.404  1.00  0.00     0.195 C 
ATOM      9  N   UNL A   1      32.434  23.571  25.535  1.00  0.00    -0.325 N 
ATOM     10  C   UNL A   1      31.841  23.390  26.868  1.00  0.00     0.121 C 
ATOM     11  C   UNL A   1      32.575  22.509  27.896  1.00  0.00     0.022 C 
ATOM     12  C   UNL A   1      34.637  23.292  26.738  1.00  0.00     0.037 C 
ATOM     13  C   UNL A   1      34.030  22.198  27.591  1.00  0.00     0.005 C 
BRANCH   9  14
ATOM     14  C   UNL A   1      31.936  24.691  24.842  1.00  0.00     0.260 C 
ATOM     15  O   UNL A   1      30.837  24.656  24.291  1.00  0.00    -0.269 OA
BRANCH  14  16
ATOM     16  C   UNL A   1      32.752  25.948  24.816  1.00  0.00     0.111 A 
ATOM     17  C   UNL A   1      33.700  29.054  26.731  1.00  0.00     0.069 C 
ATOM     18  C   UNL A   1      33.416  28.153  25.547  1.00  0.00     0.062 A 
ATOM     19  N   UNL A   1      33.848  28.542  24.394  1.00  0.00    -0.175 NA
ATOM     20  C   UNL A   1      32.640  26.899  25.764  1.00  0.00    -0.010 A 
ATOM     21  N   UNL A   1      33.719  27.665  23.353  1.00  0.00    -0.232 N 
ATOM     22  C   UNL A   1      31.705  26.933  26.923  1.00  0.00     0.047 C 
ATOM     23  C   UNL A   1      34.039  28.212  22.048  1.00  0.00     0.178 C 
ATOM     24  C   UNL A   1      33.417  26.315  23.523  1.00  0.00     0.279 A 
ATOM     25  O   UNL A   1      33.607  25.464  22.655  1.00  0.00    -0.267 OA
ENDBRANCH  14  16
ENDBRANCH   9  14
ENDBRANCH   6   8
ENDBRANCH   5   6
ENDBRANCH   4   5
ENDBRANCH   3   4
ENDBRANCH   2   3
ENDBRANCH   1   2
BRANCH   1  26
ATOM     26  C   UNL A   1      40.478  23.039  26.692  1.00  0.00     0.261 C 
BRANCH  26  27
ATOM     27  O   UNL A   1      39.855  24.315  26.626  1.00  0.00    -0.460 OA
BRANCH  27  28
ATOM     28  C   UNL A   1      40.653  25.360  26.311  1.00  0.00     0.338 C 
ATOM     29  O   UNL A   1      41.105  25.648  25.229  1.00  0.00    -0.246 OA
BRANCH  28  30
ATOM     30  C   UNL A   1      40.641  26.211  27.516  1.00  0.00     0.060 A 
ATOM     31  C   UNL A   1      39.630  25.990  28.454  1.00  0.00     0.016 A 
ATOM     32  C   UNL A   1      41.676  27.122  27.761  1.00  0.00     0.016 A 
ATOM     33  C   UNL A   1      39.629  26.721  29.636  1.00  0.00     0.010 A 
ATOM     34  C   UNL A   1      41.672  27.856  28.941  1.00  0.00     0.010 A 
ATOM     35  C   UNL A   1      40.626  27.683  29.860  1.00  0.00    -0.014 A 
BRANCH  35  36
ATOM     36  C   UNL A   1      40.425  28.674  30.933  1.00  0.00     0.031 A 
ATOM     37  C   UNL A   1      41.340  28.591  32.120  1.00  0.00     0.074 A 
ATOM     38  C   UNL A   1      39.495  29.636  30.818  1.00  0.00     0.049 A 
ATOM     39  N   UNL A   1      41.418  29.371  33.162  1.00  0.00    -0.248 NA
ATOM     40  C   UNL A   1      42.305  27.475  32.129  1.00  0.00     0.031 C 
ATOM     41  C   UNL A   1      38.578  29.796  29.689  1.00  0.00     0.029 A 
ATOM     42  N   UNL A   1      39.176  30.667  31.660  1.00  0.00    -0.354 N 
ATOM     43  C   UNL A   1      42.447  28.854  33.938  1.00  0.00     0.074 A 
ATOM     44  C   UNL A   1      42.935  27.667  33.277  1.00  0.00     0.031 C 
ATOM     45  C   UNL A   1      37.803  30.874  29.907  1.00  0.00     0.029 A 
ATOM     46  C   UNL A   1      38.161  31.467  31.193  1.00  0.00     0.049 A 
ATOM     47  H   UNL A   1      39.632  30.822  32.520  1.00  0.00     0.167 HD
ATOM     48  C   UNL A   1      42.953  29.343  35.092  1.00  0.00     0.037 A 
ATOM     49  C   UNL A   1      37.597  32.556  31.751  1.00  0.00     0.037 A 
ATOM     50  C   UNL A   1      42.440  30.516  35.740  1.00  0.00     0.049 A 
ATOM     51  C   UNL A   1      38.136  33.048  33.068  1.00  0.00     0.074 A 
ATOM     52  C   UNL A   1      42.857  31.104  36.919  1.00  0.00     0.029 A 
ATOM     53  N   UNL A   1      41.381  31.276  35.261  1.00  0.00    -0.354 N 
ATOM     54  N   UNL A   1      39.126  32.565  33.784  1.00  0.00    -0.248 NA
ATOM     55  C   UNL A   1      37.489  34.228  33.655  1.00  0.00     0.031 C 
ATOM     56  C   UNL A   1      42.025  32.200  37.171  1.00  0.00     0.029 A 
ATOM     57  C   UNL A   1      41.117  32.318  36.129  1.00  0.00     0.049 A 
ATOM     58  H   UNL A   1      40.891  31.098  34.426  1.00  0.00     0.167 HD
ATOM     59  C   UNL A   1      39.230  33.388  34.899  1.00  0.00     0.074 A 
ATOM     60  C   UNL A   1      38.210  34.410  34.755  1.00  0.00     0.031 C 
ATOM     61  C   UNL A   1      40.085  33.310  35.949  1.00  0.00     0.037 A 
BRANCH  48  62
ATOM     62  C   UNL A   1      44.100  28.599  35.712  1.00  0.00     0.058 A 
ATOM     63  C   UNL A   1      43.887  27.547  36.618  1.00  0.00     0.135 A 
ATOM     64  C   UNL A   1      45.425  28.942  35.406  1.00  0.00     0.135 A 
ATOM     65  F   UNL A   1      42.638  27.200  36.969  1.00  0.00    -0.206 F 
ATOM     66  C   UNL A   1      44.948  26.874  37.214  1.00  0.00     0.059 A 
ATOM     67  C   UNL A   1      46.504  28.267  35.973  1.00  0.00     0.059 A 
ATOM     68  F   UNL A   1      45.685  29.951  34.560  1.00  0.00    -0.206 F 
ATOM     69  C   UNL A   1      46.253  27.242  36.885  1.00  0.00     0.060 A 
BRANCH  69  70
ATOM     70  S   UNL A   1      47.620  26.357  37.667  1.00  0.00     0.124 S 
ATOM     71  O   UNL A   1      48.470  27.460  38.103  1.00  0.00    -0.237 OA
ATOM     72  O   UNL A   1      46.943  25.618  38.729  1.00  0.00    -0.237 OA
ATOM     73  O   UNL A   1      48.160  25.540  36.585  1.00  0.00    -0.744 OA
ENDBRANCH  69  70
ENDBRANCH  48  62
BRANCH  49  74
ATOM     74  C   UNL A   1      36.485  33.255  31.053  1.00  0.00     0.058 A 
ATOM     75  C   UNL A   1      35.166  33.164  31.518  1.00  0.00     0.135 A 
ATOM     76  C   UNL A   1      36.727  34.063  29.931  1.00  0.00     0.135 A 
ATOM     77  F   UNL A   1      34.882  32.399  32.583  1.00  0.00    -0.206 F 
ATOM     78  C   UNL A   1      34.125  33.852  30.901  1.00  0.00     0.059 A 
ATOM     79  C   UNL A   1      35.706  34.776  29.307  1.00  0.00     0.059 A 
ATOM     80  F   UNL A   1      37.973  34.192  29.450  1.00  0.00    -0.206 F 
ATOM     81  C   UNL A   1      34.407  34.663  29.800  1.00  0.00     0.060 A 
BRANCH  81  82
ATOM     82  S   UNL A   1      33.061  35.614  29.058  1.00  0.00     0.124 S 
ATOM     83  O   UNL A   1      32.317  36.043  30.237  1.00  0.00    -0.237 OA
ATOM     84  O   UNL A   1      33.785  36.661  28.344  1.00  0.00    -0.237 OA
ATOM     85  O   UNL A   1      32.388  34.637  28.207  1.00  0.00    -0.744 OA
ENDBRANCH  81  82
ENDBRANCH  49  74
BRANCH  61  86
ATOM     86  C   UNL A   1      39.956  34.353  37.020  1.00  0.00     0.058 A 
ATOM     87  C   UNL A   1      40.570  35.607  36.890  1.00  0.00     0.135 A 
ATOM     88  C   UNL A   1      39.136  34.129  38.137  1.00  0.00     0.135 A 
ATOM     89  F   UNL A   1      41.365  35.866  35.840  1.00  0.00    -0.206 F 
ATOM     90  C   UNL A   1      40.384  36.604  37.840  1.00  0.00     0.059 A 
ATOM     91  C   UNL A   1      38.917  35.120  39.087  1.00  0.00     0.059 A 
ATOM     92  F   UNL A   1      38.516  32.948  38.295  1.00  0.00    -0.206 F 
ATOM     93  C   UNL A   1      39.550  36.352  38.933  1.00  0.00     0.060 A 
BRANCH  93  94
ATOM     94  S   UNL A   1      39.276  37.674  40.130  1.00  0.00     0.124 S 
ATOM     95  O   UNL A   1      40.569  38.352  40.119  1.00  0.00    -0.237 OA
ATOM     96  O   UNL A   1      38.168  38.411  39.531  1.00  0.00    -0.237 OA
ATOM     97  O   UNL A   1      38.953  36.957  41.360  1.00  0.00    -0.744 OA
ENDBRANCH  93  94
ENDBRANCH  61  86
ENDBRANCH  35  36
ENDBRANCH  28  30
ENDBRANCH  27  28
ENDBRANCH  26  27
ENDBRANCH   1  26
TORSDOF 19
ENDMDL
MODEL 2
REMARK VINA RESULT:     -11.0      4.574     10.424
REMARK SMILES Cc1nn(C)c(=O)c(C(=O)N2CCCC[C@H]2C(=O)OCCOCCOC(=O)c2ccc(-c3c4nc(c(-c5c(F)cc(S(=O)(=O)[O-])cc5F)c5ccc([nH]5)c(-c5c(F)cc(S(=O)(=O)[O-])cc5F)c5nc(c(-c6c(F)cc(S(=O)(=O)[O-])cc6F)c6ccc3[nH]6)C=C5)C=C4)cc2)c1C
REMARK SMILES IDX 23 1 22 2 21 3 20 4 19 5 17 6 18 7 16 8 11 9 12 10 13 11
REMARK SMILES IDX 15 12 14 13 9 14 10 15 8 16 1 17 2 18 3 19 94 20 4 21 95 22
REMARK SMILES IDX 5 23 6 24 7 25 24 26 25 27 26 28 27 29 28 30 29 31 93 32
REMARK SMILES IDX 30 33 92 34 31 35 32 36 33 37 86 38 34 39 91 40 85 41 87 42
REMARK SMILES IDX 35 43 90 44 84 45 83 46 36 48 70 49 49 50 69 51 50 52 53 53
REMARK SMILES IDX 68 54 88 55 51 56 52 57 67 59 89 60 54 61 37 62 38 63 47 64
REMARK SMILES IDX 39 65 40 66 46 67 48 68 41 69 42 70 43 71 44 72 45 73 71 74
REMARK SMILES IDX 72 75 81 76 73 77 74 78 80 79 82 80 75 81 76 82 77 83 78 84
REMARK SMILES IDX 79 85 55 86 56 87 65 88 57 89 58 90 64 91 66 92 59 93 60 94
REMARK SMILES IDX 61 95 62 96 63 97
REMARK H PARENT 87 47 53 58
REMARK Flexibility Score: inf
ROOT
ATOM      1  C   UNL A   1      32.401  30.042  25.716  1.00  0.00     0.202 C 
ENDROOT
BRANCH   1   2
ATOM      2  O   UNL A   1      31.084  29.683  25.284  1.00  0.00    -0.374 OA
BRANCH   2   3
ATOM      3  C   UNL A   1      30.857  29.197  23.971  1.00  0.00     0.202 C 
BRANCH   3   4
ATOM      4  C   UNL A   1      32.124  28.856  23.194  1.00  0.00     0.261 C 
BRANCH   4   5
ATOM      5  O   UNL A   1      32.472  27.480  23.383  1.00  0.00    -0.462 OA
BRANCH   5   6
ATOM      6  C   UNL A   1      31.700  26.590  22.712  1.00  0.00     0.328 C 
ATOM      7  O   UNL A   1      31.068  26.853  21.696  1.00  0.00    -0.250 OA
BRANCH   6   8
ATOM      8  C   UNL A   1      31.674  25.209  23.399  1.00  0.00     0.195 C 
ATOM      9  N   UNL A   1      32.983  24.761  23.943  1.00  0.00    -0.325 N 
ATOM     10  C   UNL A   1      33.102  24.622  25.401  1.00  0.00     0.121 C 
ATOM     11  C   UNL A   1      32.156  25.432  26.307  1.00  0.00     0.022 C 
ATOM     12  C   UNL A   1      30.542  25.200  24.423  1.00  0.00     0.037 C 
ATOM     13  C   UNL A   1      30.931  26.025  25.632  1.00  0.00     0.005 C 
BRANCH   9  14
ATOM     14  C   UNL A   1      33.570  23.703  23.224  1.00  0.00     0.260 C 
ATOM     15  O   UNL A   1      33.615  23.723  21.994  1.00  0.00    -0.269 OA
BRANCH  14  16
ATOM     16  C   UNL A   1      34.176  22.560  23.981  1.00  0.00     0.111 A 
ATOM     17  C   UNL A   1      37.386  21.086  25.298  1.00  0.00     0.069 C 
ATOM     18  C   UNL A   1      35.973  21.144  24.755  1.00  0.00     0.062 A 
ATOM     19  N   UNL A   1      35.248  20.083  24.885  1.00  0.00    -0.175 NA
ATOM     20  C   UNL A   1      35.508  22.389  24.082  1.00  0.00    -0.010 A 
ATOM     21  N   UNL A   1      33.933  20.180  24.527  1.00  0.00    -0.232 N 
ATOM     22  C   UNL A   1      36.587  23.204  23.456  1.00  0.00     0.047 C 
ATOM     23  C   UNL A   1      33.208  18.923  24.509  1.00  0.00     0.178 C 
ATOM     24  C   UNL A   1      33.288  21.396  24.304  1.00  0.00     0.279 A 
ATOM     25  O   UNL A   1      32.064  21.522  24.297  1.00  0.00    -0.267 OA
ENDBRANCH  14  16
ENDBRANCH   9  14
ENDBRANCH   6   8
ENDBRANCH   5   6
ENDBRANCH   4   5
ENDBRANCH   3   4
ENDBRANCH   2   3
ENDBRANCH   1   2
BRANCH   1  26
ATOM     26  C   UNL A   1      32.775  30.314  27.186  1.00  0.00     0.261 C 
BRANCH  26  27
ATOM     27  O   UNL A   1      34.077  29.928  27.604  1.00  0.00    -0.460 OA
BRANCH  27  28
ATOM     28  C   UNL A   1      34.767  30.829  28.339  1.00  0.00     0.338 C 
ATOM     29  O   UNL A   1      34.333  31.776  28.950  1.00  0.00    -0.246 OA
BRANCH  28  30
ATOM     30  C   UNL A   1      36.125  30.262  28.441  1.00  0.00     0.060 A 
ATOM     31  C   UNL A   1      36.521  29.750  29.679  1.00  0.00     0.016 A 
ATOM     32  C   UNL A   1      36.935  30.134  27.306  1.00  0.00     0.016 A 
ATOM     33  C   UNL A   1      37.765  29.141  29.796  1.00  0.00     0.010 A 
ATOM     34  C   UNL A   1      38.181  29.529  27.424  1.00  0.00     0.010 A 
ATOM     35  C   UNL A   1      38.611  29.068  28.678  1.00  0.00    -0.014 A 
BRANCH  35  36
ATOM     36  C   UNL A   1      40.032  28.740  28.888  1.00  0.00     0.031 A 
ATOM     37  C   UNL A   1      40.889  29.790  29.536  1.00  0.00     0.074 A 
ATOM     38  C   UNL A   1      40.517  27.532  28.558  1.00  0.00     0.049 A 
ATOM     39  N   UNL A   1      42.143  29.734  29.888  1.00  0.00    -0.248 NA
ATOM     40  C   UNL A   1      40.236  31.079  29.830  1.00  0.00     0.031 C 
ATOM     41  C   UNL A   1      39.748  26.451  27.941  1.00  0.00     0.029 A 
ATOM     42  N   UNL A   1      41.774  27.009  28.706  1.00  0.00    -0.354 N 
ATOM     43  C   UNL A   1      42.424  30.968  30.460  1.00  0.00     0.074 A 
ATOM     44  C   UNL A   1      41.228  31.772  30.367  1.00  0.00     0.031 C 
ATOM     45  C   UNL A   1      40.551  25.386  27.772  1.00  0.00     0.029 A 
ATOM     46  C   UNL A   1      41.890  25.716  28.255  1.00  0.00     0.049 A 
ATOM     47  H   UNL A   1      42.524  27.512  29.099  1.00  0.00     0.167 HD
ATOM     48  C   UNL A   1      43.575  31.384  31.034  1.00  0.00     0.037 A 
ATOM     49  C   UNL A   1      42.963  24.901  28.244  1.00  0.00     0.037 A 
ATOM     50  C   UNL A   1      44.757  30.572  31.099  1.00  0.00     0.049 A 
ATOM     51  C   UNL A   1      44.254  25.407  28.832  1.00  0.00     0.074 A 
ATOM     52  C   UNL A   1      45.990  30.883  31.641  1.00  0.00     0.029 A 
ATOM     53  N   UNL A   1      44.852  29.283  30.592  1.00  0.00    -0.354 N 
ATOM     54  N   UNL A   1      44.503  26.568  29.392  1.00  0.00    -0.248 NA
ATOM     55  C   UNL A   1      45.407  24.499  28.789  1.00  0.00     0.031 C 
ATOM     56  C   UNL A   1      46.841  29.794  31.427  1.00  0.00     0.029 A 
ATOM     57  C   UNL A   1      46.127  28.790  30.790  1.00  0.00     0.049 A 
ATOM     58  H   UNL A   1      44.118  28.793  30.155  1.00  0.00     0.167 HD
ATOM     59  C   UNL A   1      45.836  26.528  29.781  1.00  0.00     0.074 A 
ATOM     60  C   UNL A   1      46.337  25.219  29.405  1.00  0.00     0.031 C 
ATOM     61  C   UNL A   1      46.584  27.480  30.392  1.00  0.00     0.037 A 
BRANCH  48  62
ATOM     62  C   UNL A   1      43.597  32.768  31.612  1.00  0.00     0.058 A 
ATOM     63  C   UNL A   1      43.891  33.889  30.818  1.00  0.00     0.135 A 
ATOM     64  C   UNL A   1      43.330  32.980  32.973  1.00  0.00     0.135 A 
ATOM     65  F   UNL A   1      44.185  33.738  29.517  1.00  0.00    -0.206 F 
ATOM     66  C   UNL A   1      43.938  35.171  31.358  1.00  0.00     0.059 A 
ATOM     67  C   UNL A   1      43.350  34.256  33.531  1.00  0.00     0.059 A 
ATOM     68  F   UNL A   1      43.061  31.941  33.780  1.00  0.00    -0.206 F 
ATOM     69  C   UNL A   1      43.666  35.343  32.716  1.00  0.00     0.060 A 
BRANCH  69  70
ATOM     70  S   UNL A   1      43.730  37.013  33.401  1.00  0.00     0.124 S 
ATOM     71  O   UNL A   1      45.006  36.989  34.108  1.00  0.00    -0.237 OA
ATOM     72  O   UNL A   1      43.686  37.843  32.200  1.00  0.00    -0.237 OA
ATOM     73  O   UNL A   1      42.545  37.079  34.249  1.00  0.00    -0.744 OA
ENDBRANCH  69  70
ENDBRANCH  48  62
BRANCH  49  74
ATOM     74  C   UNL A   1      42.847  23.530  27.680  1.00  0.00     0.058 A 
ATOM     75  C   UNL A   1      42.536  22.433  28.496  1.00  0.00     0.135 A 
ATOM     76  C   UNL A   1      43.001  23.296  26.304  1.00  0.00     0.135 A 
ATOM     77  F   UNL A   1      42.386  22.604  29.819  1.00  0.00    -0.206 F 
ATOM     78  C   UNL A   1      42.378  21.153  27.971  1.00  0.00     0.059 A 
ATOM     79  C   UNL A   1      42.830  22.028  25.752  1.00  0.00     0.059 A 
ATOM     80  F   UNL A   1      43.290  24.312  25.477  1.00  0.00    -0.206 F 
ATOM     81  C   UNL A   1      42.519  20.963  26.596  1.00  0.00     0.060 A 
BRANCH  81  82
ATOM     82  S   UNL A   1      42.232  19.313  25.917  1.00  0.00     0.124 S 
ATOM     83  O   UNL A   1      43.056  19.341  24.714  1.00  0.00    -0.237 OA
ATOM     84  O   UNL A   1      42.705  18.452  26.996  1.00  0.00    -0.237 OA
ATOM     85  O   UNL A   1      40.789  19.288  25.694  1.00  0.00    -0.744 OA
ENDBRANCH  81  82
ENDBRANCH  49  74
BRANCH  61  86
ATOM     86  C   UNL A   1      48.016  27.145  30.689  1.00  0.00     0.058 A 
ATOM     87  C   UNL A   1      49.050  27.558  29.836  1.00  0.00     0.135 A 
ATOM     88  C   UNL A   1      48.362  26.490  31.880  1.00  0.00     0.135 A 
ATOM     89  F   UNL A   1      48.767  28.186  28.684  1.00  0.00    -0.206 F 
ATOM     90  C   UNL A   1      50.383  27.322  30.150  1.00  0.00     0.059 A 
ATOM     91  C   UNL A   1      49.690  26.264  32.226  1.00  0.00     0.059 A 
ATOM     92  F   UNL A   1      47.406  26.089  32.734  1.00  0.00    -0.206 F 
ATOM     93  C   UNL A   1      50.693  26.679  31.351  1.00  0.00     0.060 A 
BRANCH  93  94
ATOM     94  S   UNL A   1      52.429  26.427  31.771  1.00  0.00     0.124 S 
ATOM     95  O   UNL A   1      52.743  27.667  32.474  1.00  0.00    -0.237 OA
ATOM     96  O   UNL A   1      52.379  25.225  32.597  1.00  0.00    -0.237 OA
ATOM     97  O   UNL A   1      53.073  26.261  30.471  1.00  0.00    -0.744 OA
ENDBRANCH  93  94
ENDBRANCH  61  86
ENDBRANCH  35  36
ENDBRANCH  28  30
ENDBRANCH  27  28
ENDBRANCH  26  27
ENDBRANCH   1  26
TORSDOF 19
ENDMDL
MODEL 3
REMARK VINA RESULT:     -11.0      4.733      9.862
REMARK SMILES Cc1nn(C)c(=O)c(C(=O)N2CCCC[C@H]2C(=O)OCCOCCOC(=O)c2ccc(-c3c4nc(c(-c5c(F)cc(S(=O)(=O)[O-])cc5F)c5ccc([nH]5)c(-c5c(F)cc(S(=O)(=O)[O-])cc5F)c5nc(c(-c6c(F)cc(S(=O)(=O)[O-])cc6F)c6ccc3[nH]6)C=C5)C=C4)cc2)c1C
REMARK SMILES IDX 23 1 22 2 21 3 20 4 19 5 17 6 18 7 16 8 11 9 12 10 13 11
REMARK SMILES IDX 15 12 14 13 9 14 10 15 8 16 1 17 2 18 3 19 94 20 4 21 95 22
REMARK SMILES IDX 5 23 6 24 7 25 24 26 25 27 26 28 27 29 28 30 29 31 93 32
REMARK SMILES IDX 30 33 92 34 31 35 32 36 33 37 86 38 34 39 91 40 85 41 87 42
REMARK SMILES IDX 35 43 90 44 84 45 83 46 36 48 70 49 49 50 69 51 50 52 53 53
REMARK SMILES IDX 68 54 88 55 51 56 52 57 67 59 89 60 54 61 37 62 38 63 47 64
REMARK SMILES IDX 39 65 40 66 46 67 48 68 41 69 42 70 43 71 44 72 45 73 71 74
REMARK SMILES IDX 72 75 81 76 73 77 74 78 80 79 82 80 75 81 76 82 77 83 78 84
REMARK SMILES IDX 79 85 55 86 56 87 65 88 57 89 58 90 64 91 66 92 59 93 60 94
REMARK SMILES IDX 61 95 62 96 63 97
REMARK H PARENT 87 47 53 58
REMARK Flexibility Score: inf
ROOT
ATOM      1  C   UNL A   1      32.502  29.867  25.716  1.00  0.00     0.202 C 
ENDROOT
BRANCH   1   2
ATOM      2  O   UNL A   1      31.704  29.009  24.894  1.00  0.00    -0.374 OA
BRANCH   2   3
ATOM      3  C   UNL A   1      31.648  29.194  23.489  1.00  0.00     0.202 C 
BRANCH   3   4
ATOM      4  C   UNL A   1      32.727  28.451  22.709  1.00  0.00     0.261 C 
BRANCH   4   5
ATOM      5  O   UNL A   1      32.742  27.066  23.070  1.00  0.00    -0.462 OA
BRANCH   5   6
ATOM      6  C   UNL A   1      31.857  26.284  22.404  1.00  0.00     0.328 C 
ATOM      7  O   UNL A   1      31.223  26.644  21.420  1.00  0.00    -0.250 OA
BRANCH   6   8
ATOM      8  C   UNL A   1      31.705  24.894  23.055  1.00  0.00     0.195 C 
ATOM      9  N   UNL A   1      32.917  24.404  23.763  1.00  0.00    -0.325 N 
ATOM     10  C   UNL A   1      32.832  24.239  25.221  1.00  0.00     0.121 C 
ATOM     11  C   UNL A   1      31.791  25.058  26.005  1.00  0.00     0.022 C 
ATOM     12  C   UNL A   1      30.445  24.897  23.915  1.00  0.00     0.037 C 
ATOM     13  C   UNL A   1      30.684  25.693  25.181  1.00  0.00     0.005 C 
BRANCH   9  14
ATOM     14  C   UNL A   1      33.572  23.342  23.111  1.00  0.00     0.260 C 
ATOM     15  O   UNL A   1      33.589  23.270  21.882  1.00  0.00    -0.269 OA
BRANCH  14  16
ATOM     16  C   UNL A   1      34.283  22.313  23.935  1.00  0.00     0.111 A 
ATOM     17  C   UNL A   1      37.593  21.308  25.434  1.00  0.00     0.069 C 
ATOM     18  C   UNL A   1      36.210  21.165  24.835  1.00  0.00     0.062 A 
ATOM     19  N   UNL A   1      35.620  20.025  24.977  1.00  0.00    -0.175 NA
ATOM     20  C   UNL A   1      35.621  22.318  24.096  1.00  0.00    -0.010 A 
ATOM     21  N   UNL A   1      34.320  19.941  24.565  1.00  0.00    -0.232 N 
ATOM     22  C   UNL A   1      36.615  23.242  23.480  1.00  0.00     0.047 C 
ATOM     23  C   UNL A   1      33.762  18.601  24.567  1.00  0.00     0.178 C 
ATOM     24  C   UNL A   1      33.537  21.056  24.269  1.00  0.00     0.279 A 
ATOM     25  O   UNL A   1      32.309  21.024  24.208  1.00  0.00    -0.267 OA
ENDBRANCH  14  16
ENDBRANCH   9  14
ENDBRANCH   6   8
ENDBRANCH   5   6
ENDBRANCH   4   5
ENDBRANCH   3   4
ENDBRANCH   2   3
ENDBRANCH   1   2
BRANCH   1  26
ATOM     26  C   UNL A   1      32.810  29.586  27.199  1.00  0.00     0.261 C 
BRANCH  26  27
ATOM     27  O   UNL A   1      34.177  29.430  27.557  1.00  0.00    -0.460 OA
BRANCH  27  28
ATOM     28  C   UNL A   1      34.778  30.499  28.125  1.00  0.00     0.338 C 
ATOM     29  O   UNL A   1      34.260  31.506  28.543  1.00  0.00    -0.246 OA
BRANCH  28  30
ATOM     30  C   UNL A   1      36.168  30.063  28.354  1.00  0.00     0.060 A 
ATOM     31  C   UNL A   1      36.497  29.590  29.627  1.00  0.00     0.016 A 
ATOM     32  C   UNL A   1      37.088  30.014  27.299  1.00  0.00     0.016 A 
ATOM     33  C   UNL A   1      37.777  29.101  29.860  1.00  0.00     0.010 A 
ATOM     34  C   UNL A   1      38.369  29.529  27.534  1.00  0.00     0.010 A 
ATOM     35  C   UNL A   1      38.725  29.110  28.825  1.00  0.00    -0.014 A 
BRANCH  35  36
ATOM     36  C   UNL A   1      40.146  28.918  29.165  1.00  0.00     0.031 A 
ATOM     37  C   UNL A   1      40.753  27.585  28.836  1.00  0.00     0.074 A 
ATOM     38  C   UNL A   1      40.869  29.917  29.697  1.00  0.00     0.049 A 
ATOM     39  N   UNL A   1      41.985  27.180  28.972  1.00  0.00    -0.248 NA
ATOM     40  C   UNL A   1      39.843  26.570  28.272  1.00  0.00     0.031 C 
ATOM     41  C   UNL A   1      40.359  31.247  30.030  1.00  0.00     0.029 A 
ATOM     42  N   UNL A   1      42.194  29.967  30.042  1.00  0.00    -0.354 N 
ATOM     43  C   UNL A   1      42.003  25.876  28.495  1.00  0.00     0.074 A 
ATOM     44  C   UNL A   1      40.653  25.536  28.110  1.00  0.00     0.031 C 
ATOM     45  C   UNL A   1      41.366  31.988  30.525  1.00  0.00     0.029 A 
ATOM     46  C   UNL A   1      42.583  31.182  30.554  1.00  0.00     0.049 A 
ATOM     47  H   UNL A   1      42.809  29.206  29.932  1.00  0.00     0.167 HD
ATOM     48  C   UNL A   1      43.061  25.044  28.368  1.00  0.00     0.037 A 
ATOM     49  C   UNL A   1      43.793  31.583  30.991  1.00  0.00     0.037 A 
ATOM     50  C   UNL A   1      44.391  25.398  28.774  1.00  0.00     0.049 A 
ATOM     51  C   UNL A   1      44.946  30.618  30.899  1.00  0.00     0.074 A 
ATOM     52  C   UNL A   1      45.544  24.639  28.711  1.00  0.00     0.029 A 
ATOM     53  N   UNL A   1      44.741  26.621  29.330  1.00  0.00    -0.354 N 
ATOM     54  N   UNL A   1      44.957  29.393  30.424  1.00  0.00    -0.248 NA
ATOM     55  C   UNL A   1      46.246  31.083  31.397  1.00  0.00     0.031 C 
ATOM     56  C   UNL A   1      46.585  25.391  29.264  1.00  0.00     0.029 A 
ATOM     57  C   UNL A   1      46.089  26.633  29.633  1.00  0.00     0.049 A 
ATOM     58  H   UNL A   1      44.120  27.369  29.486  1.00  0.00     0.167 HD
ATOM     59  C   UNL A   1      46.265  28.945  30.553  1.00  0.00     0.074 A 
ATOM     60  C   UNL A   1      47.021  30.036  31.138  1.00  0.00     0.031 C 
ATOM     61  C   UNL A   1      46.799  27.742  30.223  1.00  0.00     0.037 A 
BRANCH  48  62
ATOM     62  C   UNL A   1      42.804  23.685  27.784  1.00  0.00     0.058 A 
ATOM     63  C   UNL A   1      42.516  22.579  28.601  1.00  0.00     0.135 A 
ATOM     64  C   UNL A   1      42.852  23.481  26.397  1.00  0.00     0.135 A 
ATOM     65  F   UNL A   1      42.489  22.714  29.937  1.00  0.00    -0.206 F 
ATOM     66  C   UNL A   1      42.304  21.313  28.064  1.00  0.00     0.059 A 
ATOM     67  C   UNL A   1      42.621  22.228  25.835  1.00  0.00     0.059 A 
ATOM     68  F   UNL A   1      43.140  24.501  25.573  1.00  0.00    -0.206 F 
ATOM     69  C   UNL A   1      42.359  21.148  26.679  1.00  0.00     0.060 A 
BRANCH  69  70
ATOM     70  S   UNL A   1      42.080  19.500  25.997  1.00  0.00     0.124 S 
ATOM     71  O   UNL A   1      42.556  18.650  27.084  1.00  0.00    -0.237 OA
ATOM     72  O   UNL A   1      40.637  19.496  25.774  1.00  0.00    -0.237 OA
ATOM     73  O   UNL A   1      42.899  19.488  24.789  1.00  0.00    -0.744 OA
ENDBRANCH  69  70
ENDBRANCH  48  62
BRANCH  49  74
ATOM     74  C   UNL A   1      43.969  32.959  31.526  1.00  0.00     0.058 A 
ATOM     75  C   UNL A   1      44.154  34.053  30.669  1.00  0.00     0.135 A 
ATOM     76  C   UNL A   1      43.912  33.214  32.905  1.00  0.00     0.135 A 
ATOM     77  F   UNL A   1      44.223  33.861  29.342  1.00  0.00    -0.206 F 
ATOM     78  C   UNL A   1      44.273  35.352  31.157  1.00  0.00     0.059 A 
ATOM     79  C   UNL A   1      44.009  34.506  33.417  1.00  0.00     0.059 A 
ATOM     80  F   UNL A   1      43.728  32.204  33.769  1.00  0.00    -0.206 F 
ATOM     81  C   UNL A   1      44.190  35.569  32.533  1.00  0.00     0.060 A 
BRANCH  81  82
ATOM     82  S   UNL A   1      44.263  37.267  33.148  1.00  0.00     0.124 S 
ATOM     83  O   UNL A   1      45.363  37.188  34.102  1.00  0.00    -0.237 OA
ATOM     84  O   UNL A   1      44.528  38.022  31.927  1.00  0.00    -0.237 OA
ATOM     85  O   UNL A   1      42.938  37.472  33.727  1.00  0.00    -0.744 OA
ENDBRANCH  81  82
ENDBRANCH  49  74
BRANCH  61  86
ATOM     86  C   UNL A   1      48.263  27.544  30.486  1.00  0.00     0.058 A 
ATOM     87  C   UNL A   1      48.718  27.022  31.706  1.00  0.00     0.135 A 
ATOM     88  C   UNL A   1      49.208  27.790  29.477  1.00  0.00     0.135 A 
ATOM     89  F   UNL A   1      47.851  26.773  32.700  1.00  0.00    -0.206 F 
ATOM     90  C   UNL A   1      50.065  26.759  31.921  1.00  0.00     0.059 A 
ATOM     91  C   UNL A   1      50.558  27.513  29.664  1.00  0.00     0.059 A 
ATOM     92  F   UNL A   1      48.817  28.277  28.288  1.00  0.00    -0.206 F 
ATOM     93  C   UNL A   1      50.977  27.003  30.892  1.00  0.00     0.060 A 
BRANCH  93  94
ATOM     94  S   UNL A   1      52.715  26.607  31.168  1.00  0.00     0.124 S 
ATOM     95  O   UNL A   1      53.084  27.596  32.177  1.00  0.00    -0.237 OA
ATOM     96  O   UNL A   1      52.650  25.224  31.632  1.00  0.00    -0.237 OA
ATOM     97  O   UNL A   1      53.320  26.794  29.853  1.00  0.00    -0.744 OA
ENDBRANCH  93  94
ENDBRANCH  61  86
ENDBRANCH  35  36
ENDBRANCH  28  30
ENDBRANCH  27  28
ENDBRANCH  26  27
ENDBRANCH   1  26
TORSDOF 19
ENDMDL
