MODEL 1
REMARK VINA RESULT:     -11.9      0.000      0.000
REMARK SMILES O=C(OCCOCCOC(=O)[C@H](c1c[nH]c2ccc(Cl)cc12)[NH+]1CCN(c2cccc(Cl)c2)CC1)c1ccc(-c2c3nc(c(-c4c(F)cc(S(=O)(=O)[O-])cc4F)c4ccc([nH]4)c(-c4c(F)cc(S(=O)(=O)[O-])cc4F)c4nc(c(-c5c(F)cc(S(=O)(=O)[O-])cc5F)c5ccc2[nH]5)C=C4)C=C3)cc1
REMARK SMILES IDX 5 1 4 2 3 3 2 4 1 5 36 6 37 7 101 8 38 9 100 10 39 11 40 12
REMARK SMILES IDX 41 13 94 14 42 15 99 16 93 17 95 18 43 19 98 20 92 21 91 22
REMARK SMILES IDX 44 24 78 25 57 26 77 27 58 28 61 29 76 30 96 31 59 32 60 33
REMARK SMILES IDX 75 35 97 36 62 37 45 38 46 39 55 40 47 41 48 42 54 43 56 44
REMARK SMILES IDX 49 45 50 46 51 47 52 48 53 49 79 50 80 51 89 52 81 53 82 54
REMARK SMILES IDX 88 55 90 56 83 57 84 58 85 59 86 60 87 61 63 62 64 63 73 64
REMARK SMILES IDX 65 65 66 66 72 67 74 68 67 69 68 70 69 71 70 72 71 73 6 74
REMARK SMILES IDX 7 75 8 76 9 77 10 78 11 79 12 80 23 81 24 82 35 83 25 85
REMARK SMILES IDX 34 86 26 87 27 88 28 89 33 90 29 91 31 92 30 93 32 94 13 95
REMARK SMILES IDX 14 96 22 97 15 98 16 99 21 100 17 102 19 103 18 104 20 105
REMARK H PARENT 95 23 61 34 23 84 15 101
REMARK Flexibility Score: inf
ROOT
ATOM      1  C   UNL A   1      34.549  31.109  27.884  1.00  0.00     0.202 C 
ENDROOT
BRANCH   1   2
ATOM      2  C   UNL A   1      34.835  31.957  29.121  1.00  0.00     0.261 C 
BRANCH   2   3
ATOM      3  O   UNL A   1      36.210  31.813  29.496  1.00  0.00    -0.460 OA
BRANCH   3   4
ATOM      4  C   UNL A   1      36.816  30.731  30.029  1.00  0.00     0.338 C 
ATOM      5  O   UNL A   1      36.213  30.092  30.889  1.00  0.00    -0.246 OA
BRANCH   4   6
ATOM      6  C   UNL A   1      38.199  30.293  29.664  1.00  0.00     0.060 A 
ATOM      7  C   UNL A   1      38.641  30.016  28.367  1.00  0.00     0.016 A 
ATOM      8  C   UNL A   1      39.150  30.267  30.698  1.00  0.00     0.016 A 
ATOM      9  C   UNL A   1      39.959  29.715  28.094  1.00  0.00     0.010 A 
ATOM     10  C   UNL A   1      40.492  29.980  30.433  1.00  0.00     0.010 A 
ATOM     11  C   UNL A   1      40.889  29.705  29.124  1.00  0.00    -0.014 A 
BRANCH  11  12
ATOM     12  C   UNL A   1      42.254  29.309  28.765  1.00  0.00     0.031 A 
ATOM     13  C   UNL A   1      42.481  27.900  28.329  1.00  0.00     0.074 A 
ATOM     14  C   UNL A   1      43.191  30.267  28.646  1.00  0.00     0.049 A 
ATOM     15  N   UNL A   1      43.582  27.332  27.926  1.00  0.00    -0.248 NA
ATOM     16  C   UNL A   1      41.301  27.015  28.315  1.00  0.00     0.031 C 
ATOM     17  C   UNL A   1      42.974  31.695  28.911  1.00  0.00     0.029 A 
ATOM     18  N   UNL A   1      44.489  30.200  28.229  1.00  0.00    -0.354 N 
ATOM     19  C   UNL A   1      43.235  26.024  27.620  1.00  0.00     0.074 A 
ATOM     20  C   UNL A   1      41.820  25.878  27.878  1.00  0.00     0.031 C 
ATOM     21  C   UNL A   1      44.101  32.369  28.631  1.00  0.00     0.029 A 
ATOM     22  C   UNL A   1      45.129  31.417  28.225  1.00  0.00     0.049 A 
ATOM     23  H   UNL A   1      44.927  29.361  27.956  1.00  0.00     0.167 HD
ATOM     24  C   UNL A   1      44.042  25.037  27.173  1.00  0.00     0.037 A 
ATOM     25  C   UNL A   1      46.414  31.708  27.954  1.00  0.00     0.037 A 
ATOM     26  C   UNL A   1      45.450  25.222  26.957  1.00  0.00     0.049 A 
ATOM     27  C   UNL A   1      47.316  30.565  27.571  1.00  0.00     0.074 A 
ATOM     28  C   UNL A   1      46.408  24.284  26.626  1.00  0.00     0.029 A 
ATOM     29  N   UNL A   1      46.099  26.448  27.054  1.00  0.00    -0.354 N 
ATOM     30  N   UNL A   1      47.005  29.302  27.381  1.00  0.00    -0.248 NA
ATOM     31  C   UNL A   1      48.738  30.873  27.387  1.00  0.00     0.031 C 
ATOM     32  C   UNL A   1      47.644  24.939  26.556  1.00  0.00     0.029 A 
ATOM     33  C   UNL A   1      47.448  26.290  26.802  1.00  0.00     0.049 A 
ATOM     34  H   UNL A   1      45.661  27.302  27.270  1.00  0.00     0.167 HD
ATOM     35  C   UNL A   1      48.194  28.662  27.057  1.00  0.00     0.074 A 
ATOM     36  C   UNL A   1      49.222  29.687  27.046  1.00  0.00     0.031 C 
ATOM     37  C   UNL A   1      48.426  27.350  26.805  1.00  0.00     0.037 A 
BRANCH  24  38
ATOM     38  C   UNL A   1      43.425  23.685  26.982  1.00  0.00     0.058 A 
ATOM     39  C   UNL A   1      43.187  22.819  28.062  1.00  0.00     0.135 A 
ATOM     40  C   UNL A   1      43.104  23.230  25.694  1.00  0.00     0.135 A 
ATOM     41  F   UNL A   1      43.512  23.191  29.310  1.00  0.00    -0.206 F 
ATOM     42  C   UNL A   1      42.665  21.544  27.867  1.00  0.00     0.059 A 
ATOM     43  C   UNL A   1      42.568  21.965  25.477  1.00  0.00     0.059 A 
ATOM     44  F   UNL A   1      43.336  24.010  24.626  1.00  0.00    -0.206 F 
ATOM     45  C   UNL A   1      42.364  21.123  26.570  1.00  0.00     0.060 A 
BRANCH  45  46
ATOM     46  S   UNL A   1      41.705  19.460  26.328  1.00  0.00     0.124 S 
ATOM     47  O   UNL A   1      42.050  18.823  27.596  1.00  0.00    -0.237 OA
ATOM     48  O   UNL A   1      40.285  19.714  26.114  1.00  0.00    -0.237 OA
ATOM     49  O   UNL A   1      42.434  18.971  25.163  1.00  0.00    -0.744 OA
ENDBRANCH  45  46
ENDBRANCH  24  38
BRANCH  25  50
ATOM     50  C   UNL A   1      46.930  33.095  28.110  1.00  0.00     0.058 A 
ATOM     51  C   UNL A   1      47.519  33.533  29.306  1.00  0.00     0.135 A 
ATOM     52  C   UNL A   1      46.822  34.026  27.063  1.00  0.00     0.135 A 
ATOM     53  F   UNL A   1      47.642  32.688  30.341  1.00  0.00    -0.206 F 
ATOM     54  C   UNL A   1      47.956  34.846  29.467  1.00  0.00     0.059 A 
ATOM     55  C   UNL A   1      47.277  35.335  27.190  1.00  0.00     0.059 A 
ATOM     56  F   UNL A   1      46.277  33.661  25.891  1.00  0.00    -0.206 F 
ATOM     57  C   UNL A   1      47.825  35.741  28.404  1.00  0.00     0.060 A 
BRANCH  57  58
ATOM     58  S   UNL A   1      48.398  37.442  28.611  1.00  0.00     0.124 S 
ATOM     59  O   UNL A   1      47.444  37.954  29.586  1.00  0.00    -0.237 OA
ATOM     60  O   UNL A   1      49.765  37.254  29.089  1.00  0.00    -0.237 OA
ATOM     61  O   UNL A   1      48.287  37.997  27.265  1.00  0.00    -0.744 OA
ENDBRANCH  57  58
ENDBRANCH  25  50
BRANCH  37  62
ATOM     62  C   UNL A   1      49.841  26.971  26.492  1.00  0.00     0.058 A 
ATOM     63  C   UNL A   1      50.726  26.565  27.501  1.00  0.00     0.135 A 
ATOM     64  C   UNL A   1      50.297  26.969  25.166  1.00  0.00     0.135 A 
ATOM     65  F   UNL A   1      50.332  26.559  28.785  1.00  0.00    -0.206 F 
ATOM     66  C   UNL A   1      52.030  26.190  27.208  1.00  0.00     0.059 A 
ATOM     67  C   UNL A   1      51.590  26.576  24.847  1.00  0.00     0.059 A 
ATOM     68  F   UNL A   1      49.479  27.340  24.168  1.00  0.00    -0.206 F 
ATOM     69  C   UNL A   1      52.453  26.199  25.877  1.00  0.00     0.060 A 
BRANCH  69  70
ATOM     70  S   UNL A   1      54.138  25.677  25.499  1.00  0.00     0.124 S 
ATOM     71  O   UNL A   1      54.735  25.637  26.829  1.00  0.00    -0.237 OA
ATOM     72  O   UNL A   1      53.930  24.383  24.856  1.00  0.00    -0.237 OA
ATOM     73  O   UNL A   1      54.629  26.733  24.619  1.00  0.00    -0.744 OA
ENDBRANCH  69  70
ENDBRANCH  37  62
ENDBRANCH  11  12
ENDBRANCH   4   6
ENDBRANCH   3   4
ENDBRANCH   2   3
ENDBRANCH   1   2
BRANCH   1  74
ATOM     74  O   UNL A   1      33.226  31.110  27.348  1.00  0.00    -0.374 OA
BRANCH  74  75
ATOM     75  C   UNL A   1      32.907  30.086  26.400  1.00  0.00     0.202 C 
BRANCH  75  76
ATOM     76  C   UNL A   1      32.196  28.942  27.133  1.00  0.00     0.261 C 
BRANCH  76  77
ATOM     77  O   UNL A   1      31.698  28.045  26.129  1.00  0.00    -0.459 OA
BRANCH  77  78
ATOM     78  C   UNL A   1      32.620  27.206  25.578  1.00  0.00     0.370 C 
ATOM     79  O   UNL A   1      33.527  26.714  26.242  1.00  0.00    -0.245 OA
BRANCH  78  80
ATOM     80  C   UNL A   1      32.223  26.838  24.105  1.00  0.00     0.328 C 
BRANCH  80  81
ATOM     81  N   UNL A   1      31.214  25.761  23.887  1.00  0.00    -0.316 N 
ATOM     82  C   UNL A   1      31.531  24.939  22.680  1.00  0.00     0.284 C 
ATOM     83  C   UNL A   1      30.977  24.829  25.005  1.00  0.00     0.284 C 
ATOM     84  H   UNL A   1      30.358  26.301  23.773  1.00  0.00     0.349 HD
ATOM     85  C   UNL A   1      32.578  23.785  22.840  1.00  0.00     0.178 C 
ATOM     86  C   UNL A   1      32.053  23.745  25.245  1.00  0.00     0.178 C 
ATOM     87  N   UNL A   1      32.295  22.958  24.025  1.00  0.00    -0.360 N 
BRANCH  87  88
ATOM     88  C   UNL A   1      32.923  21.728  24.244  1.00  0.00     0.038 A 
ATOM     89  C   UNL A   1      34.220  21.701  24.797  1.00  0.00     0.026 A 
ATOM     90  C   UNL A   1      32.349  20.491  23.924  1.00  0.00     0.046 A 
ATOM     91  C   UNL A   1      34.937  20.515  24.974  1.00  0.00     0.004 A 
ATOM     92  C   UNL A   1      33.062  19.297  24.110  1.00  0.00     0.043 A 
ATOM     93  C   UNL A   1      34.356  19.305  24.623  1.00  0.00     0.020 A 
ATOM     94  Cl  UNL A   1      32.336  17.791  23.695  1.00  0.00    -0.084 Cl
ENDBRANCH  87  88
ENDBRANCH  80  81
BRANCH  80  95
ATOM     95  C   UNL A   1      31.779  28.115  23.402  1.00  0.00     0.046 A 
ATOM     96  C   UNL A   1      32.586  28.968  22.664  1.00  0.00     0.094 A 
ATOM     97  C   UNL A   1      30.428  28.558  23.181  1.00  0.00     0.011 A 
ATOM     98  N   UNL A   1      31.785  29.750  21.878  1.00  0.00    -0.361 N 
ATOM     99  C   UNL A   1      30.461  29.494  22.145  1.00  0.00     0.046 A 
ATOM    100  C   UNL A   1      29.168  28.183  23.691  1.00  0.00     0.031 A 
ATOM    101  H   UNL A   1      32.110  30.402  21.215  1.00  0.00     0.166 HD
ATOM    102  C   UNL A   1      29.305  29.992  21.528  1.00  0.00     0.028 A 
ATOM    103  C   UNL A   1      28.006  28.671  23.085  1.00  0.00     0.041 A 
ATOM    104  C   UNL A   1      28.070  29.544  22.006  1.00  0.00     0.022 A 
ATOM    105  Cl  UNL A   1      26.474  28.141  23.669  1.00  0.00    -0.084 Cl
ENDBRANCH  80  95
ENDBRANCH  78  80
ENDBRANCH  77  78
ENDBRANCH  76  77
ENDBRANCH  75  76
ENDBRANCH  74  75
ENDBRANCH   1  74
TORSDOF 20
ENDMDL
MODEL 2
REMARK VINA RESULT:     -11.9      1.584      4.508
REMARK SMILES O=C(OCCOCCOC(=O)[C@H](c1c[nH]c2ccc(Cl)cc12)[NH+]1CCN(c2cccc(Cl)c2)CC1)c1ccc(-c2c3nc(c(-c4c(F)cc(S(=O)(=O)[O-])cc4F)c4ccc([nH]4)c(-c4c(F)cc(S(=O)(=O)[O-])cc4F)c4nc(c(-c5c(F)cc(S(=O)(=O)[O-])cc5F)c5ccc2[nH]5)C=C4)C=C3)cc1
REMARK SMILES IDX 5 1 4 2 3 3 2 4 1 5 36 6 37 7 101 8 38 9 100 10 39 11 40 12
REMARK SMILES IDX 41 13 94 14 42 15 99 16 93 17 95 18 43 19 98 20 92 21 91 22
REMARK SMILES IDX 44 24 78 25 57 26 77 27 58 28 61 29 76 30 96 31 59 32 60 33
REMARK SMILES IDX 75 35 97 36 62 37 45 38 46 39 55 40 47 41 48 42 54 43 56 44
REMARK SMILES IDX 49 45 50 46 51 47 52 48 53 49 79 50 80 51 89 52 81 53 82 54
REMARK SMILES IDX 88 55 90 56 83 57 84 58 85 59 86 60 87 61 63 62 64 63 73 64
REMARK SMILES IDX 65 65 66 66 72 67 74 68 67 69 68 70 69 71 70 72 71 73 6 74
REMARK SMILES IDX 7 75 8 76 9 77 10 78 11 79 12 80 23 81 24 82 35 83 25 85
REMARK SMILES IDX 34 86 26 87 27 88 28 89 33 90 29 91 31 92 30 93 32 94 13 95
REMARK SMILES IDX 14 96 22 97 15 98 16 99 21 100 17 102 19 103 18 104 20 105
REMARK H PARENT 95 23 61 34 23 84 15 101
REMARK Flexibility Score: inf
ROOT
ATOM      1  C   UNL A   1      33.831  29.546  27.192  1.00  0.00     0.202 C 
ENDROOT
BRANCH   1   2
ATOM      2  C   UNL A   1      35.164  29.212  27.857  1.00  0.00     0.261 C 
BRANCH   2   3
ATOM      3  O   UNL A   1      35.658  30.364  28.549  1.00  0.00    -0.460 OA
BRANCH   3   4
ATOM      4  C   UNL A   1      36.610  30.414  29.505  1.00  0.00     0.338 C 
ATOM      5  O   UNL A   1      36.278  30.766  30.636  1.00  0.00    -0.246 OA
BRANCH   4   6
ATOM      6  C   UNL A   1      38.053  30.111  29.255  1.00  0.00     0.060 A 
ATOM      7  C   UNL A   1      39.038  30.011  30.240  1.00  0.00     0.016 A 
ATOM      8  C   UNL A   1      38.415  29.795  27.934  1.00  0.00     0.016 A 
ATOM      9  C   UNL A   1      40.331  29.627  29.945  1.00  0.00     0.010 A 
ATOM     10  C   UNL A   1      39.716  29.389  27.623  1.00  0.00     0.010 A 
ATOM     11  C   UNL A   1      40.670  29.307  28.638  1.00  0.00    -0.014 A 
BRANCH  11  12
ATOM     12  C   UNL A   1      42.077  28.976  28.393  1.00  0.00     0.031 A 
ATOM     13  C   UNL A   1      42.407  27.573  28.004  1.00  0.00     0.074 A 
ATOM     14  C   UNL A   1      42.971  29.979  28.328  1.00  0.00     0.049 A 
ATOM     15  N   UNL A   1      43.563  27.056  27.698  1.00  0.00    -0.248 NA
ATOM     16  C   UNL A   1      41.277  26.629  27.916  1.00  0.00     0.031 C 
ATOM     17  C   UNL A   1      42.663  31.397  28.546  1.00  0.00     0.029 A 
ATOM     18  N   UNL A   1      44.299  29.972  28.012  1.00  0.00    -0.354 N 
ATOM     19  C   UNL A   1      43.306  25.728  27.391  1.00  0.00     0.074 A 
ATOM     20  C   UNL A   1      41.884  25.513  27.543  1.00  0.00     0.031 C 
ATOM     21  C   UNL A   1      43.774  32.124  28.341  1.00  0.00     0.029 A 
ATOM     22  C   UNL A   1      44.875  31.220  28.034  1.00  0.00     0.049 A 
ATOM     23  H   UNL A   1      44.798  29.152  27.791  1.00  0.00     0.167 HD
ATOM     24  C   UNL A   1      44.194  24.777  27.027  1.00  0.00     0.037 A 
ATOM     25  C   UNL A   1      46.162  31.571  27.857  1.00  0.00     0.037 A 
ATOM     26  C   UNL A   1      45.603  25.029  26.917  1.00  0.00     0.049 A 
ATOM     27  C   UNL A   1      47.147  30.470  27.567  1.00  0.00     0.074 A 
ATOM     28  C   UNL A   1      46.629  24.137  26.679  1.00  0.00     0.029 A 
ATOM     29  N   UNL A   1      46.180  26.289  27.039  1.00  0.00    -0.354 N 
ATOM     30  N   UNL A   1      46.915  29.190  27.379  1.00  0.00    -0.248 NA
ATOM     31  C   UNL A   1      48.561  30.848  27.487  1.00  0.00     0.031 C 
ATOM     32  C   UNL A   1      47.833  24.853  26.691  1.00  0.00     0.029 A 
ATOM     33  C   UNL A   1      47.551  26.197  26.895  1.00  0.00     0.049 A 
ATOM     34  H   UNL A   1      45.685  27.123  27.204  1.00  0.00     0.167 HD
ATOM     35  C   UNL A   1      48.156  28.608  27.160  1.00  0.00     0.074 A 
ATOM     36  C   UNL A   1      49.130  29.683  27.208  1.00  0.00     0.031 C 
ATOM     37  C   UNL A   1      48.472  27.305  26.952  1.00  0.00     0.037 A 
BRANCH  24  38
ATOM     38  C   UNL A   1      43.662  23.391  26.816  1.00  0.00     0.058 A 
ATOM     39  C   UNL A   1      43.236  22.589  27.887  1.00  0.00     0.135 A 
ATOM     40  C   UNL A   1      43.615  22.842  25.526  1.00  0.00     0.135 A 
ATOM     41  F   UNL A   1      43.297  23.054  29.146  1.00  0.00    -0.206 F 
ATOM     42  C   UNL A   1      42.796  21.284  27.686  1.00  0.00     0.059 A 
ATOM     43  C   UNL A   1      43.164  21.545  25.299  1.00  0.00     0.059 A 
ATOM     44  F   UNL A   1      44.033  23.559  24.471  1.00  0.00    -0.206 F 
ATOM     45  C   UNL A   1      42.770  20.769  26.388  1.00  0.00     0.060 A 
BRANCH  45  46
ATOM     46  S   UNL A   1      42.214  19.069  26.141  1.00  0.00     0.124 S 
ATOM     47  O   UNL A   1      43.074  18.639  25.043  1.00  0.00    -0.237 OA
ATOM     48  O   UNL A   1      42.490  18.458  27.437  1.00  0.00    -0.237 OA
ATOM     49  O   UNL A   1      40.801  19.217  25.810  1.00  0.00    -0.744 OA
ENDBRANCH  45  46
ENDBRANCH  24  38
BRANCH  25  50
ATOM     50  C   UNL A   1      46.594  32.986  28.025  1.00  0.00     0.058 A 
ATOM     51  C   UNL A   1      47.063  33.473  29.254  1.00  0.00     0.135 A 
ATOM     52  C   UNL A   1      46.524  33.892  26.954  1.00  0.00     0.135 A 
ATOM     53  F   UNL A   1      47.145  32.652  30.313  1.00  0.00    -0.206 F 
ATOM     54  C   UNL A   1      47.421  34.808  29.423  1.00  0.00     0.059 A 
ATOM     55  C   UNL A   1      46.902  35.224  27.089  1.00  0.00     0.059 A 
ATOM     56  F   UNL A   1      46.094  33.481  25.750  1.00  0.00    -0.206 F 
ATOM     57  C   UNL A   1      47.331  35.679  28.334  1.00  0.00     0.060 A 
BRANCH  57  58
ATOM     58  S   UNL A   1      47.801  37.410  28.551  1.00  0.00     0.124 S 
ATOM     59  O   UNL A   1      49.151  37.416  28.001  1.00  0.00    -0.237 OA
ATOM     60  O   UNL A   1      46.787  38.108  27.766  1.00  0.00    -0.237 OA
ATOM     61  O   UNL A   1      47.704  37.603  29.994  1.00  0.00    -0.744 OA
ENDBRANCH  57  58
ENDBRANCH  25  50
BRANCH  37  62
ATOM     62  C   UNL A   1      49.924  26.994  26.756  1.00  0.00     0.058 A 
ATOM     63  C   UNL A   1      50.770  26.752  27.848  1.00  0.00     0.135 A 
ATOM     64  C   UNL A   1      50.459  26.892  25.463  1.00  0.00     0.135 A 
ATOM     65  F   UNL A   1      50.300  26.846  29.102  1.00  0.00    -0.206 F 
ATOM     66  C   UNL A   1      52.110  26.439  27.665  1.00  0.00     0.059 A 
ATOM     67  C   UNL A   1      51.791  26.558  25.256  1.00  0.00     0.059 A 
ATOM     68  F   UNL A   1      49.681  27.106  24.390  1.00  0.00    -0.206 F 
ATOM     69  C   UNL A   1      52.611  26.345  26.364  1.00  0.00     0.060 A 
BRANCH  69  70
ATOM     70  S   UNL A   1      54.345  25.904  26.133  1.00  0.00     0.124 S 
ATOM     71  O   UNL A   1      54.945  27.208  25.873  1.00  0.00    -0.237 OA
ATOM     72  O   UNL A   1      54.688  25.292  27.413  1.00  0.00    -0.237 OA
ATOM     73  O   UNL A   1      54.312  24.988  24.998  1.00  0.00    -0.744 OA
ENDBRANCH  69  70
ENDBRANCH  37  62
ENDBRANCH  11  12
ENDBRANCH   4   6
ENDBRANCH   3   4
ENDBRANCH   2   3
ENDBRANCH   1   2
BRANCH   1  74
ATOM     74  O   UNL A   1      33.171  28.530  26.438  1.00  0.00    -0.374 OA
BRANCH  74  75
ATOM     75  C   UNL A   1      33.792  28.118  25.216  1.00  0.00     0.202 C 
BRANCH  75  76
ATOM     76  C   UNL A   1      33.869  26.586  25.196  1.00  0.00     0.261 C 
BRANCH  76  77
ATOM     77  O   UNL A   1      33.563  26.168  23.857  1.00  0.00    -0.459 OA
BRANCH  77  78
ATOM     78  C   UNL A   1      33.641  24.827  23.626  1.00  0.00     0.370 C 
ATOM     79  O   UNL A   1      34.255  24.369  22.668  1.00  0.00    -0.245 OA
BRANCH  78  80
ATOM     80  C   UNL A   1      33.034  24.023  24.829  1.00  0.00     0.328 C 
BRANCH  80  81
ATOM     81  N   UNL A   1      31.584  23.671  24.793  1.00  0.00    -0.316 N 
ATOM     82  C   UNL A   1      30.804  24.426  25.820  1.00  0.00     0.284 C 
ATOM     83  C   UNL A   1      30.888  23.833  23.503  1.00  0.00     0.284 C 
ATOM     84  H   UNL A   1      31.611  22.671  24.985  1.00  0.00     0.349 HD
ATOM     85  C   UNL A   1      30.355  25.884  25.464  1.00  0.00     0.178 C 
ATOM     86  C   UNL A   1      30.528  25.277  23.085  1.00  0.00     0.178 C 
ATOM     87  N   UNL A   1      29.738  25.951  24.129  1.00  0.00    -0.360 N 
BRANCH  87  88
ATOM     88  C   UNL A   1      29.033  27.074  23.687  1.00  0.00     0.038 A 
ATOM     89  C   UNL A   1      27.643  27.152  23.913  1.00  0.00     0.026 A 
ATOM     90  C   UNL A   1      29.620  28.144  22.999  1.00  0.00     0.046 A 
ATOM     91  C   UNL A   1      26.861  28.206  23.435  1.00  0.00     0.004 A 
ATOM     92  C   UNL A   1      28.840  29.210  22.526  1.00  0.00     0.043 A 
ATOM     93  C   UNL A   1      27.463  29.240  22.732  1.00  0.00     0.020 A 
ATOM     94  Cl  UNL A   1      29.586  30.506  21.671  1.00  0.00    -0.084 Cl
ENDBRANCH  87  88
ENDBRANCH  80  81
BRANCH  80  95
ATOM     95  C   UNL A   1      33.868  22.763  25.026  1.00  0.00     0.046 A 
ATOM     96  C   UNL A   1      33.494  21.471  24.687  1.00  0.00     0.094 A 
ATOM     97  C   UNL A   1      35.259  22.691  25.384  1.00  0.00     0.011 A 
ATOM     98  N   UNL A   1      34.619  20.694  24.636  1.00  0.00    -0.361 N 
ATOM     99  C   UNL A   1      35.719  21.424  25.021  1.00  0.00     0.046 A 
ATOM    100  C   UNL A   1      36.199  23.612  25.891  1.00  0.00     0.031 A 
ATOM    101  H   UNL A   1      34.638  19.748  24.363  1.00  0.00     0.166 HD
ATOM    102  C   UNL A   1      37.074  21.068  25.040  1.00  0.00     0.028 A 
ATOM    103  C   UNL A   1      37.556  23.272  25.915  1.00  0.00     0.041 A 
ATOM    104  C   UNL A   1      37.992  22.028  25.476  1.00  0.00     0.022 A 
ATOM    105  Cl  UNL A   1      38.699  24.437  26.463  1.00  0.00    -0.084 Cl
ENDBRANCH  80  95
ENDBRANCH  78  80
ENDBRANCH  77  78
ENDBRANCH  76  77
ENDBRANCH  75  76
ENDBRANCH  74  75
ENDBRANCH   1  74
TORSDOF 20
ENDMDL
MODEL 3
REMARK VINA RESULT:     -11.8      2.206      8.980
REMARK SMILES O=C(OCCOCCOC(=O)[C@H](c1c[nH]c2ccc(Cl)cc12)[NH+]1CCN(c2cccc(Cl)c2)CC1)c1ccc(-c2c3nc(c(-c4c(F)cc(S(=O)(=O)[O-])cc4F)c4ccc([nH]4)c(-c4c(F)cc(S(=O)(=O)[O-])cc4F)c4nc(c(-c5c(F)cc(S(=O)(=O)[O-])cc5F)c5ccc2[nH]5)C=C4)C=C3)cc1
REMARK SMILES IDX 5 1 4 2 3 3 2 4 1 5 36 6 37 7 101 8 38 9 100 10 39 11 40 12
REMARK SMILES IDX 41 13 94 14 42 15 99 16 93 17 95 18 43 19 98 20 92 21 91 22
REMARK SMILES IDX 44 24 78 25 57 26 77 27 58 28 61 29 76 30 96 31 59 32 60 33
REMARK SMILES IDX 75 35 97 36 62 37 45 38 46 39 55 40 47 41 48 42 54 43 56 44
REMARK SMILES IDX 49 45 50 46 51 47 52 48 53 49 79 50 80 51 89 52 81 53 82 54
REMARK SMILES IDX 88 55 90 56 83 57 84 58 85 59 86 60 87 61 63 62 64 63 73 64
REMARK SMILES IDX 65 65 66 66 72 67 74 68 67 69 68 70 69 71 70 72 71 73 6 74
REMARK SMILES IDX 7 75 8 76 9 77 10 78 11 79 12 80 23 81 24 82 35 83 25 85
REMARK SMILES IDX 34 86 26 87 27 88 28 89 33 90 29 91 31 92 30 93 32 94 13 95
REMARK SMILES IDX 14 96 22 97 15 98 16 99 21 100 17 102 19 103 18 104 20 105
REMARK H PARENT 95 23 61 34 23 84 15 101
REMARK Flexibility Score: inf
ROOT
ATOM      1  C   UNL A   1      38.992  21.027  25.742  1.00  0.00     0.202 C 
ENDROOT
BRANCH   1   2
ATOM      2  C   UNL A   1      39.428  19.564  25.736  1.00  0.00     0.261 C 
BRANCH   2   3
ATOM      3  O   UNL A   1      40.856  19.488  25.663  1.00  0.00    -0.460 OA
BRANCH   3   4
ATOM      4  C   UNL A   1      41.756  19.821  26.613  1.00  0.00     0.338 C 
ATOM      5  O   UNL A   1      42.055  18.973  27.452  1.00  0.00    -0.246 OA
BRANCH   4   6
ATOM      6  C   UNL A   1      42.374  21.179  26.729  1.00  0.00     0.060 A 
ATOM      7  C   UNL A   1      42.512  22.093  25.681  1.00  0.00     0.016 A 
ATOM      8  C   UNL A   1      42.741  21.600  28.018  1.00  0.00     0.016 A 
ATOM      9  C   UNL A   1      43.001  23.368  25.884  1.00  0.00     0.010 A 
ATOM     10  C   UNL A   1      43.221  22.894  28.241  1.00  0.00     0.010 A 
ATOM     11  C   UNL A   1      43.348  23.773  27.166  1.00  0.00    -0.014 A 
BRANCH  11  12
ATOM     12  C   UNL A   1      43.923  25.116  27.290  1.00  0.00     0.031 A 
ATOM     13  C   UNL A   1      43.065  26.193  27.867  1.00  0.00     0.074 A 
ATOM     14  C   UNL A   1      45.242  25.273  27.075  1.00  0.00     0.049 A 
ATOM     15  N   UNL A   1      43.364  27.437  28.112  1.00  0.00    -0.248 NA
ATOM     16  C   UNL A   1      41.694  25.810  28.250  1.00  0.00     0.031 C 
ATOM     17  C   UNL A   1      46.160  24.206  26.660  1.00  0.00     0.029 A 
ATOM     18  N   UNL A   1      46.047  26.365  27.223  1.00  0.00    -0.354 N 
ATOM     19  C   UNL A   1      42.219  27.991  28.668  1.00  0.00     0.074 A 
ATOM     20  C   UNL A   1      41.218  26.949  28.729  1.00  0.00     0.031 C 
ATOM     21  C   UNL A   1      47.408  24.698  26.603  1.00  0.00     0.029 A 
ATOM     22  C   UNL A   1      47.366  26.120  26.921  1.00  0.00     0.049 A 
ATOM     23  H   UNL A   1      45.716  27.245  27.518  1.00  0.00     0.167 HD
ATOM     24  C   UNL A   1      42.031  29.265  29.076  1.00  0.00     0.037 A 
ATOM     25  C   UNL A   1      48.406  26.972  26.878  1.00  0.00     0.037 A 
ATOM     26  C   UNL A   1      43.047  30.273  28.970  1.00  0.00     0.049 A 
ATOM     27  C   UNL A   1      48.137  28.412  27.228  1.00  0.00     0.074 A 
ATOM     28  C   UNL A   1      42.958  31.627  29.228  1.00  0.00     0.029 A 
ATOM     29  N   UNL A   1      44.355  30.023  28.567  1.00  0.00    -0.354 N 
ATOM     30  N   UNL A   1      47.021  28.958  27.656  1.00  0.00    -0.248 NA
ATOM     31  C   UNL A   1      49.250  29.353  27.070  1.00  0.00     0.031 C 
ATOM     32  C   UNL A   1      44.204  32.201  28.949  1.00  0.00     0.029 A 
ATOM     33  C   UNL A   1      45.080  31.198  28.557  1.00  0.00     0.049 A 
ATOM     34  H   UNL A   1      44.711  29.138  28.325  1.00  0.00     0.167 HD
ATOM     35  C   UNL A   1      47.296  30.308  27.817  1.00  0.00     0.074 A 
ATOM     36  C   UNL A   1      48.694  30.488  27.470  1.00  0.00     0.031 C 
ATOM     37  C   UNL A   1      46.473  31.316  28.202  1.00  0.00     0.037 A 
BRANCH  24  38
ATOM     38  C   UNL A   1      40.666  29.625  29.581  1.00  0.00     0.058 A 
ATOM     39  C   UNL A   1      39.582  29.823  28.711  1.00  0.00     0.135 A 
ATOM     40  C   UNL A   1      40.450  29.816  30.954  1.00  0.00     0.135 A 
ATOM     41  F   UNL A   1      39.746  29.691  27.385  1.00  0.00    -0.206 F 
ATOM     42  C   UNL A   1      38.333  30.212  29.186  1.00  0.00     0.059 A 
ATOM     43  C   UNL A   1      39.205  30.190  31.453  1.00  0.00     0.059 A 
ATOM     44  F   UNL A   1      41.460  29.664  31.825  1.00  0.00    -0.206 F 
ATOM     45  C   UNL A   1      38.156  30.399  30.559  1.00  0.00     0.060 A 
BRANCH  45  46
ATOM     46  S   UNL A   1      36.536  30.921  31.161  1.00  0.00     0.124 S 
ATOM     47  O   UNL A   1      35.702  30.694  29.985  1.00  0.00    -0.237 OA
ATOM     48  O   UNL A   1      36.311  30.014  32.281  1.00  0.00    -0.237 OA
ATOM     49  O   UNL A   1      36.742  32.319  31.524  1.00  0.00    -0.744 OA
ENDBRANCH  45  46
ENDBRANCH  24  38
BRANCH  25  50
ATOM     50  C   UNL A   1      49.747  26.514  26.422  1.00  0.00     0.058 A 
ATOM     51  C   UNL A   1      50.660  25.913  27.302  1.00  0.00     0.135 A 
ATOM     52  C   UNL A   1      50.153  26.690  25.089  1.00  0.00     0.135 A 
ATOM     53  F   UNL A   1      50.327  25.725  28.588  1.00  0.00    -0.206 F 
ATOM     54  C   UNL A   1      51.932  25.529  26.885  1.00  0.00     0.059 A 
ATOM     55  C   UNL A   1      51.408  26.289  24.641  1.00  0.00     0.059 A 
ATOM     56  F   UNL A   1      49.318  27.249  24.198  1.00  0.00    -0.206 F 
ATOM     57  C   UNL A   1      52.299  25.727  25.552  1.00  0.00     0.060 A 
BRANCH  57  58
ATOM     58  S   UNL A   1      53.947  25.224  25.010  1.00  0.00     0.124 S 
ATOM     59  O   UNL A   1      54.778  25.726  26.097  1.00  0.00    -0.237 OA
ATOM     60  O   UNL A   1      53.816  23.772  24.923  1.00  0.00    -0.237 OA
ATOM     61  O   UNL A   1      54.100  25.907  23.729  1.00  0.00    -0.744 OA
ENDBRANCH  57  58
ENDBRANCH  25  50
BRANCH  37  62
ATOM     62  C   UNL A   1      47.079  32.684  28.269  1.00  0.00     0.058 A 
ATOM     63  C   UNL A   1      47.815  33.099  29.388  1.00  0.00     0.135 A 
ATOM     64  C   UNL A   1      46.962  33.565  27.184  1.00  0.00     0.135 A 
ATOM     65  F   UNL A   1      47.946  32.289  30.451  1.00  0.00    -0.206 F 
ATOM     66  C   UNL A   1      48.399  34.358  29.440  1.00  0.00     0.059 A 
ATOM     67  C   UNL A   1      47.558  34.819  27.204  1.00  0.00     0.059 A 
ATOM     68  F   UNL A   1      46.276  33.202  26.088  1.00  0.00    -0.206 F 
ATOM     69  C   UNL A   1      48.264  35.211  28.342  1.00  0.00     0.060 A 
BRANCH  69  70
ATOM     70  S   UNL A   1      49.054  36.832  28.402  1.00  0.00     0.124 S 
ATOM     71  O   UNL A   1      48.952  37.154  29.820  1.00  0.00    -0.237 OA
ATOM     72  O   UNL A   1      50.399  36.545  27.911  1.00  0.00    -0.237 OA
ATOM     73  O   UNL A   1      48.230  37.642  27.510  1.00  0.00    -0.744 OA
ENDBRANCH  69  70
ENDBRANCH  37  62
ENDBRANCH  11  12
ENDBRANCH   4   6
ENDBRANCH   3   4
ENDBRANCH   2   3
ENDBRANCH   1   2
BRANCH   1  74
ATOM     74  O   UNL A   1      37.653  21.341  25.360  1.00  0.00    -0.374 OA
BRANCH  74  75
ATOM     75  C   UNL A   1      37.265  22.718  25.416  1.00  0.00     0.202 C 
BRANCH  75  76
ATOM     76  C   UNL A   1      36.768  23.144  24.029  1.00  0.00     0.261 C 
BRANCH  76  77
ATOM     77  O   UNL A   1      35.588  23.937  24.232  1.00  0.00    -0.459 OA
BRANCH  77  78
ATOM     78  C   UNL A   1      34.466  23.499  23.593  1.00  0.00     0.370 C 
ATOM     79  O   UNL A   1      34.478  23.177  22.409  1.00  0.00    -0.245 OA
BRANCH  78  80
ATOM     80  C   UNL A   1      33.294  23.289  24.615  1.00  0.00     0.328 C 
BRANCH  80  81
ATOM     81  N   UNL A   1      31.890  23.379  24.118  1.00  0.00    -0.316 N 
ATOM     82  C   UNL A   1      30.972  23.951  25.149  1.00  0.00     0.284 C 
ATOM     83  C   UNL A   1      31.669  24.128  22.867  1.00  0.00     0.284 C 
ATOM     84  H   UNL A   1      31.681  22.402  23.913  1.00  0.00     0.349 HD
ATOM     85  C   UNL A   1      30.915  25.510  25.287  1.00  0.00     0.178 C 
ATOM     86  C   UNL A   1      31.713  25.670  22.964  1.00  0.00     0.178 C 
ATOM     87  N   UNL A   1      30.767  26.165  23.977  1.00  0.00    -0.360 N 
BRANCH  87  88
ATOM     88  C   UNL A   1      30.439  27.519  23.851  1.00  0.00     0.038 A 
ATOM     89  C   UNL A   1      31.180  28.480  24.570  1.00  0.00     0.026 A 
ATOM     90  C   UNL A   1      29.387  27.997  23.059  1.00  0.00     0.046 A 
ATOM     91  C   UNL A   1      30.863  29.840  24.552  1.00  0.00     0.004 A 
ATOM     92  C   UNL A   1      29.072  29.363  23.031  1.00  0.00     0.043 A 
ATOM     93  C   UNL A   1      29.799  30.285  23.781  1.00  0.00     0.020 A 
ATOM     94  Cl  UNL A   1      27.764  29.922  22.058  1.00  0.00    -0.084 Cl
ENDBRANCH  87  88
ENDBRANCH  80  81
BRANCH  80  95
ATOM     95  C   UNL A   1      33.511  21.953  25.316  1.00  0.00     0.046 A 
ATOM     96  C   UNL A   1      33.800  21.771  26.660  1.00  0.00     0.094 A 
ATOM     97  C   UNL A   1      33.245  20.642  24.787  1.00  0.00     0.011 A 
ATOM     98  N   UNL A   1      33.529  20.471  26.988  1.00  0.00    -0.361 N 
ATOM     99  C   UNL A   1      33.151  19.767  25.870  1.00  0.00     0.046 A 
ATOM    100  C   UNL A   1      32.977  20.131  23.500  1.00  0.00     0.031 A 
ATOM    101  H   UNL A   1      33.594  20.093  27.896  1.00  0.00     0.166 HD
ATOM    102  C   UNL A   1      32.705  18.444  25.747  1.00  0.00     0.028 A 
ATOM    103  C   UNL A   1      32.530  18.813  23.361  1.00  0.00     0.041 A 
ATOM    104  C   UNL A   1      32.373  17.987  24.467  1.00  0.00     0.022 A 
ATOM    105  Cl  UNL A   1      32.130  18.228  21.791  1.00  0.00    -0.084 Cl
ENDBRANCH  80  95
ENDBRANCH  78  80
ENDBRANCH  77  78
ENDBRANCH  76  77
ENDBRANCH  75  76
ENDBRANCH  74  75
ENDBRANCH   1  74
TORSDOF 20
ENDMDL
