MODEL 1
REMARK VINA RESULT:     -10.3      0.000      0.000
REMARK SMILES C[C@H](CNC(=O)c1ccc(Br)nc1)C(=O)OCCOCCOC(=O)c1ccc(-c2c3nc(c(-c4c(F)cc(S(=O)(=O)[O-])cc4F)c4ccc([nH]4)c(-c4c(F)cc(S(=O)(=O)[O-])cc4F)c4nc(c(-c5c(F)cc(S(=O)(=O)[O-])cc5F)c5ccc2[nH]5)C=C4)C=C3)cc1
REMARK SMILES IDX 19 1 18 2 17 3 16 4 14 5 15 6 2 7 1 8 3 9 4 10 5 11 6 13
REMARK SMILES IDX 7 14 8 15 13 16 9 17 12 18 10 19 11 20 20 21 21 22 22 23
REMARK SMILES IDX 23 24 24 25 25 26 26 27 90 28 27 29 89 30 28 31 29 32 30 33
REMARK SMILES IDX 83 34 31 35 88 36 82 37 84 38 32 39 87 40 81 41 80 42 33 44
REMARK SMILES IDX 67 45 46 46 66 47 47 48 50 49 65 50 85 51 48 52 49 53 64 55
REMARK SMILES IDX 86 56 51 57 34 58 35 59 44 60 36 61 37 62 43 63 45 64 38 65
REMARK SMILES IDX 39 66 40 67 41 68 42 69 68 70 69 71 78 72 70 73 71 74 77 75
REMARK SMILES IDX 79 76 72 77 73 78 74 79 75 80 76 81 52 82 53 83 62 84 54 85
REMARK SMILES IDX 55 86 61 87 63 88 56 89 57 90 58 91 59 92 60 93
REMARK H PARENT 4 12 84 43 50 54
REMARK Flexibility Score: inf
ROOT
ATOM      1  O   UNL A   1      38.787  22.182  25.808  1.00  0.00    -0.374 OA
ENDROOT
BRANCH   1   2
ATOM      2  C   UNL A   1      37.685  21.730  25.025  1.00  0.00     0.202 C 
BRANCH   2   3
ATOM      3  C   UNL A   1      36.307  21.742  25.693  1.00  0.00     0.261 C 
BRANCH   3   4
ATOM      4  O   UNL A   1      35.414  22.730  25.142  1.00  0.00    -0.463 OA
BRANCH   4   5
ATOM      5  C   UNL A   1      34.249  22.237  24.645  1.00  0.00     0.310 C 
ATOM      6  O   UNL A   1      33.860  22.379  23.491  1.00  0.00    -0.252 OA
BRANCH   5   7
ATOM      7  C   UNL A   1      33.412  21.537  25.692  1.00  0.00     0.115 C 
ATOM      8  C   UNL A   1      32.283  20.787  24.987  1.00  0.00     0.022 C 
BRANCH   7   9
ATOM      9  C   UNL A   1      32.899  22.448  26.816  1.00  0.00     0.131 C 
BRANCH   9  10
ATOM     10  N   UNL A   1      31.444  22.335  26.910  1.00  0.00    -0.351 N 
ATOM     11  C   UNL A   1      30.515  23.332  26.744  1.00  0.00     0.252 C 
ATOM     12  H   UNL A   1      31.089  21.441  27.117  1.00  0.00     0.163 HD
ATOM     13  O   UNL A   1      29.489  23.339  27.418  1.00  0.00    -0.269 OA
BRANCH  11  14
ATOM     14  C   UNL A   1      30.694  24.359  25.705  1.00  0.00     0.058 A 
ATOM     15  C   UNL A   1      30.718  24.030  24.349  1.00  0.00     0.018 A 
ATOM     16  C   UNL A   1      30.634  25.701  26.054  1.00  0.00     0.126 A 
ATOM     17  C   UNL A   1      30.680  25.054  23.401  1.00  0.00     0.037 A 
ATOM     18  N   UNL A   1      30.626  26.715  25.153  1.00  0.00    -0.249 NA
ATOM     19  C   UNL A   1      30.631  26.370  23.845  1.00  0.00     0.106 A 
ATOM     20  Br  UNL A   1      30.520  27.765  22.567  1.00  0.00    -0.029 Br
ENDBRANCH  11  14
ENDBRANCH   9  10
ENDBRANCH   7   9
ENDBRANCH   5   7
ENDBRANCH   4   5
ENDBRANCH   3   4
ENDBRANCH   2   3
ENDBRANCH   1   2
BRANCH   1  21
ATOM     21  C   UNL A   1      39.769  21.216  26.176  1.00  0.00     0.202 C 
BRANCH  21  22
ATOM     22  C   UNL A   1      41.238  21.647  26.079  1.00  0.00     0.261 C 
BRANCH  22  23
ATOM     23  O   UNL A   1      41.548  22.738  26.967  1.00  0.00    -0.460 OA
BRANCH  23  24
ATOM     24  C   UNL A   1      41.975  23.869  26.352  1.00  0.00     0.338 C 
ATOM     25  O   UNL A   1      42.434  23.963  25.220  1.00  0.00    -0.246 OA
BRANCH  24  26
ATOM     26  C   UNL A   1      41.643  25.050  27.170  1.00  0.00     0.060 A 
ATOM     27  C   UNL A   1      42.450  26.189  27.036  1.00  0.00     0.016 A 
ATOM     28  C   UNL A   1      40.610  25.018  28.108  1.00  0.00     0.016 A 
ATOM     29  C   UNL A   1      42.257  27.287  27.871  1.00  0.00     0.010 A 
ATOM     30  C   UNL A   1      40.426  26.117  28.953  1.00  0.00     0.010 A 
ATOM     31  C   UNL A   1      41.268  27.241  28.861  1.00  0.00    -0.014 A 
BRANCH  31  32
ATOM     32  C   UNL A   1      41.201  28.291  29.905  1.00  0.00     0.031 A 
ATOM     33  C   UNL A   1      42.128  28.198  31.084  1.00  0.00     0.074 A 
ATOM     34  C   UNL A   1      40.300  29.286  29.828  1.00  0.00     0.049 A 
ATOM     35  N   UNL A   1      42.148  28.907  32.182  1.00  0.00    -0.248 NA
ATOM     36  C   UNL A   1      43.165  27.157  31.017  1.00  0.00     0.031 C 
ATOM     37  C   UNL A   1      39.375  29.499  28.717  1.00  0.00     0.029 A 
ATOM     38  N   UNL A   1      39.998  30.283  30.719  1.00  0.00    -0.354 N 
ATOM     39  C   UNL A   1      43.180  28.380  32.951  1.00  0.00     0.074 A 
ATOM     40  C   UNL A   1      43.753  27.286  32.197  1.00  0.00     0.031 C 
ATOM     41  C   UNL A   1      38.576  30.538  29.013  1.00  0.00     0.029 A 
ATOM     42  C   UNL A   1      38.911  31.036  30.347  1.00  0.00     0.049 A 
ATOM     43  H   UNL A   1      40.510  30.444  31.545  1.00  0.00     0.167 HD
ATOM     44  C   UNL A   1      43.605  28.773  34.175  1.00  0.00     0.037 A 
ATOM     45  C   UNL A   1      38.233  31.985  31.024  1.00  0.00     0.037 A 
ATOM     46  C   UNL A   1      43.029  29.864  34.915  1.00  0.00     0.049 A 
ATOM     47  C   UNL A   1      38.690  32.382  32.401  1.00  0.00     0.074 A 
ATOM     48  C   UNL A   1      43.410  30.365  36.147  1.00  0.00     0.029 A 
ATOM     49  N   UNL A   1      41.939  30.614  34.497  1.00  0.00    -0.354 N 
ATOM     50  N   UNL A   1      39.684  31.898  33.110  1.00  0.00    -0.248 NA
ATOM     51  C   UNL A   1      37.942  33.455  33.072  1.00  0.00     0.031 C 
ATOM     52  C   UNL A   1      42.518  31.385  36.497  1.00  0.00     0.029 A 
ATOM     53  C   UNL A   1      41.614  31.557  35.459  1.00  0.00     0.049 A 
ATOM     54  H   UNL A   1      41.465  30.494  33.642  1.00  0.00     0.167 HD
ATOM     55  C   UNL A   1      39.695  32.621  34.298  1.00  0.00     0.074 A 
ATOM     56  C   UNL A   1      38.609  33.576  34.213  1.00  0.00     0.031 C 
ATOM     57  C   UNL A   1      40.534  32.507  35.357  1.00  0.00     0.037 A 
BRANCH  44  58
ATOM     58  C   UNL A   1      44.716  27.978  34.804  1.00  0.00     0.058 A 
ATOM     59  C   UNL A   1      44.465  26.900  35.666  1.00  0.00     0.135 A 
ATOM     60  C   UNL A   1      46.057  28.315  34.550  1.00  0.00     0.135 A 
ATOM     61  F   UNL A   1      43.203  26.545  35.956  1.00  0.00    -0.206 F 
ATOM     62  C   UNL A   1      45.501  26.215  36.295  1.00  0.00     0.059 A 
ATOM     63  C   UNL A   1      47.108  27.625  35.145  1.00  0.00     0.059 A 
ATOM     64  F   UNL A   1      46.354  29.336  33.731  1.00  0.00    -0.206 F 
ATOM     65  C   UNL A   1      46.819  26.593  36.036  1.00  0.00     0.060 A 
BRANCH  65  66
ATOM     66  S   UNL A   1      48.153  25.731  36.893  1.00  0.00     0.124 S 
ATOM     67  O   UNL A   1      47.566  25.532  38.214  1.00  0.00    -0.237 OA
ATOM     68  O   UNL A   1      48.318  24.526  36.085  1.00  0.00    -0.237 OA
ATOM     69  O   UNL A   1      49.262  26.678  36.835  1.00  0.00    -0.744 OA
ENDBRANCH  65  66
ENDBRANCH  44  58
BRANCH  45  70
ATOM     70  C   UNL A   1      37.032  32.596  30.401  1.00  0.00     0.058 A 
ATOM     71  C   UNL A   1      35.741  32.153  30.721  1.00  0.00     0.135 A 
ATOM     72  C   UNL A   1      37.152  33.688  29.524  1.00  0.00     0.135 A 
ATOM     73  F   UNL A   1      35.576  31.106  31.544  1.00  0.00    -0.206 F 
ATOM     74  C   UNL A   1      34.609  32.779  30.208  1.00  0.00     0.059 A 
ATOM     75  C   UNL A   1      36.036  34.343  29.016  1.00  0.00     0.059 A 
ATOM     76  F   UNL A   1      38.366  34.155  29.197  1.00  0.00    -0.206 F 
ATOM     77  C   UNL A   1      34.768  33.882  29.366  1.00  0.00     0.060 A 
BRANCH  77  78
ATOM     78  S   UNL A   1      33.293  34.758  28.798  1.00  0.00     0.124 S 
ATOM     79  O   UNL A   1      33.874  35.952  28.195  1.00  0.00    -0.237 OA
ATOM     80  O   UNL A   1      32.706  33.795  27.872  1.00  0.00    -0.237 OA
ATOM     81  O   UNL A   1      32.537  34.973  30.028  1.00  0.00    -0.744 OA
ENDBRANCH  77  78
ENDBRANCH  45  70
BRANCH  57  82
ATOM     82  C   UNL A   1      40.347  33.459  36.507  1.00  0.00     0.058 A 
ATOM     83  C   UNL A   1      40.984  34.709  36.542  1.00  0.00     0.135 A 
ATOM     84  C   UNL A   1      39.442  33.155  37.537  1.00  0.00     0.135 A 
ATOM     85  F   UNL A   1      41.864  35.046  35.586  1.00  0.00    -0.206 F 
ATOM     86  C   UNL A   1      40.732  35.623  37.562  1.00  0.00     0.059 A 
ATOM     87  C   UNL A   1      39.158  34.061  38.552  1.00  0.00     0.059 A 
ATOM     88  F   UNL A   1      38.801  31.975  37.544  1.00  0.00    -0.206 F 
ATOM     89  C   UNL A   1      39.811  35.292  38.558  1.00  0.00     0.060 A 
BRANCH  89  90
ATOM     90  S   UNL A   1      39.442  36.514  39.837  1.00  0.00     0.124 S 
ATOM     91  O   UNL A   1      38.966  37.639  39.040  1.00  0.00    -0.237 OA
ATOM     92  O   UNL A   1      38.430  35.831  40.638  1.00  0.00    -0.237 OA
ATOM     93  O   UNL A   1      40.728  36.711  40.499  1.00  0.00    -0.744 OA
ENDBRANCH  89  90
ENDBRANCH  57  82
ENDBRANCH  31  32
ENDBRANCH  24  26
ENDBRANCH  23  24
ENDBRANCH  22  23
ENDBRANCH  21  22
ENDBRANCH   1  21
TORSDOF 20
ENDMDL
MODEL 2
REMARK VINA RESULT:     -10.2      1.404      1.934
REMARK SMILES C[C@H](CNC(=O)c1ccc(Br)nc1)C(=O)OCCOCCOC(=O)c1ccc(-c2c3nc(c(-c4c(F)cc(S(=O)(=O)[O-])cc4F)c4ccc([nH]4)c(-c4c(F)cc(S(=O)(=O)[O-])cc4F)c4nc(c(-c5c(F)cc(S(=O)(=O)[O-])cc5F)c5ccc2[nH]5)C=C4)C=C3)cc1
REMARK SMILES IDX 19 1 18 2 17 3 16 4 14 5 15 6 2 7 1 8 3 9 4 10 5 11 6 13
REMARK SMILES IDX 7 14 8 15 13 16 9 17 12 18 10 19 11 20 20 21 21 22 22 23
REMARK SMILES IDX 23 24 24 25 25 26 26 27 90 28 27 29 89 30 28 31 29 32 30 33
REMARK SMILES IDX 83 34 31 35 88 36 82 37 84 38 32 39 87 40 81 41 80 42 33 44
REMARK SMILES IDX 67 45 46 46 66 47 47 48 50 49 65 50 85 51 48 52 49 53 64 55
REMARK SMILES IDX 86 56 51 57 34 58 35 59 44 60 36 61 37 62 43 63 45 64 38 65
REMARK SMILES IDX 39 66 40 67 41 68 42 69 68 70 69 71 78 72 70 73 71 74 77 75
REMARK SMILES IDX 79 76 72 77 73 78 74 79 75 80 76 81 52 82 53 83 62 84 54 85
REMARK SMILES IDX 55 86 61 87 63 88 56 89 57 90 58 91 59 92 60 93
REMARK H PARENT 4 12 84 43 50 54
REMARK Flexibility Score: inf
ROOT
ATOM      1  O   UNL A   1      38.434  21.667  26.008  1.00  0.00    -0.374 OA
ENDROOT
BRANCH   1   2
ATOM      2  C   UNL A   1      37.751  21.333  24.802  1.00  0.00     0.202 C 
BRANCH   2   3
ATOM      3  C   UNL A   1      36.269  21.705  24.717  1.00  0.00     0.261 C 
BRANCH   3   4
ATOM      4  O   UNL A   1      35.505  21.269  25.858  1.00  0.00    -0.463 OA
BRANCH   4   5
ATOM      5  C   UNL A   1      34.220  21.712  25.893  1.00  0.00     0.310 C 
ATOM      6  O   UNL A   1      33.310  21.290  25.189  1.00  0.00    -0.252 OA
BRANCH   5   7
ATOM      7  C   UNL A   1      34.021  22.860  26.857  1.00  0.00     0.115 C 
ATOM      8  C   UNL A   1      32.841  22.528  27.768  1.00  0.00     0.022 C 
BRANCH   7   9
ATOM      9  C   UNL A   1      33.878  24.237  26.192  1.00  0.00     0.131 C 
BRANCH   9  10
ATOM     10  N   UNL A   1      32.474  24.475  25.856  1.00  0.00    -0.351 N 
ATOM     11  C   UNL A   1      31.668  25.492  26.303  1.00  0.00     0.252 C 
ATOM     12  H   UNL A   1      32.059  23.830  25.239  1.00  0.00     0.163 HD
ATOM     13  O   UNL A   1      30.476  25.289  26.512  1.00  0.00    -0.269 OA
BRANCH  11  14
ATOM     14  C   UNL A   1      32.199  26.855  26.461  1.00  0.00     0.058 A 
ATOM     15  C   UNL A   1      31.442  27.873  27.041  1.00  0.00     0.018 A 
ATOM     16  C   UNL A   1      33.546  27.095  26.220  1.00  0.00     0.126 A 
ATOM     17  C   UNL A   1      32.060  29.084  27.357  1.00  0.00     0.037 A 
ATOM     18  N   UNL A   1      34.162  28.272  26.490  1.00  0.00    -0.249 NA
ATOM     19  C   UNL A   1      33.411  29.236  27.070  1.00  0.00     0.106 A 
ATOM     20  Br  UNL A   1      34.273  30.854  27.549  1.00  0.00    -0.029 Br
ENDBRANCH  11  14
ENDBRANCH   9  10
ENDBRANCH   7   9
ENDBRANCH   5   7
ENDBRANCH   4   5
ENDBRANCH   3   4
ENDBRANCH   2   3
ENDBRANCH   1   2
BRANCH   1  21
ATOM     21  C   UNL A   1      39.711  21.071  26.225  1.00  0.00     0.202 C 
BRANCH  21  22
ATOM     22  C   UNL A   1      40.833  21.993  26.719  1.00  0.00     0.261 C 
BRANCH  22  23
ATOM     23  O   UNL A   1      40.490  23.387  26.596  1.00  0.00    -0.460 OA
BRANCH  23  24
ATOM     24  C   UNL A   1      41.548  24.236  26.601  1.00  0.00     0.338 C 
ATOM     25  O   UNL A   1      42.566  24.147  25.925  1.00  0.00    -0.246 OA
BRANCH  24  26
ATOM     26  C   UNL A   1      41.241  25.427  27.414  1.00  0.00     0.060 A 
ATOM     27  C   UNL A   1      42.094  26.534  27.302  1.00  0.00     0.016 A 
ATOM     28  C   UNL A   1      40.187  25.432  28.328  1.00  0.00     0.016 A 
ATOM     29  C   UNL A   1      41.924  27.638  28.136  1.00  0.00     0.010 A 
ATOM     30  C   UNL A   1      40.026  26.535  29.172  1.00  0.00     0.010 A 
ATOM     31  C   UNL A   1      40.911  27.626  29.103  1.00  0.00    -0.014 A 
BRANCH  31  32
ATOM     32  C   UNL A   1      40.859  28.676  30.148  1.00  0.00     0.031 A 
ATOM     33  C   UNL A   1      41.794  28.575  31.321  1.00  0.00     0.074 A 
ATOM     34  C   UNL A   1      39.966  29.678  30.078  1.00  0.00     0.049 A 
ATOM     35  N   UNL A   1      41.827  29.282  32.419  1.00  0.00    -0.248 NA
ATOM     36  C   UNL A   1      42.822  27.526  31.245  1.00  0.00     0.031 C 
ATOM     37  C   UNL A   1      39.035  29.899  28.974  1.00  0.00     0.029 A 
ATOM     38  N   UNL A   1      39.678  30.677  30.972  1.00  0.00    -0.354 N 
ATOM     39  C   UNL A   1      42.860  28.747  33.180  1.00  0.00     0.074 A 
ATOM     40  C   UNL A   1      43.419  27.649  32.422  1.00  0.00     0.031 C 
ATOM     41  C   UNL A   1      38.247  30.945  29.277  1.00  0.00     0.029 A 
ATOM     42  C   UNL A   1      38.594  31.439  30.609  1.00  0.00     0.049 A 
ATOM     43  H   UNL A   1      40.197  30.833  31.795  1.00  0.00     0.167 HD
ATOM     44  C   UNL A   1      43.297  29.135  34.402  1.00  0.00     0.037 A 
ATOM     45  C   UNL A   1      37.929  32.392  31.291  1.00  0.00     0.037 A 
ATOM     46  C   UNL A   1      42.734  30.231  35.147  1.00  0.00     0.049 A 
ATOM     47  C   UNL A   1      38.399  32.785  32.665  1.00  0.00     0.074 A 
ATOM     48  C   UNL A   1      43.128  30.727  36.376  1.00  0.00     0.029 A 
ATOM     49  N   UNL A   1      41.647  30.990  34.737  1.00  0.00    -0.354 N 
ATOM     50  N   UNL A   1      39.393  32.292  33.366  1.00  0.00    -0.248 NA
ATOM     51  C   UNL A   1      37.664  33.863  33.342  1.00  0.00     0.031 C 
ATOM     52  C   UNL A   1      42.247  31.754  36.733  1.00  0.00     0.029 A 
ATOM     53  C   UNL A   1      41.337  31.934  35.701  1.00  0.00     0.049 A 
ATOM     54  H   UNL A   1      41.167  30.874  33.885  1.00  0.00     0.167 HD
ATOM     55  C   UNL A   1      39.419  33.014  34.555  1.00  0.00     0.074 A 
ATOM     56  C   UNL A   1      38.340  33.978  34.478  1.00  0.00     0.031 C 
ATOM     57  C   UNL A   1      40.263  32.893  35.608  1.00  0.00     0.037 A 
BRANCH  44  58
ATOM     58  C   UNL A   1      44.406  28.331  35.022  1.00  0.00     0.058 A 
ATOM     59  C   UNL A   1      45.759  28.631  34.800  1.00  0.00     0.135 A 
ATOM     60  C   UNL A   1      44.105  27.228  35.840  1.00  0.00     0.135 A 
ATOM     61  F   UNL A   1      46.102  29.664  34.014  1.00  0.00    -0.206 F 
ATOM     62  C   UNL A   1      46.775  27.838  35.325  1.00  0.00     0.059 A 
ATOM     63  C   UNL A   1      45.105  26.439  36.398  1.00  0.00     0.059 A 
ATOM     64  F   UNL A   1      42.827  26.897  36.086  1.00  0.00    -0.206 F 
ATOM     65  C   UNL A   1      46.437  26.737  36.113  1.00  0.00     0.060 A 
BRANCH  65  66
ATOM     66  S   UNL A   1      47.760  25.687  36.750  1.00  0.00     0.124 S 
ATOM     67  O   UNL A   1      48.601  26.665  37.433  1.00  0.00    -0.237 OA
ATOM     68  O   UNL A   1      47.037  24.760  37.615  1.00  0.00    -0.237 OA
ATOM     69  O   UNL A   1      48.335  25.097  35.546  1.00  0.00    -0.744 OA
ENDBRANCH  65  66
ENDBRANCH  44  58
BRANCH  45  70
ATOM     70  C   UNL A   1      36.728  33.014  30.676  1.00  0.00     0.058 A 
ATOM     71  C   UNL A   1      35.437  32.696  31.120  1.00  0.00     0.135 A 
ATOM     72  C   UNL A   1      36.856  33.995  29.679  1.00  0.00     0.135 A 
ATOM     73  F   UNL A   1      35.264  31.756  32.062  1.00  0.00    -0.206 F 
ATOM     74  C   UNL A   1      34.314  33.339  30.609  1.00  0.00     0.059 A 
ATOM     75  C   UNL A   1      35.751  34.666  29.168  1.00  0.00     0.059 A 
ATOM     76  F   UNL A   1      38.072  34.342  29.230  1.00  0.00    -0.206 F 
ATOM     77  C   UNL A   1      34.483  34.333  29.643  1.00  0.00     0.060 A 
BRANCH  77  78
ATOM     78  S   UNL A   1      33.030  35.241  29.069  1.00  0.00     0.124 S 
ATOM     79  O   UNL A   1      32.487  34.328  28.071  1.00  0.00    -0.237 OA
ATOM     80  O   UNL A   1      32.254  35.381  30.297  1.00  0.00    -0.237 OA
ATOM     81  O   UNL A   1      33.596  36.483  28.551  1.00  0.00    -0.744 OA
ENDBRANCH  77  78
ENDBRANCH  45  70
BRANCH  57  82
ATOM     82  C   UNL A   1      40.092  33.845  36.760  1.00  0.00     0.058 A 
ATOM     83  C   UNL A   1      40.748  35.086  36.797  1.00  0.00     0.135 A 
ATOM     84  C   UNL A   1      39.184  33.552  37.791  1.00  0.00     0.135 A 
ATOM     85  F   UNL A   1      41.631  35.412  35.840  1.00  0.00    -0.206 F 
ATOM     86  C   UNL A   1      40.510  36.001  37.818  1.00  0.00     0.059 A 
ATOM     87  C   UNL A   1      38.915  34.460  38.808  1.00  0.00     0.059 A 
ATOM     88  F   UNL A   1      38.526  32.382  37.797  1.00  0.00    -0.206 F 
ATOM     89  C   UNL A   1      39.586  35.682  38.816  1.00  0.00     0.060 A 
BRANCH  89  90
ATOM     90  S   UNL A   1      39.236  36.906  40.097  1.00  0.00     0.124 S 
ATOM     91  O   UNL A   1      38.645  37.987  39.317  1.00  0.00    -0.237 OA
ATOM     92  O   UNL A   1      38.322  36.185  40.977  1.00  0.00    -0.237 OA
ATOM     93  O   UNL A   1      40.551  37.188  40.665  1.00  0.00    -0.744 OA
ENDBRANCH  89  90
ENDBRANCH  57  82
ENDBRANCH  31  32
ENDBRANCH  24  26
ENDBRANCH  23  24
ENDBRANCH  22  23
ENDBRANCH  21  22
ENDBRANCH   1  21
TORSDOF 20
ENDMDL
MODEL 3
REMARK VINA RESULT:     -10.2      1.487      2.042
REMARK SMILES C[C@H](CNC(=O)c1ccc(Br)nc1)C(=O)OCCOCCOC(=O)c1ccc(-c2c3nc(c(-c4c(F)cc(S(=O)(=O)[O-])cc4F)c4ccc([nH]4)c(-c4c(F)cc(S(=O)(=O)[O-])cc4F)c4nc(c(-c5c(F)cc(S(=O)(=O)[O-])cc5F)c5ccc2[nH]5)C=C4)C=C3)cc1
REMARK SMILES IDX 19 1 18 2 17 3 16 4 14 5 15 6 2 7 1 8 3 9 4 10 5 11 6 13
REMARK SMILES IDX 7 14 8 15 13 16 9 17 12 18 10 19 11 20 20 21 21 22 22 23
REMARK SMILES IDX 23 24 24 25 25 26 26 27 90 28 27 29 89 30 28 31 29 32 30 33
REMARK SMILES IDX 83 34 31 35 88 36 82 37 84 38 32 39 87 40 81 41 80 42 33 44
REMARK SMILES IDX 67 45 46 46 66 47 47 48 50 49 65 50 85 51 48 52 49 53 64 55
REMARK SMILES IDX 86 56 51 57 34 58 35 59 44 60 36 61 37 62 43 63 45 64 38 65
REMARK SMILES IDX 39 66 40 67 41 68 42 69 68 70 69 71 78 72 70 73 71 74 77 75
REMARK SMILES IDX 79 76 72 77 73 78 74 79 75 80 76 81 52 82 53 83 62 84 54 85
REMARK SMILES IDX 55 86 61 87 63 88 56 89 57 90 58 91 59 92 60 93
REMARK H PARENT 4 12 84 43 50 54
REMARK Flexibility Score: inf
ROOT
ATOM      1  O   UNL A   1      37.770  22.654  25.095  1.00  0.00    -0.374 OA
ENDROOT
BRANCH   1   2
ATOM      2  C   UNL A   1      36.950  22.266  23.995  1.00  0.00     0.202 C 
BRANCH   2   3
ATOM      3  C   UNL A   1      35.564  22.909  23.900  1.00  0.00     0.261 C 
BRANCH   3   4
ATOM      4  O   UNL A   1      34.488  21.952  23.922  1.00  0.00    -0.463 OA
BRANCH   4   5
ATOM      5  C   UNL A   1      34.315  21.308  25.107  1.00  0.00     0.310 C 
ATOM      6  O   UNL A   1      34.518  20.114  25.296  1.00  0.00    -0.252 OA
BRANCH   5   7
ATOM      7  C   UNL A   1      33.764  22.208  26.190  1.00  0.00     0.115 C 
ATOM      8  C   UNL A   1      34.161  21.630  27.548  1.00  0.00     0.022 C 
BRANCH   7   9
ATOM      9  C   UNL A   1      32.257  22.484  26.088  1.00  0.00     0.131 C 
BRANCH   9  10
ATOM     10  N   UNL A   1      31.951  23.044  24.772  1.00  0.00    -0.351 N 
ATOM     11  C   UNL A   1      31.537  24.320  24.481  1.00  0.00     0.252 C 
ATOM     12  H   UNL A   1      32.054  22.435  24.005  1.00  0.00     0.163 HD
ATOM     13  O   UNL A   1      30.740  24.518  23.569  1.00  0.00    -0.269 OA
BRANCH  11  14
ATOM     14  C   UNL A   1      32.099  25.473  25.202  1.00  0.00     0.058 A 
ATOM     15  C   UNL A   1      33.319  26.042  24.833  1.00  0.00     0.018 A 
ATOM     16  C   UNL A   1      31.318  26.143  26.134  1.00  0.00     0.126 A 
ATOM     17  C   UNL A   1      33.705  27.253  25.409  1.00  0.00     0.037 A 
ATOM     18  N   UNL A   1      31.684  27.306  26.729  1.00  0.00    -0.249 NA
ATOM     19  C   UNL A   1      32.861  27.846  26.340  1.00  0.00     0.106 A 
ATOM     20  Br  UNL A   1      33.348  29.520  27.084  1.00  0.00    -0.029 Br
ENDBRANCH  11  14
ENDBRANCH   9  10
ENDBRANCH   7   9
ENDBRANCH   5   7
ENDBRANCH   4   5
ENDBRANCH   3   4
ENDBRANCH   2   3
ENDBRANCH   1   2
BRANCH   1  21
ATOM     21  C   UNL A   1      38.614  21.657  25.666  1.00  0.00     0.202 C 
BRANCH  21  22
ATOM     22  C   UNL A   1      39.757  22.147  26.565  1.00  0.00     0.261 C 
BRANCH  22  23
ATOM     23  O   UNL A   1      39.656  23.553  26.861  1.00  0.00    -0.460 OA
BRANCH  23  24
ATOM     24  C   UNL A   1      40.835  24.162  27.143  1.00  0.00     0.338 C 
ATOM     25  O   UNL A   1      41.943  23.847  26.729  1.00  0.00    -0.246 OA
BRANCH  24  26
ATOM     26  C   UNL A   1      40.597  25.409  27.893  1.00  0.00     0.060 A 
ATOM     27  C   UNL A   1      41.614  26.375  27.898  1.00  0.00     0.016 A 
ATOM     28  C   UNL A   1      39.436  25.597  28.644  1.00  0.00     0.016 A 
ATOM     29  C   UNL A   1      41.493  27.516  28.689  1.00  0.00     0.010 A 
ATOM     30  C   UNL A   1      39.323  26.737  29.446  1.00  0.00     0.010 A 
ATOM     31  C   UNL A   1      40.363  27.683  29.498  1.00  0.00    -0.014 A 
BRANCH  31  32
ATOM     32  C   UNL A   1      40.320  28.760  30.516  1.00  0.00     0.031 A 
ATOM     33  C   UNL A   1      41.185  28.633  31.738  1.00  0.00     0.074 A 
ATOM     34  C   UNL A   1      39.494  29.811  30.376  1.00  0.00     0.049 A 
ATOM     35  N   UNL A   1      41.203  29.364  32.821  1.00  0.00    -0.248 NA
ATOM     36  C   UNL A   1      42.150  27.523  31.741  1.00  0.00     0.031 C 
ATOM     37  C   UNL A   1      38.637  30.059  29.219  1.00  0.00     0.029 A 
ATOM     38  N   UNL A   1      39.220  30.847  31.231  1.00  0.00    -0.354 N 
ATOM     39  C   UNL A   1      42.161  28.788  33.648  1.00  0.00     0.074 A 
ATOM     40  C   UNL A   1      42.691  27.640  32.944  1.00  0.00     0.031 C 
ATOM     41  C   UNL A   1      37.898  31.157  29.456  1.00  0.00     0.029 A 
ATOM     42  C   UNL A   1      38.205  31.662  30.794  1.00  0.00     0.049 A 
ATOM     43  H   UNL A   1      39.705  30.992  32.077  1.00  0.00     0.167 HD
ATOM     44  C   UNL A   1      42.557  29.180  34.882  1.00  0.00     0.037 A 
ATOM     45  C   UNL A   1      37.565  32.670  31.418  1.00  0.00     0.037 A 
ATOM     46  C   UNL A   1      42.023  30.325  35.572  1.00  0.00     0.049 A 
ATOM     47  C   UNL A   1      37.985  33.069  32.807  1.00  0.00     0.074 A 
ATOM     48  C   UNL A   1      42.381  30.828  36.809  1.00  0.00     0.029 A 
ATOM     49  N   UNL A   1      41.007  31.137  35.088  1.00  0.00    -0.354 N 
ATOM     50  N   UNL A   1      38.910  32.536  33.571  1.00  0.00    -0.248 NA
ATOM     51  C   UNL A   1      37.282  34.205  33.420  1.00  0.00     0.031 C 
ATOM     52  C   UNL A   1      41.547  31.914  37.096  1.00  0.00     0.029 A 
ATOM     53  C   UNL A   1      40.705  32.121  36.014  1.00  0.00     0.049 A 
ATOM     54  H   UNL A   1      40.565  31.028  34.215  1.00  0.00     0.167 HD
ATOM     55  C   UNL A   1      38.917  33.284  34.743  1.00  0.00     0.074 A 
ATOM     56  C   UNL A   1      37.904  34.309  34.588  1.00  0.00     0.031 C 
ATOM     57  C   UNL A   1      39.697  33.140  35.842  1.00  0.00     0.037 A 
BRANCH  44  58
ATOM     58  C   UNL A   1      43.581  28.327  35.578  1.00  0.00     0.058 A 
ATOM     59  C   UNL A   1      43.219  27.313  36.478  1.00  0.00     0.135 A 
ATOM     60  C   UNL A   1      44.951  28.543  35.351  1.00  0.00     0.135 A 
ATOM     61  F   UNL A   1      41.925  27.075  36.744  1.00  0.00    -0.206 F 
ATOM     62  C   UNL A   1      44.178  26.576  37.167  1.00  0.00     0.059 A 
ATOM     63  C   UNL A   1      45.926  27.799  36.007  1.00  0.00     0.059 A 
ATOM     64  F   UNL A   1      45.353  29.499  34.499  1.00  0.00    -0.206 F 
ATOM     65  C   UNL A   1      45.529  26.835  36.933  1.00  0.00     0.060 A 
BRANCH  65  66
ATOM     66  S   UNL A   1      46.765  25.907  37.866  1.00  0.00     0.124 S 
ATOM     67  O   UNL A   1      46.694  24.601  37.218  1.00  0.00    -0.237 OA
ATOM     68  O   UNL A   1      47.984  26.671  37.620  1.00  0.00    -0.237 OA
ATOM     69  O   UNL A   1      46.263  25.955  39.236  1.00  0.00    -0.744 OA
ENDBRANCH  65  66
ENDBRANCH  44  58
BRANCH  45  70
ATOM     70  C   UNL A   1      36.437  33.346  30.727  1.00  0.00     0.058 A 
ATOM     71  C   UNL A   1      35.111  33.150  31.136  1.00  0.00     0.135 A 
ATOM     72  C   UNL A   1      36.674  34.261  29.687  1.00  0.00     0.135 A 
ATOM     73  F   UNL A   1      34.833  32.277  32.117  1.00  0.00    -0.206 F 
ATOM     74  C   UNL A   1      34.058  33.847  30.550  1.00  0.00     0.059 A 
ATOM     75  C   UNL A   1      35.642  34.984  29.101  1.00  0.00     0.059 A 
ATOM     76  F   UNL A   1      37.928  34.491  29.269  1.00  0.00    -0.206 F 
ATOM     77  C   UNL A   1      34.337  34.772  29.542  1.00  0.00     0.060 A 
BRANCH  77  78
ATOM     78  S   UNL A   1      32.978  35.754  28.868  1.00  0.00     0.124 S 
ATOM     79  O   UNL A   1      32.320  34.788  27.997  1.00  0.00    -0.237 OA
ATOM     80  O   UNL A   1      32.247  36.132  30.073  1.00  0.00    -0.237 OA
ATOM     81  O   UNL A   1      33.664  36.853  28.191  1.00  0.00    -0.744 OA
ENDBRANCH  77  78
ENDBRANCH  45  70
BRANCH  57  82
ATOM     82  C   UNL A   1      39.524  34.129  36.962  1.00  0.00     0.058 A 
ATOM     83  C   UNL A   1      38.759  33.832  38.100  1.00  0.00     0.135 A 
ATOM     84  C   UNL A   1      40.215  35.352  36.937  1.00  0.00     0.135 A 
ATOM     85  F   UNL A   1      38.073  32.680  38.171  1.00  0.00    -0.206 F 
ATOM     86  C   UNL A   1      38.682  34.715  39.173  1.00  0.00     0.059 A 
ATOM     87  C   UNL A   1      40.170  36.239  38.007  1.00  0.00     0.059 A 
ATOM     88  F   UNL A   1      40.967  35.681  35.874  1.00  0.00    -0.206 F 
ATOM     89  C   UNL A   1      39.397  35.913  39.120  1.00  0.00     0.060 A 
BRANCH  89  90
ATOM     90  S   UNL A   1      39.344  37.019  40.548  1.00  0.00     0.124 S 
ATOM     91  O   UNL A   1      40.737  37.439  40.646  1.00  0.00    -0.237 OA
ATOM     92  O   UNL A   1      38.401  38.045  40.113  1.00  0.00    -0.237 OA
ATOM     93  O   UNL A   1      38.870  36.157  41.626  1.00  0.00    -0.744 OA
ENDBRANCH  89  90
ENDBRANCH  57  82
ENDBRANCH  31  32
ENDBRANCH  24  26
ENDBRANCH  23  24
ENDBRANCH  22  23
ENDBRANCH  21  22
ENDBRANCH   1  21
TORSDOF 20
ENDMDL
