MODEL 1
REMARK VINA RESULT:     -11.0      0.000      0.000
REMARK SMILES CCCC[C@@H](NS(=O)(=O)c1cc2c3c(c1)c(C)cc(=O)n3CC2)C(=O)OCCOCCOC(=O)c1ccc(-c2c3nc(c(-c4c(F)cc(S(=O)(=O)[O-])cc4F)c4ccc([nH]4)c(-c4c(F)cc(S(=O)(=O)[O-])cc4F)c4nc(c(-c5c(F)cc(S(=O)(=O)[O-])cc5F)c5ccc2[nH]5)C=C4)C=C3)cc1
REMARK SMILES IDX 29 1 28 2 27 3 26 4 24 5 25 6 5 7 4 8 3 9 2 10 1 11 6 12
REMARK SMILES IDX 7 14 8 15 9 16 10 17 11 18 15 19 12 20 14 21 13 22 23 23
REMARK SMILES IDX 16 24 21 25 22 26 17 27 18 28 19 29 20 30 30 31 31 32 32 33
REMARK SMILES IDX 33 34 34 35 35 36 36 37 100 38 37 39 99 40 38 41 39 42 40 43
REMARK SMILES IDX 93 44 41 45 98 46 92 47 94 48 42 49 97 50 91 51 90 52 43 54
REMARK SMILES IDX 77 55 56 56 76 57 57 58 60 59 75 60 95 61 58 62 59 63 74 65
REMARK SMILES IDX 96 66 61 67 44 68 45 69 54 70 46 71 47 72 53 73 55 74 48 75
REMARK SMILES IDX 49 76 50 77 51 78 52 79 78 80 79 81 88 82 80 83 81 84 87 85
REMARK SMILES IDX 89 86 82 87 83 88 84 89 85 90 86 91 62 92 63 93 72 94 64 95
REMARK SMILES IDX 65 96 71 97 73 98 66 99 67 100 68 101 69 102 70 103
REMARK H PARENT 6 13 94 53 60 64
REMARK Flexibility Score: inf
ROOT
ATOM      1  O   UNL A   1      39.475  21.070  26.576  1.00  0.00    -0.374 OA
ENDROOT
BRANCH   1   2
ATOM      2  C   UNL A   1      38.695  21.034  25.393  1.00  0.00     0.202 C 
BRANCH   2   3
ATOM      3  C   UNL A   1      37.508  21.979  25.224  1.00  0.00     0.261 C 
BRANCH   3   4
ATOM      4  O   UNL A   1      36.320  21.473  24.625  1.00  0.00    -0.462 OA
BRANCH   4   5
ATOM      5  C   UNL A   1      35.192  21.549  25.389  1.00  0.00     0.324 C 
ATOM      6  O   UNL A   1      35.148  21.500  26.610  1.00  0.00    -0.250 OA
BRANCH   5   7
ATOM      7  C   UNL A   1      33.951  21.663  24.530  1.00  0.00     0.179 C 
BRANCH   7   8
ATOM      8  C   UNL A   1      33.105  20.388  24.729  1.00  0.00     0.032 C 
BRANCH   8   9
ATOM      9  C   UNL A   1      33.825  19.052  24.517  1.00  0.00     0.002 C 
BRANCH   9  10
ATOM     10  C   UNL A   1      33.210  18.094  23.491  1.00  0.00    -0.003 C 
ATOM     11  C   UNL A   1      34.020  16.831  23.234  1.00  0.00     0.004 C 
ENDBRANCH   9  10
ENDBRANCH   8   9
ENDBRANCH   7   8
BRANCH   7  12
ATOM     12  N   UNL A   1      33.229  22.908  24.894  1.00  0.00    -0.197 NA
ATOM     13  H   UNL A   1      33.925  23.564  25.251  1.00  0.00     0.142 HD
BRANCH  12  14
ATOM     14  S   UNL A   1      32.341  23.724  23.699  1.00  0.00     0.241 S 
ATOM     15  O   UNL A   1      32.987  23.474  22.432  1.00  0.00    -0.207 OA
ATOM     16  O   UNL A   1      30.959  23.346  23.918  1.00  0.00    -0.207 OA
BRANCH  14  17
ATOM     17  C   UNL A   1      32.474  25.467  24.081  1.00  0.00     0.083 A 
ATOM     18  C   UNL A   1      33.549  25.906  24.879  1.00  0.00     0.027 A 
ATOM     19  C   UNL A   1      31.486  26.372  23.615  1.00  0.00     0.032 A 
ATOM     20  C   UNL A   1      33.501  27.194  25.380  1.00  0.00    -0.020 A 
ATOM     21  C   UNL A   1      31.506  27.706  24.043  1.00  0.00     0.003 A 
ATOM     22  C   UNL A   1      32.495  28.044  24.955  1.00  0.00     0.055 A 
ATOM     23  C   UNL A   1      34.264  27.815  26.516  1.00  0.00     0.060 C 
ATOM     24  C   UNL A   1      30.542  28.772  23.705  1.00  0.00    -0.036 A 
ATOM     25  N   UNL A   1      32.498  29.226  25.680  1.00  0.00    -0.308 N 
ATOM     26  C   UNL A   1      33.530  29.164  26.714  1.00  0.00     0.131 C 
ATOM     27  C   UNL A   1      29.574  28.552  22.583  1.00  0.00     0.045 C 
ATOM     28  C   UNL A   1      30.581  29.933  24.396  1.00  0.00     0.075 A 
ATOM     29  C   UNL A   1      31.559  30.202  25.500  1.00  0.00     0.251 A 
ATOM     30  O   UNL A   1      31.489  31.229  26.163  1.00  0.00    -0.269 OA
ENDBRANCH  14  17
ENDBRANCH  12  14
ENDBRANCH   7  12
ENDBRANCH   5   7
ENDBRANCH   4   5
ENDBRANCH   3   4
ENDBRANCH   2   3
ENDBRANCH   1   2
BRANCH   1  31
ATOM     31  C   UNL A   1      40.894  21.155  26.438  1.00  0.00     0.202 C 
BRANCH  31  32
ATOM     32  C   UNL A   1      41.608  22.303  27.152  1.00  0.00     0.261 C 
BRANCH  32  33
ATOM     33  O   UNL A   1      40.925  23.553  26.947  1.00  0.00    -0.460 OA
BRANCH  33  34
ATOM     34  C   UNL A   1      41.729  24.609  26.667  1.00  0.00     0.338 C 
ATOM     35  O   UNL A   1      42.456  24.746  25.699  1.00  0.00    -0.246 OA
BRANCH  34  36
ATOM     36  C   UNL A   1      41.395  25.712  27.591  1.00  0.00     0.060 A 
ATOM     37  C   UNL A   1      42.275  26.802  27.670  1.00  0.00     0.016 A 
ATOM     38  C   UNL A   1      40.254  25.656  28.391  1.00  0.00     0.016 A 
ATOM     39  C   UNL A   1      42.032  27.828  28.575  1.00  0.00     0.010 A 
ATOM     40  C   UNL A   1      40.029  26.671  29.324  1.00  0.00     0.010 A 
ATOM     41  C   UNL A   1      40.937  27.739  29.442  1.00  0.00    -0.014 A 
BRANCH  41  42
ATOM     42  C   UNL A   1      40.879  28.640  30.612  1.00  0.00     0.031 A 
ATOM     43  C   UNL A   1      39.864  29.751  30.593  1.00  0.00     0.074 A 
ATOM     44  C   UNL A   1      41.665  28.439  31.684  1.00  0.00     0.049 A 
ATOM     45  N   UNL A   1      39.611  30.655  31.501  1.00  0.00    -0.248 NA
ATOM     46  C   UNL A   1      39.015  29.849  29.392  1.00  0.00     0.031 C 
ATOM     47  C   UNL A   1      42.640  27.358  31.825  1.00  0.00     0.029 A 
ATOM     48  N   UNL A   1      41.758  29.134  32.862  1.00  0.00    -0.354 N 
ATOM     49  C   UNL A   1      38.562  31.411  30.994  1.00  0.00     0.074 A 
ATOM     50  C   UNL A   1      38.260  30.901  29.676  1.00  0.00     0.031 C 
ATOM     51  C   UNL A   1      43.230  27.460  33.030  1.00  0.00     0.029 A 
ATOM     52  C   UNL A   1      42.693  28.625  33.732  1.00  0.00     0.049 A 
ATOM     53  H   UNL A   1      41.205  29.923  33.067  1.00  0.00     0.167 HD
ATOM     54  C   UNL A   1      37.892  32.423  31.588  1.00  0.00     0.037 A 
ATOM     55  C   UNL A   1      43.070  29.059  34.952  1.00  0.00     0.037 A 
ATOM     56  C   UNL A   1      38.206  32.930  32.896  1.00  0.00     0.049 A 
ATOM     57  C   UNL A   1      42.390  30.273  35.539  1.00  0.00     0.074 A 
ATOM     58  C   UNL A   1      37.603  33.969  33.580  1.00  0.00     0.029 A 
ATOM     59  N   UNL A   1      39.208  32.433  33.717  1.00  0.00    -0.354 N 
ATOM     60  N   UNL A   1      41.391  30.973  35.053  1.00  0.00    -0.248 NA
ATOM     61  C   UNL A   1      42.886  30.757  36.836  1.00  0.00     0.031 C 
ATOM     62  C   UNL A   1      38.271  34.132  34.795  1.00  0.00     0.029 A 
ATOM     63  C   UNL A   1      39.254  33.160  34.892  1.00  0.00     0.049 A 
ATOM     64  H   UNL A   1      39.798  31.678  33.495  1.00  0.00     0.167 HD
ATOM     65  C   UNL A   1      41.115  31.952  36.004  1.00  0.00     0.074 A 
ATOM     66  C   UNL A   1      42.049  31.754  37.092  1.00  0.00     0.031 C 
ATOM     67  C   UNL A   1      40.172  32.925  35.979  1.00  0.00     0.037 A 
BRANCH  54  68
ATOM     68  C   UNL A   1      36.743  33.044  30.845  1.00  0.00     0.058 A 
ATOM     69  C   UNL A   1      35.416  32.811  31.235  1.00  0.00     0.135 A 
ATOM     70  C   UNL A   1      36.971  33.943  29.792  1.00  0.00     0.135 A 
ATOM     71  F   UNL A   1      35.142  31.942  32.221  1.00  0.00    -0.206 F 
ATOM     72  C   UNL A   1      34.352  33.448  30.607  1.00  0.00     0.059 A 
ATOM     73  C   UNL A   1      35.923  34.613  29.166  1.00  0.00     0.059 A 
ATOM     74  F   UNL A   1      38.221  34.194  29.374  1.00  0.00    -0.206 F 
ATOM     75  C   UNL A   1      34.617  34.358  29.580  1.00  0.00     0.060 A 
BRANCH  75  76
ATOM     76  S   UNL A   1      33.224  35.209  28.812  1.00  0.00     0.124 S 
ATOM     77  O   UNL A   1      32.653  34.150  27.985  1.00  0.00    -0.237 OA
ATOM     78  O   UNL A   1      32.429  35.606  29.970  1.00  0.00    -0.237 OA
ATOM     79  O   UNL A   1      33.854  36.303  28.080  1.00  0.00    -0.744 OA
ENDBRANCH  75  76
ENDBRANCH  54  68
BRANCH  55  80
ATOM     80  C   UNL A   1      44.126  28.341  35.715  1.00  0.00     0.058 A 
ATOM     81  C   UNL A   1      45.481  28.657  35.537  1.00  0.00     0.135 A 
ATOM     82  C   UNL A   1      43.810  27.315  36.619  1.00  0.00     0.135 A 
ATOM     83  F   UNL A   1      45.837  29.625  34.678  1.00  0.00    -0.206 F 
ATOM     84  C   UNL A   1      46.485  27.968  36.208  1.00  0.00     0.059 A 
ATOM     85  C   UNL A   1      44.795  26.629  37.323  1.00  0.00     0.059 A 
ATOM     86  F   UNL A   1      42.528  26.979  36.837  1.00  0.00    -0.206 F 
ATOM     87  C   UNL A   1      46.132  26.955  37.101  1.00  0.00     0.060 A 
BRANCH  87  88
ATOM     88  S   UNL A   1      47.447  26.083  37.979  1.00  0.00     0.124 S 
ATOM     89  O   UNL A   1      48.534  27.052  37.917  1.00  0.00    -0.237 OA
ATOM     90  O   UNL A   1      46.847  25.876  39.292  1.00  0.00    -0.237 OA
ATOM     91  O   UNL A   1      47.636  24.873  37.184  1.00  0.00    -0.744 OA
ENDBRANCH  87  88
ENDBRANCH  55  80
BRANCH  67  92
ATOM     92  C   UNL A   1      40.059  33.842  37.165  1.00  0.00     0.058 A 
ATOM     93  C   UNL A   1      40.725  35.075  37.203  1.00  0.00     0.135 A 
ATOM     94  C   UNL A   1      39.156  33.548  38.202  1.00  0.00     0.135 A 
ATOM     95  F   UNL A   1      41.602  35.399  36.240  1.00  0.00    -0.206 F 
ATOM     96  C   UNL A   1      40.491  35.991  38.222  1.00  0.00     0.059 A 
ATOM     97  C   UNL A   1      38.887  34.461  39.216  1.00  0.00     0.059 A 
ATOM     98  F   UNL A   1      38.486  32.384  38.205  1.00  0.00    -0.206 F 
ATOM     99  C   UNL A   1      39.557  35.684  39.213  1.00  0.00     0.060 A 
BRANCH  99 100
ATOM    100  S   UNL A   1      39.193  36.931  40.467  1.00  0.00     0.124 S 
ATOM    101  O   UNL A   1      38.489  37.941  39.684  1.00  0.00    -0.237 OA
ATOM    102  O   UNL A   1      38.378  36.184  41.418  1.00  0.00    -0.237 OA
ATOM    103  O   UNL A   1      40.514  37.324  40.952  1.00  0.00    -0.744 OA
ENDBRANCH  99 100
ENDBRANCH  67  92
ENDBRANCH  41  42
ENDBRANCH  34  36
ENDBRANCH  33  34
ENDBRANCH  32  33
ENDBRANCH  31  32
ENDBRANCH   1  31
TORSDOF 23
ENDMDL
MODEL 2
REMARK VINA RESULT:     -10.8      1.101      8.048
REMARK SMILES CCCC[C@@H](NS(=O)(=O)c1cc2c3c(c1)c(C)cc(=O)n3CC2)C(=O)OCCOCCOC(=O)c1ccc(-c2c3nc(c(-c4c(F)cc(S(=O)(=O)[O-])cc4F)c4ccc([nH]4)c(-c4c(F)cc(S(=O)(=O)[O-])cc4F)c4nc(c(-c5c(F)cc(S(=O)(=O)[O-])cc5F)c5ccc2[nH]5)C=C4)C=C3)cc1
REMARK SMILES IDX 29 1 28 2 27 3 26 4 24 5 25 6 5 7 4 8 3 9 2 10 1 11 6 12
REMARK SMILES IDX 7 14 8 15 9 16 10 17 11 18 15 19 12 20 14 21 13 22 23 23
REMARK SMILES IDX 16 24 21 25 22 26 17 27 18 28 19 29 20 30 30 31 31 32 32 33
REMARK SMILES IDX 33 34 34 35 35 36 36 37 100 38 37 39 99 40 38 41 39 42 40 43
REMARK SMILES IDX 93 44 41 45 98 46 92 47 94 48 42 49 97 50 91 51 90 52 43 54
REMARK SMILES IDX 77 55 56 56 76 57 57 58 60 59 75 60 95 61 58 62 59 63 74 65
REMARK SMILES IDX 96 66 61 67 44 68 45 69 54 70 46 71 47 72 53 73 55 74 48 75
REMARK SMILES IDX 49 76 50 77 51 78 52 79 78 80 79 81 88 82 80 83 81 84 87 85
REMARK SMILES IDX 89 86 82 87 83 88 84 89 85 90 86 91 62 92 63 93 72 94 64 95
REMARK SMILES IDX 65 96 71 97 73 98 66 99 67 100 68 101 69 102 70 103
REMARK H PARENT 6 13 94 53 60 64
REMARK Flexibility Score: inf
ROOT
ATOM      1  O   UNL A   1      39.490  20.645  25.928  1.00  0.00    -0.374 OA
ENDROOT
BRANCH   1   2
ATOM      2  C   UNL A   1      38.234  20.649  25.271  1.00  0.00     0.202 C 
BRANCH   2   3
ATOM      3  C   UNL A   1      37.560  21.970  24.908  1.00  0.00     0.261 C 
BRANCH   3   4
ATOM      4  O   UNL A   1      36.185  21.950  24.540  1.00  0.00    -0.462 OA
BRANCH   4   5
ATOM      5  C   UNL A   1      35.854  22.684  23.439  1.00  0.00     0.324 C 
ATOM      6  O   UNL A   1      36.637  23.125  22.609  1.00  0.00    -0.250 OA
BRANCH   5   7
ATOM      7  C   UNL A   1      34.364  22.942  23.375  1.00  0.00     0.179 C 
BRANCH   7   8
ATOM      8  C   UNL A   1      33.664  21.986  24.362  1.00  0.00     0.032 C 
BRANCH   8   9
ATOM      9  C   UNL A   1      32.828  22.640  25.468  1.00  0.00     0.002 C 
BRANCH   9  10
ATOM     10  C   UNL A   1      33.578  23.070  26.734  1.00  0.00    -0.003 C 
ATOM     11  C   UNL A   1      33.310  22.203  27.956  1.00  0.00     0.004 C 
ENDBRANCH   9  10
ENDBRANCH   8   9
ENDBRANCH   7   8
BRANCH   7  12
ATOM     12  N   UNL A   1      34.113  24.376  23.669  1.00  0.00    -0.197 NA
ATOM     13  H   UNL A   1      35.014  24.853  23.624  1.00  0.00     0.142 HD
BRANCH  12  14
ATOM     14  S   UNL A   1      33.040  25.243  22.679  1.00  0.00     0.241 S 
ATOM     15  O   UNL A   1      33.658  25.376  21.381  1.00  0.00    -0.207 OA
ATOM     16  O   UNL A   1      31.758  24.585  22.830  1.00  0.00    -0.207 OA
BRANCH  14  17
ATOM     17  C   UNL A   1      32.885  26.868  23.414  1.00  0.00     0.083 A 
ATOM     18  C   UNL A   1      33.890  27.310  24.298  1.00  0.00     0.027 A 
ATOM     19  C   UNL A   1      31.748  27.666  23.133  1.00  0.00     0.032 A 
ATOM     20  C   UNL A   1      33.636  28.440  25.054  1.00  0.00    -0.020 A 
ATOM     21  C   UNL A   1      31.552  28.868  23.828  1.00  0.00     0.003 A 
ATOM     22  C   UNL A   1      32.491  29.175  24.801  1.00  0.00     0.055 A 
ATOM     23  C   UNL A   1      34.310  28.936  26.302  1.00  0.00     0.060 C 
ATOM     24  C   UNL A   1      30.413  29.800  23.706  1.00  0.00    -0.036 A 
ATOM     25  N   UNL A   1      32.311  30.166  25.755  1.00  0.00    -0.308 N 
ATOM     26  C   UNL A   1      33.363  30.070  26.765  1.00  0.00     0.131 C 
ATOM     27  C   UNL A   1      29.471  29.654  22.551  1.00  0.00     0.045 C 
ATOM     28  C   UNL A   1      30.273  30.784  24.622  1.00  0.00     0.075 A 
ATOM     29  C   UNL A   1      31.216  30.984  25.768  1.00  0.00     0.251 A 
ATOM     30  O   UNL A   1      30.990  31.826  26.628  1.00  0.00    -0.269 OA
ENDBRANCH  14  17
ENDBRANCH  12  14
ENDBRANCH   7  12
ENDBRANCH   5   7
ENDBRANCH   4   5
ENDBRANCH   3   4
ENDBRANCH   2   3
ENDBRANCH   1   2
BRANCH   1  31
ATOM     31  C   UNL A   1      39.950  21.872  26.495  1.00  0.00     0.202 C 
BRANCH  31  32
ATOM     32  C   UNL A   1      41.392  22.290  26.203  1.00  0.00     0.261 C 
BRANCH  32  33
ATOM     33  O   UNL A   1      41.841  23.302  27.125  1.00  0.00    -0.460 OA
BRANCH  33  34
ATOM     34  C   UNL A   1      42.157  24.494  26.561  1.00  0.00     0.338 C 
ATOM     35  O   UNL A   1      42.565  24.690  25.431  1.00  0.00    -0.246 OA
BRANCH  34  36
ATOM     36  C   UNL A   1      41.676  25.574  27.447  1.00  0.00     0.060 A 
ATOM     37  C   UNL A   1      42.410  26.770  27.494  1.00  0.00     0.016 A 
ATOM     38  C   UNL A   1      40.544  25.399  28.243  1.00  0.00     0.016 A 
ATOM     39  C   UNL A   1      42.030  27.785  28.364  1.00  0.00     0.010 A 
ATOM     40  C   UNL A   1      40.184  26.407  29.141  1.00  0.00     0.010 A 
ATOM     41  C   UNL A   1      40.948  27.585  29.228  1.00  0.00    -0.014 A 
BRANCH  41  42
ATOM     42  C   UNL A   1      40.764  28.509  30.368  1.00  0.00     0.031 A 
ATOM     43  C   UNL A   1      41.711  28.385  31.530  1.00  0.00     0.074 A 
ATOM     44  C   UNL A   1      39.821  29.466  30.340  1.00  0.00     0.049 A 
ATOM     45  N   UNL A   1      41.762  29.085  32.632  1.00  0.00    -0.248 NA
ATOM     46  C   UNL A   1      42.742  27.336  31.435  1.00  0.00     0.031 C 
ATOM     47  C   UNL A   1      38.893  29.706  29.237  1.00  0.00     0.029 A 
ATOM     48  N   UNL A   1      39.498  30.423  31.268  1.00  0.00    -0.354 N 
ATOM     49  C   UNL A   1      42.842  28.581  33.346  1.00  0.00     0.074 A 
ATOM     50  C   UNL A   1      43.385  27.479  32.585  1.00  0.00     0.031 C 
ATOM     51  C   UNL A   1      38.105  30.751  29.551  1.00  0.00     0.029 A 
ATOM     52  C   UNL A   1      38.458  31.236  30.885  1.00  0.00     0.049 A 
ATOM     53  H   UNL A   1      39.968  30.520  32.128  1.00  0.00     0.167 HD
ATOM     54  C   UNL A   1      43.352  29.018  34.519  1.00  0.00     0.037 A 
ATOM     55  C   UNL A   1      37.861  32.250  31.543  1.00  0.00     0.037 A 
ATOM     56  C   UNL A   1      42.798  30.109  35.273  1.00  0.00     0.049 A 
ATOM     57  C   UNL A   1      38.372  32.634  32.911  1.00  0.00     0.074 A 
ATOM     58  C   UNL A   1      43.226  30.616  36.486  1.00  0.00     0.029 A 
ATOM     59  N   UNL A   1      41.700  30.862  34.885  1.00  0.00    -0.354 N 
ATOM     60  N   UNL A   1      39.400  32.156  33.572  1.00  0.00    -0.248 NA
ATOM     61  C   UNL A   1      37.643  33.693  33.625  1.00  0.00     0.031 C 
ATOM     62  C   UNL A   1      42.356  31.644  36.855  1.00  0.00     0.029 A 
ATOM     63  C   UNL A   1      41.421  31.815  35.846  1.00  0.00     0.049 A 
ATOM     64  H   UNL A   1      41.194  30.735  34.050  1.00  0.00     0.167 HD
ATOM     65  C   UNL A   1      39.465  32.884  34.757  1.00  0.00     0.074 A 
ATOM     66  C   UNL A   1      38.374  33.834  34.723  1.00  0.00     0.031 C 
ATOM     67  C   UNL A   1      40.348  32.775  35.779  1.00  0.00     0.037 A 
BRANCH  54  68
ATOM     68  C   UNL A   1      44.575  28.333  35.057  1.00  0.00     0.058 A 
ATOM     69  C   UNL A   1      45.862  28.801  34.754  1.00  0.00     0.135 A 
ATOM     70  C   UNL A   1      44.461  27.255  35.949  1.00  0.00     0.135 A 
ATOM     71  F   UNL A   1      46.027  29.814  33.889  1.00  0.00    -0.206 F 
ATOM     72  C   UNL A   1      46.996  28.226  35.316  1.00  0.00     0.059 A 
ATOM     73  C   UNL A   1      45.580  26.681  36.545  1.00  0.00     0.059 A 
ATOM     74  F   UNL A   1      43.253  26.762  36.265  1.00  0.00    -0.206 F 
ATOM     75  C   UNL A   1      46.844  27.173  36.221  1.00  0.00     0.060 A 
BRANCH  75  76
ATOM     76  S   UNL A   1      48.326  26.474  36.976  1.00  0.00     0.124 S 
ATOM     77  O   UNL A   1      48.777  27.580  37.816  1.00  0.00    -0.237 OA
ATOM     78  O   UNL A   1      47.793  25.316  37.687  1.00  0.00    -0.237 OA
ATOM     79  O   UNL A   1      49.180  26.168  35.833  1.00  0.00    -0.744 OA
ENDBRANCH  75  76
ENDBRANCH  54  68
BRANCH  55  80
ATOM     80  C   UNL A   1      36.731  32.991  30.922  1.00  0.00     0.058 A 
ATOM     81  C   UNL A   1      35.411  32.771  31.343  1.00  0.00     0.135 A 
ATOM     82  C   UNL A   1      36.938  33.915  29.886  1.00  0.00     0.135 A 
ATOM     83  F   UNL A   1      35.157  31.891  32.325  1.00  0.00    -0.206 F 
ATOM     84  C   UNL A   1      34.336  33.421  30.746  1.00  0.00     0.059 A 
ATOM     85  C   UNL A   1      35.882  34.599  29.292  1.00  0.00     0.059 A 
ATOM     86  F   UNL A   1      38.182  34.173  29.452  1.00  0.00    -0.206 F 
ATOM     87  C   UNL A   1      34.582  34.335  29.720  1.00  0.00     0.060 A 
BRANCH  87  88
ATOM     88  S   UNL A   1      33.177  35.185  28.969  1.00  0.00     0.124 S 
ATOM     89  O   UNL A   1      33.814  36.373  28.416  1.00  0.00    -0.237 OA
ATOM     90  O   UNL A   1      32.711  34.198  28.000  1.00  0.00    -0.237 OA
ATOM     91  O   UNL A   1      32.283  35.416  30.099  1.00  0.00    -0.744 OA
ENDBRANCH  87  88
ENDBRANCH  55  80
BRANCH  67  92
ATOM     92  C   UNL A   1      40.215  33.719  36.941  1.00  0.00     0.058 A 
ATOM     93  C   UNL A   1      40.972  34.896  37.019  1.00  0.00     0.135 A 
ATOM     94  C   UNL A   1      39.213  33.515  37.906  1.00  0.00     0.135 A 
ATOM     95  F   UNL A   1      41.946  35.133  36.126  1.00  0.00    -0.206 F 
ATOM     96  C   UNL A   1      40.733  35.846  38.005  1.00  0.00     0.059 A 
ATOM     97  C   UNL A   1      38.937  34.465  38.884  1.00  0.00     0.059 A 
ATOM     98  F   UNL A   1      38.453  32.408  37.868  1.00  0.00    -0.206 F 
ATOM     99  C   UNL A   1      39.701  35.631  38.921  1.00  0.00     0.060 A 
BRANCH  99 100
ATOM    100  S   UNL A   1      39.339  36.926  40.127  1.00  0.00     0.124 S 
ATOM    101  O   UNL A   1      40.680  37.339  40.528  1.00  0.00    -0.237 OA
ATOM    102  O   UNL A   1      38.591  37.890  39.328  1.00  0.00    -0.237 OA
ATOM    103  O   UNL A   1      38.565  36.232  41.152  1.00  0.00    -0.744 OA
ENDBRANCH  99 100
ENDBRANCH  67  92
ENDBRANCH  41  42
ENDBRANCH  34  36
ENDBRANCH  33  34
ENDBRANCH  32  33
ENDBRANCH  31  32
ENDBRANCH   1  31
TORSDOF 23
ENDMDL
MODEL 3
REMARK VINA RESULT:     -10.4      5.968     11.700
REMARK SMILES CCCC[C@@H](NS(=O)(=O)c1cc2c3c(c1)c(C)cc(=O)n3CC2)C(=O)OCCOCCOC(=O)c1ccc(-c2c3nc(c(-c4c(F)cc(S(=O)(=O)[O-])cc4F)c4ccc([nH]4)c(-c4c(F)cc(S(=O)(=O)[O-])cc4F)c4nc(c(-c5c(F)cc(S(=O)(=O)[O-])cc5F)c5ccc2[nH]5)C=C4)C=C3)cc1
REMARK SMILES IDX 29 1 28 2 27 3 26 4 24 5 25 6 5 7 4 8 3 9 2 10 1 11 6 12
REMARK SMILES IDX 7 14 8 15 9 16 10 17 11 18 15 19 12 20 14 21 13 22 23 23
REMARK SMILES IDX 16 24 21 25 22 26 17 27 18 28 19 29 20 30 30 31 31 32 32 33
REMARK SMILES IDX 33 34 34 35 35 36 36 37 100 38 37 39 99 40 38 41 39 42 40 43
REMARK SMILES IDX 93 44 41 45 98 46 92 47 94 48 42 49 97 50 91 51 90 52 43 54
REMARK SMILES IDX 77 55 56 56 76 57 57 58 60 59 75 60 95 61 58 62 59 63 74 65
REMARK SMILES IDX 96 66 61 67 44 68 45 69 54 70 46 71 47 72 53 73 55 74 48 75
REMARK SMILES IDX 49 76 50 77 51 78 52 79 78 80 79 81 88 82 80 83 81 84 87 85
REMARK SMILES IDX 89 86 82 87 83 88 84 89 85 90 86 91 62 92 63 93 72 94 64 95
REMARK SMILES IDX 65 96 71 97 73 98 66 99 67 100 68 101 69 102 70 103
REMARK H PARENT 6 13 94 53 60 64
REMARK Flexibility Score: inf
ROOT
ATOM      1  O   UNL A   1      34.017  31.577  27.274  1.00  0.00    -0.374 OA
ENDROOT
BRANCH   1   2
ATOM      2  C   UNL A   1      32.711  31.046  27.124  1.00  0.00     0.202 C 
BRANCH   2   3
ATOM      3  C   UNL A   1      32.512  29.637  26.573  1.00  0.00     0.261 C 
BRANCH   3   4
ATOM      4  O   UNL A   1      31.644  29.462  25.458  1.00  0.00    -0.462 OA
BRANCH   4   5
ATOM      5  C   UNL A   1      32.130  28.690  24.444  1.00  0.00     0.324 C 
ATOM      6  O   UNL A   1      33.110  28.941  23.757  1.00  0.00    -0.250 OA
BRANCH   5   7
ATOM      7  C   UNL A   1      31.268  27.466  24.222  1.00  0.00     0.179 C 
BRANCH   7   8
ATOM      8  C   UNL A   1      30.611  27.579  22.832  1.00  0.00     0.032 C 
BRANCH   8   9
ATOM      9  C   UNL A   1      29.426  28.544  22.714  1.00  0.00     0.002 C 
BRANCH   9  10
ATOM     10  C   UNL A   1      29.688  29.871  21.993  1.00  0.00    -0.003 C 
ATOM     11  C   UNL A   1      28.448  30.532  21.408  1.00  0.00     0.004 C 
ENDBRANCH   9  10
ENDBRANCH   8   9
ENDBRANCH   7   8
BRANCH   7  12
ATOM     12  N   UNL A   1      32.112  26.253  24.375  1.00  0.00    -0.197 NA
ATOM     13  H   UNL A   1      33.014  26.560  24.740  1.00  0.00     0.142 HD
BRANCH  12  14
ATOM     14  S   UNL A   1      31.569  24.994  25.377  1.00  0.00     0.241 S 
ATOM     15  O   UNL A   1      31.233  25.572  26.656  1.00  0.00    -0.207 OA
ATOM     16  O   UNL A   1      30.578  24.280  24.598  1.00  0.00    -0.207 OA
BRANCH  14  17
ATOM     17  C   UNL A   1      32.962  23.890  25.590  1.00  0.00     0.083 A 
ATOM     18  C   UNL A   1      34.201  24.431  25.986  1.00  0.00     0.027 A 
ATOM     19  C   UNL A   1      32.815  22.505  25.324  1.00  0.00     0.032 A 
ATOM     20  C   UNL A   1      35.320  23.624  25.895  1.00  0.00    -0.020 A 
ATOM     21  C   UNL A   1      33.941  21.669  25.340  1.00  0.00     0.003 A 
ATOM     22  C   UNL A   1      35.160  22.286  25.579  1.00  0.00     0.055 A 
ATOM     23  C   UNL A   1      36.777  23.993  25.881  1.00  0.00     0.060 C 
ATOM     24  C   UNL A   1      33.990  20.224  25.043  1.00  0.00    -0.036 A 
ATOM     25  N   UNL A   1      36.384  21.671  25.365  1.00  0.00    -0.308 N 
ATOM     26  C   UNL A   1      37.455  22.660  25.479  1.00  0.00     0.131 C 
ATOM     27  C   UNL A   1      32.710  19.448  24.977  1.00  0.00     0.045 C 
ATOM     28  C   UNL A   1      35.193  19.632  24.874  1.00  0.00     0.075 A 
ATOM     29  C   UNL A   1      36.494  20.367  24.970  1.00  0.00     0.251 A 
ATOM     30  O   UNL A   1      37.552  19.808  24.709  1.00  0.00    -0.269 OA
ENDBRANCH  14  17
ENDBRANCH  12  14
ENDBRANCH   7  12
ENDBRANCH   5   7
ENDBRANCH   4   5
ENDBRANCH   3   4
ENDBRANCH   2   3
ENDBRANCH   1   2
BRANCH   1  31
ATOM     31  C   UNL A   1      34.500  31.797  28.600  1.00  0.00     0.202 C 
BRANCH  31  32
ATOM     32  C   UNL A   1      35.358  30.700  29.233  1.00  0.00     0.261 C 
BRANCH  32  33
ATOM     33  O   UNL A   1      35.947  31.144  30.469  1.00  0.00    -0.460 OA
BRANCH  33  34
ATOM     34  C   UNL A   1      37.034  31.944  30.333  1.00  0.00     0.338 C 
ATOM     35  O   UNL A   1      37.143  33.106  30.683  1.00  0.00    -0.246 OA
BRANCH  34  36
ATOM     36  C   UNL A   1      38.183  31.109  29.926  1.00  0.00     0.060 A 
ATOM     37  C   UNL A   1      39.167  30.822  30.885  1.00  0.00     0.016 A 
ATOM     38  C   UNL A   1      38.306  30.648  28.616  1.00  0.00     0.016 A 
ATOM     39  C   UNL A   1      40.296  30.096  30.526  1.00  0.00     0.010 A 
ATOM     40  C   UNL A   1      39.458  29.948  28.249  1.00  0.00     0.010 A 
ATOM     41  C   UNL A   1      40.470  29.703  29.194  1.00  0.00    -0.014 A 
BRANCH  41  42
ATOM     42  C   UNL A   1      41.805  29.244  28.754  1.00  0.00     0.031 A 
ATOM     43  C   UNL A   1      42.932  30.240  28.777  1.00  0.00     0.074 A 
ATOM     44  C   UNL A   1      42.017  27.964  28.403  1.00  0.00     0.049 A 
ATOM     45  N   UNL A   1      44.187  30.074  28.455  1.00  0.00    -0.248 NA
ATOM     46  C   UNL A   1      42.601  31.602  29.231  1.00  0.00     0.031 C 
ATOM     47  C   UNL A   1      41.005  26.909  28.402  1.00  0.00     0.029 A 
ATOM     48  N   UNL A   1      43.163  27.334  27.987  1.00  0.00    -0.354 N 
ATOM     49  C   UNL A   1      44.798  31.299  28.691  1.00  0.00     0.074 A 
ATOM     50  C   UNL A   1      43.771  32.217  29.127  1.00  0.00     0.031 C 
ATOM     51  C   UNL A   1      41.579  25.757  28.009  1.00  0.00     0.029 A 
ATOM     52  C   UNL A   1      42.990  26.000  27.707  1.00  0.00     0.049 A 
ATOM     53  H   UNL A   1      44.028  27.795  27.898  1.00  0.00     0.167 HD
ATOM     54  C   UNL A   1      46.106  31.621  28.579  1.00  0.00     0.037 A 
ATOM     55  C   UNL A   1      43.873  25.086  27.256  1.00  0.00     0.037 A 
ATOM     56  C   UNL A   1      47.119  30.704  28.135  1.00  0.00     0.049 A 
ATOM     57  C   UNL A   1      45.303  25.507  27.019  1.00  0.00     0.074 A 
ATOM     58  C   UNL A   1      48.471  30.936  27.964  1.00  0.00     0.029 A 
ATOM     59  N   UNL A   1      46.891  29.379  27.793  1.00  0.00    -0.354 N 
ATOM     60  N   UNL A   1      45.871  26.667  27.255  1.00  0.00    -0.248 NA
ATOM     61  C   UNL A   1      46.213  24.499  26.452  1.00  0.00     0.031 C 
ATOM     62  C   UNL A   1      49.054  29.766  27.473  1.00  0.00     0.029 A 
ATOM     63  C   UNL A   1      48.075  28.788  27.391  1.00  0.00     0.049 A 
ATOM     64  H   UNL A   1      46.018  28.927  27.830  1.00  0.00     0.167 HD
ATOM     65  C   UNL A   1      47.211  26.513  26.906  1.00  0.00     0.074 A 
ATOM     66  C   UNL A   1      47.368  25.151  26.443  1.00  0.00     0.031 C 
ATOM     67  C   UNL A   1      48.217  27.419  26.964  1.00  0.00     0.037 A 
BRANCH  54  68
ATOM     68  C   UNL A   1      46.527  33.013  28.955  1.00  0.00     0.058 A 
ATOM     69  C   UNL A   1      46.985  33.308  30.248  1.00  0.00     0.135 A 
ATOM     70  C   UNL A   1      46.553  34.039  27.998  1.00  0.00     0.135 A 
ATOM     71  F   UNL A   1      46.958  32.369  31.207  1.00  0.00    -0.206 F 
ATOM     72  C   UNL A   1      47.456  34.573  30.581  1.00  0.00     0.059 A 
ATOM     73  C   UNL A   1      47.046  35.305  28.301  1.00  0.00     0.059 A 
ATOM     74  F   UNL A   1      46.118  33.812  26.750  1.00  0.00    -0.206 F 
ATOM     75  C   UNL A   1      47.494  35.563  29.596  1.00  0.00     0.060 A 
BRANCH  75  76
ATOM     76  S   UNL A   1      48.155  37.183  30.037  1.00  0.00     0.124 S 
ATOM     77  O   UNL A   1      47.670  38.007  28.934  1.00  0.00    -0.237 OA
ATOM     78  O   UNL A   1      47.530  37.428  31.333  1.00  0.00    -0.237 OA
ATOM     79  O   UNL A   1      49.598  36.966  30.068  1.00  0.00    -0.744 OA
ENDBRANCH  75  76
ENDBRANCH  54  68
BRANCH  55  80
ATOM     80  C   UNL A   1      43.448  23.681  27.015  1.00  0.00     0.058 A 
ATOM     81  C   UNL A   1      43.238  23.208  25.711  1.00  0.00     0.135 A 
ATOM     82  C   UNL A   1      43.223  22.789  28.075  1.00  0.00     0.135 A 
ATOM     83  F   UNL A   1      43.430  24.024  24.662  1.00  0.00    -0.206 F 
ATOM     84  C   UNL A   1      42.798  21.912  25.467  1.00  0.00     0.059 A 
ATOM     85  C   UNL A   1      42.810  21.478  27.855  1.00  0.00     0.059 A 
ATOM     86  F   UNL A   1      43.420  23.185  29.343  1.00  0.00    -0.206 F 
ATOM     87  C   UNL A   1      42.587  21.053  26.546  1.00  0.00     0.060 A 
BRANCH  87  88
ATOM     88  S   UNL A   1      42.036  19.367  26.211  1.00  0.00     0.124 S 
ATOM     89  O   UNL A   1      40.589  19.533  26.166  1.00  0.00    -0.237 OA
ATOM     90  O   UNL A   1      42.689  19.084  24.937  1.00  0.00    -0.237 OA
ATOM     91  O   UNL A   1      42.549  18.614  27.352  1.00  0.00    -0.744 OA
ENDBRANCH  87  88
ENDBRANCH  55  80
BRANCH  67  92
ATOM     92  C   UNL A   1      49.596  26.981  26.556  1.00  0.00     0.058 A 
ATOM     93  C   UNL A   1      50.426  26.266  27.431  1.00  0.00     0.135 A 
ATOM     94  C   UNL A   1      50.027  27.148  25.229  1.00  0.00     0.135 A 
ATOM     95  F   UNL A   1      50.062  26.086  28.711  1.00  0.00    -0.206 F 
ATOM     96  C   UNL A   1      51.630  25.720  27.002  1.00  0.00     0.059 A 
ATOM     97  C   UNL A   1      51.215  26.587  24.770  1.00  0.00     0.059 A 
ATOM     98  F   UNL A   1      49.264  27.816  24.349  1.00  0.00    -0.206 F 
ATOM     99  C   UNL A   1      52.007  25.870  25.666  1.00  0.00     0.060 A 
BRANCH  99 100
ATOM    100  S   UNL A   1      53.523  25.063  25.106  1.00  0.00     0.124 S 
ATOM    101  O   UNL A   1      54.520  25.662  25.988  1.00  0.00    -0.237 OA
ATOM    102  O   UNL A   1      53.229  23.654  25.346  1.00  0.00    -0.237 OA
ATOM    103  O   UNL A   1      53.617  25.450  23.700  1.00  0.00    -0.744 OA
ENDBRANCH  99 100
ENDBRANCH  67  92
ENDBRANCH  41  42
ENDBRANCH  34  36
ENDBRANCH  33  34
ENDBRANCH  32  33
ENDBRANCH  31  32
ENDBRANCH   1  31
TORSDOF 23
ENDMDL
