MODEL 1
REMARK VINA RESULT:     -11.8      0.000      0.000
REMARK SMILES CC1(C)O[C@](C)([C@H](O)C2CCCCC2)CC[C@H]1C(=O)OCCOCCOC(=O)c1ccc(-c2c3nc(c(-c4c(F)cc(S(=O)(=O)[O-])cc4F)c4ccc([nH]4)c(-c4c(F)cc(S(=O)(=O)[O-])cc4F)c4nc(c(-c5c(F)cc(S(=O)(=O)[O-])cc5F)c5ccc2[nH]5)C=C4)C=C3)cc1
REMARK SMILES IDX 24 1 23 2 22 3 21 4 20 5 18 6 19 7 17 8 1 9 2 10 3 11 4 12
REMARK SMILES IDX 5 13 16 14 6 15 15 16 7 17 9 18 10 19 14 20 11 21 13 22
REMARK SMILES IDX 12 23 8 24 25 26 26 27 27 28 28 29 29 30 30 31 94 32 31 33
REMARK SMILES IDX 93 34 32 35 33 36 34 37 87 38 35 39 92 40 86 41 88 42 36 43
REMARK SMILES IDX 91 44 85 45 84 46 37 48 71 49 50 50 70 51 51 52 54 53 69 54
REMARK SMILES IDX 89 55 52 56 53 57 68 59 90 60 55 61 38 62 39 63 48 64 40 65
REMARK SMILES IDX 41 66 47 67 49 68 42 69 43 70 44 71 45 72 46 73 72 74 73 75
REMARK SMILES IDX 82 76 74 77 75 78 81 79 83 80 76 81 77 82 78 83 79 84 80 85
REMARK SMILES IDX 56 86 57 87 66 88 58 89 59 90 65 91 67 92 60 93 61 94 62 95
REMARK SMILES IDX 63 96 64 97
REMARK H PARENT 8 25 88 47 54 58
REMARK Flexibility Score: inf
ROOT
ATOM      1  C   UNL A   1      38.098  22.308  25.743  1.00  0.00     0.202 C 
ENDROOT
BRANCH   1   2
ATOM      2  O   UNL A   1      36.847  22.983  25.866  1.00  0.00    -0.374 OA
BRANCH   2   3
ATOM      3  C   UNL A   1      36.280  23.535  24.681  1.00  0.00     0.202 C 
BRANCH   3   4
ATOM      4  C   UNL A   1      34.763  23.750  24.679  1.00  0.00     0.261 C 
BRANCH   4   5
ATOM      5  O   UNL A   1      34.347  24.943  23.990  1.00  0.00    -0.463 OA
BRANCH   5   6
ATOM      6  C   UNL A   1      33.539  25.774  24.690  1.00  0.00     0.311 C 
ATOM      7  O   UNL A   1      33.437  25.774  25.914  1.00  0.00    -0.252 OA
BRANCH   6   8
ATOM      8  C   UNL A   1      32.662  26.656  23.826  1.00  0.00     0.131 C 
ATOM      9  C   UNL A   1      30.886  24.862  23.105  1.00  0.00     0.043 C 
ATOM     10  C   UNL A   1      31.790  26.037  22.704  1.00  0.00     0.077 C 
ATOM     11  C   UNL A   1      32.677  25.544  21.539  1.00  0.00     0.043 C 
ATOM     12  O   UNL A   1      30.992  27.068  22.073  1.00  0.00    -0.366 OA
ATOM     13  C   UNL A   1      30.227  27.988  22.865  1.00  0.00     0.092 C 
ATOM     14  C   UNL A   1      31.866  27.561  24.765  1.00  0.00     0.021 C 
ATOM     15  C   UNL A   1      29.011  27.324  23.544  1.00  0.00     0.045 C 
ATOM     16  C   UNL A   1      31.123  28.613  23.957  1.00  0.00     0.039 C 
BRANCH  13  17
ATOM     17  C   UNL A   1      29.773  29.150  21.898  1.00  0.00     0.149 C 
BRANCH  17  18
ATOM     18  C   UNL A   1      28.380  29.824  22.125  1.00  0.00     0.021 C 
ATOM     19  C   UNL A   1      28.110  30.495  23.478  1.00  0.00     0.006 C 
ATOM     20  C   UNL A   1      28.009  30.803  20.986  1.00  0.00     0.006 C 
ATOM     21  C   UNL A   1      28.777  31.855  23.633  1.00  0.00     0.000 C 
ATOM     22  C   UNL A   1      28.598  32.209  21.136  1.00  0.00     0.000 C 
ATOM     23  C   UNL A   1      28.350  32.802  22.518  1.00  0.00     0.000 C 
ENDBRANCH  17  18
BRANCH  17  24
ATOM     24  O   UNL A   1      30.824  30.101  21.710  1.00  0.00    -0.390 OA
ATOM     25  H   UNL A   1      31.631  29.639  21.434  1.00  0.00     0.211 HD
ENDBRANCH  17  24
ENDBRANCH  13  17
ENDBRANCH   6   8
ENDBRANCH   5   6
ENDBRANCH   4   5
ENDBRANCH   3   4
ENDBRANCH   2   3
ENDBRANCH   1   2
BRANCH   1  26
ATOM     26  C   UNL A   1      39.323  23.056  26.280  1.00  0.00     0.261 C 
BRANCH  26  27
ATOM     27  O   UNL A   1      39.067  24.471  26.391  1.00  0.00    -0.460 OA
BRANCH  27  28
ATOM     28  C   UNL A   1      40.172  25.247  26.298  1.00  0.00     0.338 C 
ATOM     29  O   UNL A   1      40.830  25.471  25.291  1.00  0.00    -0.246 OA
BRANCH  28  30
ATOM     30  C   UNL A   1      40.407  25.971  27.559  1.00  0.00     0.060 A 
ATOM     31  C   UNL A   1      39.472  25.790  28.585  1.00  0.00     0.016 A 
ATOM     32  C   UNL A   1      41.434  26.909  27.691  1.00  0.00     0.016 A 
ATOM     33  C   UNL A   1      39.518  26.594  29.722  1.00  0.00     0.010 A 
ATOM     34  C   UNL A   1      41.474  27.721  28.834  1.00  0.00     0.010 A 
ATOM     35  C   UNL A   1      40.490  27.599  29.832  1.00  0.00    -0.014 A 
BRANCH  35  36
ATOM     36  C   UNL A   1      40.357  28.615  30.907  1.00  0.00     0.031 A 
ATOM     37  C   UNL A   1      41.265  28.536  32.107  1.00  0.00     0.074 A 
ATOM     38  C   UNL A   1      39.487  29.635  30.793  1.00  0.00     0.049 A 
ATOM     39  N   UNL A   1      41.331  29.322  33.151  1.00  0.00    -0.248 NA
ATOM     40  C   UNL A   1      42.229  27.424  32.130  1.00  0.00     0.031 C 
ATOM     41  C   UNL A   1      38.586  29.853  29.662  1.00  0.00     0.029 A 
ATOM     42  N   UNL A   1      39.223  30.683  31.641  1.00  0.00    -0.354 N 
ATOM     43  C   UNL A   1      42.339  28.801  33.955  1.00  0.00     0.074 A 
ATOM     44  C   UNL A   1      42.837  27.615  33.293  1.00  0.00     0.031 C 
ATOM     45  C   UNL A   1      37.862  30.963  29.891  1.00  0.00     0.029 A 
ATOM     46  C   UNL A   1      38.228  31.519  31.193  1.00  0.00     0.049 A 
ATOM     47  H   UNL A   1      39.701  30.821  32.490  1.00  0.00     0.167 HD
ATOM     48  C   UNL A   1      42.813  29.273  35.133  1.00  0.00     0.037 A 
ATOM     49  C   UNL A   1      37.665  32.598  31.773  1.00  0.00     0.037 A 
ATOM     50  C   UNL A   1      42.324  30.456  35.790  1.00  0.00     0.049 A 
ATOM     51  C   UNL A   1      38.164  33.066  33.116  1.00  0.00     0.074 A 
ATOM     52  C   UNL A   1      42.757  31.022  36.976  1.00  0.00     0.029 A 
ATOM     53  N   UNL A   1      41.288  31.250  35.324  1.00  0.00    -0.354 N 
ATOM     54  N   UNL A   1      39.132  32.575  33.852  1.00  0.00    -0.248 NA
ATOM     55  C   UNL A   1      37.495  34.235  33.705  1.00  0.00     0.031 C 
ATOM     56  C   UNL A   1      41.953  32.134  37.251  1.00  0.00     0.029 A 
ATOM     57  C   UNL A   1      41.049  32.287  36.212  1.00  0.00     0.049 A 
ATOM     58  H   UNL A   1      40.794  31.100  34.486  1.00  0.00     0.167 HD
ATOM     59  C   UNL A   1      39.203  33.389  34.979  1.00  0.00     0.074 A 
ATOM     60  C   UNL A   1      38.188  34.408  34.823  1.00  0.00     0.031 C 
ATOM     61  C   UNL A   1      40.039  33.301  36.044  1.00  0.00     0.037 A 
BRANCH  48  62
ATOM     62  C   UNL A   1      43.909  28.491  35.802  1.00  0.00     0.058 A 
ATOM     63  C   UNL A   1      45.265  28.796  35.600  1.00  0.00     0.135 A 
ATOM     64  C   UNL A   1      43.597  27.444  36.684  1.00  0.00     0.135 A 
ATOM     65  F   UNL A   1      45.618  29.777  34.755  1.00  0.00    -0.206 F 
ATOM     66  C   UNL A   1      46.273  28.074  36.230  1.00  0.00     0.059 A 
ATOM     67  C   UNL A   1      44.589  26.724  37.344  1.00  0.00     0.059 A 
ATOM     68  F   UNL A   1      42.317  27.111  36.911  1.00  0.00    -0.206 F 
ATOM     69  C   UNL A   1      45.925  27.038  37.099  1.00  0.00     0.060 A 
BRANCH  69  70
ATOM     70  S   UNL A   1      47.244  26.108  37.910  1.00  0.00     0.124 S 
ATOM     71  O   UNL A   1      46.573  25.655  39.125  1.00  0.00    -0.237 OA
ATOM     72  O   UNL A   1      47.545  25.071  36.928  1.00  0.00    -0.237 OA
ATOM     73  O   UNL A   1      48.291  27.105  38.106  1.00  0.00    -0.744 OA
ENDBRANCH  69  70
ENDBRANCH  48  62
BRANCH  49  74
ATOM     74  C   UNL A   1      36.548  33.304  31.093  1.00  0.00     0.058 A 
ATOM     75  C   UNL A   1      35.231  33.202  31.561  1.00  0.00     0.135 A 
ATOM     76  C   UNL A   1      36.782  34.099  29.960  1.00  0.00     0.135 A 
ATOM     77  F   UNL A   1      34.956  32.443  32.632  1.00  0.00    -0.206 F 
ATOM     78  C   UNL A   1      34.181  33.858  30.924  1.00  0.00     0.059 A 
ATOM     79  C   UNL A   1      35.754  34.783  29.321  1.00  0.00     0.059 A 
ATOM     80  F   UNL A   1      38.028  34.235  29.479  1.00  0.00    -0.206 F 
ATOM     81  C   UNL A   1      34.454  34.649  29.806  1.00  0.00     0.060 A 
BRANCH  81  82
ATOM     82  S   UNL A   1      33.095  35.543  29.022  1.00  0.00     0.124 S 
ATOM     83  O   UNL A   1      33.813  36.543  28.242  1.00  0.00    -0.237 OA
ATOM     84  O   UNL A   1      32.433  34.489  28.258  1.00  0.00    -0.237 OA
ATOM     85  O   UNL A   1      32.332  36.053  30.158  1.00  0.00    -0.744 OA
ENDBRANCH  81  82
ENDBRANCH  49  74
BRANCH  61  86
ATOM     86  C   UNL A   1      39.915  34.348  37.118  1.00  0.00     0.058 A 
ATOM     87  C   UNL A   1      40.435  35.639  36.950  1.00  0.00     0.135 A 
ATOM     88  C   UNL A   1      39.208  34.073  38.300  1.00  0.00     0.135 A 
ATOM     89  F   UNL A   1      41.124  35.953  35.840  1.00  0.00    -0.206 F 
ATOM     90  C   UNL A   1      40.273  36.621  37.924  1.00  0.00     0.059 A 
ATOM     91  C   UNL A   1      39.013  35.045  39.277  1.00  0.00     0.059 A 
ATOM     92  F   UNL A   1      38.682  32.856  38.506  1.00  0.00    -0.206 F 
ATOM     93  C   UNL A   1      39.557  36.314  39.083  1.00  0.00     0.060 A 
BRANCH  93  94
ATOM     94  S   UNL A   1      39.315  37.607  40.321  1.00  0.00     0.124 S 
ATOM     95  O   UNL A   1      38.465  38.549  39.601  1.00  0.00    -0.237 OA
ATOM     96  O   UNL A   1      38.675  36.881  41.413  1.00  0.00    -0.237 OA
ATOM     97  O   UNL A   1      40.672  38.070  40.596  1.00  0.00    -0.744 OA
ENDBRANCH  93  94
ENDBRANCH  61  86
ENDBRANCH  35  36
ENDBRANCH  28  30
ENDBRANCH  27  28
ENDBRANCH  26  27
ENDBRANCH   1  26
TORSDOF 20
ENDMDL
MODEL 2
REMARK VINA RESULT:     -11.5      6.616     12.184
REMARK SMILES CC1(C)O[C@](C)([C@H](O)C2CCCCC2)CC[C@H]1C(=O)OCCOCCOC(=O)c1ccc(-c2c3nc(c(-c4c(F)cc(S(=O)(=O)[O-])cc4F)c4ccc([nH]4)c(-c4c(F)cc(S(=O)(=O)[O-])cc4F)c4nc(c(-c5c(F)cc(S(=O)(=O)[O-])cc5F)c5ccc2[nH]5)C=C4)C=C3)cc1
REMARK SMILES IDX 24 1 23 2 22 3 21 4 20 5 18 6 19 7 17 8 1 9 2 10 3 11 4 12
REMARK SMILES IDX 5 13 16 14 6 15 15 16 7 17 9 18 10 19 14 20 11 21 13 22
REMARK SMILES IDX 12 23 8 24 25 26 26 27 27 28 28 29 29 30 30 31 94 32 31 33
REMARK SMILES IDX 93 34 32 35 33 36 34 37 87 38 35 39 92 40 86 41 88 42 36 43
REMARK SMILES IDX 91 44 85 45 84 46 37 48 71 49 50 50 70 51 51 52 54 53 69 54
REMARK SMILES IDX 89 55 52 56 53 57 68 59 90 60 55 61 38 62 39 63 48 64 40 65
REMARK SMILES IDX 41 66 47 67 49 68 42 69 43 70 44 71 45 72 46 73 72 74 73 75
REMARK SMILES IDX 82 76 74 77 75 78 81 79 83 80 76 81 77 82 78 83 79 84 80 85
REMARK SMILES IDX 56 86 57 87 66 88 58 89 59 90 65 91 67 92 60 93 61 94 62 95
REMARK SMILES IDX 63 96 64 97
REMARK H PARENT 8 25 88 47 54 58
REMARK Flexibility Score: inf
ROOT
ATOM      1  C   UNL A   1      34.863  32.908  28.242  1.00  0.00     0.202 C 
ENDROOT
BRANCH   1   2
ATOM      2  O   UNL A   1      33.660  32.195  27.957  1.00  0.00    -0.374 OA
BRANCH   2   3
ATOM      3  C   UNL A   1      33.784  30.926  27.321  1.00  0.00     0.202 C 
BRANCH   3   4
ATOM      4  C   UNL A   1      32.496  30.114  27.150  1.00  0.00     0.261 C 
BRANCH   4   5
ATOM      5  O   UNL A   1      32.692  28.850  26.487  1.00  0.00    -0.463 OA
BRANCH   5   6
ATOM      6  C   UNL A   1      32.001  27.806  27.001  1.00  0.00     0.311 C 
ATOM      7  O   UNL A   1      31.294  27.867  28.003  1.00  0.00    -0.252 OA
BRANCH   6   8
ATOM      8  C   UNL A   1      32.253  26.490  26.293  1.00  0.00     0.131 C 
ATOM      9  C   UNL A   1      30.944  26.981  24.070  1.00  0.00     0.043 C 
ATOM     10  C   UNL A   1      31.280  25.991  25.196  1.00  0.00     0.077 C 
ATOM     11  C   UNL A   1      29.938  25.552  25.821  1.00  0.00     0.043 C 
ATOM     12  O   UNL A   1      31.774  24.756  24.622  1.00  0.00    -0.366 OA
ATOM     13  C   UNL A   1      33.135  24.647  24.184  1.00  0.00     0.092 C 
ATOM     14  C   UNL A   1      33.711  26.496  25.835  1.00  0.00     0.021 C 
ATOM     15  C   UNL A   1      33.422  25.468  22.910  1.00  0.00     0.045 C 
ATOM     16  C   UNL A   1      34.088  25.122  25.303  1.00  0.00     0.039 C 
BRANCH  13  17
ATOM     17  C   UNL A   1      33.413  23.111  23.944  1.00  0.00     0.149 C 
BRANCH  17  18
ATOM     18  C   UNL A   1      33.127  22.099  25.101  1.00  0.00     0.021 C 
ATOM     19  C   UNL A   1      32.120  20.970  24.845  1.00  0.00     0.006 C 
ATOM     20  C   UNL A   1      34.426  21.501  25.693  1.00  0.00     0.006 C 
ATOM     21  C   UNL A   1      32.677  19.829  24.006  1.00  0.00     0.000 C 
ATOM     22  C   UNL A   1      34.985  20.303  24.921  1.00  0.00     0.000 C 
ATOM     23  C   UNL A   1      33.928  19.240  24.646  1.00  0.00     0.000 C 
ENDBRANCH  17  18
BRANCH  17  24
ATOM     24  O   UNL A   1      32.878  22.683  22.689  1.00  0.00    -0.390 OA
ATOM     25  H   UNL A   1      33.052  21.736  22.571  1.00  0.00     0.211 HD
ENDBRANCH  17  24
ENDBRANCH  13  17
ENDBRANCH   6   8
ENDBRANCH   5   6
ENDBRANCH   4   5
ENDBRANCH   3   4
ENDBRANCH   2   3
ENDBRANCH   1   2
BRANCH   1  26
ATOM     26  C   UNL A   1      35.331  32.883  29.701  1.00  0.00     0.261 C 
BRANCH  26  27
ATOM     27  O   UNL A   1      35.733  31.558  30.101  1.00  0.00    -0.460 OA
BRANCH  27  28
ATOM     28  C   UNL A   1      36.788  31.527  30.949  1.00  0.00     0.338 C 
ATOM     29  O   UNL A   1      36.833  31.987  32.083  1.00  0.00    -0.246 OA
BRANCH  28  30
ATOM     30  C   UNL A   1      37.868  30.685  30.408  1.00  0.00     0.060 A 
ATOM     31  C   UNL A   1      38.803  30.178  31.319  1.00  0.00     0.016 A 
ATOM     32  C   UNL A   1      38.047  30.507  29.034  1.00  0.00     0.016 A 
ATOM     33  C   UNL A   1      39.957  29.549  30.859  1.00  0.00     0.010 A 
ATOM     34  C   UNL A   1      39.213  29.879  28.574  1.00  0.00     0.010 A 
ATOM     35  C   UNL A   1      40.194  29.439  29.481  1.00  0.00    -0.014 A 
BRANCH  35  36
ATOM     36  C   UNL A   1      41.541  29.020  29.014  1.00  0.00     0.031 A 
ATOM     37  C   UNL A   1      42.664  30.025  29.017  1.00  0.00     0.074 A 
ATOM     38  C   UNL A   1      41.783  27.747  28.652  1.00  0.00     0.049 A 
ATOM     39  N   UNL A   1      43.915  29.873  28.666  1.00  0.00    -0.248 NA
ATOM     40  C   UNL A   1      42.331  31.382  29.483  1.00  0.00     0.031 C 
ATOM     41  C   UNL A   1      40.797  26.668  28.649  1.00  0.00     0.029 A 
ATOM     42  N   UNL A   1      42.941  27.147  28.220  1.00  0.00    -0.354 N 
ATOM     43  C   UNL A   1      44.518  31.110  28.865  1.00  0.00     0.074 A 
ATOM     44  C   UNL A   1      43.489  32.010  29.339  1.00  0.00     0.031 C 
ATOM     45  C   UNL A   1      41.391  25.537  28.227  1.00  0.00     0.029 A 
ATOM     46  C   UNL A   1      42.790  25.818  27.906  1.00  0.00     0.049 A 
ATOM     47  H   UNL A   1      43.798  27.625  28.142  1.00  0.00     0.167 HD
ATOM     48  C   UNL A   1      45.813  31.462  28.679  1.00  0.00     0.037 A 
ATOM     49  C   UNL A   1      43.673  24.932  27.402  1.00  0.00     0.037 A 
ATOM     50  C   UNL A   1      46.839  30.566  28.213  1.00  0.00     0.049 A 
ATOM     51  C   UNL A   1      45.092  25.364  27.139  1.00  0.00     0.074 A 
ATOM     52  C   UNL A   1      48.183  30.829  28.014  1.00  0.00     0.029 A 
ATOM     53  N   UNL A   1      46.636  29.239  27.867  1.00  0.00    -0.354 N 
ATOM     54  N   UNL A   1      45.652  26.531  27.353  1.00  0.00    -0.248 NA
ATOM     55  C   UNL A   1      46.000  24.358  26.569  1.00  0.00     0.031 C 
ATOM     56  C   UNL A   1      48.784  29.672  27.503  1.00  0.00     0.029 A 
ATOM     57  C   UNL A   1      47.824  28.676  27.430  1.00  0.00     0.049 A 
ATOM     58  H   UNL A   1      45.775  28.767  27.924  1.00  0.00     0.167 HD
ATOM     59  C   UNL A   1      46.981  26.393  26.965  1.00  0.00     0.074 A 
ATOM     60  C   UNL A   1      47.145  25.027  26.513  1.00  0.00     0.031 C 
ATOM     61  C   UNL A   1      47.977  27.314  26.987  1.00  0.00     0.037 A 
BRANCH  48  62
ATOM     62  C   UNL A   1      46.191  32.890  28.959  1.00  0.00     0.058 A 
ATOM     63  C   UNL A   1      46.639  33.302  30.224  1.00  0.00     0.135 A 
ATOM     64  C   UNL A   1      46.136  33.852  27.936  1.00  0.00     0.135 A 
ATOM     65  F   UNL A   1      46.695  32.426  31.239  1.00  0.00    -0.206 F 
ATOM     66  C   UNL A   1      46.995  34.623  30.473  1.00  0.00     0.059 A 
ATOM     67  C   UNL A   1      46.511  35.174  28.157  1.00  0.00     0.059 A 
ATOM     68  F   UNL A   1      45.714  33.510  26.709  1.00  0.00    -0.206 F 
ATOM     69  C   UNL A   1      46.925  35.552  29.433  1.00  0.00     0.060 A 
BRANCH  69  70
ATOM     70  S   UNL A   1      47.391  37.265  29.770  1.00  0.00     0.124 S 
ATOM     71  O   UNL A   1      48.102  37.617  28.544  1.00  0.00    -0.237 OA
ATOM     72  O   UNL A   1      46.095  37.910  29.958  1.00  0.00    -0.237 OA
ATOM     73  O   UNL A   1      48.217  37.163  30.967  1.00  0.00    -0.744 OA
ENDBRANCH  69  70
ENDBRANCH  48  62
BRANCH  49  74
ATOM     74  C   UNL A   1      43.234  23.546  27.093  1.00  0.00     0.058 A 
ATOM     75  C   UNL A   1      42.943  23.150  25.780  1.00  0.00     0.135 A 
ATOM     76  C   UNL A   1      43.101  22.589  28.111  1.00  0.00     0.135 A 
ATOM     77  F   UNL A   1      43.043  24.033  24.775  1.00  0.00    -0.206 F 
ATOM     78  C   UNL A   1      42.528  21.855  25.487  1.00  0.00     0.059 A 
ATOM     79  C   UNL A   1      42.711  21.282  27.840  1.00  0.00     0.059 A 
ATOM     80  F   UNL A   1      43.377  22.917  29.384  1.00  0.00    -0.206 F 
ATOM     81  C   UNL A   1      42.418  20.927  26.524  1.00  0.00     0.060 A 
BRANCH  81  82
ATOM     82  S   UNL A   1      41.935  19.232  26.127  1.00  0.00     0.124 S 
ATOM     83  O   UNL A   1      40.492  19.366  25.974  1.00  0.00    -0.237 OA
ATOM     84  O   UNL A   1      42.689  18.976  24.903  1.00  0.00    -0.237 OA
ATOM     85  O   UNL A   1      42.380  18.477  27.295  1.00  0.00    -0.744 OA
ENDBRANCH  81  82
ENDBRANCH  49  74
BRANCH  61  86
ATOM     86  C   UNL A   1      49.344  26.875  26.536  1.00  0.00     0.058 A 
ATOM     87  C   UNL A   1      50.215  26.185  27.390  1.00  0.00     0.135 A 
ATOM     88  C   UNL A   1      49.757  27.090  25.211  1.00  0.00     0.135 A 
ATOM     89  F   UNL A   1      49.870  25.957  28.668  1.00  0.00    -0.206 F 
ATOM     90  C   UNL A   1      51.458  25.735  26.952  1.00  0.00     0.059 A 
ATOM     91  C   UNL A   1      50.985  26.630  24.745  1.00  0.00     0.059 A 
ATOM     92  F   UNL A   1      48.957  27.738  24.349  1.00  0.00    -0.206 F 
ATOM     93  C   UNL A   1      51.833  25.960  25.626  1.00  0.00     0.060 A 
BRANCH  93  94
ATOM     94  S   UNL A   1      53.429  25.335  25.058  1.00  0.00     0.124 S 
ATOM     95  O   UNL A   1      54.356  26.109  25.876  1.00  0.00    -0.237 OA
ATOM     96  O   UNL A   1      53.339  23.913  25.374  1.00  0.00    -0.237 OA
ATOM     97  O   UNL A   1      53.430  25.654  23.633  1.00  0.00    -0.744 OA
ENDBRANCH  93  94
ENDBRANCH  61  86
ENDBRANCH  35  36
ENDBRANCH  28  30
ENDBRANCH  27  28
ENDBRANCH  26  27
ENDBRANCH   1  26
TORSDOF 20
ENDMDL
MODEL 3
REMARK VINA RESULT:     -11.5      1.310      2.562
REMARK SMILES CC1(C)O[C@](C)([C@H](O)C2CCCCC2)CC[C@H]1C(=O)OCCOCCOC(=O)c1ccc(-c2c3nc(c(-c4c(F)cc(S(=O)(=O)[O-])cc4F)c4ccc([nH]4)c(-c4c(F)cc(S(=O)(=O)[O-])cc4F)c4nc(c(-c5c(F)cc(S(=O)(=O)[O-])cc5F)c5ccc2[nH]5)C=C4)C=C3)cc1
REMARK SMILES IDX 24 1 23 2 22 3 21 4 20 5 18 6 19 7 17 8 1 9 2 10 3 11 4 12
REMARK SMILES IDX 5 13 16 14 6 15 15 16 7 17 9 18 10 19 14 20 11 21 13 22
REMARK SMILES IDX 12 23 8 24 25 26 26 27 27 28 28 29 29 30 30 31 94 32 31 33
REMARK SMILES IDX 93 34 32 35 33 36 34 37 87 38 35 39 92 40 86 41 88 42 36 43
REMARK SMILES IDX 91 44 85 45 84 46 37 48 71 49 50 50 70 51 51 52 54 53 69 54
REMARK SMILES IDX 89 55 52 56 53 57 68 59 90 60 55 61 38 62 39 63 48 64 40 65
REMARK SMILES IDX 41 66 47 67 49 68 42 69 43 70 44 71 45 72 46 73 72 74 73 75
REMARK SMILES IDX 82 76 74 77 75 78 81 79 83 80 76 81 77 82 78 83 79 84 80 85
REMARK SMILES IDX 56 86 57 87 66 88 58 89 59 90 65 91 67 92 60 93 61 94 62 95
REMARK SMILES IDX 63 96 64 97
REMARK H PARENT 8 25 88 47 54 58
REMARK Flexibility Score: inf
ROOT
ATOM      1  C   UNL A   1      40.018  21.283  26.484  1.00  0.00     0.202 C 
ENDROOT
BRANCH   1   2
ATOM      2  O   UNL A   1      38.819  21.730  25.854  1.00  0.00    -0.374 OA
BRANCH   2   3
ATOM      3  C   UNL A   1      38.124  20.798  25.029  1.00  0.00     0.202 C 
BRANCH   3   4
ATOM      4  C   UNL A   1      36.609  20.989  24.901  1.00  0.00     0.261 C 
BRANCH   4   5
ATOM      5  O   UNL A   1      36.182  22.355  25.059  1.00  0.00    -0.463 OA
BRANCH   5   6
ATOM      6  C   UNL A   1      35.920  23.024  23.911  1.00  0.00     0.311 C 
ATOM      7  O   UNL A   1      36.623  22.978  22.905  1.00  0.00    -0.252 OA
BRANCH   6   8
ATOM      8  C   UNL A   1      34.721  23.946  23.994  1.00  0.00     0.131 C 
ATOM      9  C   UNL A   1      32.831  22.126  24.108  1.00  0.00     0.043 C 
ATOM     10  C   UNL A   1      33.325  23.461  23.528  1.00  0.00     0.077 C 
ATOM     11  C   UNL A   1      33.285  23.324  21.990  1.00  0.00     0.043 C 
ATOM     12  O   UNL A   1      32.337  24.490  23.775  1.00  0.00    -0.366 OA
ATOM     13  C   UNL A   1      32.252  25.131  25.056  1.00  0.00     0.092 C 
ATOM     14  C   UNL A   1      34.704  24.539  25.401  1.00  0.00     0.021 C 
ATOM     15  C   UNL A   1      31.702  24.200  26.156  1.00  0.00     0.045 C 
ATOM     16  C   UNL A   1      33.649  25.632  25.486  1.00  0.00     0.039 C 
BRANCH  13  17
ATOM     17  C   UNL A   1      31.330  26.398  24.869  1.00  0.00     0.149 C 
BRANCH  17  18
ATOM     18  C   UNL A   1      31.644  27.401  23.711  1.00  0.00     0.021 C 
ATOM     19  C   UNL A   1      30.584  27.604  22.620  1.00  0.00     0.006 C 
ATOM     20  C   UNL A   1      32.106  28.781  24.238  1.00  0.00     0.006 C 
ATOM     21  C   UNL A   1      29.422  28.489  23.050  1.00  0.00     0.000 C 
ATOM     22  C   UNL A   1      30.968  29.733  24.615  1.00  0.00     0.000 C 
ATOM     23  C   UNL A   1      29.917  29.851  23.518  1.00  0.00     0.000 C 
ENDBRANCH  17  18
BRANCH  17  24
ATOM     24  O   UNL A   1      29.947  26.040  24.931  1.00  0.00    -0.390 OA
ATOM     25  H   UNL A   1      29.743  25.417  24.216  1.00  0.00     0.211 HD
ENDBRANCH  17  24
ENDBRANCH  13  17
ENDBRANCH   6   8
ENDBRANCH   5   6
ENDBRANCH   4   5
ENDBRANCH   3   4
ENDBRANCH   2   3
ENDBRANCH   1   2
BRANCH   1  26
ATOM     26  C   UNL A   1      41.254  22.167  26.283  1.00  0.00     0.261 C 
BRANCH  26  27
ATOM     27  O   UNL A   1      40.957  23.552  26.553  1.00  0.00    -0.460 OA
BRANCH  27  28
ATOM     28  C   UNL A   1      41.993  24.254  27.071  1.00  0.00     0.338 C 
ATOM     29  O   UNL A   1      43.184  24.069  26.860  1.00  0.00    -0.246 OA
BRANCH  28  30
ATOM     30  C   UNL A   1      41.506  25.432  27.808  1.00  0.00     0.060 A 
ATOM     31  C   UNL A   1      42.418  26.472  28.027  1.00  0.00     0.016 A 
ATOM     32  C   UNL A   1      40.238  25.466  28.392  1.00  0.00     0.016 A 
ATOM     33  C   UNL A   1      42.092  27.520  28.885  1.00  0.00     0.010 A 
ATOM     34  C   UNL A   1      39.915  26.518  29.261  1.00  0.00     0.010 A 
ATOM     35  C   UNL A   1      40.856  27.524  29.548  1.00  0.00    -0.014 A 
BRANCH  35  36
ATOM     36  C   UNL A   1      40.637  28.488  30.657  1.00  0.00     0.031 A 
ATOM     37  C   UNL A   1      41.495  28.391  31.892  1.00  0.00     0.074 A 
ATOM     38  C   UNL A   1      39.734  29.479  30.545  1.00  0.00     0.049 A 
ATOM     39  N   UNL A   1      41.485  29.134  32.969  1.00  0.00    -0.248 NA
ATOM     40  C   UNL A   1      42.500  27.316  31.913  1.00  0.00     0.031 C 
ATOM     41  C   UNL A   1      38.875  29.711  29.385  1.00  0.00     0.029 A 
ATOM     42  N   UNL A   1      39.393  30.479  31.422  1.00  0.00    -0.354 N 
ATOM     43  C   UNL A   1      42.477  28.618  33.795  1.00  0.00     0.074 A 
ATOM     44  C   UNL A   1      43.049  27.480  33.108  1.00  0.00     0.031 C 
ATOM     45  C   UNL A   1      38.099  30.783  29.626  1.00  0.00     0.029 A 
ATOM     46  C   UNL A   1      38.387  31.296  30.965  1.00  0.00     0.049 A 
ATOM     47  H   UNL A   1      39.828  30.599  32.297  1.00  0.00     0.167 HD
ATOM     48  C   UNL A   1      42.881  29.057  35.011  1.00  0.00     0.037 A 
ATOM     49  C   UNL A   1      37.758  32.328  31.563  1.00  0.00     0.037 A 
ATOM     50  C   UNL A   1      42.318  30.192  35.694  1.00  0.00     0.049 A 
ATOM     51  C   UNL A   1      38.179  32.757  32.945  1.00  0.00     0.074 A 
ATOM     52  C   UNL A   1      42.677  30.723  36.921  1.00  0.00     0.029 A 
ATOM     53  N   UNL A   1      41.273  30.966  35.215  1.00  0.00    -0.354 N 
ATOM     54  N   UNL A   1      39.133  32.271  33.703  1.00  0.00    -0.248 NA
ATOM     55  C   UNL A   1      37.441  33.874  33.550  1.00  0.00     0.031 C 
ATOM     56  C   UNL A   1      41.819  31.791  37.204  1.00  0.00     0.029 A 
ATOM     57  C   UNL A   1      40.956  31.955  36.132  1.00  0.00     0.049 A 
ATOM     58  H   UNL A   1      40.822  30.834  34.350  1.00  0.00     0.167 HD
ATOM     59  C   UNL A   1      39.124  33.038  34.864  1.00  0.00     0.074 A 
ATOM     60  C   UNL A   1      38.077  34.025  34.704  1.00  0.00     0.031 C 
ATOM     61  C   UNL A   1      39.915  32.936  35.961  1.00  0.00     0.037 A 
BRANCH  48  62
ATOM     62  C   UNL A   1      43.977  28.288  35.697  1.00  0.00     0.058 A 
ATOM     63  C   UNL A   1      43.699  27.241  36.590  1.00  0.00     0.135 A 
ATOM     64  C   UNL A   1      45.324  28.583  35.430  1.00  0.00     0.135 A 
ATOM     65  F   UNL A   1      42.428  26.930  36.891  1.00  0.00    -0.206 F 
ATOM     66  C   UNL A   1      44.718  26.529  37.214  1.00  0.00     0.059 A 
ATOM     67  C   UNL A   1      46.359  27.867  36.025  1.00  0.00     0.059 A 
ATOM     68  F   UNL A   1      45.644  29.575  34.586  1.00  0.00    -0.206 F 
ATOM     69  C   UNL A   1      46.045  26.851  36.926  1.00  0.00     0.060 A 
BRANCH  69  70
ATOM     70  S   UNL A   1      47.359  25.919  37.743  1.00  0.00     0.124 S 
ATOM     71  O   UNL A   1      47.921  26.931  38.633  1.00  0.00    -0.237 OA
ATOM     72  O   UNL A   1      46.620  24.842  38.395  1.00  0.00    -0.237 OA
ATOM     73  O   UNL A   1      48.219  25.506  36.640  1.00  0.00    -0.744 OA
ENDBRANCH  69  70
ENDBRANCH  48  62
BRANCH  49  74
ATOM     74  C   UNL A   1      36.645  33.020  30.862  1.00  0.00     0.058 A 
ATOM     75  C   UNL A   1      35.309  32.815  31.237  1.00  0.00     0.135 A 
ATOM     76  C   UNL A   1      36.900  33.906  29.804  1.00  0.00     0.135 A 
ATOM     77  F   UNL A   1      35.015  31.967  32.234  1.00  0.00    -0.206 F 
ATOM     78  C   UNL A   1      34.263  33.457  30.581  1.00  0.00     0.059 A 
ATOM     79  C   UNL A   1      35.874  34.578  29.148  1.00  0.00     0.059 A 
ATOM     80  F   UNL A   1      38.162  34.143  29.414  1.00  0.00    -0.206 F 
ATOM     81  C   UNL A   1      34.557  34.340  29.539  1.00  0.00     0.060 A 
BRANCH  81  82
ATOM     82  S   UNL A   1      33.198  35.214  28.733  1.00  0.00     0.124 S 
ATOM     83  O   UNL A   1      32.435  35.692  29.879  1.00  0.00    -0.237 OA
ATOM     84  O   UNL A   1      33.903  36.234  27.961  1.00  0.00    -0.237 OA
ATOM     85  O   UNL A   1      32.557  34.171  27.935  1.00  0.00    -0.744 OA
ENDBRANCH  81  82
ENDBRANCH  49  74
BRANCH  61  86
ATOM     86  C   UNL A   1      39.705  33.932  37.069  1.00  0.00     0.058 A 
ATOM     87  C   UNL A   1      38.941  33.620  38.203  1.00  0.00     0.135 A 
ATOM     88  C   UNL A   1      40.332  35.188  37.025  1.00  0.00     0.135 A 
ATOM     89  F   UNL A   1      38.316  32.435  38.294  1.00  0.00    -0.206 F 
ATOM     90  C   UNL A   1      38.791  34.526  39.250  1.00  0.00     0.059 A 
ATOM     91  C   UNL A   1      40.216  36.100  38.070  1.00  0.00     0.059 A 
ATOM     92  F   UNL A   1      41.082  35.532  35.967  1.00  0.00    -0.206 F 
ATOM     93  C   UNL A   1      39.436  35.763  39.175  1.00  0.00     0.060 A 
BRANCH  93  94
ATOM     94  S   UNL A   1      39.270  36.912  40.559  1.00  0.00     0.124 S 
ATOM     95  O   UNL A   1      38.496  36.120  41.509  1.00  0.00    -0.237 OA
ATOM     96  O   UNL A   1      40.661  37.162  40.926  1.00  0.00    -0.237 OA
ATOM     97  O   UNL A   1      38.570  38.050  39.971  1.00  0.00    -0.744 OA
ENDBRANCH  93  94
ENDBRANCH  61  86
ENDBRANCH  35  36
ENDBRANCH  28  30
ENDBRANCH  27  28
ENDBRANCH  26  27
ENDBRANCH   1  26
TORSDOF 20
ENDMDL
