MODEL 1
REMARK VINA RESULT:     -11.9      0.000      0.000
REMARK SMILES CC(=O)n1cc2c3c(cccc31)C(=O)C[C@@H]2C(=O)OCCOCCOC(=O)c1ccc(-c2c3nc(c(-c4c(F)cc(S(=O)(=O)[O-])cc4F)c4ccc([nH]4)c(-c4c(F)cc(S(=O)(=O)[O-])cc4F)c4nc(c(-c5c(F)cc(S(=O)(=O)[O-])cc5F)c5ccc2[nH]5)C=C4)C=C3)cc1
REMARK SMILES IDX 23 1 22 2 21 3 20 4 19 5 17 6 18 7 16 8 4 9 5 10 12 11 6 12
REMARK SMILES IDX 7 13 11 14 8 15 10 16 15 17 9 18 13 19 14 20 2 21 1 22 3 23
REMARK SMILES IDX 24 24 25 25 26 26 27 27 28 28 29 29 93 30 30 31 92 32 31 33
REMARK SMILES IDX 32 34 33 35 86 36 34 37 91 38 85 39 87 40 35 41 90 42 84 43
REMARK SMILES IDX 83 44 36 46 70 47 49 48 69 49 50 50 53 51 68 52 88 53 51 54
REMARK SMILES IDX 52 55 67 57 89 58 54 59 37 60 38 61 47 62 39 63 40 64 46 65
REMARK SMILES IDX 48 66 41 67 42 68 43 69 44 70 45 71 71 72 72 73 81 74 73 75
REMARK SMILES IDX 74 76 80 77 82 78 75 79 76 80 77 81 78 82 79 83 55 84 56 85
REMARK SMILES IDX 65 86 57 87 58 88 64 89 66 90 59 91 60 92 61 93 62 94 63 95
REMARK H PARENT 87 45 53 56
REMARK Flexibility Score: inf
ROOT
ATOM      1  C   UNL A   1      41.928  19.602  26.807  1.00  0.00     0.202 C 
ENDROOT
BRANCH   1   2
ATOM      2  O   UNL A   1      40.688  20.185  26.417  1.00  0.00    -0.374 OA
BRANCH   2   3
ATOM      3  C   UNL A   1      40.273  21.463  26.893  1.00  0.00     0.202 C 
BRANCH   3   4
ATOM      4  C   UNL A   1      39.198  22.226  26.125  1.00  0.00     0.261 C 
BRANCH   4   5
ATOM      5  O   UNL A   1      38.098  21.394  25.745  1.00  0.00    -0.463 OA
BRANCH   5   6
ATOM      6  C   UNL A   1      37.219  21.988  24.897  1.00  0.00     0.314 C 
ATOM      7  O   UNL A   1      37.336  22.022  23.675  1.00  0.00    -0.252 OA
BRANCH   6   8
ATOM      8  C   UNL A   1      36.086  22.694  25.618  1.00  0.00     0.139 C 
ATOM      9  N   UNL A   1      33.318  20.233  25.245  1.00  0.00    -0.287 N 
ATOM     10  C   UNL A   1      34.676  20.502  25.378  1.00  0.00     0.100 A 
ATOM     11  C   UNL A   1      32.641  21.459  25.285  1.00  0.00     0.057 A 
ATOM     12  C   UNL A   1      34.865  21.855  25.471  1.00  0.00    -0.006 A 
ATOM     13  C   UNL A   1      33.603  22.447  25.433  1.00  0.00     0.015 A 
ATOM     14  C   UNL A   1      31.284  21.820  25.253  1.00  0.00     0.027 A 
ATOM     15  C   UNL A   1      33.280  23.797  25.542  1.00  0.00     0.027 A 
ATOM     16  C   UNL A   1      30.959  23.184  25.408  1.00  0.00     0.003 A 
ATOM     17  C   UNL A   1      35.812  24.160  25.192  1.00  0.00     0.101 C 
ATOM     18  C   UNL A   1      31.941  24.171  25.561  1.00  0.00     0.012 A 
ATOM     19  C   UNL A   1      34.446  24.710  25.650  1.00  0.00     0.164 C 
ATOM     20  O   UNL A   1      34.293  25.867  26.027  1.00  0.00    -0.294 OA
BRANCH   9  21
ATOM     21  C   UNL A   1      32.742  18.953  25.129  1.00  0.00     0.227 C 
ATOM     22  C   UNL A   1      32.508  18.496  23.717  1.00  0.00     0.115 C 
ATOM     23  O   UNL A   1      32.528  18.276  26.125  1.00  0.00    -0.274 OA
ENDBRANCH   9  21
ENDBRANCH   6   8
ENDBRANCH   5   6
ENDBRANCH   4   5
ENDBRANCH   3   4
ENDBRANCH   2   3
ENDBRANCH   1   2
BRANCH   1  24
ATOM     24  C   UNL A   1      42.966  19.228  25.760  1.00  0.00     0.261 C 
BRANCH  24  25
ATOM     25  O   UNL A   1      43.388  20.348  24.998  1.00  0.00    -0.460 OA
BRANCH  25  26
ATOM     26  C   UNL A   1      44.718  20.568  25.126  1.00  0.00     0.338 C 
ATOM     27  O   UNL A   1      45.575  19.734  25.345  1.00  0.00    -0.246 OA
BRANCH  26  28
ATOM     28  C   UNL A   1      44.987  22.006  25.094  1.00  0.00     0.060 A 
ATOM     29  C   UNL A   1      45.710  22.465  26.193  1.00  0.00     0.016 A 
ATOM     30  C   UNL A   1      44.196  22.850  24.300  1.00  0.00     0.016 A 
ATOM     31  C   UNL A   1      45.367  23.690  26.696  1.00  0.00     0.010 A 
ATOM     32  C   UNL A   1      43.867  24.087  24.801  1.00  0.00     0.010 A 
ATOM     33  C   UNL A   1      44.370  24.434  26.048  1.00  0.00    -0.014 A 
BRANCH  33  34
ATOM     34  C   UNL A   1      43.955  25.644  26.710  1.00  0.00     0.031 A 
ATOM     35  C   UNL A   1      44.929  26.731  26.506  1.00  0.00     0.074 A 
ATOM     36  C   UNL A   1      42.849  25.751  27.467  1.00  0.00     0.049 A 
ATOM     37  N   UNL A   1      45.836  27.118  27.337  1.00  0.00    -0.248 NA
ATOM     38  C   UNL A   1      45.075  27.266  25.147  1.00  0.00     0.031 C 
ATOM     39  C   UNL A   1      41.704  24.849  27.588  1.00  0.00     0.029 A 
ATOM     40  N   UNL A   1      42.517  26.779  28.286  1.00  0.00    -0.354 N 
ATOM     41  C   UNL A   1      46.534  28.118  26.678  1.00  0.00     0.074 A 
ATOM     42  C   UNL A   1      46.164  28.023  25.291  1.00  0.00     0.031 C 
ATOM     43  C   UNL A   1      40.710  25.481  28.260  1.00  0.00     0.029 A 
ATOM     44  C   UNL A   1      41.207  26.761  28.742  1.00  0.00     0.049 A 
ATOM     45  H   UNL A   1      43.155  27.484  28.538  1.00  0.00     0.167 HD
ATOM     46  C   UNL A   1      47.167  29.097  27.376  1.00  0.00     0.037 A 
ATOM     47  C   UNL A   1      40.593  27.770  29.414  1.00  0.00     0.037 A 
ATOM     48  C   UNL A   1      47.375  28.710  28.750  1.00  0.00     0.049 A 
ATOM     49  C   UNL A   1      41.675  28.579  30.047  1.00  0.00     0.074 A 
ATOM     50  C   UNL A   1      48.080  27.697  29.373  1.00  0.00     0.029 A 
ATOM     51  N   UNL A   1      46.488  29.179  29.691  1.00  0.00    -0.354 N 
ATOM     52  N   UNL A   1      42.445  28.131  31.003  1.00  0.00    -0.248 NA
ATOM     53  C   UNL A   1      42.215  29.700  29.290  1.00  0.00     0.031 C 
ATOM     54  C   UNL A   1      47.266  27.299  30.474  1.00  0.00     0.029 A 
ATOM     55  C   UNL A   1      46.141  28.125  30.499  1.00  0.00     0.049 A 
ATOM     56  H   UNL A   1      46.161  30.105  29.769  1.00  0.00     0.167 HD
ATOM     57  C   UNL A   1      43.710  28.619  30.706  1.00  0.00     0.074 A 
ATOM     58  C   UNL A   1      43.492  29.634  29.675  1.00  0.00     0.031 C 
ATOM     59  C   UNL A   1      44.840  27.969  31.114  1.00  0.00     0.037 A 
BRANCH  46  60
ATOM     60  C   UNL A   1      47.238  30.525  26.907  1.00  0.00     0.058 A 
ATOM     61  C   UNL A   1      48.467  31.209  26.974  1.00  0.00     0.135 A 
ATOM     62  C   UNL A   1      46.102  31.331  26.659  1.00  0.00     0.135 A 
ATOM     63  F   UNL A   1      49.608  30.543  27.212  1.00  0.00    -0.206 F 
ATOM     64  C   UNL A   1      48.551  32.597  26.876  1.00  0.00     0.059 A 
ATOM     65  C   UNL A   1      46.170  32.707  26.501  1.00  0.00     0.059 A 
ATOM     66  F   UNL A   1      44.856  30.843  26.658  1.00  0.00    -0.206 F 
ATOM     67  C   UNL A   1      47.392  33.337  26.654  1.00  0.00     0.060 A 
BRANCH  67  68
ATOM     68  S   UNL A   1      47.479  35.133  26.636  1.00  0.00     0.124 S 
ATOM     69  O   UNL A   1      48.815  35.354  26.097  1.00  0.00    -0.237 OA
ATOM     70  O   UNL A   1      46.366  35.477  25.757  1.00  0.00    -0.237 OA
ATOM     71  O   UNL A   1      47.295  35.491  28.040  1.00  0.00    -0.744 OA
ENDBRANCH  67  68
ENDBRANCH  46  60
BRANCH  47  72
ATOM     72  C   UNL A   1      39.232  28.321  29.159  1.00  0.00     0.058 A 
ATOM     73  C   UNL A   1      38.321  28.521  30.215  1.00  0.00     0.135 A 
ATOM     74  C   UNL A   1      38.903  28.941  27.936  1.00  0.00     0.135 A 
ATOM     75  F   UNL A   1      38.562  27.984  31.421  1.00  0.00    -0.206 F 
ATOM     76  C   UNL A   1      37.187  29.332  30.083  1.00  0.00     0.059 A 
ATOM     77  C   UNL A   1      37.776  29.748  27.780  1.00  0.00     0.059 A 
ATOM     78  F   UNL A   1      39.720  28.858  26.876  1.00  0.00    -0.206 F 
ATOM     79  C   UNL A   1      36.936  29.962  28.865  1.00  0.00     0.060 A 
BRANCH  79  80
ATOM     80  S   UNL A   1      35.575  31.148  28.740  1.00  0.00     0.124 S 
ATOM     81  O   UNL A   1      35.273  31.411  30.143  1.00  0.00    -0.237 OA
ATOM     82  O   UNL A   1      36.190  32.246  28.004  1.00  0.00    -0.237 OA
ATOM     83  O   UNL A   1      34.548  30.410  28.010  1.00  0.00    -0.744 OA
ENDBRANCH  79  80
ENDBRANCH  47  72
BRANCH  59  84
ATOM     84  C   UNL A   1      44.701  26.858  32.126  1.00  0.00     0.058 A 
ATOM     85  C   UNL A   1      44.611  27.052  33.517  1.00  0.00     0.135 A 
ATOM     86  C   UNL A   1      44.478  25.557  31.648  1.00  0.00     0.135 A 
ATOM     87  F   UNL A   1      44.714  28.279  34.049  1.00  0.00    -0.206 F 
ATOM     88  C   UNL A   1      44.344  25.995  34.392  1.00  0.00     0.059 A 
ATOM     89  C   UNL A   1      44.180  24.495  32.498  1.00  0.00     0.059 A 
ATOM     90  F   UNL A   1      44.493  25.316  30.326  1.00  0.00    -0.206 F 
ATOM     91  C   UNL A   1      44.123  24.719  33.871  1.00  0.00     0.060 A 
BRANCH  91  92
ATOM     92  S   UNL A   1      43.698  23.367  34.993  1.00  0.00     0.124 S 
ATOM     93  O   UNL A   1      44.471  23.700  36.185  1.00  0.00    -0.237 OA
ATOM     94  O   UNL A   1      42.250  23.503  35.116  1.00  0.00    -0.237 OA
ATOM     95  O   UNL A   1      44.143  22.174  34.275  1.00  0.00    -0.744 OA
ENDBRANCH  91  92
ENDBRANCH  59  84
ENDBRANCH  33  34
ENDBRANCH  26  28
ENDBRANCH  25  26
ENDBRANCH  24  25
ENDBRANCH   1  24
TORSDOF 18
ENDMDL
MODEL 2
REMARK VINA RESULT:     -11.8      1.330      2.277
REMARK SMILES CC(=O)n1cc2c3c(cccc31)C(=O)C[C@@H]2C(=O)OCCOCCOC(=O)c1ccc(-c2c3nc(c(-c4c(F)cc(S(=O)(=O)[O-])cc4F)c4ccc([nH]4)c(-c4c(F)cc(S(=O)(=O)[O-])cc4F)c4nc(c(-c5c(F)cc(S(=O)(=O)[O-])cc5F)c5ccc2[nH]5)C=C4)C=C3)cc1
REMARK SMILES IDX 23 1 22 2 21 3 20 4 19 5 17 6 18 7 16 8 4 9 5 10 12 11 6 12
REMARK SMILES IDX 7 13 11 14 8 15 10 16 15 17 9 18 13 19 14 20 2 21 1 22 3 23
REMARK SMILES IDX 24 24 25 25 26 26 27 27 28 28 29 29 93 30 30 31 92 32 31 33
REMARK SMILES IDX 32 34 33 35 86 36 34 37 91 38 85 39 87 40 35 41 90 42 84 43
REMARK SMILES IDX 83 44 36 46 70 47 49 48 69 49 50 50 53 51 68 52 88 53 51 54
REMARK SMILES IDX 52 55 67 57 89 58 54 59 37 60 38 61 47 62 39 63 40 64 46 65
REMARK SMILES IDX 48 66 41 67 42 68 43 69 44 70 45 71 71 72 72 73 81 74 73 75
REMARK SMILES IDX 74 76 80 77 82 78 75 79 76 80 77 81 78 82 79 83 55 84 56 85
REMARK SMILES IDX 65 86 57 87 58 88 64 89 66 90 59 91 60 92 61 93 62 94 63 95
REMARK H PARENT 87 45 53 56
REMARK Flexibility Score: inf
ROOT
ATOM      1  C   UNL A   1      41.472  20.688  26.575  1.00  0.00     0.202 C 
ENDROOT
BRANCH   1   2
ATOM      2  O   UNL A   1      40.171  20.504  26.025  1.00  0.00    -0.374 OA
BRANCH   2   3
ATOM      3  C   UNL A   1      39.221  21.565  25.964  1.00  0.00     0.202 C 
BRANCH   3   4
ATOM      4  C   UNL A   1      37.865  21.309  25.315  1.00  0.00     0.261 C 
BRANCH   4   5
ATOM      5  O   UNL A   1      37.364  22.453  24.616  1.00  0.00    -0.463 OA
BRANCH   5   6
ATOM      6  C   UNL A   1      36.715  23.347  25.406  1.00  0.00     0.314 C 
ATOM      7  O   UNL A   1      37.245  24.302  25.966  1.00  0.00    -0.252 OA
BRANCH   6   8
ATOM      8  C   UNL A   1      35.250  23.009  25.603  1.00  0.00     0.139 C 
ATOM      9  N   UNL A   1      33.606  25.486  23.365  1.00  0.00    -0.287 N 
ATOM     10  C   UNL A   1      34.689  24.665  23.656  1.00  0.00     0.100 A 
ATOM     11  C   UNL A   1      32.651  25.297  24.373  1.00  0.00     0.057 A 
ATOM     12  C   UNL A   1      34.449  23.994  24.826  1.00  0.00    -0.006 A 
ATOM     13  C   UNL A   1      33.180  24.372  25.260  1.00  0.00     0.015 A 
ATOM     14  C   UNL A   1      31.358  25.800  24.593  1.00  0.00     0.027 A 
ATOM     15  C   UNL A   1      32.480  23.920  26.377  1.00  0.00     0.027 A 
ATOM     16  C   UNL A   1      30.637  25.306  25.700  1.00  0.00     0.003 A 
ATOM     17  C   UNL A   1      34.759  22.924  27.072  1.00  0.00     0.101 C 
ATOM     18  C   UNL A   1      31.181  24.368  26.586  1.00  0.00     0.012 A 
ATOM     19  C   UNL A   1      33.225  22.962  27.233  1.00  0.00     0.164 C 
ATOM     20  O   UNL A   1      32.632  22.290  28.070  1.00  0.00    -0.294 OA
BRANCH   9  21
ATOM     21  C   UNL A   1      33.489  26.322  22.237  1.00  0.00     0.227 C 
ATOM     22  C   UNL A   1      33.603  27.792  22.531  1.00  0.00     0.115 C 
ATOM     23  O   UNL A   1      33.371  25.843  21.118  1.00  0.00    -0.274 OA
ENDBRANCH   9  21
ENDBRANCH   6   8
ENDBRANCH   5   6
ENDBRANCH   4   5
ENDBRANCH   3   4
ENDBRANCH   2   3
ENDBRANCH   1   2
BRANCH   1  24
ATOM     24  C   UNL A   1      42.621  19.785  26.152  1.00  0.00     0.261 C 
BRANCH  24  25
ATOM     25  O   UNL A   1      43.231  20.221  24.947  1.00  0.00    -0.460 OA
BRANCH  25  26
ATOM     26  C   UNL A   1      44.553  20.465  25.115  1.00  0.00     0.338 C 
ATOM     27  O   UNL A   1      45.413  19.650  25.390  1.00  0.00    -0.246 OA
BRANCH  26  28
ATOM     28  C   UNL A   1      44.802  21.905  25.047  1.00  0.00     0.060 A 
ATOM     29  C   UNL A   1      45.578  22.389  26.099  1.00  0.00     0.016 A 
ATOM     30  C   UNL A   1      43.960  22.728  24.284  1.00  0.00     0.016 A 
ATOM     31  C   UNL A   1      45.247  23.618  26.601  1.00  0.00     0.010 A 
ATOM     32  C   UNL A   1      43.644  23.969  24.783  1.00  0.00     0.010 A 
ATOM     33  C   UNL A   1      44.209  24.340  25.997  1.00  0.00    -0.014 A 
BRANCH  33  34
ATOM     34  C   UNL A   1      43.816  25.556  26.662  1.00  0.00     0.031 A 
ATOM     35  C   UNL A   1      44.821  26.618  26.482  1.00  0.00     0.074 A 
ATOM     36  C   UNL A   1      42.702  25.686  27.403  1.00  0.00     0.049 A 
ATOM     37  N   UNL A   1      45.725  26.975  27.329  1.00  0.00    -0.248 NA
ATOM     38  C   UNL A   1      45.003  27.159  25.129  1.00  0.00     0.031 C 
ATOM     39  C   UNL A   1      41.532  24.814  27.499  1.00  0.00     0.029 A 
ATOM     40  N   UNL A   1      42.384  26.717  28.225  1.00  0.00    -0.354 N 
ATOM     41  C   UNL A   1      46.460  27.960  26.689  1.00  0.00     0.074 A 
ATOM     42  C   UNL A   1      46.108  27.886  25.295  1.00  0.00     0.031 C 
ATOM     43  C   UNL A   1      40.544  25.468  28.161  1.00  0.00     0.029 A 
ATOM     44  C   UNL A   1      41.067  26.730  28.661  1.00  0.00     0.049 A 
ATOM     45  H   UNL A   1      43.037  27.403  28.493  1.00  0.00     0.167 HD
ATOM     46  C   UNL A   1      47.107  28.917  27.405  1.00  0.00     0.037 A 
ATOM     47  C   UNL A   1      40.470  27.749  29.332  1.00  0.00     0.037 A 
ATOM     48  C   UNL A   1      47.284  28.514  28.779  1.00  0.00     0.049 A 
ATOM     49  C   UNL A   1      41.563  28.525  29.987  1.00  0.00     0.074 A 
ATOM     50  C   UNL A   1      47.952  27.478  29.404  1.00  0.00     0.029 A 
ATOM     51  N   UNL A   1      46.395  29.000  29.709  1.00  0.00    -0.354 N 
ATOM     52  N   UNL A   1      42.306  28.049  30.951  1.00  0.00    -0.248 NA
ATOM     53  C   UNL A   1      42.144  29.636  29.248  1.00  0.00     0.031 C 
ATOM     54  C   UNL A   1      47.111  27.093  30.489  1.00  0.00     0.029 A 
ATOM     55  C   UNL A   1      46.008  27.949  30.503  1.00  0.00     0.049 A 
ATOM     56  H   UNL A   1      46.092  29.933  29.790  1.00  0.00     0.167 HD
ATOM     57  C   UNL A   1      43.588  28.506  30.677  1.00  0.00     0.074 A 
ATOM     58  C   UNL A   1      43.413  29.534  29.651  1.00  0.00     0.031 C 
ATOM     59  C   UNL A   1      44.694  27.823  31.097  1.00  0.00     0.037 A 
BRANCH  46  60
ATOM     60  C   UNL A   1      47.223  30.346  26.948  1.00  0.00     0.058 A 
ATOM     61  C   UNL A   1      48.469  30.996  27.038  1.00  0.00     0.135 A 
ATOM     62  C   UNL A   1      46.113  31.184  26.691  1.00  0.00     0.135 A 
ATOM     63  F   UNL A   1      49.588  30.299  27.287  1.00  0.00    -0.206 F 
ATOM     64  C   UNL A   1      48.591  32.383  26.952  1.00  0.00     0.059 A 
ATOM     65  C   UNL A   1      46.220  32.559  26.545  1.00  0.00     0.059 A 
ATOM     66  F   UNL A   1      44.855  30.730  26.668  1.00  0.00    -0.206 F 
ATOM     67  C   UNL A   1      47.456  33.155  26.720  1.00  0.00     0.060 A 
BRANCH  67  68
ATOM     68  S   UNL A   1      47.591  34.948  26.718  1.00  0.00     0.124 S 
ATOM     69  O   UNL A   1      46.845  35.295  25.514  1.00  0.00    -0.237 OA
ATOM     70  O   UNL A   1      46.961  35.296  27.987  1.00  0.00    -0.237 OA
ATOM     71  O   UNL A   1      49.032  35.176  26.657  1.00  0.00    -0.744 OA
ENDBRANCH  67  68
ENDBRANCH  46  60
BRANCH  47  72
ATOM     72  C   UNL A   1      39.128  28.339  29.060  1.00  0.00     0.058 A 
ATOM     73  C   UNL A   1      38.174  28.473  30.088  1.00  0.00     0.135 A 
ATOM     74  C   UNL A   1      38.861  29.053  27.874  1.00  0.00     0.135 A 
ATOM     75  F   UNL A   1      38.355  27.845  31.260  1.00  0.00    -0.206 F 
ATOM     76  C   UNL A   1      37.056  29.309  29.969  1.00  0.00     0.059 A 
ATOM     77  C   UNL A   1      37.751  29.886  27.730  1.00  0.00     0.059 A 
ATOM     78  F   UNL A   1      39.722  29.036  26.847  1.00  0.00    -0.206 F 
ATOM     79  C   UNL A   1      36.866  30.031  28.791  1.00  0.00     0.060 A 
BRANCH  79  80
ATOM     80  S   UNL A   1      35.526  31.243  28.697  1.00  0.00     0.124 S 
ATOM     81  O   UNL A   1      35.243  31.492  30.107  1.00  0.00    -0.237 OA
ATOM     82  O   UNL A   1      36.155  32.341  27.970  1.00  0.00    -0.237 OA
ATOM     83  O   UNL A   1      34.479  30.535  27.966  1.00  0.00    -0.744 OA
ENDBRANCH  79  80
ENDBRANCH  47  72
BRANCH  59  84
ATOM     84  C   UNL A   1      44.510  26.708  32.098  1.00  0.00     0.058 A 
ATOM     85  C   UNL A   1      44.298  25.358  31.759  1.00  0.00     0.135 A 
ATOM     86  C   UNL A   1      44.728  26.999  33.454  1.00  0.00     0.135 A 
ATOM     87  F   UNL A   1      44.178  24.981  30.478  1.00  0.00    -0.206 F 
ATOM     88  C   UNL A   1      44.273  24.352  32.729  1.00  0.00     0.059 A 
ATOM     89  C   UNL A   1      44.737  26.009  34.433  1.00  0.00     0.059 A 
ATOM     90  F   UNL A   1      44.993  28.259  33.836  1.00  0.00    -0.206 F 
ATOM     91  C   UNL A   1      44.500  24.687  34.064  1.00  0.00     0.060 A 
BRANCH  91  92
ATOM     92  S   UNL A   1      44.548  23.377  35.309  1.00  0.00     0.124 S 
ATOM     93  O   UNL A   1      45.682  23.777  36.136  1.00  0.00    -0.237 OA
ATOM     94  O   UNL A   1      43.235  23.489  35.936  1.00  0.00    -0.237 OA
ATOM     95  O   UNL A   1      44.750  22.163  34.521  1.00  0.00    -0.744 OA
ENDBRANCH  91  92
ENDBRANCH  59  84
ENDBRANCH  33  34
ENDBRANCH  26  28
ENDBRANCH  25  26
ENDBRANCH  24  25
ENDBRANCH   1  24
TORSDOF 18
ENDMDL
MODEL 3
REMARK VINA RESULT:     -11.5      3.193      4.619
REMARK SMILES CC(=O)n1cc2c3c(cccc31)C(=O)C[C@@H]2C(=O)OCCOCCOC(=O)c1ccc(-c2c3nc(c(-c4c(F)cc(S(=O)(=O)[O-])cc4F)c4ccc([nH]4)c(-c4c(F)cc(S(=O)(=O)[O-])cc4F)c4nc(c(-c5c(F)cc(S(=O)(=O)[O-])cc5F)c5ccc2[nH]5)C=C4)C=C3)cc1
REMARK SMILES IDX 23 1 22 2 21 3 20 4 19 5 17 6 18 7 16 8 4 9 5 10 12 11 6 12
REMARK SMILES IDX 7 13 11 14 8 15 10 16 15 17 9 18 13 19 14 20 2 21 1 22 3 23
REMARK SMILES IDX 24 24 25 25 26 26 27 27 28 28 29 29 93 30 30 31 92 32 31 33
REMARK SMILES IDX 32 34 33 35 86 36 34 37 91 38 85 39 87 40 35 41 90 42 84 43
REMARK SMILES IDX 83 44 36 46 70 47 49 48 69 49 50 50 53 51 68 52 88 53 51 54
REMARK SMILES IDX 52 55 67 57 89 58 54 59 37 60 38 61 47 62 39 63 40 64 46 65
REMARK SMILES IDX 48 66 41 67 42 68 43 69 44 70 45 71 71 72 72 73 81 74 73 75
REMARK SMILES IDX 74 76 80 77 82 78 75 79 76 80 77 81 78 82 79 83 55 84 56 85
REMARK SMILES IDX 65 86 57 87 58 88 64 89 66 90 59 91 60 92 61 93 62 94 63 95
REMARK H PARENT 87 45 53 56
REMARK Flexibility Score: inf
ROOT
ATOM      1  C   UNL A   1      39.479  24.072  27.432  1.00  0.00     0.202 C 
ENDROOT
BRANCH   1   2
ATOM      2  O   UNL A   1      38.248  24.228  26.732  1.00  0.00    -0.374 OA
BRANCH   2   3
ATOM      3  C   UNL A   1      37.800  23.273  25.774  1.00  0.00     0.202 C 
BRANCH   3   4
ATOM      4  C   UNL A   1      36.476  23.511  25.055  1.00  0.00     0.261 C 
BRANCH   4   5
ATOM      5  O   UNL A   1      35.388  23.725  25.960  1.00  0.00    -0.463 OA
BRANCH   5   6
ATOM      6  C   UNL A   1      34.168  23.757  25.364  1.00  0.00     0.314 C 
ATOM      7  O   UNL A   1      33.250  22.977  25.604  1.00  0.00    -0.252 OA
BRANCH   6   8
ATOM      8  C   UNL A   1      34.060  24.823  24.291  1.00  0.00     0.139 C 
ATOM      9  N   UNL A   1      32.308  27.548  26.121  1.00  0.00    -0.287 N 
ATOM     10  C   UNL A   1      33.183  26.469  26.127  1.00  0.00     0.100 A 
ATOM     11  C   UNL A   1      31.877  27.734  24.801  1.00  0.00     0.057 A 
ATOM     12  C   UNL A   1      33.287  25.960  24.859  1.00  0.00    -0.006 A 
ATOM     13  C   UNL A   1      32.493  26.756  24.035  1.00  0.00     0.015 A 
ATOM     14  C   UNL A   1      31.046  28.678  24.174  1.00  0.00     0.027 A 
ATOM     15  C   UNL A   1      32.315  26.662  22.656  1.00  0.00     0.027 A 
ATOM     16  C   UNL A   1      30.905  28.605  22.772  1.00  0.00     0.003 A 
ATOM     17  C   UNL A   1      33.468  24.368  22.931  1.00  0.00     0.101 C 
ATOM     18  C   UNL A   1      31.536  27.614  22.010  1.00  0.00     0.012 A 
ATOM     19  C   UNL A   1      33.021  25.524  22.014  1.00  0.00     0.164 C 
ATOM     20  O   UNL A   1      33.171  25.498  20.797  1.00  0.00    -0.294 OA
BRANCH   9  21
ATOM     21  C   UNL A   1      31.958  28.327  27.242  1.00  0.00     0.227 C 
ATOM     22  C   UNL A   1      32.609  29.680  27.293  1.00  0.00     0.115 C 
ATOM     23  O   UNL A   1      31.135  27.920  28.050  1.00  0.00    -0.274 OA
ENDBRANCH   9  21
ENDBRANCH   6   8
ENDBRANCH   5   6
ENDBRANCH   4   5
ENDBRANCH   3   4
ENDBRANCH   2   3
ENDBRANCH   1   2
BRANCH   1  24
ATOM     24  C   UNL A   1      40.260  22.769  27.337  1.00  0.00     0.261 C 
BRANCH  24  25
ATOM     25  O   UNL A   1      41.644  22.953  27.589  1.00  0.00    -0.460 OA
BRANCH  25  26
ATOM     26  C   UNL A   1      42.304  23.362  26.479  1.00  0.00     0.338 C 
ATOM     27  O   UNL A   1      42.588  22.683  25.511  1.00  0.00    -0.246 OA
BRANCH  26  28
ATOM     28  C   UNL A   1      42.762  24.740  26.656  1.00  0.00     0.060 A 
ATOM     29  C   UNL A   1      43.157  25.036  27.959  1.00  0.00     0.016 A 
ATOM     30  C   UNL A   1      42.386  25.728  25.734  1.00  0.00     0.016 A 
ATOM     31  C   UNL A   1      42.843  26.278  28.437  1.00  0.00     0.010 A 
ATOM     32  C   UNL A   1      42.088  26.981  26.216  1.00  0.00     0.010 A 
ATOM     33  C   UNL A   1      42.213  27.194  27.582  1.00  0.00    -0.014 A 
BRANCH  33  34
ATOM     34  C   UNL A   1      41.779  28.428  28.188  1.00  0.00     0.031 A 
ATOM     35  C   UNL A   1      42.815  29.471  28.088  1.00  0.00     0.074 A 
ATOM     36  C   UNL A   1      40.602  28.587  28.817  1.00  0.00     0.049 A 
ATOM     37  N   UNL A   1      43.640  29.828  29.012  1.00  0.00    -0.248 NA
ATOM     38  C   UNL A   1      43.133  29.985  26.750  1.00  0.00     0.031 C 
ATOM     39  C   UNL A   1      39.413  27.735  28.815  1.00  0.00     0.029 A 
ATOM     40  N   UNL A   1      40.225  29.637  29.589  1.00  0.00    -0.354 N 
ATOM     41  C   UNL A   1      44.449  30.791  28.430  1.00  0.00     0.074 A 
ATOM     42  C   UNL A   1      44.230  30.698  27.010  1.00  0.00     0.031 C 
ATOM     43  C   UNL A   1      38.379  28.415  29.370  1.00  0.00     0.029 A 
ATOM     44  C   UNL A   1      38.873  29.678  29.897  1.00  0.00     0.049 A 
ATOM     45  H   UNL A   1      40.861  30.317  29.907  1.00  0.00     0.167 HD
ATOM     46  C   UNL A   1      45.041  31.750  29.188  1.00  0.00     0.037 A 
ATOM     47  C   UNL A   1      38.232  30.717  30.492  1.00  0.00     0.037 A 
ATOM     48  C   UNL A   1      45.080  31.368  30.579  1.00  0.00     0.049 A 
ATOM     49  C   UNL A   1      39.271  31.487  31.237  1.00  0.00     0.074 A 
ATOM     50  C   UNL A   1      45.668  30.332  31.281  1.00  0.00     0.029 A 
ATOM     51  N   UNL A   1      44.115  31.883  31.413  1.00  0.00    -0.354 N 
ATOM     52  N   UNL A   1      39.911  31.017  32.274  1.00  0.00    -0.248 NA
ATOM     53  C   UNL A   1      39.938  32.577  30.538  1.00  0.00     0.031 C 
ATOM     54  C   UNL A   1      44.721  29.979  32.287  1.00  0.00     0.029 A 
ATOM     55  C   UNL A   1      43.637  30.852  32.183  1.00  0.00     0.049 A 
ATOM     56  H   UNL A   1      43.821  32.822  31.450  1.00  0.00     0.167 HD
ATOM     57  C   UNL A   1      41.221  31.449  32.117  1.00  0.00     0.074 A 
ATOM     58  C   UNL A   1      41.161  32.462  31.063  1.00  0.00     0.031 C 
ATOM     59  C   UNL A   1      42.270  30.756  32.651  1.00  0.00     0.037 A 
BRANCH  46  60
ATOM     60  C   UNL A   1      45.225  33.169  28.723  1.00  0.00     0.058 A 
ATOM     61  C   UNL A   1      46.519  33.721  28.699  1.00  0.00     0.135 A 
ATOM     62  C   UNL A   1      44.163  34.091  28.568  1.00  0.00     0.135 A 
ATOM     63  F   UNL A   1      47.600  32.939  28.844  1.00  0.00    -0.206 F 
ATOM     64  C   UNL A   1      46.739  35.095  28.601  1.00  0.00     0.059 A 
ATOM     65  C   UNL A   1      44.361  35.454  28.412  1.00  0.00     0.059 A 
ATOM     66  F   UNL A   1      42.877  33.734  28.660  1.00  0.00    -0.206 F 
ATOM     67  C   UNL A   1      45.650  35.953  28.473  1.00  0.00     0.060 A 
BRANCH  67  68
ATOM     68  S   UNL A   1      45.921  37.731  28.459  1.00  0.00     0.124 S 
ATOM     69  O   UNL A   1      45.252  38.117  27.222  1.00  0.00    -0.237 OA
ATOM     70  O   UNL A   1      45.270  38.142  29.697  1.00  0.00    -0.237 OA
ATOM     71  O   UNL A   1      47.377  37.848  28.454  1.00  0.00    -0.744 OA
ENDBRANCH  67  68
ENDBRANCH  46  60
BRANCH  47  72
ATOM     72  C   UNL A   1      36.932  31.323  30.085  1.00  0.00     0.058 A 
ATOM     73  C   UNL A   1      36.086  31.928  31.034  1.00  0.00     0.135 A 
ATOM     74  C   UNL A   1      36.632  31.588  28.733  1.00  0.00     0.135 A 
ATOM     75  F   UNL A   1      36.307  31.746  32.345  1.00  0.00    -0.206 F 
ATOM     76  C   UNL A   1      35.044  32.790  30.668  1.00  0.00     0.059 A 
ATOM     77  C   UNL A   1      35.596  32.438  28.344  1.00  0.00     0.059 A 
ATOM     78  F   UNL A   1      37.398  31.103  27.745  1.00  0.00    -0.206 F 
ATOM     79  C   UNL A   1      34.822  33.057  29.317  1.00  0.00     0.060 A 
BRANCH  79  80
ATOM     80  S   UNL A   1      33.597  34.303  28.846  1.00  0.00     0.124 S 
ATOM     81  O   UNL A   1      34.430  35.327  28.225  1.00  0.00    -0.237 OA
ATOM     82  O   UNL A   1      32.729  33.554  27.945  1.00  0.00    -0.237 OA
ATOM     83  O   UNL A   1      32.991  34.681  30.120  1.00  0.00    -0.744 OA
ENDBRANCH  79  80
ENDBRANCH  47  72
BRANCH  59  84
ATOM     84  C   UNL A   1      41.973  29.662  33.647  1.00  0.00     0.058 A 
ATOM     85  C   UNL A   1      41.712  28.321  33.305  1.00  0.00     0.135 A 
ATOM     86  C   UNL A   1      42.128  29.954  35.011  1.00  0.00     0.135 A 
ATOM     87  F   UNL A   1      41.645  27.938  32.022  1.00  0.00    -0.206 F 
ATOM     88  C   UNL A   1      41.580  27.327  34.279  1.00  0.00     0.059 A 
ATOM     89  C   UNL A   1      42.031  28.974  35.995  1.00  0.00     0.059 A 
ATOM     90  F   UNL A   1      42.435  31.203  35.399  1.00  0.00    -0.206 F 
ATOM     91  C   UNL A   1      41.748  27.663  35.623  1.00  0.00     0.060 A 
BRANCH  91  92
ATOM     92  S   UNL A   1      41.659  26.363  36.877  1.00  0.00     0.124 S 
ATOM     93  O   UNL A   1      42.851  26.623  37.676  1.00  0.00    -0.237 OA
ATOM     94  O   UNL A   1      40.384  26.643  37.530  1.00  0.00    -0.237 OA
ATOM     95  O   UNL A   1      41.690  25.130  36.094  1.00  0.00    -0.744 OA
ENDBRANCH  91  92
ENDBRANCH  59  84
ENDBRANCH  33  34
ENDBRANCH  26  28
ENDBRANCH  25  26
ENDBRANCH  24  25
ENDBRANCH   1  24
TORSDOF 18
ENDMDL
