MODEL 1
REMARK VINA RESULT:     -10.7      0.000      0.000
REMARK SMILES CCC[C@H](CNC(=O)N1C[C@H]2CCC[N@H+]2C[C@@H]1C)C(=O)OCCOCCOC(=O)c1ccc(-c2c3nc(c(-c4c(F)cc(S(=O)(=O)[O-])cc4F)c4ccc([nH]4)c(-c4c(F)cc(S(=O)(=O)[O-])cc4F)c4nc(c(-c5c(F)cc(S(=O)(=O)[O-])cc5F)c5ccc2[nH]5)C=C4)C=C3)cc1
REMARK SMILES IDX 24 1 23 2 22 3 21 4 19 5 20 6 4 7 3 8 2 9 1 10 5 11 6 12
REMARK SMILES IDX 7 13 8 15 9 16 10 17 17 18 11 19 16 20 18 21 12 22 15 23
REMARK SMILES IDX 13 24 14 25 25 27 26 28 27 29 28 30 29 31 30 32 31 33 95 34
REMARK SMILES IDX 32 35 94 36 33 37 34 38 35 39 88 40 36 41 93 42 87 43 89 44
REMARK SMILES IDX 37 45 92 46 86 47 85 48 38 50 72 51 51 52 71 53 52 54 55 55
REMARK SMILES IDX 70 56 90 57 53 58 54 59 69 61 91 62 56 63 39 64 40 65 49 66
REMARK SMILES IDX 41 67 42 68 48 69 50 70 43 71 44 72 45 73 46 74 47 75 73 76
REMARK SMILES IDX 74 77 83 78 75 79 76 80 82 81 84 82 77 83 78 84 79 85 80 86
REMARK SMILES IDX 81 87 57 88 58 89 67 90 59 91 60 92 66 93 68 94 61 95 62 96
REMARK SMILES IDX 63 97 64 98 65 99
REMARK H PARENT 6 14 15 26 89 49 55 60
REMARK Flexibility Score: inf
ROOT
ATOM      1  O   UNL A   1      38.771  21.460  25.330  1.00  0.00    -0.374 OA
ENDROOT
BRANCH   1   2
ATOM      2  C   UNL A   1      37.519  22.122  25.513  1.00  0.00     0.202 C 
BRANCH   2   3
ATOM      3  C   UNL A   1      37.249  23.351  24.643  1.00  0.00     0.261 C 
BRANCH   3   4
ATOM      4  O   UNL A   1      35.932  23.866  24.899  1.00  0.00    -0.463 OA
BRANCH   4   5
ATOM      5  C   UNL A   1      35.109  23.967  23.830  1.00  0.00     0.310 C 
ATOM      6  O   UNL A   1      35.312  23.451  22.737  1.00  0.00    -0.252 OA
BRANCH   5   7
ATOM      7  C   UNL A   1      33.870  24.798  24.112  1.00  0.00     0.118 C 
BRANCH   7   8
ATOM      8  C   UNL A   1      33.933  25.366  25.537  1.00  0.00     0.017 C 
BRANCH   8   9
ATOM      9  C   UNL A   1      33.885  26.903  25.525  1.00  0.00    -0.002 C 
ATOM     10  C   UNL A   1      33.006  27.477  26.632  1.00  0.00     0.004 C 
ENDBRANCH   8   9
ENDBRANCH   7   8
BRANCH   7  11
ATOM     11  C   UNL A   1      32.497  24.220  23.721  1.00  0.00     0.133 C 
BRANCH  11  12
ATOM     12  N   UNL A   1      31.774  23.495  24.743  1.00  0.00    -0.337 N 
ATOM     13  C   UNL A   1      31.703  22.210  25.122  1.00  0.00     0.318 C 
ATOM     14  H   UNL A   1      31.200  24.081  25.288  1.00  0.00     0.165 HD
ATOM     15  O   UNL A   1      30.673  21.893  25.719  1.00  0.00    -0.249 OA
BRANCH  13  16
ATOM     16  N   UNL A   1      32.684  21.314  24.834  1.00  0.00    -0.311 N 
ATOM     17  C   UNL A   1      32.364  20.310  23.821  1.00  0.00     0.186 C 
ATOM     18  C   UNL A   1      33.996  21.166  25.499  1.00  0.00     0.139 C 
ATOM     19  C   UNL A   1      32.660  18.877  24.276  1.00  0.00     0.204 C 
ATOM     20  C   UNL A   1      34.773  19.896  25.024  1.00  0.00     0.287 C 
ATOM     21  C   UNL A   1      33.893  21.186  27.029  1.00  0.00     0.037 C 
ATOM     22  C   UNL A   1      32.599  17.910  23.094  1.00  0.00     0.073 C 
ATOM     23  N   UNL A   1      33.981  18.664  24.920  1.00  0.00    -0.329 N 
ATOM     24  C   UNL A   1      33.595  16.832  23.459  1.00  0.00     0.068 C 
ATOM     25  C   UNL A   1      34.685  17.615  24.168  1.00  0.00     0.262 C 
ATOM     26  H   UNL A   1      33.837  18.366  25.885  1.00  0.00     0.348 HD
ENDBRANCH  13  16
ENDBRANCH  11  12
ENDBRANCH   7  11
ENDBRANCH   5   7
ENDBRANCH   4   5
ENDBRANCH   3   4
ENDBRANCH   2   3
ENDBRANCH   1   2
BRANCH   1  27
ATOM     27  C   UNL A   1      39.656  21.410  26.447  1.00  0.00     0.202 C 
BRANCH  27  28
ATOM     28  C   UNL A   1      40.808  22.428  26.493  1.00  0.00     0.261 C 
BRANCH  28  29
ATOM     29  O   UNL A   1      40.346  23.790  26.497  1.00  0.00    -0.460 OA
BRANCH  29  30
ATOM     30  C   UNL A   1      41.335  24.726  26.496  1.00  0.00     0.338 C 
ATOM     31  O   UNL A   1      42.257  24.809  25.704  1.00  0.00    -0.246 OA
BRANCH  30  32
ATOM     32  C   UNL A   1      41.030  25.790  27.475  1.00  0.00     0.060 A 
ATOM     33  C   UNL A   1      41.867  26.915  27.494  1.00  0.00     0.016 A 
ATOM     34  C   UNL A   1      39.984  25.674  28.388  1.00  0.00     0.016 A 
ATOM     35  C   UNL A   1      41.667  27.924  28.436  1.00  0.00     0.010 A 
ATOM     36  C   UNL A   1      39.792  26.683  29.340  1.00  0.00     0.010 A 
ATOM     37  C   UNL A   1      40.643  27.804  29.384  1.00  0.00    -0.014 A 
BRANCH  37  38
ATOM     38  C   UNL A   1      40.530  28.792  30.489  1.00  0.00     0.031 A 
ATOM     39  C   UNL A   1      41.419  28.650  31.694  1.00  0.00     0.074 A 
ATOM     40  C   UNL A   1      39.654  29.813  30.418  1.00  0.00     0.049 A 
ATOM     41  N   UNL A   1      41.438  29.350  32.799  1.00  0.00    -0.248 NA
ATOM     42  C   UNL A   1      42.420  27.572  31.648  1.00  0.00     0.031 C 
ATOM     43  C   UNL A   1      38.762  30.082  29.291  1.00  0.00     0.029 A 
ATOM     44  N   UNL A   1      39.362  30.805  31.323  1.00  0.00    -0.354 N 
ATOM     45  C   UNL A   1      42.436  28.788  33.587  1.00  0.00     0.074 A 
ATOM     46  C   UNL A   1      42.985  27.674  32.843  1.00  0.00     0.031 C 
ATOM     47  C   UNL A   1      38.014  31.163  29.576  1.00  0.00     0.029 A 
ATOM     48  C   UNL A   1      38.339  31.633  30.923  1.00  0.00     0.049 A 
ATOM     49  H   UNL A   1      39.840  30.913  32.177  1.00  0.00     0.167 HD
ATOM     50  C   UNL A   1      42.859  29.169  34.816  1.00  0.00     0.037 A 
ATOM     51  C   UNL A   1      37.711  32.630  31.580  1.00  0.00     0.037 A 
ATOM     52  C   UNL A   1      42.316  30.283  35.549  1.00  0.00     0.049 A 
ATOM     53  C   UNL A   1      38.148  32.988  32.979  1.00  0.00     0.074 A 
ATOM     54  C   UNL A   1      42.705  30.769  36.786  1.00  0.00     0.029 A 
ATOM     55  N   UNL A   1      41.260  31.076  35.124  1.00  0.00    -0.354 N 
ATOM     56  N   UNL A   1      39.116  32.472  33.699  1.00  0.00    -0.248 NA
ATOM     57  C   UNL A   1      37.403  34.057  33.661  1.00  0.00     0.031 C 
ATOM     58  C   UNL A   1      41.845  31.813  37.136  1.00  0.00     0.029 A 
ATOM     59  C   UNL A   1      40.959  32.021  36.091  1.00  0.00     0.049 A 
ATOM     60  H   UNL A   1      40.794  30.982  34.262  1.00  0.00     0.167 HD
ATOM     61  C   UNL A   1      39.110  33.167  34.905  1.00  0.00     0.074 A 
ATOM     62  C   UNL A   1      38.053  34.151  34.813  1.00  0.00     0.031 C 
ATOM     63  C   UNL A   1      39.906  33.003  35.990  1.00  0.00     0.037 A 
BRANCH  50  64
ATOM     64  C   UNL A   1      43.948  28.358  35.466  1.00  0.00     0.058 A 
ATOM     65  C   UNL A   1      43.664  27.255  36.286  1.00  0.00     0.135 A 
ATOM     66  C   UNL A   1      45.298  28.660  35.221  1.00  0.00     0.135 A 
ATOM     67  F   UNL A   1      42.392  26.929  36.566  1.00  0.00    -0.206 F 
ATOM     68  C   UNL A   1      44.678  26.494  36.858  1.00  0.00     0.059 A 
ATOM     69  C   UNL A   1      46.329  27.895  35.759  1.00  0.00     0.059 A 
ATOM     70  F   UNL A   1      45.627  29.704  34.445  1.00  0.00    -0.206 F 
ATOM     71  C   UNL A   1      46.008  26.821  36.586  1.00  0.00     0.060 A 
BRANCH  71  72
ATOM     72  S   UNL A   1      47.312  25.813  37.324  1.00  0.00     0.124 S 
ATOM     73  O   UNL A   1      48.509  26.415  36.747  1.00  0.00    -0.237 OA
ATOM     74  O   UNL A   1      47.112  26.046  38.752  1.00  0.00    -0.237 OA
ATOM     75  O   UNL A   1      47.004  24.464  36.863  1.00  0.00    -0.744 OA
ENDBRANCH  71  72
ENDBRANCH  50  64
BRANCH  51  76
ATOM     76  C   UNL A   1      36.572  33.343  30.938  1.00  0.00     0.058 A 
ATOM     77  C   UNL A   1      35.259  33.194  31.411  1.00  0.00     0.135 A 
ATOM     78  C   UNL A   1      36.773  34.183  29.830  1.00  0.00     0.135 A 
ATOM     79  F   UNL A   1      35.011  32.388  32.456  1.00  0.00    -0.206 F 
ATOM     80  C   UNL A   1      34.186  33.838  30.803  1.00  0.00     0.059 A 
ATOM     81  C   UNL A   1      35.720  34.862  29.224  1.00  0.00     0.059 A 
ATOM     82  F   UNL A   1      38.008  34.366  29.338  1.00  0.00    -0.206 F 
ATOM     83  C   UNL A   1      34.428  34.675  29.713  1.00  0.00     0.060 A 
BRANCH  83  84
ATOM     84  S   UNL A   1      33.036  35.546  28.961  1.00  0.00     0.124 S 
ATOM     85  O   UNL A   1      32.204  35.832  30.123  1.00  0.00    -0.237 OA
ATOM     86  O   UNL A   1      33.691  36.696  28.346  1.00  0.00    -0.237 OA
ATOM     87  O   UNL A   1      32.495  34.567  28.022  1.00  0.00    -0.744 OA
ENDBRANCH  83  84
ENDBRANCH  51  76
BRANCH  63  88
ATOM     88  C   UNL A   1      39.690  33.916  37.169  1.00  0.00     0.058 A 
ATOM     89  C   UNL A   1      39.012  33.485  38.321  1.00  0.00     0.135 A 
ATOM     90  C   UNL A   1      40.241  35.208  37.181  1.00  0.00     0.135 A 
ATOM     91  F   UNL A   1      38.458  32.264  38.361  1.00  0.00    -0.206 F 
ATOM     92  C   UNL A   1      38.881  34.306  39.437  1.00  0.00     0.059 A 
ATOM     93  C   UNL A   1      40.148  36.034  38.297  1.00  0.00     0.059 A 
ATOM     94  F   UNL A   1      40.907  35.669  36.110  1.00  0.00    -0.206 F 
ATOM     95  C   UNL A   1      39.461  35.575  39.420  1.00  0.00     0.060 A 
BRANCH  95  96
ATOM     96  S   UNL A   1      39.335  36.603  40.900  1.00  0.00     0.124 S 
ATOM     97  O   UNL A   1      38.067  36.153  41.465  1.00  0.00    -0.237 OA
ATOM     98  O   UNL A   1      40.532  36.223  41.644  1.00  0.00    -0.237 OA
ATOM     99  O   UNL A   1      39.339  37.964  40.371  1.00  0.00    -0.744 OA
ENDBRANCH  95  96
ENDBRANCH  63  88
ENDBRANCH  37  38
ENDBRANCH  30  32
ENDBRANCH  29  30
ENDBRANCH  28  29
ENDBRANCH  27  28
ENDBRANCH   1  27
TORSDOF 22
ENDMDL
MODEL 2
REMARK VINA RESULT:     -10.6      6.081      8.311
REMARK SMILES CCC[C@H](CNC(=O)N1C[C@H]2CCC[N@H+]2C[C@@H]1C)C(=O)OCCOCCOC(=O)c1ccc(-c2c3nc(c(-c4c(F)cc(S(=O)(=O)[O-])cc4F)c4ccc([nH]4)c(-c4c(F)cc(S(=O)(=O)[O-])cc4F)c4nc(c(-c5c(F)cc(S(=O)(=O)[O-])cc5F)c5ccc2[nH]5)C=C4)C=C3)cc1
REMARK SMILES IDX 24 1 23 2 22 3 21 4 19 5 20 6 4 7 3 8 2 9 1 10 5 11 6 12
REMARK SMILES IDX 7 13 8 15 9 16 10 17 17 18 11 19 16 20 18 21 12 22 15 23
REMARK SMILES IDX 13 24 14 25 25 27 26 28 27 29 28 30 29 31 30 32 31 33 95 34
REMARK SMILES IDX 32 35 94 36 33 37 34 38 35 39 88 40 36 41 93 42 87 43 89 44
REMARK SMILES IDX 37 45 92 46 86 47 85 48 38 50 72 51 51 52 71 53 52 54 55 55
REMARK SMILES IDX 70 56 90 57 53 58 54 59 69 61 91 62 56 63 39 64 40 65 49 66
REMARK SMILES IDX 41 67 42 68 48 69 50 70 43 71 44 72 45 73 46 74 47 75 73 76
REMARK SMILES IDX 74 77 83 78 75 79 76 80 82 81 84 82 77 83 78 84 79 85 80 86
REMARK SMILES IDX 81 87 57 88 58 89 67 90 59 91 60 92 66 93 68 94 61 95 62 96
REMARK SMILES IDX 63 97 64 98 65 99
REMARK H PARENT 6 14 15 26 89 49 55 60
REMARK Flexibility Score: inf
ROOT
ATOM      1  O   UNL A   1      38.220  21.366  25.212  1.00  0.00    -0.374 OA
ENDROOT
BRANCH   1   2
ATOM      2  C   UNL A   1      37.653  22.664  25.404  1.00  0.00     0.202 C 
BRANCH   2   3
ATOM      3  C   UNL A   1      36.920  23.285  24.214  1.00  0.00     0.261 C 
BRANCH   3   4
ATOM      4  O   UNL A   1      35.693  23.896  24.645  1.00  0.00    -0.463 OA
BRANCH   4   5
ATOM      5  C   UNL A   1      34.743  24.067  23.697  1.00  0.00     0.310 C 
ATOM      6  O   UNL A   1      34.809  23.638  22.550  1.00  0.00    -0.252 OA
BRANCH   5   7
ATOM      7  C   UNL A   1      33.548  24.862  24.191  1.00  0.00     0.118 C 
BRANCH   7   8
ATOM      8  C   UNL A   1      33.766  25.281  25.652  1.00  0.00     0.017 C 
BRANCH   8   9
ATOM      9  C   UNL A   1      33.622  26.803  25.821  1.00  0.00    -0.002 C 
ATOM     10  C   UNL A   1      33.609  27.548  24.490  1.00  0.00     0.004 C 
ENDBRANCH   8   9
ENDBRANCH   7   8
BRANCH   7  11
ATOM     11  C   UNL A   1      32.136  24.323  23.892  1.00  0.00     0.133 C 
BRANCH  11  12
ATOM     12  N   UNL A   1      31.497  23.542  24.929  1.00  0.00    -0.337 N 
ATOM     13  C   UNL A   1      31.527  22.253  25.298  1.00  0.00     0.318 C 
ATOM     14  H   UNL A   1      30.901  24.084  25.496  1.00  0.00     0.165 HD
ATOM     15  O   UNL A   1      30.540  21.861  25.924  1.00  0.00    -0.249 OA
BRANCH  13  16
ATOM     16  N   UNL A   1      32.557  21.428  24.972  1.00  0.00    -0.311 N 
ATOM     17  C   UNL A   1      32.281  20.423  23.948  1.00  0.00     0.186 C 
ATOM     18  C   UNL A   1      33.892  21.357  25.605  1.00  0.00     0.139 C 
ATOM     19  C   UNL A   1      32.682  19.005  24.371  1.00  0.00     0.204 C 
ATOM     20  C   UNL A   1      34.740  20.149  25.090  1.00  0.00     0.287 C 
ATOM     21  C   UNL A   1      33.824  21.345  27.137  1.00  0.00     0.037 C 
ATOM     22  C   UNL A   1      32.657  18.056  23.174  1.00  0.00     0.073 C 
ATOM     23  N   UNL A   1      34.028  18.870  24.981  1.00  0.00    -0.329 N 
ATOM     24  C   UNL A   1      33.731  17.041  23.497  1.00  0.00     0.068 C 
ATOM     25  C   UNL A   1      34.782  17.883  24.195  1.00  0.00     0.262 C 
ATOM     26  H   UNL A   1      33.927  18.547  25.944  1.00  0.00     0.348 HD
ENDBRANCH  13  16
ENDBRANCH  11  12
ENDBRANCH   7  11
ENDBRANCH   5   7
ENDBRANCH   4   5
ENDBRANCH   3   4
ENDBRANCH   2   3
ENDBRANCH   1   2
BRANCH   1  27
ATOM     27  C   UNL A   1      39.415  21.060  25.927  1.00  0.00     0.202 C 
BRANCH  27  28
ATOM     28  C   UNL A   1      39.808  19.580  26.060  1.00  0.00     0.261 C 
BRANCH  28  29
ATOM     29  O   UNL A   1      41.047  19.271  25.397  1.00  0.00    -0.460 OA
BRANCH  29  30
ATOM     30  C   UNL A   1      42.132  19.209  26.217  1.00  0.00     0.338 C 
ATOM     31  O   UNL A   1      42.667  18.199  26.638  1.00  0.00    -0.246 OA
BRANCH  30  32
ATOM     32  C   UNL A   1      42.732  20.550  26.370  1.00  0.00     0.060 A 
ATOM     33  C   UNL A   1      42.721  21.125  27.649  1.00  0.00     0.016 A 
ATOM     34  C   UNL A   1      43.248  21.256  25.285  1.00  0.00     0.016 A 
ATOM     35  C   UNL A   1      43.217  22.414  27.845  1.00  0.00     0.010 A 
ATOM     36  C   UNL A   1      43.736  22.554  25.482  1.00  0.00     0.010 A 
ATOM     37  C   UNL A   1      43.705  23.149  26.758  1.00  0.00    -0.014 A 
BRANCH  37  38
ATOM     38  C   UNL A   1      44.080  24.577  26.931  1.00  0.00     0.031 A 
ATOM     39  C   UNL A   1      45.516  24.986  26.743  1.00  0.00     0.074 A 
ATOM     40  C   UNL A   1      43.153  25.504  27.242  1.00  0.00     0.049 A 
ATOM     41  N   UNL A   1      46.075  26.156  26.917  1.00  0.00    -0.248 NA
ATOM     42  C   UNL A   1      46.447  23.935  26.304  1.00  0.00     0.031 C 
ATOM     43  C   UNL A   1      41.725  25.243  27.416  1.00  0.00     0.029 A 
ATOM     44  N   UNL A   1      43.280  26.851  27.480  1.00  0.00    -0.354 N 
ATOM     45  C   UNL A   1      47.423  25.980  26.627  1.00  0.00     0.074 A 
ATOM     46  C   UNL A   1      47.603  24.584  26.288  1.00  0.00     0.031 C 
ATOM     47  C   UNL A   1      41.109  26.392  27.744  1.00  0.00     0.029 A 
ATOM     48  C   UNL A   1      42.104  27.459  27.850  1.00  0.00     0.049 A 
ATOM     49  H   UNL A   1      44.133  27.335  27.393  1.00  0.00     0.167 HD
ATOM     50  C   UNL A   1      48.418  26.898  26.636  1.00  0.00     0.037 A 
ATOM     51  C   UNL A   1      41.861  28.720  28.262  1.00  0.00     0.037 A 
ATOM     52  C   UNL A   1      48.233  28.288  26.966  1.00  0.00     0.049 A 
ATOM     53  C   UNL A   1      43.000  29.708  28.340  1.00  0.00     0.074 A 
ATOM     54  C   UNL A   1      49.175  29.302  26.967  1.00  0.00     0.029 A 
ATOM     55  N   UNL A   1      47.034  28.857  27.366  1.00  0.00    -0.354 N 
ATOM     56  N   UNL A   1      44.263  29.538  28.028  1.00  0.00    -0.248 NA
ATOM     57  C   UNL A   1      42.685  31.057  28.832  1.00  0.00     0.031 C 
ATOM     58  C   UNL A   1      48.561  30.469  27.429  1.00  0.00     0.029 A 
ATOM     59  C   UNL A   1      47.220  30.199  27.654  1.00  0.00     0.049 A 
ATOM     60  H   UNL A   1      46.176  28.379  27.433  1.00  0.00     0.167 HD
ATOM     61  C   UNL A   1      44.885  30.760  28.266  1.00  0.00     0.074 A 
ATOM     62  C   UNL A   1      43.857  31.667  28.731  1.00  0.00     0.031 C 
ATOM     63  C   UNL A   1      46.189  31.099  28.114  1.00  0.00     0.037 A 
BRANCH  50  64
ATOM     64  C   UNL A   1      49.810  26.428  26.309  1.00  0.00     0.058 A 
ATOM     65  C   UNL A   1      50.315  26.455  24.999  1.00  0.00     0.135 A 
ATOM     66  C   UNL A   1      50.669  25.994  27.332  1.00  0.00     0.135 A 
ATOM     67  F   UNL A   1      49.533  26.848  23.981  1.00  0.00    -0.206 F 
ATOM     68  C   UNL A   1      51.613  26.047  24.712  1.00  0.00     0.059 A 
ATOM     69  C   UNL A   1      51.982  25.609  27.072  1.00  0.00     0.059 A 
ATOM     70  F   UNL A   1      50.240  25.948  28.603  1.00  0.00    -0.206 F 
ATOM     71  C   UNL A   1      52.440  25.628  25.757  1.00  0.00     0.060 A 
BRANCH  71  72
ATOM     72  S   UNL A   1      54.127  25.117  25.368  1.00  0.00     0.124 S 
ATOM     73  O   UNL A   1      53.918  23.750  24.901  1.00  0.00    -0.237 OA
ATOM     74  O   UNL A   1      54.516  26.082  24.344  1.00  0.00    -0.237 OA
ATOM     75  O   UNL A   1      54.826  25.243  26.642  1.00  0.00    -0.744 OA
ENDBRANCH  71  72
ENDBRANCH  50  64
BRANCH  51  76
ATOM     76  C   UNL A   1      40.487  29.119  28.672  1.00  0.00     0.058 A 
ATOM     77  C   UNL A   1      39.509  29.448  27.721  1.00  0.00     0.135 A 
ATOM     78  C   UNL A   1      40.125  29.191  30.028  1.00  0.00     0.135 A 
ATOM     79  F   UNL A   1      39.808  29.414  26.413  1.00  0.00    -0.206 F 
ATOM     80  C   UNL A   1      38.229  29.845  28.096  1.00  0.00     0.059 A 
ATOM     81  C   UNL A   1      38.843  29.555  30.427  1.00  0.00     0.059 A 
ATOM     82  F   UNL A   1      41.019  28.884  30.981  1.00  0.00    -0.206 F 
ATOM     83  C   UNL A   1      37.904  29.889  29.453  1.00  0.00     0.060 A 
BRANCH  83  84
ATOM     84  S   UNL A   1      36.226  30.358  29.929  1.00  0.00     0.124 S 
ATOM     85  O   UNL A   1      35.428  29.648  28.936  1.00  0.00    -0.237 OA
ATOM     86  O   UNL A   1      36.143  29.852  31.295  1.00  0.00    -0.237 OA
ATOM     87  O   UNL A   1      36.236  31.813  29.807  1.00  0.00    -0.744 OA
ENDBRANCH  83  84
ENDBRANCH  51  76
BRANCH  63  88
ATOM     88  C   UNL A   1      46.592  32.515  28.432  1.00  0.00     0.058 A 
ATOM     89  C   UNL A   1      46.525  33.535  27.469  1.00  0.00     0.135 A 
ATOM     90  C   UNL A   1      46.967  32.874  29.738  1.00  0.00     0.135 A 
ATOM     91  F   UNL A   1      46.182  33.248  26.204  1.00  0.00    -0.206 F 
ATOM     92  C   UNL A   1      46.825  34.856  27.787  1.00  0.00     0.059 A 
ATOM     93  C   UNL A   1      47.242  34.194  30.084  1.00  0.00     0.059 A 
ATOM     94  F   UNL A   1      47.039  31.942  30.701  1.00  0.00    -0.206 F 
ATOM     95  C   UNL A   1      47.173  35.178  29.100  1.00  0.00     0.060 A 
BRANCH  95  96
ATOM     96  S   UNL A   1      47.499  36.907  29.508  1.00  0.00     0.124 S 
ATOM     97  O   UNL A   1      47.387  36.894  30.963  1.00  0.00    -0.237 OA
ATOM     98  O   UNL A   1      48.845  37.102  28.977  1.00  0.00    -0.237 OA
ATOM     99  O   UNL A   1      46.443  37.629  28.804  1.00  0.00    -0.744 OA
ENDBRANCH  95  96
ENDBRANCH  63  88
ENDBRANCH  37  38
ENDBRANCH  30  32
ENDBRANCH  29  30
ENDBRANCH  28  29
ENDBRANCH  27  28
ENDBRANCH   1  27
TORSDOF 22
ENDMDL
MODEL 3
REMARK VINA RESULT:     -10.2      1.748      8.627
REMARK SMILES CCC[C@H](CNC(=O)N1C[C@H]2CCC[N@H+]2C[C@@H]1C)C(=O)OCCOCCOC(=O)c1ccc(-c2c3nc(c(-c4c(F)cc(S(=O)(=O)[O-])cc4F)c4ccc([nH]4)c(-c4c(F)cc(S(=O)(=O)[O-])cc4F)c4nc(c(-c5c(F)cc(S(=O)(=O)[O-])cc5F)c5ccc2[nH]5)C=C4)C=C3)cc1
REMARK SMILES IDX 24 1 23 2 22 3 21 4 19 5 20 6 4 7 3 8 2 9 1 10 5 11 6 12
REMARK SMILES IDX 7 13 8 15 9 16 10 17 17 18 11 19 16 20 18 21 12 22 15 23
REMARK SMILES IDX 13 24 14 25 25 27 26 28 27 29 28 30 29 31 30 32 31 33 95 34
REMARK SMILES IDX 32 35 94 36 33 37 34 38 35 39 88 40 36 41 93 42 87 43 89 44
REMARK SMILES IDX 37 45 92 46 86 47 85 48 38 50 72 51 51 52 71 53 52 54 55 55
REMARK SMILES IDX 70 56 90 57 53 58 54 59 69 61 91 62 56 63 39 64 40 65 49 66
REMARK SMILES IDX 41 67 42 68 48 69 50 70 43 71 44 72 45 73 46 74 47 75 73 76
REMARK SMILES IDX 74 77 83 78 75 79 76 80 82 81 84 82 77 83 78 84 79 85 80 86
REMARK SMILES IDX 81 87 57 88 58 89 67 90 59 91 60 92 66 93 68 94 61 95 62 96
REMARK SMILES IDX 63 97 64 98 65 99
REMARK H PARENT 6 14 15 26 89 49 55 60
REMARK Flexibility Score: inf
ROOT
ATOM      1  O   UNL A   1      40.622  21.673  26.888  1.00  0.00    -0.374 OA
ENDROOT
BRANCH   1   2
ATOM      2  C   UNL A   1      39.482  21.362  26.084  1.00  0.00     0.202 C 
BRANCH   2   3
ATOM      3  C   UNL A   1      38.403  22.440  25.964  1.00  0.00     0.261 C 
BRANCH   3   4
ATOM      4  O   UNL A   1      37.635  22.246  24.765  1.00  0.00    -0.463 OA
BRANCH   4   5
ATOM      5  C   UNL A   1      36.350  21.859  24.932  1.00  0.00     0.310 C 
ATOM      6  O   UNL A   1      35.983  20.706  25.129  1.00  0.00    -0.252 OA
BRANCH   5   7
ATOM      7  C   UNL A   1      35.367  23.014  24.856  1.00  0.00     0.118 C 
BRANCH   7   8
ATOM      8  C   UNL A   1      35.100  23.567  26.263  1.00  0.00     0.017 C 
BRANCH   8   9
ATOM      9  C   UNL A   1      33.708  23.151  26.768  1.00  0.00    -0.002 C 
ATOM     10  C   UNL A   1      33.724  21.830  27.529  1.00  0.00     0.004 C 
ENDBRANCH   8   9
ENDBRANCH   7   8
BRANCH   7  11
ATOM     11  C   UNL A   1      34.103  22.844  23.992  1.00  0.00     0.133 C 
BRANCH  11  12
ATOM     12  N   UNL A   1      34.061  23.562  22.738  1.00  0.00    -0.337 N 
ATOM     13  C   UNL A   1      33.310  24.556  22.240  1.00  0.00     0.318 C 
ATOM     14  H   UNL A   1      34.743  23.248  22.100  1.00  0.00     0.165 HD
ATOM     15  O   UNL A   1      33.257  24.611  21.010  1.00  0.00    -0.249 OA
BRANCH  13  16
ATOM     16  N   UNL A   1      32.627  25.419  23.038  1.00  0.00    -0.311 N 
ATOM     17  C   UNL A   1      33.431  26.398  23.768  1.00  0.00     0.186 C 
ATOM     18  C   UNL A   1      31.179  25.418  23.339  1.00  0.00     0.139 C 
ATOM     19  C   UNL A   1      33.119  26.437  25.267  1.00  0.00     0.204 C 
ATOM     20  C   UNL A   1      30.795  26.443  24.455  1.00  0.00     0.287 C 
ATOM     21  C   UNL A   1      30.645  24.024  23.690  1.00  0.00     0.037 C 
ATOM     22  C   UNL A   1      33.753  27.664  25.920  1.00  0.00     0.073 C 
ATOM     23  N   UNL A   1      31.679  26.473  25.627  1.00  0.00    -0.329 N 
ATOM     24  C   UNL A   1      32.808  28.000  27.052  1.00  0.00     0.068 C 
ATOM     25  C   UNL A   1      31.452  27.661  26.461  1.00  0.00     0.262 C 
ATOM     26  H   UNL A   1      31.445  25.629  26.150  1.00  0.00     0.348 HD
ENDBRANCH  13  16
ENDBRANCH  11  12
ENDBRANCH   7  11
ENDBRANCH   5   7
ENDBRANCH   4   5
ENDBRANCH   3   4
ENDBRANCH   2   3
ENDBRANCH   1   2
BRANCH   1  27
ATOM     27  C   UNL A   1      41.870  21.844  26.220  1.00  0.00     0.202 C 
BRANCH  27  28
ATOM     28  C   UNL A   1      42.274  23.271  25.814  1.00  0.00     0.261 C 
BRANCH  28  29
ATOM     29  O   UNL A   1      41.362  24.269  26.305  1.00  0.00    -0.460 OA
BRANCH  29  30
ATOM     30  C   UNL A   1      41.762  25.555  26.104  1.00  0.00     0.338 C 
ATOM     31  O   UNL A   1      41.950  26.097  25.030  1.00  0.00    -0.246 OA
BRANCH  30  32
ATOM     32  C   UNL A   1      41.738  26.301  27.379  1.00  0.00     0.060 A 
ATOM     33  C   UNL A   1      40.787  25.920  28.336  1.00  0.00     0.016 A 
ATOM     34  C   UNL A   1      42.586  27.380  27.619  1.00  0.00     0.016 A 
ATOM     35  C   UNL A   1      40.674  26.626  29.534  1.00  0.00     0.010 A 
ATOM     36  C   UNL A   1      42.464  28.094  28.818  1.00  0.00     0.010 A 
ATOM     37  C   UNL A   1      41.495  27.734  29.774  1.00  0.00    -0.014 A 
BRANCH  37  38
ATOM     38  C   UNL A   1      41.267  28.586  30.971  1.00  0.00     0.031 A 
ATOM     39  C   UNL A   1      40.156  29.601  30.948  1.00  0.00     0.074 A 
ATOM     40  C   UNL A   1      42.032  28.453  32.072  1.00  0.00     0.049 A 
ATOM     41  N   UNL A   1      39.829  30.493  31.847  1.00  0.00    -0.248 NA
ATOM     42  C   UNL A   1      39.302  29.613  29.751  1.00  0.00     0.031 C 
ATOM     43  C   UNL A   1      43.116  27.484  32.233  1.00  0.00     0.029 A 
ATOM     44  N   UNL A   1      42.021  29.146  33.258  1.00  0.00    -0.354 N 
ATOM     45  C   UNL A   1      38.746  31.185  31.319  1.00  0.00     0.074 A 
ATOM     46  C   UNL A   1      38.484  30.624  30.010  1.00  0.00     0.031 C 
ATOM     47  C   UNL A   1      43.673  27.652  33.445  1.00  0.00     0.029 A 
ATOM     48  C   UNL A   1      43.019  28.770  34.126  1.00  0.00     0.049 A 
ATOM     49  H   UNL A   1      41.361  29.846  33.466  1.00  0.00     0.167 HD
ATOM     50  C   UNL A   1      38.031  32.191  31.875  1.00  0.00     0.037 A 
ATOM     51  C   UNL A   1      43.388  29.289  35.315  1.00  0.00     0.037 A 
ATOM     52  C   UNL A   1      38.289  32.741  33.181  1.00  0.00     0.049 A 
ATOM     53  C   UNL A   1      42.625  30.462  35.882  1.00  0.00     0.074 A 
ATOM     54  C   UNL A   1      37.594  33.737  33.846  1.00  0.00     0.029 A 
ATOM     55  N   UNL A   1      39.327  32.355  34.015  1.00  0.00    -0.354 N 
ATOM     56  N   UNL A   1      41.579  31.083  35.389  1.00  0.00    -0.248 NA
ATOM     57  C   UNL A   1      43.094  31.010  37.163  1.00  0.00     0.031 C 
ATOM     58  C   UNL A   1      38.250  33.998  35.052  1.00  0.00     0.029 A 
ATOM     59  C   UNL A   1      39.316  33.120  35.170  1.00  0.00     0.049 A 
ATOM     60  H   UNL A   1      39.976  31.641  33.817  1.00  0.00     0.167 HD
ATOM     61  C   UNL A   1      41.256  32.078  36.306  1.00  0.00     0.074 A 
ATOM     62  C   UNL A   1      42.204  31.966  37.394  1.00  0.00     0.031 C 
ATOM     63  C   UNL A   1      40.264  33.000  36.253  1.00  0.00     0.037 A 
BRANCH  50  64
ATOM     64  C   UNL A   1      36.913  32.791  31.064  1.00  0.00     0.058 A 
ATOM     65  C   UNL A   1      35.564  32.534  31.353  1.00  0.00     0.135 A 
ATOM     66  C   UNL A   1      37.199  33.679  30.014  1.00  0.00     0.135 A 
ATOM     67  F   UNL A   1      35.233  31.682  32.337  1.00  0.00    -0.206 F 
ATOM     68  C   UNL A   1      34.539  33.116  30.616  1.00  0.00     0.059 A 
ATOM     69  C   UNL A   1      36.189  34.297  29.282  1.00  0.00     0.059 A 
ATOM     70  F   UNL A   1      38.471  33.962  29.694  1.00  0.00    -0.206 F 
ATOM     71  C   UNL A   1      34.861  34.000  29.584  1.00  0.00     0.060 A 
BRANCH  71  72
ATOM     72  S   UNL A   1      33.518  34.760  28.648  1.00  0.00     0.124 S 
ATOM     73  O   UNL A   1      32.507  34.944  29.685  1.00  0.00    -0.237 OA
ATOM     74  O   UNL A   1      34.140  35.981  28.147  1.00  0.00    -0.237 OA
ATOM     75  O   UNL A   1      33.199  33.761  27.634  1.00  0.00    -0.744 OA
ENDBRANCH  71  72
ENDBRANCH  50  64
BRANCH  51  76
ATOM     76  C   UNL A   1      44.562  28.730  36.041  1.00  0.00     0.058 A 
ATOM     77  C   UNL A   1      44.416  27.687  36.968  1.00  0.00     0.135 A 
ATOM     78  C   UNL A   1      45.855  29.237  35.829  1.00  0.00     0.135 A 
ATOM     79  F   UNL A   1      43.199  27.180  37.221  1.00  0.00    -0.206 F 
ATOM     80  C   UNL A   1      45.505  27.175  37.668  1.00  0.00     0.059 A 
ATOM     81  C   UNL A   1      46.963  28.721  36.495  1.00  0.00     0.059 A 
ATOM     82  F   UNL A   1      46.053  30.233  34.951  1.00  0.00    -0.206 F 
ATOM     83  C   UNL A   1      46.776  27.696  37.419  1.00  0.00     0.060 A 
BRANCH  83  84
ATOM     84  S   UNL A   1      48.189  26.991  38.297  1.00  0.00     0.124 S 
ATOM     85  O   UNL A   1      49.296  27.382  37.433  1.00  0.00    -0.237 OA
ATOM     86  O   UNL A   1      48.115  27.669  39.588  1.00  0.00    -0.237 OA
ATOM     87  O   UNL A   1      47.886  25.563  38.329  1.00  0.00    -0.744 OA
ENDBRANCH  83  84
ENDBRANCH  51  76
BRANCH  63  88
ATOM     88  C   UNL A   1      40.128  33.959  37.406  1.00  0.00     0.058 A 
ATOM     89  C   UNL A   1      40.765  35.210  37.405  1.00  0.00     0.135 A 
ATOM     90  C   UNL A   1      39.281  33.660  38.487  1.00  0.00     0.135 A 
ATOM     91  F   UNL A   1      41.592  35.545  36.402  1.00  0.00    -0.206 F 
ATOM     92  C   UNL A   1      40.576  36.124  38.437  1.00  0.00     0.059 A 
ATOM     93  C   UNL A   1      39.054  34.571  39.514  1.00  0.00     0.059 A 
ATOM     94  F   UNL A   1      38.638  32.482  38.536  1.00  0.00    -0.206 F 
ATOM     95  C   UNL A   1      39.710  35.800  39.483  1.00  0.00     0.060 A 
BRANCH  95  96
ATOM     96  S   UNL A   1      39.428  37.022  40.782  1.00  0.00     0.124 S 
ATOM     97  O   UNL A   1      38.522  36.305  41.672  1.00  0.00    -0.237 OA
ATOM     98  O   UNL A   1      40.777  37.246  41.294  1.00  0.00    -0.237 OA
ATOM     99  O   UNL A   1      38.841  38.151  40.066  1.00  0.00    -0.744 OA
ENDBRANCH  95  96
ENDBRANCH  63  88
ENDBRANCH  37  38
ENDBRANCH  30  32
ENDBRANCH  29  30
ENDBRANCH  28  29
ENDBRANCH  27  28
ENDBRANCH   1  27
TORSDOF 22
ENDMDL
