MODEL 1
REMARK VINA RESULT:     -12.6      0.000      0.000
REMARK SMILES Cc1c(NC(=O)c2ccc(-c3cccc(Cl)c3)o2)cccc1C(=O)OCCOCCOC(=O)c1ccc(-c2c3nc(c(-c4c(F)cc(S(=O)(=O)[O-])cc4F)c4ccc([nH]4)c(-c4c(F)cc(S(=O)(=O)[O-])cc4F)c4nc(c(-c5c(F)cc(S(=O)(=O)[O-])cc5F)c5ccc2[nH]5)C=C4)C=C3)cc1
REMARK SMILES IDX 28 1 27 2 26 3 25 4 23 5 24 6 22 7 1 8 2 9 3 10 19 11 21 12
REMARK SMILES IDX 20 13 4 14 5 15 6 17 7 18 8 19 18 20 9 21 10 22 11 23 12 24
REMARK SMILES IDX 17 25 13 26 15 27 14 28 16 29 29 30 30 31 31 32 32 33 33 34
REMARK SMILES IDX 34 35 35 36 99 37 36 38 98 39 37 40 38 41 39 42 92 43 40 44
REMARK SMILES IDX 97 45 91 46 93 47 41 48 96 49 90 50 89 51 42 53 76 54 55 55
REMARK SMILES IDX 75 56 56 57 59 58 74 59 94 60 57 61 58 62 73 64 95 65 60 66
REMARK SMILES IDX 43 67 44 68 53 69 45 70 46 71 52 72 54 73 47 74 48 75 49 76
REMARK SMILES IDX 50 77 51 78 77 79 78 80 87 81 79 82 80 83 86 84 88 85 81 86
REMARK SMILES IDX 82 87 83 88 84 89 85 90 61 91 62 92 71 93 63 94 64 95 70 96
REMARK SMILES IDX 72 97 65 98 66 99 67 100 68 101 69 102
REMARK H PARENT 4 16 93 52 59 63
REMARK Flexibility Score: inf
ROOT
ATOM      1  O   UNL A   1      32.337  29.369  25.259  1.00  0.00    -0.374 OA
ENDROOT
BRANCH   1   2
ATOM      2  C   UNL A   1      31.719  28.101  25.105  1.00  0.00     0.202 C 
BRANCH   2   3
ATOM      3  C   UNL A   1      31.699  27.522  26.480  1.00  0.00     0.261 C 
BRANCH   3   4
ATOM      4  O   UNL A   1      31.875  26.093  26.472  1.00  0.00    -0.460 OA
BRANCH   4   5
ATOM      5  C   UNL A   1      30.890  25.239  26.147  1.00  0.00     0.338 C 
ATOM      6  O   UNL A   1      29.755  25.204  26.567  1.00  0.00    -0.246 OA
BRANCH   5   7
ATOM      7  C   UNL A   1      31.429  24.295  25.136  1.00  0.00     0.065 A 
ATOM      8  C   UNL A   1      32.315  22.497  26.800  1.00  0.00     0.047 C 
ATOM      9  C   UNL A   1      32.024  23.033  25.411  1.00  0.00    -0.013 A 
ATOM     10  C   UNL A   1      32.362  22.218  24.313  1.00  0.00     0.045 A 
ATOM     11  C   UNL A   1      32.144  22.682  23.007  1.00  0.00     0.026 A 
ATOM     12  C   UNL A   1      31.319  24.769  23.815  1.00  0.00     0.016 A 
ATOM     13  C   UNL A   1      31.688  23.969  22.751  1.00  0.00     0.003 A 
BRANCH  10  14
ATOM     14  N   UNL A   1      32.890  20.935  24.587  1.00  0.00    -0.319 N 
ATOM     15  C   UNL A   1      34.187  20.493  24.705  1.00  0.00     0.291 C 
ATOM     16  H   UNL A   1      32.210  20.235  24.715  1.00  0.00     0.170 HD
ATOM     17  O   UNL A   1      34.388  19.291  24.882  1.00  0.00    -0.265 OA
BRANCH  15  18
ATOM     18  C   UNL A   1      35.234  21.474  24.671  1.00  0.00     0.192 A 
ATOM     19  C   UNL A   1      35.475  22.547  23.831  1.00  0.00     0.057 A 
ATOM     20  O   UNL A   1      36.306  21.266  25.485  1.00  0.00    -0.451 OA
ATOM     21  C   UNL A   1      36.798  22.967  24.103  1.00  0.00     0.052 A 
ATOM     22  C   UNL A   1      37.266  22.149  25.110  1.00  0.00     0.135 A 
BRANCH  22  23
ATOM     23  C   UNL A   1      38.522  22.033  25.816  1.00  0.00     0.019 A 
ATOM     24  C   UNL A   1      38.950  23.094  26.619  1.00  0.00     0.012 A 
ATOM     25  C   UNL A   1      39.310  20.878  25.712  1.00  0.00     0.032 A 
ATOM     26  C   UNL A   1      40.150  23.007  27.319  1.00  0.00     0.002 A 
ATOM     27  C   UNL A   1      40.516  20.803  26.405  1.00  0.00     0.041 A 
ATOM     28  C   UNL A   1      40.937  21.862  27.210  1.00  0.00     0.020 A 
ATOM     29  Cl  UNL A   1      41.500  19.396  26.273  1.00  0.00    -0.084 Cl
ENDBRANCH  22  23
ENDBRANCH  15  18
ENDBRANCH  10  14
ENDBRANCH   5   7
ENDBRANCH   4   5
ENDBRANCH   3   4
ENDBRANCH   2   3
ENDBRANCH   1   2
BRANCH   1  30
ATOM     30  C   UNL A   1      31.531  30.400  25.764  1.00  0.00     0.202 C 
BRANCH  30  31
ATOM     31  C   UNL A   1      32.242  31.177  26.871  1.00  0.00     0.261 C 
BRANCH  31  32
ATOM     32  O   UNL A   1      33.419  30.463  27.316  1.00  0.00    -0.460 OA
BRANCH  32  33
ATOM     33  C   UNL A   1      34.514  31.220  27.635  1.00  0.00     0.338 C 
ATOM     34  O   UNL A   1      34.552  32.432  27.520  1.00  0.00    -0.246 OA
BRANCH  33  35
ATOM     35  C   UNL A   1      35.608  30.369  28.197  1.00  0.00     0.060 A 
ATOM     36  C   UNL A   1      35.598  29.922  29.535  1.00  0.00     0.016 A 
ATOM     37  C   UNL A   1      36.745  30.173  27.423  1.00  0.00     0.016 A 
ATOM     38  C   UNL A   1      36.774  29.419  30.133  1.00  0.00     0.010 A 
ATOM     39  C   UNL A   1      37.913  29.773  28.035  1.00  0.00     0.010 A 
ATOM     40  C   UNL A   1      37.957  29.420  29.397  1.00  0.00    -0.014 A 
BRANCH  40  41
ATOM     41  C   UNL A   1      39.326  29.179  29.882  1.00  0.00     0.031 A 
ATOM     42  C   UNL A   1      39.988  27.934  29.424  1.00  0.00     0.074 A 
ATOM     43  C   UNL A   1      40.081  30.196  30.374  1.00  0.00     0.049 A 
ATOM     44  N   UNL A   1      41.199  27.623  29.712  1.00  0.00    -0.248 NA
ATOM     45  C   UNL A   1      39.333  26.904  28.614  1.00  0.00     0.031 C 
ATOM     46  C   UNL A   1      41.531  30.396  30.262  1.00  0.00     0.029 A 
ATOM     47  N   UNL A   1      39.679  31.335  31.073  1.00  0.00    -0.354 N 
ATOM     48  C   UNL A   1      41.584  26.587  28.897  1.00  0.00     0.074 A 
ATOM     49  C   UNL A   1      40.358  26.092  28.329  1.00  0.00     0.031 C 
ATOM     50  C   UNL A   1      41.919  31.408  31.060  1.00  0.00     0.029 A 
ATOM     51  C   UNL A   1      40.755  31.832  31.818  1.00  0.00     0.049 A 
ATOM     52  H   UNL A   1      38.777  31.728  31.047  1.00  0.00     0.167 HD
ATOM     53  C   UNL A   1      42.919  26.374  28.739  1.00  0.00     0.037 A 
ATOM     54  C   UNL A   1      40.636  31.963  33.165  1.00  0.00     0.037 A 
ATOM     55  C   UNL A   1      43.668  27.188  29.712  1.00  0.00     0.049 A 
ATOM     56  C   UNL A   1      41.532  30.924  33.774  1.00  0.00     0.074 A 
ATOM     57  C   UNL A   1      44.455  28.322  29.616  1.00  0.00     0.029 A 
ATOM     58  N   UNL A   1      43.370  27.038  31.070  1.00  0.00    -0.354 N 
ATOM     59  N   UNL A   1      41.890  29.850  33.119  1.00  0.00    -0.248 NA
ATOM     60  C   UNL A   1      42.236  31.067  35.043  1.00  0.00     0.031 C 
ATOM     61  C   UNL A   1      44.515  28.916  30.917  1.00  0.00     0.029 A 
ATOM     62  C   UNL A   1      43.802  28.124  31.809  1.00  0.00     0.049 A 
ATOM     63  H   UNL A   1      42.910  26.256  31.453  1.00  0.00     0.167 HD
ATOM     64  C   UNL A   1      42.915  29.245  33.768  1.00  0.00     0.074 A 
ATOM     65  C   UNL A   1      43.061  30.004  34.999  1.00  0.00     0.031 C 
ATOM     66  C   UNL A   1      43.586  28.176  33.255  1.00  0.00     0.037 A 
BRANCH  53  67
ATOM     67  C   UNL A   1      43.572  25.549  27.643  1.00  0.00     0.058 A 
ATOM     68  C   UNL A   1      43.902  24.197  27.880  1.00  0.00     0.135 A 
ATOM     69  C   UNL A   1      43.978  26.030  26.376  1.00  0.00     0.135 A 
ATOM     70  F   UNL A   1      43.615  23.610  29.052  1.00  0.00    -0.206 F 
ATOM     71  C   UNL A   1      44.557  23.391  26.942  1.00  0.00     0.059 A 
ATOM     72  C   UNL A   1      44.594  25.232  25.407  1.00  0.00     0.059 A 
ATOM     73  F   UNL A   1      43.859  27.315  26.026  1.00  0.00    -0.206 F 
ATOM     74  C   UNL A   1      44.891  23.913  25.700  1.00  0.00     0.060 A 
BRANCH  74  75
ATOM     75  S   UNL A   1      45.725  22.864  24.493  1.00  0.00     0.124 S 
ATOM     76  O   UNL A   1      46.698  23.785  23.914  1.00  0.00    -0.237 OA
ATOM     77  O   UNL A   1      46.272  21.803  25.330  1.00  0.00    -0.237 OA
ATOM     78  O   UNL A   1      44.648  22.453  23.595  1.00  0.00    -0.744 OA
ENDBRANCH  74  75
ENDBRANCH  53  67
BRANCH  54  79
ATOM     79  C   UNL A   1      39.272  32.462  33.554  1.00  0.00     0.058 A 
ATOM     80  C   UNL A   1      38.983  33.805  33.209  1.00  0.00     0.135 A 
ATOM     81  C   UNL A   1      38.168  31.601  33.679  1.00  0.00     0.135 A 
ATOM     82  F   UNL A   1      39.988  34.683  33.050  1.00  0.00    -0.206 F 
ATOM     83  C   UNL A   1      37.700  34.232  32.851  1.00  0.00     0.059 A 
ATOM     84  C   UNL A   1      36.876  32.002  33.297  1.00  0.00     0.059 A 
ATOM     85  F   UNL A   1      38.354  30.311  33.995  1.00  0.00    -0.206 F 
ATOM     86  C   UNL A   1      36.661  33.304  32.834  1.00  0.00     0.060 A 
BRANCH  86  87
ATOM     87  S   UNL A   1      35.144  33.720  31.908  1.00  0.00     0.124 S 
ATOM     88  O   UNL A   1      35.494  33.327  30.550  1.00  0.00    -0.237 OA
ATOM     89  O   UNL A   1      34.129  32.892  32.561  1.00  0.00    -0.237 OA
ATOM     90  O   UNL A   1      34.999  35.150  32.150  1.00  0.00    -0.744 OA
ENDBRANCH  86  87
ENDBRANCH  54  79
BRANCH  66  91
ATOM     91  C   UNL A   1      44.134  27.108  34.155  1.00  0.00     0.058 A 
ATOM     92  C   UNL A   1      45.477  27.093  34.576  1.00  0.00     0.135 A 
ATOM     93  C   UNL A   1      43.283  26.164  34.767  1.00  0.00     0.135 A 
ATOM     94  F   UNL A   1      46.353  28.035  34.194  1.00  0.00    -0.206 F 
ATOM     95  C   UNL A   1      45.973  26.127  35.437  1.00  0.00     0.059 A 
ATOM     96  C   UNL A   1      43.743  25.239  35.694  1.00  0.00     0.059 A 
ATOM     97  F   UNL A   1      41.970  26.118  34.501  1.00  0.00    -0.206 F 
ATOM     98  C   UNL A   1      45.099  25.194  35.980  1.00  0.00     0.060 A 
BRANCH  98  99
ATOM     99  S   UNL A   1      45.757  23.923  37.060  1.00  0.00     0.124 S 
ATOM    100  O   UNL A   1      45.268  24.377  38.358  1.00  0.00    -0.237 OA
ATOM    101  O   UNL A   1      45.133  22.710  36.541  1.00  0.00    -0.237 OA
ATOM    102  O   UNL A   1      47.198  24.018  36.855  1.00  0.00    -0.744 OA
ENDBRANCH  98  99
ENDBRANCH  66  91
ENDBRANCH  40  41
ENDBRANCH  33  35
ENDBRANCH  32  33
ENDBRANCH  31  32
ENDBRANCH  30  31
ENDBRANCH   1  30
TORSDOF 20
ENDMDL
MODEL 2
REMARK VINA RESULT:     -12.4      3.796     10.279
REMARK SMILES Cc1c(NC(=O)c2ccc(-c3cccc(Cl)c3)o2)cccc1C(=O)OCCOCCOC(=O)c1ccc(-c2c3nc(c(-c4c(F)cc(S(=O)(=O)[O-])cc4F)c4ccc([nH]4)c(-c4c(F)cc(S(=O)(=O)[O-])cc4F)c4nc(c(-c5c(F)cc(S(=O)(=O)[O-])cc5F)c5ccc2[nH]5)C=C4)C=C3)cc1
REMARK SMILES IDX 28 1 27 2 26 3 25 4 23 5 24 6 22 7 1 8 2 9 3 10 19 11 21 12
REMARK SMILES IDX 20 13 4 14 5 15 6 17 7 18 8 19 18 20 9 21 10 22 11 23 12 24
REMARK SMILES IDX 17 25 13 26 15 27 14 28 16 29 29 30 30 31 31 32 32 33 33 34
REMARK SMILES IDX 34 35 35 36 99 37 36 38 98 39 37 40 38 41 39 42 92 43 40 44
REMARK SMILES IDX 97 45 91 46 93 47 41 48 96 49 90 50 89 51 42 53 76 54 55 55
REMARK SMILES IDX 75 56 56 57 59 58 74 59 94 60 57 61 58 62 73 64 95 65 60 66
REMARK SMILES IDX 43 67 44 68 53 69 45 70 46 71 52 72 54 73 47 74 48 75 49 76
REMARK SMILES IDX 50 77 51 78 77 79 78 80 87 81 79 82 80 83 86 84 88 85 81 86
REMARK SMILES IDX 82 87 83 88 84 89 85 90 61 91 62 92 71 93 63 94 64 95 70 96
REMARK SMILES IDX 72 97 65 98 66 99 67 100 68 101 69 102
REMARK H PARENT 4 16 93 52 59 63
REMARK Flexibility Score: inf
ROOT
ATOM      1  O   UNL A   1      35.112  22.514  25.818  1.00  0.00    -0.374 OA
ENDROOT
BRANCH   1   2
ATOM      2  C   UNL A   1      34.328  23.082  26.855  1.00  0.00     0.202 C 
BRANCH   2   3
ATOM      3  C   UNL A   1      32.923  22.714  26.510  1.00  0.00     0.261 C 
BRANCH   3   4
ATOM      4  O   UNL A   1      32.192  23.820  25.951  1.00  0.00    -0.460 OA
BRANCH   4   5
ATOM      5  C   UNL A   1      31.675  23.800  24.711  1.00  0.00     0.338 C 
ATOM      6  O   UNL A   1      31.030  22.924  24.179  1.00  0.00    -0.246 OA
BRANCH   5   7
ATOM      7  C   UNL A   1      32.026  25.086  24.057  1.00  0.00     0.065 A 
ATOM      8  C   UNL A   1      29.755  26.296  24.462  1.00  0.00     0.047 C 
ATOM      9  C   UNL A   1      31.193  26.236  23.984  1.00  0.00    -0.013 A 
ATOM     10  C   UNL A   1      31.747  27.409  23.435  1.00  0.00     0.045 A 
ATOM     11  C   UNL A   1      33.063  27.397  22.948  1.00  0.00     0.026 A 
ATOM     12  C   UNL A   1      33.304  25.081  23.468  1.00  0.00     0.016 A 
ATOM     13  C   UNL A   1      33.818  26.231  22.902  1.00  0.00     0.003 A 
BRANCH  10  14
ATOM     14  N   UNL A   1      30.943  28.572  23.426  1.00  0.00    -0.319 N 
ATOM     15  C   UNL A   1      30.784  29.574  24.354  1.00  0.00     0.291 C 
ATOM     16  H   UNL A   1      30.401  28.685  22.612  1.00  0.00     0.170 HD
ATOM     17  O   UNL A   1      29.956  30.458  24.134  1.00  0.00    -0.265 OA
BRANCH  15  18
ATOM     18  C   UNL A   1      31.639  29.561  25.506  1.00  0.00     0.192 A 
ATOM     19  C   UNL A   1      31.778  28.663  26.550  1.00  0.00     0.057 A 
ATOM     20  O   UNL A   1      32.351  30.693  25.765  1.00  0.00    -0.451 OA
ATOM     21  C   UNL A   1      32.559  29.319  27.531  1.00  0.00     0.052 A 
ATOM     22  C   UNL A   1      32.874  30.557  27.011  1.00  0.00     0.135 A 
BRANCH  22  23
ATOM     23  C   UNL A   1      33.609  31.702  27.499  1.00  0.00     0.019 A 
ATOM     24  C   UNL A   1      34.998  31.612  27.628  1.00  0.00     0.012 A 
ATOM     25  C   UNL A   1      32.955  32.894  27.840  1.00  0.00     0.032 A 
ATOM     26  C   UNL A   1      35.734  32.700  28.087  1.00  0.00     0.002 A 
ATOM     27  C   UNL A   1      33.696  33.975  28.311  1.00  0.00     0.041 A 
ATOM     28  C   UNL A   1      35.083  33.883  28.433  1.00  0.00     0.020 A 
ATOM     29  Cl  UNL A   1      32.903  35.439  28.748  1.00  0.00    -0.084 Cl
ENDBRANCH  22  23
ENDBRANCH  15  18
ENDBRANCH  10  14
ENDBRANCH   5   7
ENDBRANCH   4   5
ENDBRANCH   3   4
ENDBRANCH   2   3
ENDBRANCH   1   2
BRANCH   1  30
ATOM     30  C   UNL A   1      36.093  23.342  25.252  1.00  0.00     0.202 C 
BRANCH  30  31
ATOM     31  C   UNL A   1      37.390  22.578  24.991  1.00  0.00     0.261 C 
BRANCH  31  32
ATOM     32  O   UNL A   1      37.984  22.147  26.238  1.00  0.00    -0.460 OA
BRANCH  32  33
ATOM     33  C   UNL A   1      39.300  22.467  26.437  1.00  0.00     0.338 C 
ATOM     34  O   UNL A   1      40.206  21.655  26.389  1.00  0.00    -0.246 OA
BRANCH  33  35
ATOM     35  C   UNL A   1      39.466  23.938  26.652  1.00  0.00     0.060 A 
ATOM     36  C   UNL A   1      40.265  24.733  25.803  1.00  0.00     0.016 A 
ATOM     37  C   UNL A   1      38.963  24.487  27.825  1.00  0.00     0.016 A 
ATOM     38  C   UNL A   1      40.677  26.023  26.207  1.00  0.00     0.010 A 
ATOM     39  C   UNL A   1      39.445  25.703  28.256  1.00  0.00     0.010 A 
ATOM     40  C   UNL A   1      40.327  26.474  27.477  1.00  0.00    -0.014 A 
BRANCH  40  41
ATOM     41  C   UNL A   1      40.840  27.655  28.191  1.00  0.00     0.031 A 
ATOM     42  C   UNL A   1      39.902  28.791  28.364  1.00  0.00     0.074 A 
ATOM     43  C   UNL A   1      41.938  27.567  28.987  1.00  0.00     0.049 A 
ATOM     44  N   UNL A   1      40.188  29.857  29.019  1.00  0.00    -0.248 NA
ATOM     45  C   UNL A   1      38.557  28.842  27.789  1.00  0.00     0.031 C 
ATOM     46  C   UNL A   1      42.221  28.282  30.237  1.00  0.00     0.029 A 
ATOM     47  N   UNL A   1      43.061  26.749  28.853  1.00  0.00    -0.354 N 
ATOM     48  C   UNL A   1      39.024  30.552  29.240  1.00  0.00     0.074 A 
ATOM     49  C   UNL A   1      38.065  29.953  28.350  1.00  0.00     0.031 C 
ATOM     50  C   UNL A   1      43.499  28.075  30.606  1.00  0.00     0.029 A 
ATOM     51  C   UNL A   1      44.138  27.314  29.546  1.00  0.00     0.049 A 
ATOM     52  H   UNL A   1      43.091  25.906  28.347  1.00  0.00     0.167 HD
ATOM     53  C   UNL A   1      39.022  31.473  30.243  1.00  0.00     0.037 A 
ATOM     54  C   UNL A   1      45.286  27.607  28.880  1.00  0.00     0.037 A 
ATOM     55  C   UNL A   1      40.400  31.688  30.718  1.00  0.00     0.049 A 
ATOM     56  C   UNL A   1      45.375  29.104  28.823  1.00  0.00     0.074 A 
ATOM     57  C   UNL A   1      41.088  31.337  31.865  1.00  0.00     0.029 A 
ATOM     58  N   UNL A   1      41.369  32.074  29.787  1.00  0.00    -0.354 N 
ATOM     59  N   UNL A   1      44.315  29.864  28.931  1.00  0.00    -0.248 NA
ATOM     60  C   UNL A   1      46.616  29.869  28.830  1.00  0.00     0.031 C 
ATOM     61  C   UNL A   1      42.486  31.396  31.563  1.00  0.00     0.029 A 
ATOM     62  C   UNL A   1      42.648  31.821  30.249  1.00  0.00     0.049 A 
ATOM     63  H   UNL A   1      41.167  32.476  28.911  1.00  0.00     0.167 HD
ATOM     64  C   UNL A   1      44.698  31.147  29.145  1.00  0.00     0.074 A 
ATOM     65  C   UNL A   1      46.146  31.118  29.014  1.00  0.00     0.031 C 
ATOM     66  C   UNL A   1      43.815  32.144  29.428  1.00  0.00     0.037 A 
BRANCH  53  67
ATOM     67  C   UNL A   1      37.795  32.087  30.893  1.00  0.00     0.058 A 
ATOM     68  C   UNL A   1      37.746  33.477  31.135  1.00  0.00     0.135 A 
ATOM     69  C   UNL A   1      36.673  31.376  31.380  1.00  0.00     0.135 A 
ATOM     70  F   UNL A   1      38.756  34.279  30.765  1.00  0.00    -0.206 F 
ATOM     71  C   UNL A   1      36.677  34.107  31.783  1.00  0.00     0.059 A 
ATOM     72  C   UNL A   1      35.573  31.988  31.991  1.00  0.00     0.059 A 
ATOM     73  F   UNL A   1      36.603  30.041  31.350  1.00  0.00    -0.206 F 
ATOM     74  C   UNL A   1      35.586  33.356  32.199  1.00  0.00     0.060 A 
BRANCH  74  75
ATOM     75  S   UNL A   1      34.207  34.177  33.022  1.00  0.00     0.124 S 
ATOM     76  O   UNL A   1      33.797  35.157  32.021  1.00  0.00    -0.237 OA
ATOM     77  O   UNL A   1      33.281  33.073  33.249  1.00  0.00    -0.237 OA
ATOM     78  O   UNL A   1      34.812  34.737  34.228  1.00  0.00    -0.744 OA
ENDBRANCH  74  75
ENDBRANCH  53  67
BRANCH  54  79
ATOM     79  C   UNL A   1      45.628  26.544  27.874  1.00  0.00     0.058 A 
ATOM     80  C   UNL A   1      45.993  25.283  28.405  1.00  0.00     0.135 A 
ATOM     81  C   UNL A   1      45.084  26.538  26.577  1.00  0.00     0.135 A 
ATOM     82  F   UNL A   1      46.500  25.204  29.647  1.00  0.00    -0.206 F 
ATOM     83  C   UNL A   1      45.690  24.078  27.763  1.00  0.00     0.059 A 
ATOM     84  C   UNL A   1      44.746  25.338  25.927  1.00  0.00     0.059 A 
ATOM     85  F   UNL A   1      44.704  27.689  26.003  1.00  0.00    -0.206 F 
ATOM     86  C   UNL A   1      45.004  24.114  26.551  1.00  0.00     0.060 A 
BRANCH  86  87
ATOM     87  S   UNL A   1      44.180  22.589  25.976  1.00  0.00     0.124 S 
ATOM     88  O   UNL A   1      45.308  21.695  25.751  1.00  0.00    -0.237 OA
ATOM     89  O   UNL A   1      43.318  22.242  27.107  1.00  0.00    -0.237 OA
ATOM     90  O   UNL A   1      43.463  23.037  24.789  1.00  0.00    -0.744 OA
ENDBRANCH  86  87
ENDBRANCH  54  79
BRANCH  66  91
ATOM     91  C   UNL A   1      44.061  33.546  28.956  1.00  0.00     0.058 A 
ATOM     92  C   UNL A   1      44.045  33.897  27.592  1.00  0.00     0.135 A 
ATOM     93  C   UNL A   1      44.144  34.618  29.868  1.00  0.00     0.135 A 
ATOM     94  F   UNL A   1      43.811  32.992  26.629  1.00  0.00    -0.206 F 
ATOM     95  C   UNL A   1      44.234  35.199  27.159  1.00  0.00     0.059 A 
ATOM     96  C   UNL A   1      44.253  35.939  29.457  1.00  0.00     0.059 A 
ATOM     97  F   UNL A   1      44.104  34.423  31.194  1.00  0.00    -0.206 F 
ATOM     98  C   UNL A   1      44.352  36.213  28.101  1.00  0.00     0.060 A 
BRANCH  98  99
ATOM     99  S   UNL A   1      44.639  37.889  27.532  1.00  0.00     0.124 S 
ATOM    100  O   UNL A   1      44.953  38.561  28.789  1.00  0.00    -0.237 OA
ATOM    101  O   UNL A   1      45.758  37.725  26.608  1.00  0.00    -0.237 OA
ATOM    102  O   UNL A   1      43.371  38.257  26.914  1.00  0.00    -0.744 OA
ENDBRANCH  98  99
ENDBRANCH  66  91
ENDBRANCH  40  41
ENDBRANCH  33  35
ENDBRANCH  32  33
ENDBRANCH  31  32
ENDBRANCH  30  31
ENDBRANCH   1  30
TORSDOF 20
ENDMDL
MODEL 3
REMARK VINA RESULT:     -11.7      3.692     10.199
REMARK SMILES Cc1c(NC(=O)c2ccc(-c3cccc(Cl)c3)o2)cccc1C(=O)OCCOCCOC(=O)c1ccc(-c2c3nc(c(-c4c(F)cc(S(=O)(=O)[O-])cc4F)c4ccc([nH]4)c(-c4c(F)cc(S(=O)(=O)[O-])cc4F)c4nc(c(-c5c(F)cc(S(=O)(=O)[O-])cc5F)c5ccc2[nH]5)C=C4)C=C3)cc1
REMARK SMILES IDX 28 1 27 2 26 3 25 4 23 5 24 6 22 7 1 8 2 9 3 10 19 11 21 12
REMARK SMILES IDX 20 13 4 14 5 15 6 17 7 18 8 19 18 20 9 21 10 22 11 23 12 24
REMARK SMILES IDX 17 25 13 26 15 27 14 28 16 29 29 30 30 31 31 32 32 33 33 34
REMARK SMILES IDX 34 35 35 36 99 37 36 38 98 39 37 40 38 41 39 42 92 43 40 44
REMARK SMILES IDX 97 45 91 46 93 47 41 48 96 49 90 50 89 51 42 53 76 54 55 55
REMARK SMILES IDX 75 56 56 57 59 58 74 59 94 60 57 61 58 62 73 64 95 65 60 66
REMARK SMILES IDX 43 67 44 68 53 69 45 70 46 71 52 72 54 73 47 74 48 75 49 76
REMARK SMILES IDX 50 77 51 78 77 79 78 80 87 81 79 82 80 83 86 84 88 85 81 86
REMARK SMILES IDX 82 87 83 88 84 89 85 90 61 91 62 92 71 93 63 94 64 95 70 96
REMARK SMILES IDX 72 97 65 98 66 99 67 100 68 101 69 102
REMARK H PARENT 4 16 93 52 59 63
REMARK Flexibility Score: inf
ROOT
ATOM      1  O   UNL A   1      39.250  19.605  26.083  1.00  0.00    -0.374 OA
ENDROOT
BRANCH   1   2
ATOM      2  C   UNL A   1      38.635  19.758  24.814  1.00  0.00     0.202 C 
BRANCH   2   3
ATOM      3  C   UNL A   1      37.194  19.454  25.054  1.00  0.00     0.261 C 
BRANCH   3   4
ATOM      4  O   UNL A   1      36.326  20.462  24.504  1.00  0.00    -0.460 OA
BRANCH   4   5
ATOM      5  C   UNL A   1      35.448  21.154  25.249  1.00  0.00     0.338 C 
ATOM      6  O   UNL A   1      35.531  21.465  26.417  1.00  0.00    -0.246 OA
BRANCH   5   7
ATOM      7  C   UNL A   1      34.298  21.504  24.378  1.00  0.00     0.065 A 
ATOM      8  C   UNL A   1      35.237  23.763  23.481  1.00  0.00     0.047 C 
ATOM      9  C   UNL A   1      34.212  22.647  23.535  1.00  0.00    -0.013 A 
ATOM     10  C   UNL A   1      33.095  22.746  22.682  1.00  0.00     0.045 A 
ATOM     11  C   UNL A   1      32.101  21.756  22.718  1.00  0.00     0.026 A 
ATOM     12  C   UNL A   1      33.235  20.586  24.459  1.00  0.00     0.016 A 
ATOM     13  C   UNL A   1      32.131  20.717  23.640  1.00  0.00     0.003 A 
BRANCH  10  14
ATOM     14  N   UNL A   1      33.042  23.846  21.795  1.00  0.00    -0.319 N 
ATOM     15  C   UNL A   1      32.538  25.115  21.952  1.00  0.00     0.291 C 
ATOM     16  H   UNL A   1      33.435  23.673  20.910  1.00  0.00     0.170 HD
ATOM     17  O   UNL A   1      32.551  25.880  20.987  1.00  0.00    -0.265 OA
BRANCH  15  18
ATOM     18  C   UNL A   1      32.074  25.495  23.256  1.00  0.00     0.192 A 
ATOM     19  C   UNL A   1      31.004  25.068  24.022  1.00  0.00     0.057 A 
ATOM     20  O   UNL A   1      32.651  26.589  23.827  1.00  0.00    -0.451 OA
ATOM     21  C   UNL A   1      30.881  26.000  25.079  1.00  0.00     0.052 A 
ATOM     22  C   UNL A   1      31.901  26.914  24.910  1.00  0.00     0.135 A 
BRANCH  22  23
ATOM     23  C   UNL A   1      32.316  28.107  25.612  1.00  0.00     0.019 A 
ATOM     24  C   UNL A   1      31.534  29.261  25.512  1.00  0.00     0.012 A 
ATOM     25  C   UNL A   1      33.483  28.123  26.390  1.00  0.00     0.032 A 
ATOM     26  C   UNL A   1      31.904  30.423  26.184  1.00  0.00     0.002 A 
ATOM     27  C   UNL A   1      33.854  29.292  27.050  1.00  0.00     0.041 A 
ATOM     28  C   UNL A   1      33.067  30.441  26.952  1.00  0.00     0.020 A 
ATOM     29  Cl  UNL A   1      35.292  29.330  27.995  1.00  0.00    -0.084 Cl
ENDBRANCH  22  23
ENDBRANCH  15  18
ENDBRANCH  10  14
ENDBRANCH   5   7
ENDBRANCH   4   5
ENDBRANCH   3   4
ENDBRANCH   2   3
ENDBRANCH   1   2
BRANCH   1  30
ATOM     30  C   UNL A   1      40.574  20.056  26.194  1.00  0.00     0.202 C 
BRANCH  30  31
ATOM     31  C   UNL A   1      40.718  21.110  27.291  1.00  0.00     0.261 C 
BRANCH  31  32
ATOM     32  O   UNL A   1      40.714  22.440  26.719  1.00  0.00    -0.460 OA
BRANCH  32  33
ATOM     33  C   UNL A   1      39.516  23.102  26.708  1.00  0.00     0.338 C 
ATOM     34  O   UNL A   1      38.440  22.546  26.578  1.00  0.00    -0.246 OA
BRANCH  33  35
ATOM     35  C   UNL A   1      39.712  24.566  26.941  1.00  0.00     0.060 A 
ATOM     36  C   UNL A   1      40.353  25.396  25.996  1.00  0.00     0.016 A 
ATOM     37  C   UNL A   1      39.413  25.073  28.200  1.00  0.00     0.016 A 
ATOM     38  C   UNL A   1      40.824  26.675  26.367  1.00  0.00     0.010 A 
ATOM     39  C   UNL A   1      39.958  26.278  28.584  1.00  0.00     0.010 A 
ATOM     40  C   UNL A   1      40.693  27.082  27.692  1.00  0.00    -0.014 A 
BRANCH  40  41
ATOM     41  C   UNL A   1      41.316  28.243  28.349  1.00  0.00     0.031 A 
ATOM     42  C   UNL A   1      40.422  29.375  28.694  1.00  0.00     0.074 A 
ATOM     43  C   UNL A   1      42.524  28.133  28.962  1.00  0.00     0.049 A 
ATOM     44  N   UNL A   1      40.811  30.424  29.323  1.00  0.00    -0.248 NA
ATOM     45  C   UNL A   1      39.004  29.442  28.335  1.00  0.00     0.031 C 
ATOM     46  C   UNL A   1      43.000  28.815  30.171  1.00  0.00     0.029 A 
ATOM     47  N   UNL A   1      43.608  27.318  28.635  1.00  0.00    -0.354 N 
ATOM     48  C   UNL A   1      39.698  31.114  29.739  1.00  0.00     0.074 A 
ATOM     49  C   UNL A   1      38.610  30.539  28.994  1.00  0.00     0.031 C 
ATOM     50  C   UNL A   1      44.319  28.598  30.332  1.00  0.00     0.029 A 
ATOM     51  C   UNL A   1      44.782  27.864  29.168  1.00  0.00     0.049 A 
ATOM     52  H   UNL A   1      43.555  26.488  28.110  1.00  0.00     0.167 HD
ATOM     53  C   UNL A   1      39.857  32.008  30.753  1.00  0.00     0.037 A 
ATOM     54  C   UNL A   1      45.815  28.173  28.339  1.00  0.00     0.037 A 
ATOM     55  C   UNL A   1      41.292  32.210  31.015  1.00  0.00     0.049 A 
ATOM     56  C   UNL A   1      45.901  29.671  28.308  1.00  0.00     0.074 A 
ATOM     57  C   UNL A   1      42.148  31.829  32.033  1.00  0.00     0.029 A 
ATOM     58  N   UNL A   1      42.108  32.619  29.955  1.00  0.00    -0.354 N 
ATOM     59  N   UNL A   1      44.874  30.429  28.598  1.00  0.00    -0.248 NA
ATOM     60  C   UNL A   1      47.132  30.434  28.142  1.00  0.00     0.031 C 
ATOM     61  C   UNL A   1      43.483  31.894  31.519  1.00  0.00     0.029 A 
ATOM     62  C   UNL A   1      43.441  32.353  30.207  1.00  0.00     0.049 A 
ATOM     63  H   UNL A   1      41.775  33.043  29.132  1.00  0.00     0.167 HD
ATOM     64  C   UNL A   1      45.293  31.705  28.782  1.00  0.00     0.074 A 
ATOM     65  C   UNL A   1      46.702  31.678  28.429  1.00  0.00     0.031 C 
ATOM     66  C   UNL A   1      44.469  32.696  29.224  1.00  0.00     0.037 A 
BRANCH  53  67
ATOM     67  C   UNL A   1      38.747  32.607  31.601  1.00  0.00     0.058 A 
ATOM     68  C   UNL A   1      37.937  31.767  32.397  1.00  0.00     0.135 A 
ATOM     69  C   UNL A   1      38.364  33.968  31.622  1.00  0.00     0.135 A 
ATOM     70  F   UNL A   1      38.154  30.444  32.448  1.00  0.00    -0.206 F 
ATOM     71  C   UNL A   1      36.860  32.236  33.158  1.00  0.00     0.059 A 
ATOM     72  C   UNL A   1      37.320  34.466  32.408  1.00  0.00     0.059 A 
ATOM     73  F   UNL A   1      38.938  34.886  30.836  1.00  0.00    -0.206 F 
ATOM     74  C   UNL A   1      36.563  33.592  33.168  1.00  0.00     0.060 A 
BRANCH  74  75
ATOM     75  S   UNL A   1      35.181  34.190  34.159  1.00  0.00     0.124 S 
ATOM     76  O   UNL A   1      34.071  33.395  33.642  1.00  0.00    -0.237 OA
ATOM     77  O   UNL A   1      35.613  33.873  35.516  1.00  0.00    -0.237 OA
ATOM     78  O   UNL A   1      35.124  35.615  33.844  1.00  0.00    -0.744 OA
ENDBRANCH  74  75
ENDBRANCH  53  67
BRANCH  54  79
ATOM     79  C   UNL A   1      45.992  27.136  27.266  1.00  0.00     0.058 A 
ATOM     80  C   UNL A   1      46.567  25.909  27.678  1.00  0.00     0.135 A 
ATOM     81  C   UNL A   1      45.160  27.083  26.134  1.00  0.00     0.135 A 
ATOM     82  F   UNL A   1      47.357  25.876  28.765  1.00  0.00    -0.206 F 
ATOM     83  C   UNL A   1      46.216  24.682  27.108  1.00  0.00     0.059 A 
ATOM     84  C   UNL A   1      44.773  25.857  25.563  1.00  0.00     0.059 A 
ATOM     85  F   UNL A   1      44.568  28.198  25.681  1.00  0.00    -0.206 F 
ATOM     86  C   UNL A   1      45.264  24.659  26.091  1.00  0.00     0.060 A 
BRANCH  86  87
ATOM     87  S   UNL A   1      44.448  23.072  25.704  1.00  0.00     0.124 S 
ATOM     88  O   UNL A   1      43.967  22.646  27.011  1.00  0.00    -0.237 OA
ATOM     89  O   UNL A   1      43.412  23.466  24.749  1.00  0.00    -0.237 OA
ATOM     90  O   UNL A   1      45.530  22.285  25.125  1.00  0.00    -0.744 OA
ENDBRANCH  86  87
ENDBRANCH  54  79
BRANCH  66  91
ATOM     91  C   UNL A   1      44.646  34.109  28.755  1.00  0.00     0.058 A 
ATOM     92  C   UNL A   1      44.214  34.543  27.487  1.00  0.00     0.135 A 
ATOM     93  C   UNL A   1      45.094  35.118  29.634  1.00  0.00     0.135 A 
ATOM     94  F   UNL A   1      43.618  33.713  26.617  1.00  0.00    -0.206 F 
ATOM     95  C   UNL A   1      44.343  35.858  27.070  1.00  0.00     0.059 A 
ATOM     96  C   UNL A   1      45.156  36.454  29.264  1.00  0.00     0.059 A 
ATOM     97  F   UNL A   1      45.472  34.844  30.891  1.00  0.00    -0.206 F 
ATOM     98  C   UNL A   1      44.830  36.804  27.962  1.00  0.00     0.060 A 
BRANCH  98  99
ATOM     99  S   UNL A   1      45.033  38.495  27.400  1.00  0.00     0.124 S 
ATOM    100  O   UNL A   1      45.268  39.185  28.665  1.00  0.00    -0.237 OA
ATOM    101  O   UNL A   1      46.187  38.399  26.511  1.00  0.00    -0.237 OA
ATOM    102  O   UNL A   1      43.765  38.787  26.742  1.00  0.00    -0.744 OA
ENDBRANCH  98  99
ENDBRANCH  66  91
ENDBRANCH  40  41
ENDBRANCH  33  35
ENDBRANCH  32  33
ENDBRANCH  31  32
ENDBRANCH  30  31
ENDBRANCH   1  30
TORSDOF 20
ENDMDL
