MODEL 1
REMARK VINA RESULT:     -12.2      0.000      0.000
REMARK SMILES Cc1cccc(-c2noc(C[N@@H+](C)Cc3ncccc3C(=O)OCCOCCOC(=O)c3ccc(-c4c5nc(c(-c6c(F)cc(S(=O)(=O)[O-])cc6F)c6ccc([nH]6)c(-c6c(F)cc(S(=O)(=O)[O-])cc6F)c6nc(c(-c7c(F)cc(S(=O)(=O)[O-])cc7F)c7ccc4[nH]7)C=C6)C=C5)cc3)n2)c1
REMARK SMILES IDX 25 1 24 2 23 3 21 4 22 5 20 6 15 7 16 8 17 9 19 10 18 11
REMARK SMILES IDX 14 12 12 13 13 14 11 16 10 17 7 18 8 19 98 20 9 21 6 22 1 23
REMARK SMILES IDX 2 24 3 25 99 26 4 27 5 28 26 29 27 30 28 31 29 32 30 33
REMARK SMILES IDX 31 34 32 35 33 36 97 37 34 38 96 39 35 40 36 41 37 42 90 43
REMARK SMILES IDX 38 44 95 45 89 46 91 47 39 48 94 49 88 50 87 51 40 53 74 54
REMARK SMILES IDX 53 55 73 56 54 57 57 58 72 59 92 60 55 61 56 62 71 64 93 65
REMARK SMILES IDX 58 66 41 67 42 68 51 69 43 70 44 71 50 72 52 73 45 74 46 75
REMARK SMILES IDX 47 76 48 77 49 78 75 79 76 80 85 81 77 82 78 83 84 84 86 85
REMARK SMILES IDX 79 86 80 87 81 88 82 89 83 90 59 91 60 92 69 93 61 94 62 95
REMARK SMILES IDX 68 96 70 97 63 98 64 99 65 100 66 101 67 102
REMARK H PARENT 12 15 91 52 57 63
REMARK Flexibility Score: inf
ROOT
ATOM      1  C   UNL A   1      35.945  22.533  24.056  1.00  0.00     0.202 C 
ENDROOT
BRANCH   1   2
ATOM      2  C   UNL A   1      34.845  22.897  23.171  1.00  0.00     0.261 C 
BRANCH   2   3
ATOM      3  O   UNL A   1      34.697  24.317  23.086  1.00  0.00    -0.460 OA
BRANCH   3   4
ATOM      4  C   UNL A   1      33.430  24.810  22.946  1.00  0.00     0.340 C 
ATOM      5  O   UNL A   1      32.419  24.207  22.727  1.00  0.00    -0.246 OA
BRANCH   4   6
ATOM      6  C   UNL A   1      33.525  26.253  23.246  1.00  0.00     0.087 A 
ATOM      7  C   UNL A   1      33.707  26.720  24.554  1.00  0.00     0.109 A 
ATOM      8  N   UNL A   1      33.838  28.061  24.784  1.00  0.00    -0.254 NA
ATOM      9  C   UNL A   1      33.826  28.909  23.726  1.00  0.00     0.111 A 
ATOM     10  C   UNL A   1      33.525  27.162  22.174  1.00  0.00     0.019 A 
ATOM     11  C   UNL A   1      33.692  28.511  22.412  1.00  0.00     0.021 A 
BRANCH   7  12
ATOM     12  C   UNL A   1      33.749  25.762  25.759  1.00  0.00     0.320 C 
BRANCH  12  13
ATOM     13  N   UNL A   1      32.716  24.694  25.897  1.00  0.00    -0.325 N 
ATOM     14  C   UNL A   1      31.466  25.212  26.447  1.00  0.00     0.333 C 
ATOM     15  H   UNL A   1      32.525  24.380  24.946  1.00  0.00     0.348 HD
BRANCH  13  16
ATOM     16  C   UNL A   1      33.187  23.483  26.603  1.00  0.00     0.364 C 
BRANCH  16  17
ATOM     17  C   UNL A   1      32.841  22.148  25.973  1.00  0.00     0.282 A 
ATOM     18  C   UNL A   1      32.687  20.136  25.290  1.00  0.00     0.202 A 
ATOM     19  N   UNL A   1      31.719  20.787  24.622  1.00  0.00    -0.057 NA
ATOM     20  N   UNL A   1      33.358  20.951  26.197  1.00  0.00    -0.186 NA
ATOM     21  O   UNL A   1      31.819  22.110  25.067  1.00  0.00    -0.333 OA
BRANCH  18  22
ATOM     22  C   UNL A   1      33.187  18.795  24.905  1.00  0.00     0.023 A 
ATOM     23  C   UNL A   1      32.299  15.193  25.824  1.00  0.00     0.044 C 
ATOM     24  C   UNL A   1      33.002  16.354  25.164  1.00  0.00    -0.050 A 
ATOM     25  C   UNL A   1      34.362  16.220  24.859  1.00  0.00     0.003 A 
ATOM     26  C   UNL A   1      32.407  17.639  25.118  1.00  0.00     0.015 A 
ATOM     27  C   UNL A   1      35.124  17.345  24.541  1.00  0.00     0.001 A 
ATOM     28  C   UNL A   1      34.547  18.622  24.583  1.00  0.00     0.012 A 
ENDBRANCH  18  22
ENDBRANCH  16  17
ENDBRANCH  13  16
ENDBRANCH  12  13
ENDBRANCH   7  12
ENDBRANCH   4   6
ENDBRANCH   3   4
ENDBRANCH   2   3
ENDBRANCH   1   2
BRANCH   1  29
ATOM     29  O   UNL A   1      36.445  23.787  24.485  1.00  0.00    -0.374 OA
BRANCH  29  30
ATOM     30  C   UNL A   1      36.883  23.751  25.807  1.00  0.00     0.202 C 
BRANCH  30  31
ATOM     31  C   UNL A   1      38.200  23.018  25.993  1.00  0.00     0.261 C 
BRANCH  31  32
ATOM     32  O   UNL A   1      39.347  23.853  26.304  1.00  0.00    -0.460 OA
BRANCH  32  33
ATOM     33  C   UNL A   1      39.893  24.303  27.460  1.00  0.00     0.338 C 
ATOM     34  O   UNL A   1      40.694  23.621  28.092  1.00  0.00    -0.246 OA
BRANCH  33  35
ATOM     35  C   UNL A   1      39.764  25.732  27.792  1.00  0.00     0.060 A 
ATOM     36  C   UNL A   1      40.179  26.715  26.881  1.00  0.00     0.016 A 
ATOM     37  C   UNL A   1      39.168  26.108  28.987  1.00  0.00     0.016 A 
ATOM     38  C   UNL A   1      40.204  28.064  27.256  1.00  0.00     0.010 A 
ATOM     39  C   UNL A   1      39.268  27.428  29.390  1.00  0.00     0.010 A 
ATOM     40  C   UNL A   1      39.823  28.411  28.548  1.00  0.00    -0.014 A 
BRANCH  40  41
ATOM     41  C   UNL A   1      40.035  29.729  29.160  1.00  0.00     0.031 A 
ATOM     42  C   UNL A   1      38.934  30.704  29.136  1.00  0.00     0.074 A 
ATOM     43  C   UNL A   1      41.096  29.966  29.973  1.00  0.00     0.049 A 
ATOM     44  N   UNL A   1      39.102  31.950  29.407  1.00  0.00    -0.248 NA
ATOM     45  C   UNL A   1      37.550  30.376  28.804  1.00  0.00     0.031 C 
ATOM     46  C   UNL A   1      41.244  30.917  31.077  1.00  0.00     0.029 A 
ATOM     47  N   UNL A   1      42.300  29.270  30.065  1.00  0.00    -0.354 N 
ATOM     48  C   UNL A   1      37.863  32.480  29.658  1.00  0.00     0.074 A 
ATOM     49  C   UNL A   1      36.924  31.502  29.162  1.00  0.00     0.031 C 
ATOM     50  C   UNL A   1      42.531  30.930  31.493  1.00  0.00     0.029 A 
ATOM     51  C   UNL A   1      43.301  30.086  30.582  1.00  0.00     0.049 A 
ATOM     52  H   UNL A   1      42.424  28.330  29.802  1.00  0.00     0.167 HD
ATOM     53  C   UNL A   1      37.781  33.615  30.407  1.00  0.00     0.037 A 
ATOM     54  C   UNL A   1      44.399  30.342  29.819  1.00  0.00     0.037 A 
ATOM     55  C   UNL A   1      39.118  34.049  30.858  1.00  0.00     0.049 A 
ATOM     56  C   UNL A   1      44.307  31.779  29.397  1.00  0.00     0.074 A 
ATOM     57  C   UNL A   1      39.812  33.980  32.057  1.00  0.00     0.029 A 
ATOM     58  N   UNL A   1      40.083  34.327  29.902  1.00  0.00    -0.354 N 
ATOM     59  N   UNL A   1      43.337  32.547  29.809  1.00  0.00    -0.248 NA
ATOM     60  C   UNL A   1      45.207  32.482  28.497  1.00  0.00     0.031 C 
ATOM     61  C   UNL A   1      41.203  34.209  31.789  1.00  0.00     0.029 A 
ATOM     62  C   UNL A   1      41.359  34.426  30.430  1.00  0.00     0.049 A 
ATOM     63  H   UNL A   1      39.881  34.441  28.945  1.00  0.00     0.167 HD
ATOM     64  C   UNL A   1      43.404  33.765  29.248  1.00  0.00     0.074 A 
ATOM     65  C   UNL A   1      44.599  33.684  28.414  1.00  0.00     0.031 C 
ATOM     66  C   UNL A   1      42.471  34.719  29.524  1.00  0.00     0.037 A 
BRANCH  53  67
ATOM     67  C   UNL A   1      36.471  34.173  30.914  1.00  0.00     0.058 A 
ATOM     68  C   UNL A   1      35.433  34.507  30.021  1.00  0.00     0.135 A 
ATOM     69  C   UNL A   1      36.166  34.388  32.277  1.00  0.00     0.135 A 
ATOM     70  F   UNL A   1      35.549  34.300  28.703  1.00  0.00    -0.206 F 
ATOM     71  C   UNL A   1      34.221  35.061  30.436  1.00  0.00     0.059 A 
ATOM     72  C   UNL A   1      34.987  35.000  32.714  1.00  0.00     0.059 A 
ATOM     73  F   UNL A   1      36.980  33.953  33.251  1.00  0.00    -0.206 F 
ATOM     74  C   UNL A   1      34.011  35.322  31.783  1.00  0.00     0.060 A 
BRANCH  74  75
ATOM     75  S   UNL A   1      32.435  36.033  32.290  1.00  0.00     0.124 S 
ATOM     76  O   UNL A   1      31.699  34.859  32.749  1.00  0.00    -0.237 OA
ATOM     77  O   UNL A   1      32.851  36.967  33.331  1.00  0.00    -0.237 OA
ATOM     78  O   UNL A   1      31.925  36.645  31.067  1.00  0.00    -0.744 OA
ENDBRANCH  74  75
ENDBRANCH  53  67
BRANCH  54  79
ATOM     79  C   UNL A   1      44.841  29.132  29.030  1.00  0.00     0.058 A 
ATOM     80  C   UNL A   1      45.600  28.138  29.698  1.00  0.00     0.135 A 
ATOM     81  C   UNL A   1      44.175  28.717  27.865  1.00  0.00     0.135 A 
ATOM     82  F   UNL A   1      46.228  28.437  30.849  1.00  0.00    -0.206 F 
ATOM     83  C   UNL A   1      45.596  26.791  29.307  1.00  0.00     0.059 A 
ATOM     84  C   UNL A   1      44.134  27.366  27.472  1.00  0.00     0.059 A 
ATOM     85  F   UNL A   1      43.432  29.592  27.172  1.00  0.00    -0.206 F 
ATOM     86  C   UNL A   1      44.807  26.402  28.227  1.00  0.00     0.060 A 
BRANCH  86  87
ATOM     87  S   UNL A   1      44.446  24.628  28.012  1.00  0.00     0.124 S 
ATOM     88  O   UNL A   1      43.742  24.305  29.246  1.00  0.00    -0.237 OA
ATOM     89  O   UNL A   1      43.629  24.618  26.800  1.00  0.00    -0.237 OA
ATOM     90  O   UNL A   1      45.768  24.035  27.857  1.00  0.00    -0.744 OA
ENDBRANCH  86  87
ENDBRANCH  54  79
BRANCH  66  91
ATOM     91  C   UNL A   1      42.572  36.060  28.903  1.00  0.00     0.058 A 
ATOM     92  C   UNL A   1      42.033  36.314  27.636  1.00  0.00     0.135 A 
ATOM     93  C   UNL A   1      43.264  37.109  29.534  1.00  0.00     0.135 A 
ATOM     94  F   UNL A   1      41.441  35.338  26.927  1.00  0.00    -0.206 F 
ATOM     95  C   UNL A   1      42.072  37.580  27.077  1.00  0.00     0.059 A 
ATOM     96  C   UNL A   1      43.389  38.357  28.957  1.00  0.00     0.059 A 
ATOM     97  F   UNL A   1      43.798  36.977  30.757  1.00  0.00    -0.206 F 
ATOM     98  C   UNL A   1      42.744  38.596  27.753  1.00  0.00     0.060 A 
BRANCH  98  99
ATOM     99  S   UNL A   1      42.748  40.249  27.064  1.00  0.00     0.124 S 
ATOM    100  O   UNL A   1      43.407  41.023  28.112  1.00  0.00    -0.237 OA
ATOM    101  O   UNL A   1      43.522  40.046  25.844  1.00  0.00    -0.237 OA
ATOM    102  O   UNL A   1      41.331  40.539  26.874  1.00  0.00    -0.744 OA
ENDBRANCH  98  99
ENDBRANCH  66  91
ENDBRANCH  40  41
ENDBRANCH  33  35
ENDBRANCH  32  33
ENDBRANCH  31  32
ENDBRANCH  30  31
ENDBRANCH  29  30
ENDBRANCH   1  29
TORSDOF 22
ENDMDL
MODEL 2
REMARK VINA RESULT:     -12.0      1.766      4.168
REMARK SMILES Cc1cccc(-c2noc(C[N@@H+](C)Cc3ncccc3C(=O)OCCOCCOC(=O)c3ccc(-c4c5nc(c(-c6c(F)cc(S(=O)(=O)[O-])cc6F)c6ccc([nH]6)c(-c6c(F)cc(S(=O)(=O)[O-])cc6F)c6nc(c(-c7c(F)cc(S(=O)(=O)[O-])cc7F)c7ccc4[nH]7)C=C6)C=C5)cc3)n2)c1
REMARK SMILES IDX 25 1 24 2 23 3 21 4 22 5 20 6 15 7 16 8 17 9 19 10 18 11
REMARK SMILES IDX 14 12 12 13 13 14 11 16 10 17 7 18 8 19 98 20 9 21 6 22 1 23
REMARK SMILES IDX 2 24 3 25 99 26 4 27 5 28 26 29 27 30 28 31 29 32 30 33
REMARK SMILES IDX 31 34 32 35 33 36 97 37 34 38 96 39 35 40 36 41 37 42 90 43
REMARK SMILES IDX 38 44 95 45 89 46 91 47 39 48 94 49 88 50 87 51 40 53 74 54
REMARK SMILES IDX 53 55 73 56 54 57 57 58 72 59 92 60 55 61 56 62 71 64 93 65
REMARK SMILES IDX 58 66 41 67 42 68 51 69 43 70 44 71 50 72 52 73 45 74 46 75
REMARK SMILES IDX 47 76 48 77 49 78 75 79 76 80 85 81 77 82 78 83 84 84 86 85
REMARK SMILES IDX 79 86 80 87 81 88 82 89 83 90 59 91 60 92 69 93 61 94 62 95
REMARK SMILES IDX 68 96 70 97 63 98 64 99 65 100 66 101 67 102
REMARK H PARENT 12 15 91 52 57 63
REMARK Flexibility Score: inf
ROOT
ATOM      1  C   UNL A   1      35.453  23.289  24.551  1.00  0.00     0.202 C 
ENDROOT
BRANCH   1   2
ATOM      2  C   UNL A   1      35.244  23.366  23.109  1.00  0.00     0.261 C 
BRANCH   2   3
ATOM      3  O   UNL A   1      34.265  24.354  22.780  1.00  0.00    -0.460 OA
BRANCH   3   4
ATOM      4  C   UNL A   1      33.165  23.942  22.081  1.00  0.00     0.340 C 
ATOM      5  O   UNL A   1      33.029  22.944  21.434  1.00  0.00    -0.246 OA
BRANCH   4   6
ATOM      6  C   UNL A   1      32.106  24.926  22.381  1.00  0.00     0.087 A 
ATOM      7  C   UNL A   1      31.076  24.642  23.288  1.00  0.00     0.109 A 
ATOM      8  N   UNL A   1      30.140  25.597  23.574  1.00  0.00    -0.254 NA
ATOM      9  C   UNL A   1      30.257  26.818  22.997  1.00  0.00     0.111 A 
ATOM     10  C   UNL A   1      32.197  26.206  21.808  1.00  0.00     0.019 A 
ATOM     11  C   UNL A   1      31.268  27.175  22.129  1.00  0.00     0.021 A 
BRANCH   7  12
ATOM     12  C   UNL A   1      30.951  23.266  23.969  1.00  0.00     0.320 C 
BRANCH  12  13
ATOM     13  N   UNL A   1      32.086  22.730  24.775  1.00  0.00    -0.325 N 
ATOM     14  C   UNL A   1      32.182  21.274  24.683  1.00  0.00     0.333 C 
ATOM     15  H   UNL A   1      32.928  23.119  24.349  1.00  0.00     0.348 HD
BRANCH  13  16
ATOM     16  C   UNL A   1      32.118  23.211  26.174  1.00  0.00     0.364 C 
BRANCH  16  17
ATOM     17  C   UNL A   1      31.876  24.692  26.391  1.00  0.00     0.282 A 
ATOM     18  C   UNL A   1      31.942  26.807  26.639  1.00  0.00     0.202 A 
ATOM     19  N   UNL A   1      30.666  26.481  26.913  1.00  0.00    -0.057 NA
ATOM     20  N   UNL A   1      32.704  25.713  26.239  1.00  0.00    -0.186 NA
ATOM     21  O   UNL A   1      30.621  25.092  26.752  1.00  0.00    -0.333 OA
BRANCH  18  22
ATOM     22  C   UNL A   1      32.550  28.108  27.001  1.00  0.00     0.023 A 
ATOM     23  C   UNL A   1      31.553  31.779  26.617  1.00  0.00     0.044 C 
ATOM     24  C   UNL A   1      32.366  30.563  26.994  1.00  0.00    -0.050 A 
ATOM     25  C   UNL A   1      33.761  30.667  26.975  1.00  0.00     0.003 A 
ATOM     26  C   UNL A   1      31.768  29.281  27.076  1.00  0.00     0.015 A 
ATOM     27  C   UNL A   1      34.551  29.517  27.010  1.00  0.00     0.001 A 
ATOM     28  C   UNL A   1      33.952  28.249  27.003  1.00  0.00     0.012 A 
ENDBRANCH  18  22
ENDBRANCH  16  17
ENDBRANCH  13  16
ENDBRANCH  12  13
ENDBRANCH   7  12
ENDBRANCH   4   6
ENDBRANCH   3   4
ENDBRANCH   2   3
ENDBRANCH   1   2
BRANCH   1  29
ATOM     29  O   UNL A   1      36.780  23.758  24.711  1.00  0.00    -0.374 OA
BRANCH  29  30
ATOM     30  C   UNL A   1      37.194  23.708  26.041  1.00  0.00     0.202 C 
BRANCH  30  31
ATOM     31  C   UNL A   1      38.504  22.968  26.243  1.00  0.00     0.261 C 
BRANCH  31  32
ATOM     32  O   UNL A   1      39.668  23.802  26.485  1.00  0.00    -0.460 OA
BRANCH  32  33
ATOM     33  C   UNL A   1      40.245  24.306  27.603  1.00  0.00     0.338 C 
ATOM     34  O   UNL A   1      41.112  23.683  28.208  1.00  0.00    -0.246 OA
BRANCH  33  35
ATOM     35  C   UNL A   1      40.053  25.733  27.913  1.00  0.00     0.060 A 
ATOM     36  C   UNL A   1      40.377  26.717  26.968  1.00  0.00     0.016 A 
ATOM     37  C   UNL A   1      39.488  26.103  29.125  1.00  0.00     0.016 A 
ATOM     38  C   UNL A   1      40.345  28.073  27.315  1.00  0.00     0.010 A 
ATOM     39  C   UNL A   1      39.533  27.434  29.499  1.00  0.00     0.010 A 
ATOM     40  C   UNL A   1      40.000  28.427  28.616  1.00  0.00    -0.014 A 
BRANCH  40  41
ATOM     41  C   UNL A   1      40.166  29.767  29.193  1.00  0.00     0.031 A 
ATOM     42  C   UNL A   1      39.041  30.713  29.118  1.00  0.00     0.074 A 
ATOM     43  C   UNL A   1      41.203  30.054  30.020  1.00  0.00     0.049 A 
ATOM     44  N   UNL A   1      39.174  31.969  29.356  1.00  0.00    -0.248 NA
ATOM     45  C   UNL A   1      37.674  30.340  28.768  1.00  0.00     0.031 C 
ATOM     46  C   UNL A   1      41.304  31.039  31.099  1.00  0.00     0.029 A 
ATOM     47  N   UNL A   1      42.422  29.392  30.157  1.00  0.00    -0.354 N 
ATOM     48  C   UNL A   1      37.916  32.475  29.566  1.00  0.00     0.074 A 
ATOM     49  C   UNL A   1      37.012  31.459  29.080  1.00  0.00     0.031 C 
ATOM     50  C   UNL A   1      42.582  31.097  31.539  1.00  0.00     0.029 A 
ATOM     51  C   UNL A   1      43.392  30.248  30.669  1.00  0.00     0.049 A 
ATOM     52  H   UNL A   1      42.575  28.448  29.924  1.00  0.00     0.167 HD
ATOM     53  C   UNL A   1      37.790  33.628  30.280  1.00  0.00     0.037 A 
ATOM     54  C   UNL A   1      44.499  30.509  29.922  1.00  0.00     0.037 A 
ATOM     55  C   UNL A   1      39.106  34.109  30.745  1.00  0.00     0.049 A 
ATOM     56  C   UNL A   1      44.379  31.931  29.456  1.00  0.00     0.074 A 
ATOM     57  C   UNL A   1      39.777  34.092  31.959  1.00  0.00     0.029 A 
ATOM     58  N   UNL A   1      40.084  34.384  29.801  1.00  0.00    -0.354 N 
ATOM     59  N   UNL A   1      43.383  32.685  29.826  1.00  0.00    -0.248 NA
ATOM     60  C   UNL A   1      45.281  32.631  28.555  1.00  0.00     0.031 C 
ATOM     61  C   UNL A   1      41.167  34.349  31.713  1.00  0.00     0.029 A 
ATOM     62  C   UNL A   1      41.345  34.531  30.352  1.00  0.00     0.049 A 
ATOM     63  H   UNL A   1      39.900  34.465  28.837  1.00  0.00     0.167 HD
ATOM     64  C   UNL A   1      43.431  33.888  29.231  1.00  0.00     0.074 A 
ATOM     65  C   UNL A   1      44.645  33.814  28.424  1.00  0.00     0.031 C 
ATOM     66  C   UNL A   1      42.469  34.825  29.461  1.00  0.00     0.037 A 
BRANCH  53  67
ATOM     67  C   UNL A   1      36.457  34.167  30.743  1.00  0.00     0.058 A 
ATOM     68  C   UNL A   1      35.466  34.543  29.815  1.00  0.00     0.135 A 
ATOM     69  C   UNL A   1      36.083  34.322  32.098  1.00  0.00     0.135 A 
ATOM     70  F   UNL A   1      35.649  34.395  28.496  1.00  0.00    -0.206 F 
ATOM     71  C   UNL A   1      34.235  35.083  30.191  1.00  0.00     0.059 A 
ATOM     72  C   UNL A   1      34.883  34.918  32.501  1.00  0.00     0.059 A 
ATOM     73  F   UNL A   1      36.845  33.841  33.091  1.00  0.00    -0.206 F 
ATOM     74  C   UNL A   1      33.956  35.284  31.536  1.00  0.00     0.060 A 
BRANCH  74  75
ATOM     75  S   UNL A   1      32.357  35.976  31.994  1.00  0.00     0.124 S 
ATOM     76  O   UNL A   1      31.768  36.284  30.695  1.00  0.00    -0.237 OA
ATOM     77  O   UNL A   1      31.748  34.865  32.718  1.00  0.00    -0.237 OA
ATOM     78  O   UNL A   1      32.706  37.137  32.807  1.00  0.00    -0.744 OA
ENDBRANCH  74  75
ENDBRANCH  53  67
BRANCH  54  79
ATOM     79  C   UNL A   1      44.987  29.289  29.177  1.00  0.00     0.058 A 
ATOM     80  C   UNL A   1      44.594  29.130  27.824  1.00  0.00     0.135 A 
ATOM     81  C   UNL A   1      46.138  28.586  29.569  1.00  0.00     0.135 A 
ATOM     82  F   UNL A   1      43.533  29.806  27.352  1.00  0.00    -0.206 F 
ATOM     83  C   UNL A   1      45.364  28.420  26.890  1.00  0.00     0.059 A 
ATOM     84  C   UNL A   1      46.941  27.894  28.643  1.00  0.00     0.059 A 
ATOM     85  F   UNL A   1      46.583  28.684  30.831  1.00  0.00    -0.206 F 
ATOM     86  C   UNL A   1      46.572  27.858  27.295  1.00  0.00     0.060 A 
BRANCH  86  87
ATOM     87  S   UNL A   1      47.765  27.351  26.014  1.00  0.00     0.124 S 
ATOM     88  O   UNL A   1      48.582  26.375  26.722  1.00  0.00    -0.237 OA
ATOM     89  O   UNL A   1      46.895  26.806  24.973  1.00  0.00    -0.237 OA
ATOM     90  O   UNL A   1      48.425  28.600  25.660  1.00  0.00    -0.744 OA
ENDBRANCH  86  87
ENDBRANCH  54  79
BRANCH  66  91
ATOM     91  C   UNL A   1      42.549  36.151  28.802  1.00  0.00     0.058 A 
ATOM     92  C   UNL A   1      43.129  37.247  29.450  1.00  0.00     0.135 A 
ATOM     93  C   UNL A   1      41.994  36.370  27.529  1.00  0.00     0.135 A 
ATOM     94  F   UNL A   1      43.596  37.143  30.706  1.00  0.00    -0.206 F 
ATOM     95  C   UNL A   1      43.261  38.472  28.817  1.00  0.00     0.059 A 
ATOM     96  C   UNL A   1      42.037  37.605  26.913  1.00  0.00     0.059 A 
ATOM     97  F   UNL A   1      41.434  35.382  26.814  1.00  0.00    -0.206 F 
ATOM     98  C   UNL A   1      42.719  38.634  27.544  1.00  0.00     0.060 A 
BRANCH  98  99
ATOM     99  S   UNL A   1      42.937  40.196  26.695  1.00  0.00     0.124 S 
ATOM    100  O   UNL A   1      44.082  39.927  25.831  1.00  0.00    -0.237 OA
ATOM    101  O   UNL A   1      41.651  40.333  26.020  1.00  0.00    -0.237 OA
ATOM    102  O   UNL A   1      43.185  41.139  27.781  1.00  0.00    -0.744 OA
ENDBRANCH  98  99
ENDBRANCH  66  91
ENDBRANCH  40  41
ENDBRANCH  33  35
ENDBRANCH  32  33
ENDBRANCH  31  32
ENDBRANCH  30  31
ENDBRANCH  29  30
ENDBRANCH   1  29
TORSDOF 22
ENDMDL
MODEL 3
REMARK VINA RESULT:     -11.6      2.425      3.616
REMARK SMILES Cc1cccc(-c2noc(C[N@@H+](C)Cc3ncccc3C(=O)OCCOCCOC(=O)c3ccc(-c4c5nc(c(-c6c(F)cc(S(=O)(=O)[O-])cc6F)c6ccc([nH]6)c(-c6c(F)cc(S(=O)(=O)[O-])cc6F)c6nc(c(-c7c(F)cc(S(=O)(=O)[O-])cc7F)c7ccc4[nH]7)C=C6)C=C5)cc3)n2)c1
REMARK SMILES IDX 25 1 24 2 23 3 21 4 22 5 20 6 15 7 16 8 17 9 19 10 18 11
REMARK SMILES IDX 14 12 12 13 13 14 11 16 10 17 7 18 8 19 98 20 9 21 6 22 1 23
REMARK SMILES IDX 2 24 3 25 99 26 4 27 5 28 26 29 27 30 28 31 29 32 30 33
REMARK SMILES IDX 31 34 32 35 33 36 97 37 34 38 96 39 35 40 36 41 37 42 90 43
REMARK SMILES IDX 38 44 95 45 89 46 91 47 39 48 94 49 88 50 87 51 40 53 74 54
REMARK SMILES IDX 53 55 73 56 54 57 57 58 72 59 92 60 55 61 56 62 71 64 93 65
REMARK SMILES IDX 58 66 41 67 42 68 51 69 43 70 44 71 50 72 52 73 45 74 46 75
REMARK SMILES IDX 47 76 48 77 49 78 75 79 76 80 85 81 77 82 78 83 84 84 86 85
REMARK SMILES IDX 79 86 80 87 81 88 82 89 83 90 59 91 60 92 69 93 61 94 62 95
REMARK SMILES IDX 68 96 70 97 63 98 64 99 65 100 66 101 67 102
REMARK H PARENT 12 15 91 52 57 63
REMARK Flexibility Score: inf
ROOT
ATOM      1  C   UNL A   1      35.049  24.158  25.943  1.00  0.00     0.202 C 
ENDROOT
BRANCH   1   2
ATOM      2  C   UNL A   1      33.645  24.511  25.768  1.00  0.00     0.261 C 
BRANCH   2   3
ATOM      3  O   UNL A   1      33.412  25.884  26.091  1.00  0.00    -0.460 OA
BRANCH   3   4
ATOM      4  C   UNL A   1      32.132  26.249  26.399  1.00  0.00     0.340 C 
ATOM      5  O   UNL A   1      31.247  25.565  26.823  1.00  0.00    -0.246 OA
BRANCH   4   6
ATOM      6  C   UNL A   1      32.078  27.715  26.222  1.00  0.00     0.087 A 
ATOM      7  C   UNL A   1      31.939  28.296  24.954  1.00  0.00     0.109 A 
ATOM      8  N   UNL A   1      31.847  29.655  24.837  1.00  0.00    -0.254 NA
ATOM      9  C   UNL A   1      31.855  30.409  25.963  1.00  0.00     0.111 A 
ATOM     10  C   UNL A   1      32.076  28.529  27.367  1.00  0.00     0.019 A 
ATOM     11  C   UNL A   1      31.947  29.898  27.241  1.00  0.00     0.021 A 
BRANCH   7  12
ATOM     12  C   UNL A   1      31.902  27.445  23.671  1.00  0.00     0.320 C 
BRANCH  12  13
ATOM     13  N   UNL A   1      30.592  27.038  23.086  1.00  0.00    -0.325 N 
ATOM     14  C   UNL A   1      29.606  28.114  23.154  1.00  0.00     0.333 C 
ATOM     15  H   UNL A   1      30.781  26.859  22.099  1.00  0.00     0.348 HD
BRANCH  13  16
ATOM     16  C   UNL A   1      30.067  25.756  23.604  1.00  0.00     0.364 C 
BRANCH  16  17
ATOM     17  C   UNL A   1      30.883  24.514  23.305  1.00  0.00     0.282 A 
ATOM     18  C   UNL A   1      31.830  22.607  23.207  1.00  0.00     0.202 A 
ATOM     19  N   UNL A   1      32.457  23.337  22.267  1.00  0.00    -0.057 NA
ATOM     20  N   UNL A   1      30.790  23.299  23.822  1.00  0.00    -0.186 NA
ATOM     21  O   UNL A   1      31.839  24.591  22.332  1.00  0.00    -0.333 OA
BRANCH  18  22
ATOM     22  C   UNL A   1      32.359  21.330  23.739  1.00  0.00     0.023 A 
ATOM     23  C   UNL A   1      32.453  17.706  22.526  1.00  0.00     0.044 C 
ATOM     24  C   UNL A   1      32.671  18.910  23.411  1.00  0.00    -0.050 A 
ATOM     25  C   UNL A   1      32.668  18.722  24.798  1.00  0.00     0.003 A 
ATOM     26  C   UNL A   1      32.584  20.225  22.890  1.00  0.00     0.015 A 
ATOM     27  C   UNL A   1      32.554  19.819  25.653  1.00  0.00     0.001 A 
ATOM     28  C   UNL A   1      32.381  21.108  25.130  1.00  0.00     0.012 A 
ENDBRANCH  18  22
ENDBRANCH  16  17
ENDBRANCH  13  16
ENDBRANCH  12  13
ENDBRANCH   7  12
ENDBRANCH   4   6
ENDBRANCH   3   4
ENDBRANCH   2   3
ENDBRANCH   1   2
BRANCH   1  29
ATOM     29  O   UNL A   1      35.196  23.003  25.134  1.00  0.00    -0.374 OA
BRANCH  29  30
ATOM     30  C   UNL A   1      35.984  22.033  25.749  1.00  0.00     0.202 C 
BRANCH  30  31
ATOM     31  C   UNL A   1      37.139  21.552  24.888  1.00  0.00     0.261 C 
BRANCH  31  32
ATOM     32  O   UNL A   1      38.419  22.190  25.138  1.00  0.00    -0.460 OA
BRANCH  32  33
ATOM     33  C   UNL A   1      39.174  22.376  26.248  1.00  0.00     0.338 C 
ATOM     34  O   UNL A   1      39.817  21.454  26.742  1.00  0.00    -0.246 OA
BRANCH  33  35
ATOM     35  C   UNL A   1      39.468  23.753  26.678  1.00  0.00     0.060 A 
ATOM     36  C   UNL A   1      40.335  24.563  25.930  1.00  0.00     0.016 A 
ATOM     37  C   UNL A   1      38.832  24.274  27.795  1.00  0.00     0.016 A 
ATOM     38  C   UNL A   1      40.739  25.812  26.419  1.00  0.00     0.010 A 
ATOM     39  C   UNL A   1      39.290  25.469  28.322  1.00  0.00     0.010 A 
ATOM     40  C   UNL A   1      40.276  26.229  27.663  1.00  0.00    -0.014 A 
BRANCH  40  41
ATOM     41  C   UNL A   1      40.801  27.378  28.411  1.00  0.00     0.031 A 
ATOM     42  C   UNL A   1      39.913  28.524  28.662  1.00  0.00     0.074 A 
ATOM     43  C   UNL A   1      41.967  27.295  29.102  1.00  0.00     0.049 A 
ATOM     44  N   UNL A   1      40.347  29.663  29.071  1.00  0.00    -0.248 NA
ATOM     45  C   UNL A   1      38.465  28.501  28.474  1.00  0.00     0.031 C 
ATOM     46  C   UNL A   1      42.410  28.022  30.294  1.00  0.00     0.029 A 
ATOM     47  N   UNL A   1      43.016  26.392  28.942  1.00  0.00    -0.354 N 
ATOM     48  C   UNL A   1      39.267  30.358  29.551  1.00  0.00     0.074 A 
ATOM     49  C   UNL A   1      38.109  29.650  29.057  1.00  0.00     0.031 C 
ATOM     50  C   UNL A   1      43.711  27.744  30.535  1.00  0.00     0.029 A 
ATOM     51  C   UNL A   1      44.205  26.929  29.427  1.00  0.00     0.049 A 
ATOM     52  H   UNL A   1      42.928  25.498  28.543  1.00  0.00     0.167 HD
ATOM     53  C   UNL A   1      39.484  31.360  30.449  1.00  0.00     0.037 A 
ATOM     54  C   UNL A   1      45.246  27.102  28.568  1.00  0.00     0.037 A 
ATOM     55  C   UNL A   1      40.919  31.476  30.774  1.00  0.00     0.049 A 
ATOM     56  C   UNL A   1      45.390  28.582  28.356  1.00  0.00     0.074 A 
ATOM     57  C   UNL A   1      41.708  31.100  31.851  1.00  0.00     0.029 A 
ATOM     58  N   UNL A   1      41.815  31.724  29.745  1.00  0.00    -0.354 N 
ATOM     59  N   UNL A   1      44.636  29.434  28.991  1.00  0.00    -0.248 NA
ATOM     60  C   UNL A   1      46.311  29.245  27.447  1.00  0.00     0.031 C 
ATOM     61  C   UNL A   1      43.081  31.120  31.436  1.00  0.00     0.029 A 
ATOM     62  C   UNL A   1      43.134  31.514  30.110  1.00  0.00     0.049 A 
ATOM     63  H   UNL A   1      41.541  32.019  28.847  1.00  0.00     0.167 HD
ATOM     64  C   UNL A   1      44.878  30.694  28.592  1.00  0.00     0.074 A 
ATOM     65  C   UNL A   1      45.942  30.534  27.605  1.00  0.00     0.031 C 
ATOM     66  C   UNL A   1      44.181  31.742  29.113  1.00  0.00     0.037 A 
BRANCH  53  67
ATOM     67  C   UNL A   1      38.367  32.055  31.192  1.00  0.00     0.058 A 
ATOM     68  C   UNL A   1      37.977  31.628  32.477  1.00  0.00     0.135 A 
ATOM     69  C   UNL A   1      37.648  33.167  30.698  1.00  0.00     0.135 A 
ATOM     70  F   UNL A   1      38.608  30.627  33.104  1.00  0.00    -0.206 F 
ATOM     71  C   UNL A   1      36.926  32.211  33.186  1.00  0.00     0.059 A 
ATOM     72  C   UNL A   1      36.551  33.729  31.360  1.00  0.00     0.059 A 
ATOM     73  F   UNL A   1      38.022  33.797  29.574  1.00  0.00    -0.206 F 
ATOM     74  C   UNL A   1      36.205  33.251  32.615  1.00  0.00     0.060 A 
BRANCH  74  75
ATOM     75  S   UNL A   1      34.858  33.989  33.556  1.00  0.00     0.124 S 
ATOM     76  O   UNL A   1      34.897  35.380  33.115  1.00  0.00    -0.237 OA
ATOM     77  O   UNL A   1      33.712  33.211  33.097  1.00  0.00    -0.237 OA
ATOM     78  O   UNL A   1      35.249  33.768  34.945  1.00  0.00    -0.744 OA
ENDBRANCH  74  75
ENDBRANCH  53  67
BRANCH  54  79
ATOM     79  C   UNL A   1      45.361  25.971  27.574  1.00  0.00     0.058 A 
ATOM     80  C   UNL A   1      45.786  24.704  28.048  1.00  0.00     0.135 A 
ATOM     81  C   UNL A   1      44.649  25.966  26.363  1.00  0.00     0.135 A 
ATOM     82  F   UNL A   1      46.429  24.612  29.225  1.00  0.00    -0.206 F 
ATOM     83  C   UNL A   1      45.420  23.500  27.428  1.00  0.00     0.059 A 
ATOM     84  C   UNL A   1      44.246  24.770  25.740  1.00  0.00     0.059 A 
ATOM     85  F   UNL A   1      44.207  27.121  25.843  1.00  0.00    -0.206 F 
ATOM     86  C   UNL A   1      44.594  23.540  26.306  1.00  0.00     0.060 A 
BRANCH  86  87
ATOM     87  S   UNL A   1      43.760  22.004  25.789  1.00  0.00     0.124 S 
ATOM     88  O   UNL A   1      43.034  21.627  26.995  1.00  0.00    -0.237 OA
ATOM     89  O   UNL A   1      42.931  22.458  24.673  1.00  0.00    -0.237 OA
ATOM     90  O   UNL A   1      44.865  21.135  25.410  1.00  0.00    -0.744 OA
ENDBRANCH  86  87
ENDBRANCH  54  79
BRANCH  66  91
ATOM     91  C   UNL A   1      44.475  33.125  28.667  1.00  0.00     0.058 A 
ATOM     92  C   UNL A   1      44.985  34.079  29.555  1.00  0.00     0.135 A 
ATOM     93  C   UNL A   1      44.195  33.546  27.354  1.00  0.00     0.135 A 
ATOM     94  F   UNL A   1      45.188  33.782  30.850  1.00  0.00    -0.206 F 
ATOM     95  C   UNL A   1      45.317  35.355  29.130  1.00  0.00     0.059 A 
ATOM     96  C   UNL A   1      44.438  34.837  26.930  1.00  0.00     0.059 A 
ATOM     97  F   UNL A   1      43.725  32.706  26.421  1.00  0.00    -0.206 F 
ATOM     98  C   UNL A   1      45.048  35.717  27.812  1.00  0.00     0.060 A 
BRANCH  98  99
ATOM     99  S   UNL A   1      45.528  37.345  27.238  1.00  0.00     0.124 S 
ATOM    100  O   UNL A   1      46.392  37.035  26.103  1.00  0.00    -0.237 OA
ATOM    101  O   UNL A   1      44.230  37.923  26.909  1.00  0.00    -0.237 OA
ATOM    102  O   UNL A   1      46.203  37.925  28.395  1.00  0.00    -0.744 OA
ENDBRANCH  98  99
ENDBRANCH  66  91
ENDBRANCH  40  41
ENDBRANCH  33  35
ENDBRANCH  32  33
ENDBRANCH  31  32
ENDBRANCH  30  31
ENDBRANCH  29  30
ENDBRANCH   1  29
TORSDOF 22
ENDMDL
