MODEL 1
REMARK VINA RESULT:     -10.4      0.000      0.000
REMARK SMILES CC(C)C[C@H](NC(=O)[C@@H](NC(=O)N1CC(OCCOCCOC(=O)c2ccc(-c3c4nc(c(-c5c(F)cc(S(=O)(=O)[O-])cc5F)c5ccc([nH]5)c(-c5c(F)cc(S(=O)(=O)[O-])cc5F)c5nc(c(-c6c(F)cc(S(=O)(=O)[O-])cc6F)c6ccc3[nH]6)C=C5)C=C4)cc2)=Nc2ccccc21)C(C)C)C(=O)[O-]
REMARK SMILES IDX 18 1 17 2 16 3 15 4 13 5 14 6 97 7 92 8 96 9 91 10 93 11
REMARK SMILES IDX 95 12 94 13 11 14 10 15 12 17 9 18 7 19 6 20 8 22 5 23 4 24
REMARK SMILES IDX 2 25 1 26 3 27 101 28 102 29 103 30 98 31 99 32 100 33 19 34
REMARK SMILES IDX 20 35 21 36 22 37 23 38 24 39 25 40 26 41 90 42 27 43 89 44
REMARK SMILES IDX 28 45 29 46 30 47 83 48 31 49 88 50 82 51 84 52 32 53 87 54
REMARK SMILES IDX 81 55 80 56 33 58 67 59 46 60 66 61 47 62 50 63 65 64 85 65
REMARK SMILES IDX 48 66 49 67 64 69 86 70 51 71 34 72 35 73 44 74 36 75 37 76
REMARK SMILES IDX 43 77 45 78 38 79 39 80 40 81 41 82 42 83 68 84 69 85 78 86
REMARK SMILES IDX 70 87 71 88 77 89 79 90 72 91 73 92 74 93 75 94 76 95 52 96
REMARK SMILES IDX 53 97 62 98 54 99 55 100 61 101 63 102 56 103 57 104 58 105
REMARK SMILES IDX 59 106 60 107
REMARK H PARENT 10 16 6 21 84 57 50 68
REMARK Flexibility Score: inf
ROOT
ATOM      1  C   UNL A   1      34.035  29.602  27.828  1.00  0.00     0.202 C 
ENDROOT
BRANCH   1   2
ATOM      2  C   UNL A   1      34.882  28.618  27.010  1.00  0.00     0.259 C 
BRANCH   2   3
ATOM      3  O   UNL A   1      34.800  28.902  25.594  1.00  0.00    -0.477 OA
BRANCH   3   4
ATOM      4  C   UNL A   1      33.664  28.560  24.943  1.00  0.00     0.209 C 
ATOM      5  N   UNL A   1      32.945  26.992  23.247  1.00  0.00    -0.283 N 
ATOM      6  C   UNL A   1      33.623  27.098  24.547  1.00  0.00     0.224 C 
ATOM      7  C   UNL A   1      31.700  27.686  23.240  1.00  0.00     0.072 A 
ATOM      8  C   UNL A   1      31.630  28.907  23.949  1.00  0.00     0.091 A 
ATOM      9  C   UNL A   1      30.561  27.191  22.609  1.00  0.00     0.029 A 
ATOM     10  N   UNL A   1      32.711  29.404  24.698  1.00  0.00    -0.214 NA
ATOM     11  C   UNL A   1      30.478  29.687  23.866  1.00  0.00     0.030 A 
ATOM     12  C   UNL A   1      29.396  27.965  22.569  1.00  0.00     0.002 A 
ATOM     13  C   UNL A   1      29.368  29.226  23.162  1.00  0.00     0.002 A 
BRANCH   5  14
ATOM     14  C   UNL A   1      33.309  25.991  22.404  1.00  0.00     0.323 C 
ATOM     15  N   UNL A   1      33.411  24.695  22.786  1.00  0.00    -0.326 N 
ATOM     16  H   UNL A   1      34.059  24.219  22.218  1.00  0.00     0.166 HD
ATOM     17  O   UNL A   1      33.494  26.202  21.199  1.00  0.00    -0.248 OA
BRANCH  15  18
ATOM     18  C   UNL A   1      32.835  23.768  23.807  1.00  0.00     0.175 C 
BRANCH  18  19
ATOM     19  C   UNL A   1      33.212  22.246  23.786  1.00  0.00     0.243 C 
ATOM     20  N   UNL A   1      34.136  21.620  24.548  1.00  0.00    -0.346 N 
ATOM     21  H   UNL A   1      34.255  20.674  24.306  1.00  0.00     0.164 HD
ATOM     22  O   UNL A   1      32.611  21.483  23.014  1.00  0.00    -0.273 OA
BRANCH  20  23
ATOM     23  C   UNL A   1      34.995  22.038  25.652  1.00  0.00     0.128 C 
BRANCH  23  24
ATOM     24  C   UNL A   1      35.772  23.306  25.260  1.00  0.00     0.034 C 
BRANCH  24  25
ATOM     25  C   UNL A   1      37.018  22.955  24.423  1.00  0.00    -0.015 C 
ATOM     26  C   UNL A   1      37.600  21.608  24.865  1.00  0.00     0.007 C 
ATOM     27  C   UNL A   1      36.679  22.919  22.936  1.00  0.00     0.007 C 
ENDBRANCH  24  25
ENDBRANCH  23  24
BRANCH  23  28
ATOM     28  C   UNL A   1      34.160  22.219  26.918  1.00  0.00     0.064 C 
ATOM     29  O   UNL A   1      33.766  21.306  27.623  1.00  0.00    -0.548 OA
ATOM     30  O   UNL A   1      33.843  23.483  27.243  1.00  0.00    -0.548 OA
ENDBRANCH  23  28
ENDBRANCH  20  23
ENDBRANCH  18  19
BRANCH  18  31
ATOM     31  C   UNL A   1      31.372  24.061  24.264  1.00  0.00     0.015 C 
ATOM     32  C   UNL A   1      30.242  23.941  23.230  1.00  0.00     0.010 C 
ATOM     33  C   UNL A   1      30.982  23.094  25.395  1.00  0.00     0.010 C 
ENDBRANCH  18  31
ENDBRANCH  15  18
ENDBRANCH   5  14
ENDBRANCH   3   4
ENDBRANCH   2   3
ENDBRANCH   1   2
BRANCH   1  34
ATOM     34  O   UNL A   1      33.933  30.910  27.250  1.00  0.00    -0.374 OA
BRANCH  34  35
ATOM     35  C   UNL A   1      33.768  31.972  28.189  1.00  0.00     0.202 C 
BRANCH  35  36
ATOM     36  C   UNL A   1      32.932  33.143  27.668  1.00  0.00     0.261 C 
BRANCH  36  37
ATOM     37  O   UNL A   1      33.623  34.388  27.784  1.00  0.00    -0.460 OA
BRANCH  37  38
ATOM     38  C   UNL A   1      33.469  34.995  28.981  1.00  0.00     0.338 C 
ATOM     39  O   UNL A   1      32.521  35.628  29.385  1.00  0.00    -0.246 OA
BRANCH  38  40
ATOM     40  C   UNL A   1      34.608  34.597  29.823  1.00  0.00     0.060 A 
ATOM     41  C   UNL A   1      35.872  34.690  29.240  1.00  0.00     0.016 A 
ATOM     42  C   UNL A   1      34.445  34.128  31.130  1.00  0.00     0.016 A 
ATOM     43  C   UNL A   1      36.981  34.239  29.941  1.00  0.00     0.010 A 
ATOM     44  C   UNL A   1      35.564  33.692  31.841  1.00  0.00     0.010 A 
ATOM     45  C   UNL A   1      36.828  33.698  31.227  1.00  0.00    -0.014 A 
BRANCH  45  46
ATOM     46  C   UNL A   1      37.981  32.988  31.826  1.00  0.00     0.031 A 
ATOM     47  C   UNL A   1      38.483  33.434  33.172  1.00  0.00     0.074 A 
ATOM     48  C   UNL A   1      38.494  31.899  31.226  1.00  0.00     0.049 A 
ATOM     49  N   UNL A   1      39.403  32.895  33.930  1.00  0.00    -0.248 NA
ATOM     50  C   UNL A   1      37.868  34.643  33.743  1.00  0.00     0.031 C 
ATOM     51  C   UNL A   1      38.062  31.366  29.934  1.00  0.00     0.029 A 
ATOM     52  N   UNL A   1      39.474  31.035  31.637  1.00  0.00    -0.354 N 
ATOM     53  C   UNL A   1      39.472  33.695  35.064  1.00  0.00     0.074 A 
ATOM     54  C   UNL A   1      38.538  34.782  34.877  1.00  0.00     0.031 C 
ATOM     55  C   UNL A   1      38.768  30.255  29.664  1.00  0.00     0.029 A 
ATOM     56  C   UNL A   1      39.711  30.010  30.754  1.00  0.00     0.049 A 
ATOM     57  H   UNL A   1      39.964  31.140  32.484  1.00  0.00     0.167 HD
ATOM     58  C   UNL A   1      40.229  33.525  36.173  1.00  0.00     0.037 A 
ATOM     59  C   UNL A   1      40.590  28.991  30.820  1.00  0.00     0.037 A 
ATOM     60  C   UNL A   1      41.148  32.433  36.357  1.00  0.00     0.049 A 
ATOM     61  C   UNL A   1      41.456  28.850  32.043  1.00  0.00     0.074 A 
ATOM     62  C   UNL A   1      41.948  32.157  37.451  1.00  0.00     0.029 A 
ATOM     63  N   UNL A   1      41.390  31.438  35.421  1.00  0.00    -0.354 N 
ATOM     64  N   UNL A   1      41.484  29.593  33.124  1.00  0.00    -0.248 NA
ATOM     65  C   UNL A   1      42.405  27.727  32.061  1.00  0.00     0.031 C 
ATOM     66  C   UNL A   1      42.709  31.021  37.158  1.00  0.00     0.029 A 
ATOM     67  C   UNL A   1      42.346  30.561  35.902  1.00  0.00     0.049 A 
ATOM     68  H   UNL A   1      40.947  31.366  34.544  1.00  0.00     0.167 HD
ATOM     69  C   UNL A   1      42.434  29.014  33.960  1.00  0.00     0.074 A 
ATOM     70  C   UNL A   1      42.949  27.854  33.264  1.00  0.00     0.031 C 
ATOM     71  C   UNL A   1      42.841  29.406  35.194  1.00  0.00     0.037 A 
BRANCH  58  72
ATOM     72  C   UNL A   1      40.107  34.553  37.262  1.00  0.00     0.058 A 
ATOM     73  C   UNL A   1      40.946  35.677  37.314  1.00  0.00     0.135 A 
ATOM     74  C   UNL A   1      39.124  34.422  38.255  1.00  0.00     0.135 A 
ATOM     75  F   UNL A   1      41.917  35.840  36.401  1.00  0.00    -0.206 F 
ATOM     76  C   UNL A   1      40.832  36.622  38.328  1.00  0.00     0.059 A 
ATOM     77  C   UNL A   1      38.975  35.369  39.265  1.00  0.00     0.059 A 
ATOM     78  F   UNL A   1      38.300  33.363  38.255  1.00  0.00    -0.206 F 
ATOM     79  C   UNL A   1      39.843  36.458  39.301  1.00  0.00     0.060 A 
BRANCH  79  80
ATOM     80  S   UNL A   1      39.707  37.693  40.610  1.00  0.00     0.124 S 
ATOM     81  O   UNL A   1      38.873  38.705  39.969  1.00  0.00    -0.237 OA
ATOM     82  O   UNL A   1      39.072  36.938  41.686  1.00  0.00    -0.237 OA
ATOM     83  O   UNL A   1      41.092  38.083  40.855  1.00  0.00    -0.744 OA
ENDBRANCH  79  80
ENDBRANCH  58  72
BRANCH  59  84
ATOM     84  C   UNL A   1      40.688  28.024  29.694  1.00  0.00     0.058 A 
ATOM     85  C   UNL A   1      41.667  28.158  28.700  1.00  0.00     0.135 A 
ATOM     86  C   UNL A   1      39.802  26.940  29.598  1.00  0.00     0.135 A 
ATOM     87  F   UNL A   1      42.533  29.182  28.745  1.00  0.00    -0.206 F 
ATOM     88  C   UNL A   1      41.757  27.260  27.640  1.00  0.00     0.059 A 
ATOM     89  C   UNL A   1      39.886  26.016  28.563  1.00  0.00     0.059 A 
ATOM     90  F   UNL A   1      38.855  26.759  30.532  1.00  0.00    -0.206 F 
ATOM     91  C   UNL A   1      40.862  26.191  27.582  1.00  0.00     0.060 A 
BRANCH  91  92
ATOM     92  S   UNL A   1      41.014  25.003  26.230  1.00  0.00     0.124 S 
ATOM     93  O   UNL A   1      39.647  24.509  26.118  1.00  0.00    -0.237 OA
ATOM     94  O   UNL A   1      41.482  25.845  25.133  1.00  0.00    -0.237 OA
ATOM     95  O   UNL A   1      41.994  24.045  26.735  1.00  0.00    -0.744 OA
ENDBRANCH  91  92
ENDBRANCH  59  84
BRANCH  71  96
ATOM     96  C   UNL A   1      43.876  28.562  35.885  1.00  0.00     0.058 A 
ATOM     97  C   UNL A   1      43.517  27.487  36.711  1.00  0.00     0.135 A 
ATOM     98  C   UNL A   1      45.243  28.791  35.661  1.00  0.00     0.135 A 
ATOM     99  F   UNL A   1      42.223  27.230  36.961  1.00  0.00    -0.206 F 
ATOM    100  C   UNL A   1      44.479  26.678  37.307  1.00  0.00     0.059 A 
ATOM    101  C   UNL A   1      46.221  27.978  36.224  1.00  0.00     0.059 A 
ATOM    102  F   UNL A   1      45.640  29.800  34.869  1.00  0.00    -0.206 F 
ATOM    103  C   UNL A   1      45.828  26.929  37.054  1.00  0.00     0.060 A 
BRANCH 103 104
ATOM    104  S   UNL A   1      47.065  25.843  37.797  1.00  0.00     0.124 S 
ATOM    105  O   UNL A   1      47.529  26.652  38.919  1.00  0.00    -0.237 OA
ATOM    106  O   UNL A   1      46.278  24.665  38.148  1.00  0.00    -0.237 OA
ATOM    107  O   UNL A   1      48.033  25.645  36.722  1.00  0.00    -0.744 OA
ENDBRANCH 103 104
ENDBRANCH  71  96
ENDBRANCH  45  46
ENDBRANCH  38  40
ENDBRANCH  37  38
ENDBRANCH  36  37
ENDBRANCH  35  36
ENDBRANCH  34  35
ENDBRANCH   1  34
TORSDOF 24
ENDMDL
MODEL 2
REMARK VINA RESULT:     -10.2      1.539      3.139
REMARK SMILES CC(C)C[C@H](NC(=O)[C@@H](NC(=O)N1CC(OCCOCCOC(=O)c2ccc(-c3c4nc(c(-c5c(F)cc(S(=O)(=O)[O-])cc5F)c5ccc([nH]5)c(-c5c(F)cc(S(=O)(=O)[O-])cc5F)c5nc(c(-c6c(F)cc(S(=O)(=O)[O-])cc6F)c6ccc3[nH]6)C=C5)C=C4)cc2)=Nc2ccccc21)C(C)C)C(=O)[O-]
REMARK SMILES IDX 18 1 17 2 16 3 15 4 13 5 14 6 97 7 92 8 96 9 91 10 93 11
REMARK SMILES IDX 95 12 94 13 11 14 10 15 12 17 9 18 7 19 6 20 8 22 5 23 4 24
REMARK SMILES IDX 2 25 1 26 3 27 101 28 102 29 103 30 98 31 99 32 100 33 19 34
REMARK SMILES IDX 20 35 21 36 22 37 23 38 24 39 25 40 26 41 90 42 27 43 89 44
REMARK SMILES IDX 28 45 29 46 30 47 83 48 31 49 88 50 82 51 84 52 32 53 87 54
REMARK SMILES IDX 81 55 80 56 33 58 67 59 46 60 66 61 47 62 50 63 65 64 85 65
REMARK SMILES IDX 48 66 49 67 64 69 86 70 51 71 34 72 35 73 44 74 36 75 37 76
REMARK SMILES IDX 43 77 45 78 38 79 39 80 40 81 41 82 42 83 68 84 69 85 78 86
REMARK SMILES IDX 70 87 71 88 77 89 79 90 72 91 73 92 74 93 75 94 76 95 52 96
REMARK SMILES IDX 53 97 62 98 54 99 55 100 61 101 63 102 56 103 57 104 58 105
REMARK SMILES IDX 59 106 60 107
REMARK H PARENT 10 16 6 21 84 57 50 68
REMARK Flexibility Score: inf
ROOT
ATOM      1  C   UNL A   1      33.743  29.099  27.346  1.00  0.00     0.202 C 
ENDROOT
BRANCH   1   2
ATOM      2  C   UNL A   1      34.466  28.038  26.505  1.00  0.00     0.259 C 
BRANCH   2   3
ATOM      3  O   UNL A   1      33.626  27.553  25.432  1.00  0.00    -0.477 OA
BRANCH   3   4
ATOM      4  C   UNL A   1      33.154  26.288  25.520  1.00  0.00     0.209 C 
ATOM      5  N   UNL A   1      33.483  24.146  24.442  1.00  0.00    -0.283 N 
ATOM      6  C   UNL A   1      34.180  25.241  25.134  1.00  0.00     0.224 C 
ATOM      7  C   UNL A   1      32.354  23.686  25.180  1.00  0.00     0.072 A 
ATOM      8  C   UNL A   1      31.589  24.653  25.872  1.00  0.00     0.091 A 
ATOM      9  C   UNL A   1      32.011  22.339  25.278  1.00  0.00     0.029 A 
ATOM     10  N   UNL A   1      31.947  26.012  25.905  1.00  0.00    -0.214 NA
ATOM     11  C   UNL A   1      30.404  24.272  26.500  1.00  0.00     0.030 A 
ATOM     12  C   UNL A   1      30.842  21.966  25.947  1.00  0.00     0.002 A 
ATOM     13  C   UNL A   1      30.020  22.934  26.522  1.00  0.00     0.002 A 
BRANCH   5  14
ATOM     14  C   UNL A   1      34.154  23.452  23.487  1.00  0.00     0.323 C 
ATOM     15  N   UNL A   1      35.234  22.677  23.748  1.00  0.00    -0.326 N 
ATOM     16  H   UNL A   1      35.811  22.613  22.953  1.00  0.00     0.166 HD
ATOM     17  O   UNL A   1      33.758  23.428  22.315  1.00  0.00    -0.248 OA
BRANCH  15  18
ATOM     18  C   UNL A   1      35.813  21.888  24.877  1.00  0.00     0.175 C 
BRANCH  18  19
ATOM     19  C   UNL A   1      34.872  21.051  25.812  1.00  0.00     0.243 C 
ATOM     20  N   UNL A   1      34.144  19.962  25.479  1.00  0.00    -0.346 N 
ATOM     21  H   UNL A   1      33.567  19.649  26.212  1.00  0.00     0.164 HD
ATOM     22  O   UNL A   1      34.762  21.372  27.006  1.00  0.00    -0.273 OA
BRANCH  20  23
ATOM     23  C   UNL A   1      34.026  19.147  24.274  1.00  0.00     0.128 C 
BRANCH  23  24
ATOM     24  C   UNL A   1      35.122  18.068  24.262  1.00  0.00     0.034 C 
BRANCH  24  25
ATOM     25  C   UNL A   1      34.709  16.854  25.117  1.00  0.00    -0.015 C 
ATOM     26  C   UNL A   1      33.960  15.825  24.264  1.00  0.00     0.007 C 
ATOM     27  C   UNL A   1      35.931  16.210  25.767  1.00  0.00     0.007 C 
ENDBRANCH  24  25
ENDBRANCH  23  24
BRANCH  23  28
ATOM     28  C   UNL A   1      32.617  18.566  24.178  1.00  0.00     0.064 C 
ATOM     29  O   UNL A   1      31.890  18.356  25.134  1.00  0.00    -0.548 OA
ATOM     30  O   UNL A   1      32.183  18.262  22.944  1.00  0.00    -0.548 OA
ENDBRANCH  23  28
ENDBRANCH  20  23
ENDBRANCH  18  19
BRANCH  18  31
ATOM     31  C   UNL A   1      37.046  22.513  25.600  1.00  0.00     0.015 C 
ATOM     32  C   UNL A   1      38.322  21.668  25.740  1.00  0.00     0.010 C 
ATOM     33  C   UNL A   1      37.489  23.784  24.856  1.00  0.00     0.010 C 
ENDBRANCH  18  31
ENDBRANCH  15  18
ENDBRANCH   5  14
ENDBRANCH   3   4
ENDBRANCH   2   3
ENDBRANCH   1   2
BRANCH   1  34
ATOM     34  O   UNL A   1      33.835  30.429  26.817  1.00  0.00    -0.374 OA
BRANCH  34  35
ATOM     35  C   UNL A   1      33.933  31.460  27.798  1.00  0.00     0.202 C 
BRANCH  35  36
ATOM     36  C   UNL A   1      32.988  32.641  27.560  1.00  0.00     0.261 C 
BRANCH  36  37
ATOM     37  O   UNL A   1      33.679  33.892  27.577  1.00  0.00    -0.460 OA
BRANCH  37  38
ATOM     38  C   UNL A   1      33.524  34.593  28.721  1.00  0.00     0.338 C 
ATOM     39  O   UNL A   1      32.577  35.261  29.069  1.00  0.00    -0.246 OA
BRANCH  38  40
ATOM     40  C   UNL A   1      34.656  34.256  29.599  1.00  0.00     0.060 A 
ATOM     41  C   UNL A   1      35.930  34.420  29.055  1.00  0.00     0.016 A 
ATOM     42  C   UNL A   1      34.479  33.776  30.900  1.00  0.00     0.016 A 
ATOM     43  C   UNL A   1      37.040  34.030  29.790  1.00  0.00     0.010 A 
ATOM     44  C   UNL A   1      35.598  33.401  31.645  1.00  0.00     0.010 A 
ATOM     45  C   UNL A   1      36.878  33.479  31.070  1.00  0.00    -0.014 A 
BRANCH  45  46
ATOM     46  C   UNL A   1      38.049  32.833  31.705  1.00  0.00     0.031 A 
ATOM     47  C   UNL A   1      38.500  33.321  33.055  1.00  0.00     0.074 A 
ATOM     48  C   UNL A   1      38.626  31.761  31.132  1.00  0.00     0.049 A 
ATOM     49  N   UNL A   1      39.426  32.836  33.840  1.00  0.00    -0.248 NA
ATOM     50  C   UNL A   1      37.816  34.508  33.593  1.00  0.00     0.031 C 
ATOM     51  C   UNL A   1      38.249  31.191  29.839  1.00  0.00     0.029 A 
ATOM     52  N   UNL A   1      39.637  30.951  31.577  1.00  0.00    -0.354 N 
ATOM     53  C   UNL A   1      39.433  33.654  34.963  1.00  0.00     0.074 A 
ATOM     54  C   UNL A   1      38.453  34.694  34.740  1.00  0.00     0.031 C 
ATOM     55  C   UNL A   1      39.012  30.110  29.601  1.00  0.00     0.029 A 
ATOM     56  C   UNL A   1      39.941  29.926  30.715  1.00  0.00     0.049 A 
ATOM     57  H   UNL A   1      40.102  31.090  32.433  1.00  0.00     0.167 HD
ATOM     58  C   UNL A   1      40.172  33.536  36.091  1.00  0.00     0.037 A 
ATOM     59  C   UNL A   1      40.865  28.950  30.815  1.00  0.00     0.037 A 
ATOM     60  C   UNL A   1      41.137  32.491  36.311  1.00  0.00     0.049 A 
ATOM     61  C   UNL A   1      41.710  28.867  32.059  1.00  0.00     0.074 A 
ATOM     62  C   UNL A   1      41.924  32.269  37.426  1.00  0.00     0.029 A 
ATOM     63  N   UNL A   1      41.446  31.496  35.395  1.00  0.00    -0.354 N 
ATOM     64  N   UNL A   1      41.678  29.625  33.129  1.00  0.00    -0.248 NA
ATOM     65  C   UNL A   1      42.709  27.791  32.114  1.00  0.00     0.031 C 
ATOM     66  C   UNL A   1      42.744  31.167  37.167  1.00  0.00     0.029 A 
ATOM     67  C   UNL A   1      42.432  30.672  35.909  1.00  0.00     0.049 A 
ATOM     68  H   UNL A   1      41.027  31.391  34.510  1.00  0.00     0.167 HD
ATOM     69  C   UNL A   1      42.635  29.104  33.994  1.00  0.00     0.074 A 
ATOM     70  C   UNL A   1      43.220  27.960  33.326  1.00  0.00     0.031 C 
ATOM     71  C   UNL A   1      42.996  29.532  35.230  1.00  0.00     0.037 A 
BRANCH  58  72
ATOM     72  C   UNL A   1      39.977  34.572  37.161  1.00  0.00     0.058 A 
ATOM     73  C   UNL A   1      39.028  34.409  38.183  1.00  0.00     0.135 A 
ATOM     74  C   UNL A   1      40.764  35.734  37.177  1.00  0.00     0.135 A 
ATOM     75  F   UNL A   1      38.234  33.327  38.203  1.00  0.00    -0.206 F 
ATOM     76  C   UNL A   1      38.848  35.375  39.168  1.00  0.00     0.059 A 
ATOM     77  C   UNL A   1      40.620  36.701  38.167  1.00  0.00     0.059 A 
ATOM     78  F   UNL A   1      41.682  35.941  36.219  1.00  0.00    -0.206 F 
ATOM     79  C   UNL A   1      39.649  36.519  39.150  1.00  0.00     0.060 A 
BRANCH  79  80
ATOM     80  S   UNL A   1      39.405  37.764  40.434  1.00  0.00     0.124 S 
ATOM     81  O   UNL A   1      38.183  38.419  39.976  1.00  0.00    -0.237 OA
ATOM     82  O   UNL A   1      39.274  36.949  41.638  1.00  0.00    -0.237 OA
ATOM     83  O   UNL A   1      40.617  38.574  40.358  1.00  0.00    -0.744 OA
ENDBRANCH  79  80
ENDBRANCH  58  72
BRANCH  59  84
ATOM     84  C   UNL A   1      41.034  27.973  29.707  1.00  0.00     0.058 A 
ATOM     85  C   UNL A   1      40.100  26.952  29.485  1.00  0.00     0.135 A 
ATOM     86  C   UNL A   1      42.138  28.049  28.843  1.00  0.00     0.135 A 
ATOM     87  F   UNL A   1      39.031  26.834  30.288  1.00  0.00    -0.206 F 
ATOM     88  C   UNL A   1      40.260  26.029  28.454  1.00  0.00     0.059 A 
ATOM     89  C   UNL A   1      42.307  27.155  27.792  1.00  0.00     0.059 A 
ATOM     90  F   UNL A   1      43.054  29.017  29.005  1.00  0.00    -0.206 F 
ATOM     91  C   UNL A   1      41.367  26.141  27.612  1.00  0.00     0.060 A 
BRANCH  91  92
ATOM     92  S   UNL A   1      41.543  24.971  26.248  1.00  0.00     0.124 S 
ATOM     93  O   UNL A   1      42.986  24.974  26.044  1.00  0.00    -0.237 OA
ATOM     94  O   UNL A   1      40.980  23.750  26.818  1.00  0.00    -0.237 OA
ATOM     95  O   UNL A   1      40.751  25.578  25.182  1.00  0.00    -0.744 OA
ENDBRANCH  91  92
ENDBRANCH  59  84
BRANCH  71  96
ATOM     96  C   UNL A   1      44.054  28.748  35.956  1.00  0.00     0.058 A 
ATOM     97  C   UNL A   1      45.409  29.102  35.887  1.00  0.00     0.135 A 
ATOM     98  C   UNL A   1      43.697  27.672  36.784  1.00  0.00     0.135 A 
ATOM     99  F   UNL A   1      45.803  30.120  35.105  1.00  0.00    -0.206 F 
ATOM    100  C   UNL A   1      46.378  28.405  36.601  1.00  0.00     0.059 A 
ATOM    101  C   UNL A   1      44.645  26.978  37.528  1.00  0.00     0.059 A 
ATOM    102  F   UNL A   1      42.411  27.300  36.894  1.00  0.00    -0.206 F 
ATOM    103  C   UNL A   1      45.985  27.346  37.422  1.00  0.00     0.060 A 
BRANCH 103 104
ATOM    104  S   UNL A   1      47.247  26.478  38.379  1.00  0.00     0.124 S 
ATOM    105  O   UNL A   1      46.718  25.119  38.396  1.00  0.00    -0.237 OA
ATOM    106  O   UNL A   1      48.447  26.681  37.573  1.00  0.00    -0.237 OA
ATOM    107  O   UNL A   1      47.237  27.173  39.663  1.00  0.00    -0.744 OA
ENDBRANCH 103 104
ENDBRANCH  71  96
ENDBRANCH  45  46
ENDBRANCH  38  40
ENDBRANCH  37  38
ENDBRANCH  36  37
ENDBRANCH  35  36
ENDBRANCH  34  35
ENDBRANCH   1  34
TORSDOF 24
ENDMDL
MODEL 3
REMARK VINA RESULT:      -9.9      2.561      4.945
REMARK SMILES CC(C)C[C@H](NC(=O)[C@@H](NC(=O)N1CC(OCCOCCOC(=O)c2ccc(-c3c4nc(c(-c5c(F)cc(S(=O)(=O)[O-])cc5F)c5ccc([nH]5)c(-c5c(F)cc(S(=O)(=O)[O-])cc5F)c5nc(c(-c6c(F)cc(S(=O)(=O)[O-])cc6F)c6ccc3[nH]6)C=C5)C=C4)cc2)=Nc2ccccc21)C(C)C)C(=O)[O-]
REMARK SMILES IDX 18 1 17 2 16 3 15 4 13 5 14 6 97 7 92 8 96 9 91 10 93 11
REMARK SMILES IDX 95 12 94 13 11 14 10 15 12 17 9 18 7 19 6 20 8 22 5 23 4 24
REMARK SMILES IDX 2 25 1 26 3 27 101 28 102 29 103 30 98 31 99 32 100 33 19 34
REMARK SMILES IDX 20 35 21 36 22 37 23 38 24 39 25 40 26 41 90 42 27 43 89 44
REMARK SMILES IDX 28 45 29 46 30 47 83 48 31 49 88 50 82 51 84 52 32 53 87 54
REMARK SMILES IDX 81 55 80 56 33 58 67 59 46 60 66 61 47 62 50 63 65 64 85 65
REMARK SMILES IDX 48 66 49 67 64 69 86 70 51 71 34 72 35 73 44 74 36 75 37 76
REMARK SMILES IDX 43 77 45 78 38 79 39 80 40 81 41 82 42 83 68 84 69 85 78 86
REMARK SMILES IDX 70 87 71 88 77 89 79 90 72 91 73 92 74 93 75 94 76 95 52 96
REMARK SMILES IDX 53 97 62 98 54 99 55 100 61 101 63 102 56 103 57 104 58 105
REMARK SMILES IDX 59 106 60 107
REMARK H PARENT 10 16 6 21 84 57 50 68
REMARK Flexibility Score: inf
ROOT
ATOM      1  C   UNL A   1      34.028  28.057  25.578  1.00  0.00     0.202 C 
ENDROOT
BRANCH   1   2
ATOM      2  C   UNL A   1      33.220  26.869  26.119  1.00  0.00     0.259 C 
BRANCH   2   3
ATOM      3  O   UNL A   1      34.076  25.746  26.429  1.00  0.00    -0.477 OA
BRANCH   3   4
ATOM      4  C   UNL A   1      33.769  24.546  25.883  1.00  0.00     0.209 C 
ATOM      5  N   UNL A   1      32.326  23.650  24.160  1.00  0.00    -0.283 N 
ATOM      6  C   UNL A   1      33.383  24.639  24.421  1.00  0.00     0.224 C 
ATOM      7  C   UNL A   1      32.681  22.357  24.641  1.00  0.00     0.072 A 
ATOM      8  C   UNL A   1      33.396  22.286  25.858  1.00  0.00     0.091 A 
ATOM      9  C   UNL A   1      32.391  21.184  23.945  1.00  0.00     0.029 A 
ATOM     10  N   UNL A   1      33.814  23.436  26.551  1.00  0.00    -0.214 NA
ATOM     11  C   UNL A   1      33.652  21.044  26.437  1.00  0.00     0.030 A 
ATOM     12  C   UNL A   1      32.692  19.944  24.516  1.00  0.00     0.002 A 
ATOM     13  C   UNL A   1      33.285  19.874  25.776  1.00  0.00     0.002 A 
BRANCH   5  14
ATOM     14  C   UNL A   1      31.403  23.924  23.202  1.00  0.00     0.323 C 
ATOM     15  N   UNL A   1      31.554  24.905  22.280  1.00  0.00    -0.326 N 
ATOM     16  H   UNL A   1      30.676  25.229  21.976  1.00  0.00     0.166 HD
ATOM     17  O   UNL A   1      30.389  23.227  23.071  1.00  0.00    -0.248 OA
BRANCH  15  18
ATOM     18  C   UNL A   1      32.651  25.641  21.581  1.00  0.00     0.175 C 
BRANCH  18  19
ATOM     19  C   UNL A   1      32.866  27.171  21.854  1.00  0.00     0.243 C 
ATOM     20  N   UNL A   1      31.938  28.070  22.249  1.00  0.00    -0.346 N 
ATOM     21  H   UNL A   1      32.286  28.990  22.282  1.00  0.00     0.164 HD
ATOM     22  O   UNL A   1      34.001  27.656  21.727  1.00  0.00    -0.273 OA
BRANCH  20  23
ATOM     23  C   UNL A   1      30.534  27.979  22.637  1.00  0.00     0.128 C 
BRANCH  23  24
ATOM     24  C   UNL A   1      30.424  27.538  24.106  1.00  0.00     0.034 C 
BRANCH  24  25
ATOM     25  C   UNL A   1      29.483  26.325  24.249  1.00  0.00    -0.015 C 
ATOM     26  C   UNL A   1      29.532  25.772  25.677  1.00  0.00     0.007 C 
ATOM     27  C   UNL A   1      28.052  26.705  23.880  1.00  0.00     0.007 C 
ENDBRANCH  24  25
ENDBRANCH  23  24
BRANCH  23  28
ATOM     28  C   UNL A   1      29.834  29.309  22.361  1.00  0.00     0.064 C 
ATOM     29  O   UNL A   1      29.664  29.784  21.251  1.00  0.00    -0.548 OA
ATOM     30  O   UNL A   1      29.401  29.985  23.437  1.00  0.00    -0.548 OA
ENDBRANCH  23  28
ENDBRANCH  20  23
ENDBRANCH  18  19
BRANCH  18  31
ATOM     31  C   UNL A   1      32.959  25.201  20.116  1.00  0.00     0.015 C 
ATOM     32  C   UNL A   1      33.219  23.713  19.835  1.00  0.00     0.010 C 
ATOM     33  C   UNL A   1      31.778  25.578  19.206  1.00  0.00     0.010 C 
ENDBRANCH  18  31
ENDBRANCH  15  18
ENDBRANCH   5  14
ENDBRANCH   3   4
ENDBRANCH   2   3
ENDBRANCH   1   2
BRANCH   1  34
ATOM     34  O   UNL A   1      33.224  29.153  25.121  1.00  0.00    -0.374 OA
BRANCH  34  35
ATOM     35  C   UNL A   1      32.239  29.605  26.049  1.00  0.00     0.202 C 
BRANCH  35  36
ATOM     36  C   UNL A   1      32.670  30.821  26.874  1.00  0.00     0.261 C 
BRANCH  36  37
ATOM     37  O   UNL A   1      33.845  30.558  27.643  1.00  0.00    -0.460 OA
BRANCH  37  38
ATOM     38  C   UNL A   1      34.629  31.640  27.842  1.00  0.00     0.338 C 
ATOM     39  O   UNL A   1      34.311  32.807  27.839  1.00  0.00    -0.246 OA
BRANCH  38  40
ATOM     40  C   UNL A   1      35.951  31.152  28.263  1.00  0.00     0.060 A 
ATOM     41  C   UNL A   1      36.038  29.796  28.582  1.00  0.00     0.016 A 
ATOM     42  C   UNL A   1      37.063  31.993  28.363  1.00  0.00     0.016 A 
ATOM     43  C   UNL A   1      37.229  29.288  29.080  1.00  0.00     0.010 A 
ATOM     44  C   UNL A   1      38.267  31.476  28.846  1.00  0.00     0.010 A 
ATOM     45  C   UNL A   1      38.335  30.133  29.255  1.00  0.00    -0.014 A 
BRANCH  45  46
ATOM     46  C   UNL A   1      39.487  29.621  30.032  1.00  0.00     0.031 A 
ATOM     47  C   UNL A   1      39.674  30.099  31.446  1.00  0.00     0.074 A 
ATOM     48  C   UNL A   1      40.284  28.668  29.517  1.00  0.00     0.049 A 
ATOM     49  N   UNL A   1      40.542  29.708  32.341  1.00  0.00    -0.248 NA
ATOM     50  C   UNL A   1      38.761  31.155  31.915  1.00  0.00     0.031 C 
ATOM     51  C   UNL A   1      40.174  28.115  28.167  1.00  0.00     0.029 A 
ATOM     52  N   UNL A   1      41.328  27.981  30.078  1.00  0.00    -0.354 N 
ATOM     53  C   UNL A   1      40.278  30.463  33.477  1.00  0.00     0.074 A 
ATOM     54  C   UNL A   1      39.201  31.369  33.146  1.00  0.00     0.031 C 
ATOM     55  C   UNL A   1      41.107  27.161  28.010  1.00  0.00     0.029 A 
ATOM     56  C   UNL A   1      41.890  27.051  29.239  1.00  0.00     0.049 A 
ATOM     57  H   UNL A   1      41.646  28.141  30.996  1.00  0.00     0.167 HD
ATOM     58  C   UNL A   1      40.863  30.391  34.695  1.00  0.00     0.037 A 
ATOM     59  C   UNL A   1      42.920  26.207  29.442  1.00  0.00     0.037 A 
ATOM     60  C   UNL A   1      41.927  29.478  35.021  1.00  0.00     0.049 A 
ATOM     61  C   UNL A   1      43.589  26.179  30.792  1.00  0.00     0.074 A 
ATOM     62  C   UNL A   1      42.577  29.311  36.231  1.00  0.00     0.029 A 
ATOM     63  N   UNL A   1      42.497  28.580  34.131  1.00  0.00    -0.354 N 
ATOM     64  N   UNL A   1      43.303  26.872  31.868  1.00  0.00    -0.248 NA
ATOM     65  C   UNL A   1      44.714  25.247  30.958  1.00  0.00     0.031 C 
ATOM     66  C   UNL A   1      43.572  28.344  36.060  1.00  0.00     0.029 A 
ATOM     67  C   UNL A   1      43.510  27.874  34.757  1.00  0.00     0.049 A 
ATOM     68  H   UNL A   1      42.223  28.463  33.192  1.00  0.00     0.167 HD
ATOM     69  C   UNL A   1      44.195  26.445  32.845  1.00  0.00     0.074 A 
ATOM     70  C   UNL A   1      45.023  25.424  32.236  1.00  0.00     0.031 C 
ATOM     71  C   UNL A   1      44.317  26.857  34.132  1.00  0.00     0.037 A 
BRANCH  58  72
ATOM     72  C   UNL A   1      40.378  31.338  35.757  1.00  0.00     0.058 A 
ATOM     73  C   UNL A   1      41.131  32.456  36.150  1.00  0.00     0.135 A 
ATOM     74  C   UNL A   1      39.134  31.135  36.375  1.00  0.00     0.135 A 
ATOM     75  F   UNL A   1      42.338  32.684  35.607  1.00  0.00    -0.206 F 
ATOM     76  C   UNL A   1      40.679  33.325  37.138  1.00  0.00     0.059 A 
ATOM     77  C   UNL A   1      38.650  32.006  37.346  1.00  0.00     0.059 A 
ATOM     78  F   UNL A   1      38.378  30.079  36.039  1.00  0.00    -0.206 F 
ATOM     79  C   UNL A   1      39.437  33.090  37.731  1.00  0.00     0.060 A 
BRANCH  79  80
ATOM     80  S   UNL A   1      38.863  34.226  39.011  1.00  0.00     0.124 S 
ATOM     81  O   UNL A   1      38.904  35.504  38.305  1.00  0.00    -0.237 OA
ATOM     82  O   UNL A   1      37.531  33.711  39.312  1.00  0.00    -0.237 OA
ATOM     83  O   UNL A   1      39.849  34.066  40.075  1.00  0.00    -0.744 OA
ENDBRANCH  79  80
ENDBRANCH  58  72
BRANCH  59  84
ATOM     84  C   UNL A   1      43.378  25.317  28.341  1.00  0.00     0.058 A 
ATOM     85  C   UNL A   1      42.918  23.997  28.231  1.00  0.00     0.135 A 
ATOM     86  C   UNL A   1      44.284  25.778  27.375  1.00  0.00     0.135 A 
ATOM     87  F   UNL A   1      42.055  23.509  29.135  1.00  0.00    -0.206 F 
ATOM     88  C   UNL A   1      43.351  23.159  27.207  1.00  0.00     0.059 A 
ATOM     89  C   UNL A   1      44.713  24.967  26.329  1.00  0.00     0.059 A 
ATOM     90  F   UNL A   1      44.744  27.038  27.428  1.00  0.00    -0.206 F 
ATOM     91  C   UNL A   1      44.248  23.655  26.260  1.00  0.00     0.060 A 
BRANCH  91  92
ATOM     92  S   UNL A   1      44.769  22.576  24.908  1.00  0.00     0.124 S 
ATOM     93  O   UNL A   1      45.831  21.805  25.541  1.00  0.00    -0.237 OA
ATOM     94  O   UNL A   1      43.540  21.847  24.608  1.00  0.00    -0.237 OA
ATOM     95  O   UNL A   1      45.197  23.517  23.876  1.00  0.00    -0.744 OA
ENDBRANCH  91  92
ENDBRANCH  59  84
BRANCH  71  96
ATOM     96  C   UNL A   1      45.366  26.189  34.979  1.00  0.00     0.058 A 
ATOM     97  C   UNL A   1      45.097  25.008  35.687  1.00  0.00     0.135 A 
ATOM     98  C   UNL A   1      46.673  26.701  35.026  1.00  0.00     0.135 A 
ATOM     99  F   UNL A   1      43.863  24.481  35.678  1.00  0.00    -0.206 F 
ATOM    100  C   UNL A   1      46.085  24.366  36.427  1.00  0.00     0.059 A 
ATOM    101  C   UNL A   1      47.682  26.061  35.738  1.00  0.00     0.059 A 
ATOM    102  F   UNL A   1      46.984  27.823  34.357  1.00  0.00    -0.206 F 
ATOM    103  C   UNL A   1      47.375  24.899  36.444  1.00  0.00     0.060 A 
BRANCH 103 104
ATOM    104  S   UNL A   1      48.658  24.031  37.372  1.00  0.00     0.124 S 
ATOM    105  O   UNL A   1      49.251  23.192  36.337  1.00  0.00    -0.237 OA
ATOM    106  O   UNL A   1      49.492  25.128  37.854  1.00  0.00    -0.237 OA
ATOM    107  O   UNL A   1      47.909  23.322  38.405  1.00  0.00    -0.744 OA
ENDBRANCH 103 104
ENDBRANCH  71  96
ENDBRANCH  45  46
ENDBRANCH  38  40
ENDBRANCH  37  38
ENDBRANCH  36  37
ENDBRANCH  35  36
ENDBRANCH  34  35
ENDBRANCH   1  34
TORSDOF 24
ENDMDL
