MODEL 1
REMARK VINA RESULT:      -9.2      0.000      0.000
REMARK SMILES CC[N@@H+](C/C(Cl)=C/Cl)C[C@@H](C)C(=O)OCCOCCOC(=O)c1ccc(-c2c3nc(c(-c4c(F)cc(S(=O)(=O)[O-])cc4F)c4ccc([nH]4)c(-c4c(F)cc(S(=O)(=O)[O-])cc4F)c4nc(c(-c5c(F)cc(S(=O)(=O)[O-])cc5F)c5ccc2[nH]5)C=C4)C=C3)cc1
REMARK SMILES IDX 16 1 15 2 14 3 12 4 13 5 10 6 11 7 9 8 3 9 2 11 1 12 4 13
REMARK SMILES IDX 5 14 6 15 7 16 8 17 17 18 18 19 19 20 20 21 21 22 22 23
REMARK SMILES IDX 23 24 24 25 88 26 25 27 87 28 26 29 27 30 28 31 81 32 29 33
REMARK SMILES IDX 86 34 80 35 82 36 30 37 85 38 79 39 78 40 31 42 65 43 44 44
REMARK SMILES IDX 64 45 45 46 48 47 63 48 83 49 46 50 47 51 62 53 84 54 49 55
REMARK SMILES IDX 32 56 33 57 42 58 34 59 35 60 41 61 43 62 36 63 37 64 38 65
REMARK SMILES IDX 39 66 40 67 66 68 67 69 76 70 68 71 69 72 75 73 77 74 70 75
REMARK SMILES IDX 71 76 72 77 73 78 74 79 50 80 51 81 60 82 52 83 53 84 59 85
REMARK SMILES IDX 61 86 54 87 55 88 56 89 57 90 58 91
REMARK H PARENT 3 10 82 41 48 52
REMARK Flexibility Score: inf
ROOT
ATOM      1  C   UNL A   1      38.423  22.885  26.507  1.00  0.00     0.202 C 
ENDROOT
BRANCH   1   2
ATOM      2  C   UNL A   1      37.435  23.653  25.623  1.00  0.00     0.261 C 
BRANCH   2   3
ATOM      3  O   UNL A   1      36.266  22.888  25.273  1.00  0.00    -0.463 OA
BRANCH   3   4
ATOM      4  C   UNL A   1      36.077  22.695  23.940  1.00  0.00     0.314 C 
ATOM      5  O   UNL A   1      36.945  22.336  23.152  1.00  0.00    -0.252 OA
BRANCH   4   6
ATOM      6  C   UNL A   1      34.670  23.041  23.482  1.00  0.00     0.151 C 
ATOM      7  C   UNL A   1      34.383  24.477  23.901  1.00  0.00     0.026 C 
BRANCH   6   8
ATOM      8  C   UNL A   1      33.617  21.997  23.916  1.00  0.00     0.277 C 
BRANCH   8   9
ATOM      9  N   UNL A   1      33.543  21.566  25.320  1.00  0.00    -0.330 N 
ATOM     10  H   UNL A   1      34.536  21.663  25.530  1.00  0.00     0.348 HD
BRANCH   9  11
ATOM     11  C   UNL A   1      33.020  22.481  26.324  1.00  0.00     0.259 C 
ATOM     12  C   UNL A   1      33.709  22.362  27.679  1.00  0.00     0.071 C 
ENDBRANCH   9  11
BRANCH   9  13
ATOM     13  C   UNL A   1      33.268  20.144  25.553  1.00  0.00     0.312 C 
BRANCH  13  14
ATOM     14  C   UNL A   1      34.001  19.119  24.723  1.00  0.00     0.083 C 
ATOM     15  Cl  UNL A   1      35.735  19.243  24.791  1.00  0.00    -0.082 Cl
ATOM     16  C   UNL A   1      33.393  18.181  23.986  1.00  0.00     0.102 C 
ATOM     17  Cl  UNL A   1      34.171  17.020  22.990  1.00  0.00    -0.091 Cl
ENDBRANCH  13  14
ENDBRANCH   9  13
ENDBRANCH   8   9
ENDBRANCH   6   8
ENDBRANCH   4   6
ENDBRANCH   3   4
ENDBRANCH   2   3
ENDBRANCH   1   2
BRANCH   1  18
ATOM     18  O   UNL A   1      39.353  22.022  25.854  1.00  0.00    -0.374 OA
BRANCH  18  19
ATOM     19  C   UNL A   1      40.665  21.943  26.404  1.00  0.00     0.202 C 
BRANCH  19  20
ATOM     20  C   UNL A   1      41.614  23.114  26.113  1.00  0.00     0.261 C 
BRANCH  20  21
ATOM     21  O   UNL A   1      40.942  24.388  26.135  1.00  0.00    -0.460 OA
BRANCH  21  22
ATOM     22  C   UNL A   1      41.771  25.459  26.094  1.00  0.00     0.338 C 
ATOM     23  O   UNL A   1      42.339  25.911  25.108  1.00  0.00    -0.246 OA
BRANCH  22  24
ATOM     24  C   UNL A   1      41.782  26.164  27.388  1.00  0.00     0.060 A 
ATOM     25  C   UNL A   1      40.756  25.854  28.289  1.00  0.00     0.016 A 
ATOM     26  C   UNL A   1      42.698  27.177  27.680  1.00  0.00     0.016 A 
ATOM     27  C   UNL A   1      40.604  26.598  29.457  1.00  0.00     0.010 A 
ATOM     28  C   UNL A   1      42.539  27.929  28.854  1.00  0.00     0.010 A 
ATOM     29  C   UNL A   1      41.467  27.669  29.726  1.00  0.00    -0.014 A 
BRANCH  29  30
ATOM     30  C   UNL A   1      41.131  28.579  30.850  1.00  0.00     0.031 A 
ATOM     31  C   UNL A   1      41.960  28.538  32.107  1.00  0.00     0.074 A 
ATOM     32  C   UNL A   1      40.162  29.503  30.712  1.00  0.00     0.049 A 
ATOM     33  N   UNL A   1      41.907  29.311  33.160  1.00  0.00    -0.248 NA
ATOM     34  C   UNL A   1      42.990  27.489  32.183  1.00  0.00     0.031 C 
ATOM     35  C   UNL A   1      39.302  29.655  29.540  1.00  0.00     0.029 A 
ATOM     36  N   UNL A   1      39.749  30.498  31.563  1.00  0.00    -0.354 N 
ATOM     37  C   UNL A   1      42.905  28.859  34.016  1.00  0.00     0.074 A 
ATOM     38  C   UNL A   1      43.517  27.712  33.379  1.00  0.00     0.031 C 
ATOM     39  C   UNL A   1      38.462  30.685  29.745  1.00  0.00     0.029 A 
ATOM     40  C   UNL A   1      38.718  31.258  31.065  1.00  0.00     0.049 A 
ATOM     41  H   UNL A   1      40.154  30.652  32.447  1.00  0.00     0.167 HD
ATOM     42  C   UNL A   1      43.291  29.363  35.213  1.00  0.00     0.037 A 
ATOM     43  C   UNL A   1      38.056  32.296  31.611  1.00  0.00     0.037 A 
ATOM     44  C   UNL A   1      42.676  30.497  35.851  1.00  0.00     0.049 A 
ATOM     45  C   UNL A   1      38.480  32.816  32.960  1.00  0.00     0.074 A 
ATOM     46  C   UNL A   1      42.992  31.080  37.068  1.00  0.00     0.029 A 
ATOM     47  N   UNL A   1      41.618  31.224  35.327  1.00  0.00    -0.354 N 
ATOM     48  N   UNL A   1      39.440  32.389  33.744  1.00  0.00    -0.248 NA
ATOM     49  C   UNL A   1      37.740  33.970  33.489  1.00  0.00     0.031 C 
ATOM     50  C   UNL A   1      42.103  32.136  37.294  1.00  0.00     0.029 A 
ATOM     51  C   UNL A   1      41.259  32.240  36.200  1.00  0.00     0.049 A 
ATOM     52  H   UNL A   1      41.185  31.045  34.461  1.00  0.00     0.167 HD
ATOM     53  C   UNL A   1      39.427  33.229  34.853  1.00  0.00     0.074 A 
ATOM     54  C   UNL A   1      38.381  34.204  34.625  1.00  0.00     0.031 C 
ATOM     55  C   UNL A   1      40.207  33.195  35.963  1.00  0.00     0.037 A 
BRANCH  42  56
ATOM     56  C   UNL A   1      44.435  28.684  35.914  1.00  0.00     0.058 A 
ATOM     57  C   UNL A   1      44.223  27.602  36.784  1.00  0.00     0.135 A 
ATOM     58  C   UNL A   1      45.760  29.090  35.686  1.00  0.00     0.135 A 
ATOM     59  F   UNL A   1      42.975  27.186  37.052  1.00  0.00    -0.206 F 
ATOM     60  C   UNL A   1      45.281  26.959  37.418  1.00  0.00     0.059 A 
ATOM     61  C   UNL A   1      46.836  28.447  36.291  1.00  0.00     0.059 A 
ATOM     62  F   UNL A   1      46.019  30.121  34.865  1.00  0.00    -0.206 F 
ATOM     63  C   UNL A   1      46.585  27.390  37.165  1.00  0.00     0.060 A 
BRANCH  63  64
ATOM     64  S   UNL A   1      47.950  26.538  37.984  1.00  0.00     0.124 S 
ATOM     65  O   UNL A   1      47.923  27.151  39.308  1.00  0.00    -0.237 OA
ATOM     66  O   UNL A   1      47.529  25.141  37.923  1.00  0.00    -0.237 OA
ATOM     67  O   UNL A   1      49.106  26.876  37.160  1.00  0.00    -0.744 OA
ENDBRANCH  63  64
ENDBRANCH  42  56
BRANCH  43  68
ATOM     68  C   UNL A   1      36.913  32.911  30.885  1.00  0.00     0.058 A 
ATOM     69  C   UNL A   1      37.114  33.792  29.814  1.00  0.00     0.135 A 
ATOM     70  C   UNL A   1      35.590  32.628  31.261  1.00  0.00     0.135 A 
ATOM     71  F   UNL A   1      38.360  34.101  29.424  1.00  0.00    -0.206 F 
ATOM     72  C   UNL A   1      36.045  34.388  29.151  1.00  0.00     0.059 A 
ATOM     73  C   UNL A   1      34.506  33.191  30.599  1.00  0.00     0.059 A 
ATOM     74  F   UNL A   1      35.346  31.780  32.274  1.00  0.00    -0.206 F 
ATOM     75  C   UNL A   1      34.743  34.080  29.552  1.00  0.00     0.060 A 
BRANCH  75  76
ATOM     76  S   UNL A   1      33.358  34.817  28.658  1.00  0.00     0.124 S 
ATOM     77  O   UNL A   1      32.422  35.091  29.742  1.00  0.00    -0.237 OA
ATOM     78  O   UNL A   1      33.976  35.983  28.035  1.00  0.00    -0.237 OA
ATOM     79  O   UNL A   1      32.960  33.760  27.731  1.00  0.00    -0.744 OA
ENDBRANCH  75  76
ENDBRANCH  43  68
BRANCH  55  80
ATOM     80  C   UNL A   1      39.960  34.252  37.005  1.00  0.00     0.058 A 
ATOM     81  C   UNL A   1      40.564  35.516  36.925  1.00  0.00     0.135 A 
ATOM     82  C   UNL A   1      39.105  34.001  38.090  1.00  0.00     0.135 A 
ATOM     83  F   UNL A   1      41.392  35.807  35.908  1.00  0.00    -0.206 F 
ATOM     84  C   UNL A   1      40.364  36.482  37.906  1.00  0.00     0.059 A 
ATOM     85  C   UNL A   1      38.870  34.961  39.069  1.00  0.00     0.059 A 
ATOM     86  F   UNL A   1      38.491  32.813  38.206  1.00  0.00    -0.206 F 
ATOM     87  C   UNL A   1      39.521  36.191  38.980  1.00  0.00     0.060 A 
BRANCH  87  88
ATOM     88  S   UNL A   1      39.274  37.445  40.256  1.00  0.00     0.124 S 
ATOM     89  O   UNL A   1      40.622  37.982  40.402  1.00  0.00    -0.237 OA
ATOM     90  O   UNL A   1      38.300  38.339  39.637  1.00  0.00    -0.237 OA
ATOM     91  O   UNL A   1      38.775  36.677  41.393  1.00  0.00    -0.744 OA
ENDBRANCH  87  88
ENDBRANCH  55  80
ENDBRANCH  29  30
ENDBRANCH  22  24
ENDBRANCH  21  22
ENDBRANCH  20  21
ENDBRANCH  19  20
ENDBRANCH  18  19
ENDBRANCH   1  18
TORSDOF 22
ENDMDL
MODEL 2
REMARK VINA RESULT:      -8.9      2.243      3.227
REMARK SMILES CC[N@@H+](C/C(Cl)=C/Cl)C[C@@H](C)C(=O)OCCOCCOC(=O)c1ccc(-c2c3nc(c(-c4c(F)cc(S(=O)(=O)[O-])cc4F)c4ccc([nH]4)c(-c4c(F)cc(S(=O)(=O)[O-])cc4F)c4nc(c(-c5c(F)cc(S(=O)(=O)[O-])cc5F)c5ccc2[nH]5)C=C4)C=C3)cc1
REMARK SMILES IDX 16 1 15 2 14 3 12 4 13 5 10 6 11 7 9 8 3 9 2 11 1 12 4 13
REMARK SMILES IDX 5 14 6 15 7 16 8 17 17 18 18 19 19 20 20 21 21 22 22 23
REMARK SMILES IDX 23 24 24 25 88 26 25 27 87 28 26 29 27 30 28 31 81 32 29 33
REMARK SMILES IDX 86 34 80 35 82 36 30 37 85 38 79 39 78 40 31 42 65 43 44 44
REMARK SMILES IDX 64 45 45 46 48 47 63 48 83 49 46 50 47 51 62 53 84 54 49 55
REMARK SMILES IDX 32 56 33 57 42 58 34 59 35 60 41 61 43 62 36 63 37 64 38 65
REMARK SMILES IDX 39 66 40 67 66 68 67 69 76 70 68 71 69 72 75 73 77 74 70 75
REMARK SMILES IDX 71 76 72 77 73 78 74 79 50 80 51 81 60 82 52 83 53 84 59 85
REMARK SMILES IDX 61 86 54 87 55 88 56 89 57 90 58 91
REMARK H PARENT 3 10 82 41 48 52
REMARK Flexibility Score: inf
ROOT
ATOM      1  C   UNL A   1      36.506  23.294  26.249  1.00  0.00     0.202 C 
ENDROOT
BRANCH   1   2
ATOM      2  C   UNL A   1      35.056  22.962  25.884  1.00  0.00     0.261 C 
BRANCH   2   3
ATOM      3  O   UNL A   1      34.724  23.269  24.516  1.00  0.00    -0.463 OA
BRANCH   3   4
ATOM      4  C   UNL A   1      33.598  22.670  24.043  1.00  0.00     0.314 C 
ATOM      5  O   UNL A   1      33.357  21.471  24.117  1.00  0.00    -0.252 OA
BRANCH   4   6
ATOM      6  C   UNL A   1      32.666  23.635  23.329  1.00  0.00     0.151 C 
ATOM      7  C   UNL A   1      33.211  23.857  21.925  1.00  0.00     0.026 C 
BRANCH   6   8
ATOM      8  C   UNL A   1      32.381  24.916  24.144  1.00  0.00     0.277 C 
BRANCH   8   9
ATOM      9  N   UNL A   1      31.240  25.774  23.793  1.00  0.00    -0.330 N 
ATOM     10  H   UNL A   1      30.873  25.189  23.043  1.00  0.00     0.348 HD
BRANCH   9  11
ATOM     11  C   UNL A   1      30.064  25.788  24.650  1.00  0.00     0.259 C 
ATOM     12  C   UNL A   1      28.831  26.393  23.987  1.00  0.00     0.071 C 
ENDBRANCH   9  11
BRANCH   9  13
ATOM     13  C   UNL A   1      31.557  27.044  23.129  1.00  0.00     0.312 C 
BRANCH  13  14
ATOM     14  C   UNL A   1      32.198  28.145  23.939  1.00  0.00     0.083 C 
ATOM     15  Cl  UNL A   1      33.925  28.257  23.762  1.00  0.00    -0.082 Cl
ATOM     16  C   UNL A   1      31.518  28.979  24.735  1.00  0.00     0.102 C 
ATOM     17  Cl  UNL A   1      32.194  30.218  25.710  1.00  0.00    -0.091 Cl
ENDBRANCH  13  14
ENDBRANCH   9  13
ENDBRANCH   8   9
ENDBRANCH   6   8
ENDBRANCH   4   6
ENDBRANCH   3   4
ENDBRANCH   2   3
ENDBRANCH   1   2
BRANCH   1  18
ATOM     18  O   UNL A   1      37.533  22.697  25.461  1.00  0.00    -0.374 OA
BRANCH  18  19
ATOM     19  C   UNL A   1      38.675  22.195  26.151  1.00  0.00     0.202 C 
BRANCH  19  20
ATOM     20  C   UNL A   1      39.838  23.172  26.374  1.00  0.00     0.261 C 
BRANCH  20  21
ATOM     21  O   UNL A   1      39.416  24.549  26.348  1.00  0.00    -0.460 OA
BRANCH  21  22
ATOM     22  C   UNL A   1      40.432  25.444  26.292  1.00  0.00     0.338 C 
ATOM     23  O   UNL A   1      41.082  25.758  25.303  1.00  0.00    -0.246 OA
BRANCH  22  24
ATOM     24  C   UNL A   1      40.564  26.166  27.570  1.00  0.00     0.060 A 
ATOM     25  C   UNL A   1      39.562  25.958  28.525  1.00  0.00     0.016 A 
ATOM     26  C   UNL A   1      41.574  27.104  27.797  1.00  0.00     0.016 A 
ATOM     27  C   UNL A   1      39.530  26.730  29.683  1.00  0.00     0.010 A 
ATOM     28  C   UNL A   1      41.536  27.886  28.962  1.00  0.00     0.010 A 
ATOM     29  C   UNL A   1      40.491  27.729  29.889  1.00  0.00    -0.014 A 
BRANCH  29  30
ATOM     30  C   UNL A   1      40.287  28.683  31.010  1.00  0.00     0.031 A 
ATOM     31  C   UNL A   1      41.159  28.581  32.233  1.00  0.00     0.074 A 
ATOM     32  C   UNL A   1      39.404  29.692  30.894  1.00  0.00     0.049 A 
ATOM     33  N   UNL A   1      41.221  29.370  33.275  1.00  0.00    -0.248 NA
ATOM     34  C   UNL A   1      42.089  27.441  32.288  1.00  0.00     0.031 C 
ATOM     35  C   UNL A   1      38.514  29.907  29.753  1.00  0.00     0.029 A 
ATOM     36  N   UNL A   1      39.120  30.732  31.743  1.00  0.00    -0.354 N 
ATOM     37  C   UNL A   1      42.206  28.837  34.098  1.00  0.00     0.074 A 
ATOM     38  C   UNL A   1      42.682  27.630  33.458  1.00  0.00     0.031 C 
ATOM     39  C   UNL A   1      37.783  31.014  29.973  1.00  0.00     0.029 A 
ATOM     40  C   UNL A   1      38.145  31.578  31.272  1.00  0.00     0.049 A 
ATOM     41  H   UNL A   1      39.573  30.860  32.608  1.00  0.00     0.167 HD
ATOM     42  C   UNL A   1      42.686  29.319  35.271  1.00  0.00     0.037 A 
ATOM     43  C   UNL A   1      37.605  32.681  31.826  1.00  0.00     0.037 A 
ATOM     44  C   UNL A   1      42.206  30.515  35.913  1.00  0.00     0.049 A 
ATOM     45  C   UNL A   1      38.130  33.177  33.148  1.00  0.00     0.074 A 
ATOM     46  C   UNL A   1      42.624  31.081  37.106  1.00  0.00     0.029 A 
ATOM     47  N   UNL A   1      41.199  31.331  35.418  1.00  0.00    -0.354 N 
ATOM     48  N   UNL A   1      39.078  32.673  33.902  1.00  0.00    -0.248 NA
ATOM     49  C   UNL A   1      37.523  34.403  33.686  1.00  0.00     0.031 C 
ATOM     50  C   UNL A   1      41.846  32.220  37.348  1.00  0.00     0.029 A 
ATOM     51  C   UNL A   1      40.973  32.387  36.286  1.00  0.00     0.049 A 
ATOM     52  H   UNL A   1      40.717  31.181  34.573  1.00  0.00     0.167 HD
ATOM     53  C   UNL A   1      39.188  33.526  34.995  1.00  0.00     0.074 A 
ATOM     54  C   UNL A   1      38.229  34.592  34.791  1.00  0.00     0.031 C 
ATOM     55  C   UNL A   1      40.006  33.434  36.074  1.00  0.00     0.037 A 
BRANCH  42  56
ATOM     56  C   UNL A   1      43.789  28.545  35.938  1.00  0.00     0.058 A 
ATOM     57  C   UNL A   1      45.140  28.857  35.716  1.00  0.00     0.135 A 
ATOM     58  C   UNL A   1      43.496  27.509  36.839  1.00  0.00     0.135 A 
ATOM     59  F   UNL A   1      45.477  29.827  34.850  1.00  0.00    -0.206 F 
ATOM     60  C   UNL A   1      46.162  28.157  36.349  1.00  0.00     0.059 A 
ATOM     61  C   UNL A   1      44.501  26.810  37.500  1.00  0.00     0.059 A 
ATOM     62  F   UNL A   1      42.220  27.168  37.085  1.00  0.00    -0.206 F 
ATOM     63  C   UNL A   1      45.832  27.134  37.239  1.00  0.00     0.060 A 
BRANCH  63  64
ATOM     64  S   UNL A   1      47.169  26.241  38.063  1.00  0.00     0.124 S 
ATOM     65  O   UNL A   1      47.201  24.997  37.300  1.00  0.00    -0.237 OA
ATOM     66  O   UNL A   1      48.307  27.134  37.869  1.00  0.00    -0.237 OA
ATOM     67  O   UNL A   1      46.699  26.120  39.439  1.00  0.00    -0.744 OA
ENDBRANCH  63  64
ENDBRANCH  42  56
BRANCH  43  68
ATOM     68  C   UNL A   1      36.496  33.391  31.135  1.00  0.00     0.058 A 
ATOM     69  C   UNL A   1      35.186  33.363  31.631  1.00  0.00     0.135 A 
ATOM     70  C   UNL A   1      36.733  34.110  29.951  1.00  0.00     0.135 A 
ATOM     71  F   UNL A   1      34.908  32.681  32.753  1.00  0.00    -0.206 F 
ATOM     72  C   UNL A   1      34.143  34.006  30.971  1.00  0.00     0.059 A 
ATOM     73  C   UNL A   1      35.713  34.780  29.288  1.00  0.00     0.059 A 
ATOM     74  F   UNL A   1      37.974  34.177  29.443  1.00  0.00    -0.206 F 
ATOM     75  C   UNL A   1      34.418  34.713  29.798  1.00  0.00     0.060 A 
BRANCH  75  76
ATOM     76  S   UNL A   1      33.071  35.586  28.970  1.00  0.00     0.124 S 
ATOM     77  O   UNL A   1      32.517  34.535  28.124  1.00  0.00    -0.237 OA
ATOM     78  O   UNL A   1      32.239  36.008  30.093  1.00  0.00    -0.237 OA
ATOM     79  O   UNL A   1      33.758  36.667  28.269  1.00  0.00    -0.744 OA
ENDBRANCH  75  76
ENDBRANCH  43  68
BRANCH  55  80
ATOM     80  C   UNL A   1      39.901  34.523  37.107  1.00  0.00     0.058 A 
ATOM     81  C   UNL A   1      40.679  35.688  37.025  1.00  0.00     0.135 A 
ATOM     82  C   UNL A   1      39.008  34.405  38.183  1.00  0.00     0.135 A 
ATOM     83  F   UNL A   1      41.550  35.850  36.016  1.00  0.00    -0.206 F 
ATOM     84  C   UNL A   1      40.608  36.680  37.999  1.00  0.00     0.059 A 
ATOM     85  C   UNL A   1      38.901  35.396  39.154  1.00  0.00     0.059 A 
ATOM     86  F   UNL A   1      38.229  33.317  38.300  1.00  0.00    -0.206 F 
ATOM     87  C   UNL A   1      39.721  36.520  39.065  1.00  0.00     0.060 A 
BRANCH  87  88
ATOM     88  S   UNL A   1      39.642  37.807  40.329  1.00  0.00     0.124 S 
ATOM     89  O   UNL A   1      41.024  38.270  40.361  1.00  0.00    -0.237 OA
ATOM     90  O   UNL A   1      38.672  38.743  39.768  1.00  0.00    -0.237 OA
ATOM     91  O   UNL A   1      39.192  37.086  41.517  1.00  0.00    -0.744 OA
ENDBRANCH  87  88
ENDBRANCH  55  80
ENDBRANCH  29  30
ENDBRANCH  22  24
ENDBRANCH  21  22
ENDBRANCH  20  21
ENDBRANCH  19  20
ENDBRANCH  18  19
ENDBRANCH   1  18
TORSDOF 22
ENDMDL
MODEL 3
REMARK VINA RESULT:      -8.3      1.584      2.339
REMARK SMILES CC[N@@H+](C/C(Cl)=C/Cl)C[C@@H](C)C(=O)OCCOCCOC(=O)c1ccc(-c2c3nc(c(-c4c(F)cc(S(=O)(=O)[O-])cc4F)c4ccc([nH]4)c(-c4c(F)cc(S(=O)(=O)[O-])cc4F)c4nc(c(-c5c(F)cc(S(=O)(=O)[O-])cc5F)c5ccc2[nH]5)C=C4)C=C3)cc1
REMARK SMILES IDX 16 1 15 2 14 3 12 4 13 5 10 6 11 7 9 8 3 9 2 11 1 12 4 13
REMARK SMILES IDX 5 14 6 15 7 16 8 17 17 18 18 19 19 20 20 21 21 22 22 23
REMARK SMILES IDX 23 24 24 25 88 26 25 27 87 28 26 29 27 30 28 31 81 32 29 33
REMARK SMILES IDX 86 34 80 35 82 36 30 37 85 38 79 39 78 40 31 42 65 43 44 44
REMARK SMILES IDX 64 45 45 46 48 47 63 48 83 49 46 50 47 51 62 53 84 54 49 55
REMARK SMILES IDX 32 56 33 57 42 58 34 59 35 60 41 61 43 62 36 63 37 64 38 65
REMARK SMILES IDX 39 66 40 67 66 68 67 69 76 70 68 71 69 72 75 73 77 74 70 75
REMARK SMILES IDX 71 76 72 77 73 78 74 79 50 80 51 81 60 82 52 83 53 84 59 85
REMARK SMILES IDX 61 86 54 87 55 88 56 89 57 90 58 91
REMARK H PARENT 3 10 82 41 48 52
REMARK Flexibility Score: inf
ROOT
ATOM      1  C   UNL A   1      36.985  23.166  25.897  1.00  0.00     0.202 C 
ENDROOT
BRANCH   1   2
ATOM      2  C   UNL A   1      35.734  23.006  25.027  1.00  0.00     0.261 C 
BRANCH   2   3
ATOM      3  O   UNL A   1      35.367  24.208  24.324  1.00  0.00    -0.463 OA
BRANCH   3   4
ATOM      4  C   UNL A   1      34.515  24.031  23.279  1.00  0.00     0.314 C 
ATOM      5  O   UNL A   1      34.719  23.291  22.323  1.00  0.00    -0.252 OA
BRANCH   4   6
ATOM      6  C   UNL A   1      33.279  24.912  23.363  1.00  0.00     0.151 C 
ATOM      7  C   UNL A   1      33.738  26.363  23.345  1.00  0.00     0.026 C 
BRANCH   6   8
ATOM      8  C   UNL A   1      32.338  24.525  24.526  1.00  0.00     0.277 C 
BRANCH   8   9
ATOM      9  N   UNL A   1      31.078  25.254  24.728  1.00  0.00    -0.330 N 
ATOM     10  H   UNL A   1      31.494  26.153  24.969  1.00  0.00     0.348 HD
BRANCH   9  11
ATOM     11  C   UNL A   1      30.302  25.679  23.573  1.00  0.00     0.259 C 
ATOM     12  C   UNL A   1      28.979  26.344  23.934  1.00  0.00     0.071 C 
ENDBRANCH   9  11
BRANCH   9  13
ATOM     13  C   UNL A   1      30.298  24.894  25.918  1.00  0.00     0.312 C 
BRANCH  13  14
ATOM     14  C   UNL A   1      30.754  23.724  26.756  1.00  0.00     0.083 C 
ATOM     15  Cl  UNL A   1      29.472  22.679  27.292  1.00  0.00    -0.082 Cl
ATOM     16  C   UNL A   1      32.033  23.487  27.075  1.00  0.00     0.102 C 
ATOM     17  Cl  UNL A   1      32.605  22.203  28.058  1.00  0.00    -0.091 Cl
ENDBRANCH  13  14
ENDBRANCH   9  13
ENDBRANCH   8   9
ENDBRANCH   6   8
ENDBRANCH   4   6
ENDBRANCH   3   4
ENDBRANCH   2   3
ENDBRANCH   1   2
BRANCH   1  18
ATOM     18  O   UNL A   1      38.201  22.607  25.406  1.00  0.00    -0.374 OA
BRANCH  18  19
ATOM     19  C   UNL A   1      39.194  22.259  26.368  1.00  0.00     0.202 C 
BRANCH  19  20
ATOM     20  C   UNL A   1      40.365  23.235  26.543  1.00  0.00     0.261 C 
BRANCH  20  21
ATOM     21  O   UNL A   1      40.033  24.576  26.133  1.00  0.00    -0.460 OA
BRANCH  21  22
ATOM     22  C   UNL A   1      41.081  25.436  26.131  1.00  0.00     0.338 C 
ATOM     23  O   UNL A   1      41.799  25.717  25.180  1.00  0.00    -0.246 OA
BRANCH  22  24
ATOM     24  C   UNL A   1      41.162  26.165  27.409  1.00  0.00     0.060 A 
ATOM     25  C   UNL A   1      40.202  25.857  28.379  1.00  0.00     0.016 A 
ATOM     26  C   UNL A   1      42.077  27.199  27.621  1.00  0.00     0.016 A 
ATOM     27  C   UNL A   1      40.113  26.620  29.541  1.00  0.00     0.010 A 
ATOM     28  C   UNL A   1      41.982  27.971  28.789  1.00  0.00     0.010 A 
ATOM     29  C   UNL A   1      40.973  27.710  29.734  1.00  0.00    -0.014 A 
BRANCH  29  30
ATOM     30  C   UNL A   1      40.694  28.637  30.860  1.00  0.00     0.031 A 
ATOM     31  C   UNL A   1      41.531  28.552  32.110  1.00  0.00     0.074 A 
ATOM     32  C   UNL A   1      39.774  29.610  30.730  1.00  0.00     0.049 A 
ATOM     33  N   UNL A   1      41.527  29.327  33.164  1.00  0.00    -0.248 NA
ATOM     34  C   UNL A   1      42.505  27.452  32.178  1.00  0.00     0.031 C 
ATOM     35  C   UNL A   1      38.912  29.806  29.565  1.00  0.00     0.029 A 
ATOM     36  N   UNL A   1      39.420  30.624  31.585  1.00  0.00    -0.354 N 
ATOM     37  C   UNL A   1      42.508  28.824  34.010  1.00  0.00     0.074 A 
ATOM     38  C   UNL A   1      43.053  27.647  33.369  1.00  0.00     0.031 C 
ATOM     39  C   UNL A   1      38.128  30.878  29.777  1.00  0.00     0.029 A 
ATOM     40  C   UNL A   1      38.425  31.437  31.095  1.00  0.00     0.049 A 
ATOM     41  H   UNL A   1      39.840  30.758  32.465  1.00  0.00     0.167 HD
ATOM     42  C   UNL A   1      42.930  29.307  35.204  1.00  0.00     0.037 A 
ATOM     43  C   UNL A   1      37.823  32.508  31.646  1.00  0.00     0.037 A 
ATOM     44  C   UNL A   1      42.380  30.472  35.847  1.00  0.00     0.049 A 
ATOM     45  C   UNL A   1      38.284  33.005  32.991  1.00  0.00     0.074 A 
ATOM     46  C   UNL A   1      42.736  31.037  37.061  1.00  0.00     0.029 A 
ATOM     47  N   UNL A   1      41.356  31.253  35.332  1.00  0.00    -0.354 N 
ATOM     48  N   UNL A   1      39.228  32.529  33.767  1.00  0.00    -0.248 NA
ATOM     49  C   UNL A   1      37.610  34.196  33.526  1.00  0.00     0.031 C 
ATOM     50  C   UNL A   1      41.904  32.138  37.294  1.00  0.00     0.029 A 
ATOM     51  C   UNL A   1      41.058  32.285  36.207  1.00  0.00     0.049 A 
ATOM     52  H   UNL A   1      40.907  31.096  34.470  1.00  0.00     0.167 HD
ATOM     53  C   UNL A   1      39.269  33.369  34.876  1.00  0.00     0.074 A 
ATOM     54  C   UNL A   1      38.273  34.397  34.656  1.00  0.00     0.031 C 
ATOM     55  C   UNL A   1      40.055  33.294  35.979  1.00  0.00     0.037 A 
BRANCH  42  56
ATOM     56  C   UNL A   1      44.043  28.569  35.896  1.00  0.00     0.058 A 
ATOM     57  C   UNL A   1      45.387  28.926  35.703  1.00  0.00     0.135 A 
ATOM     58  C   UNL A   1      43.764  27.523  36.790  1.00  0.00     0.135 A 
ATOM     59  F   UNL A   1      45.711  29.906  34.844  1.00  0.00    -0.206 F 
ATOM     60  C   UNL A   1      46.418  28.258  36.358  1.00  0.00     0.059 A 
ATOM     61  C   UNL A   1      44.777  26.857  37.473  1.00  0.00     0.059 A 
ATOM     62  F   UNL A   1      42.495  27.141  37.009  1.00  0.00    -0.206 F 
ATOM     63  C   UNL A   1      46.102  27.225  37.241  1.00  0.00     0.060 A 
BRANCH  63  64
ATOM     64  S   UNL A   1      47.449  26.376  38.094  1.00  0.00     0.124 S 
ATOM     65  O   UNL A   1      48.565  26.615  37.184  1.00  0.00    -0.237 OA
ATOM     66  O   UNL A   1      47.507  27.084  39.369  1.00  0.00    -0.237 OA
ATOM     67  O   UNL A   1      46.986  24.994  38.169  1.00  0.00    -0.744 OA
ENDBRANCH  63  64
ENDBRANCH  42  56
BRANCH  43  68
ATOM     68  C   UNL A   1      36.707  33.182  30.930  1.00  0.00     0.058 A 
ATOM     69  C   UNL A   1      36.944  34.197  29.994  1.00  0.00     0.135 A 
ATOM     70  C   UNL A   1      35.373  32.819  31.180  1.00  0.00     0.135 A 
ATOM     71  F   UNL A   1      38.201  34.585  29.728  1.00  0.00    -0.206 F 
ATOM     72  C   UNL A   1      35.899  34.845  29.342  1.00  0.00     0.059 A 
ATOM     73  C   UNL A   1      34.315  33.435  30.524  1.00  0.00     0.059 A 
ATOM     74  F   UNL A   1      35.095  31.843  32.059  1.00  0.00    -0.206 F 
ATOM     75  C   UNL A   1      34.586  34.456  29.614  1.00  0.00     0.060 A 
BRANCH  75  76
ATOM     76  S   UNL A   1      33.235  35.266  28.731  1.00  0.00     0.124 S 
ATOM     77  O   UNL A   1      32.579  35.999  29.808  1.00  0.00    -0.237 OA
ATOM     78  O   UNL A   1      33.949  36.074  27.748  1.00  0.00    -0.237 OA
ATOM     79  O   UNL A   1      32.480  34.144  28.179  1.00  0.00    -0.744 OA
ENDBRANCH  75  76
ENDBRANCH  43  68
BRANCH  55  80
ATOM     80  C   UNL A   1      39.872  34.362  37.023  1.00  0.00     0.058 A 
ATOM     81  C   UNL A   1      40.498  35.613  36.909  1.00  0.00     0.135 A 
ATOM     82  C   UNL A   1      39.057  34.135  38.143  1.00  0.00     0.135 A 
ATOM     83  F   UNL A   1      41.289  35.881  35.858  1.00  0.00    -0.206 F 
ATOM     84  C   UNL A   1      40.357  36.589  37.892  1.00  0.00     0.059 A 
ATOM     85  C   UNL A   1      38.882  35.106  39.125  1.00  0.00     0.059 A 
ATOM     86  F   UNL A   1      38.424  32.961  38.293  1.00  0.00    -0.206 F 
ATOM     87  C   UNL A   1      39.553  36.321  39.001  1.00  0.00     0.060 A 
BRANCH  87  88
ATOM     88  S   UNL A   1      39.384  37.588  40.277  1.00  0.00     0.124 S 
ATOM     89  O   UNL A   1      38.780  36.828  41.365  1.00  0.00    -0.237 OA
ATOM     90  O   UNL A   1      40.765  38.010  40.489  1.00  0.00    -0.237 OA
ATOM     91  O   UNL A   1      38.520  38.585  39.651  1.00  0.00    -0.744 OA
ENDBRANCH  87  88
ENDBRANCH  55  80
ENDBRANCH  29  30
ENDBRANCH  22  24
ENDBRANCH  21  22
ENDBRANCH  20  21
ENDBRANCH  19  20
ENDBRANCH  18  19
ENDBRANCH   1  18
TORSDOF 22
ENDMDL
