MODEL 1
REMARK VINA RESULT:     -11.7      0.000      0.000
REMARK SMILES COc1cccc(-c2c(C(=O)OCCOCCOC(=O)c3ccc(-c4c5nc(c(-c6c(F)cc(S(=O)(=O)[O-])cc6F)c6ccc([nH]6)c(-c6c(F)cc(S(=O)(=O)[O-])cc6F)c6nc(c(-c7c(F)cc(S(=O)(=O)[O-])cc7F)c7ccc4[nH]7)C=C6)C=C5)cc3)nnn2-c2ccc(OC(F)(F)F)cc2)c1
REMARK SMILES IDX 15 1 14 2 13 3 12 4 10 5 11 6 9 7 8 8 89 9 87 10 88 11 7 12
REMARK SMILES IDX 3 13 4 14 101 15 5 16 6 17 2 18 1 19 90 20 91 21 100 22
REMARK SMILES IDX 92 23 99 24 93 25 94 26 95 27 96 28 97 29 98 30 16 31 17 32
REMARK SMILES IDX 18 33 19 34 20 35 21 36 22 37 86 38 23 39 85 40 24 41 25 42
REMARK SMILES IDX 26 43 79 44 27 45 84 46 78 47 80 48 28 49 83 50 77 51 76 52
REMARK SMILES IDX 29 54 63 55 42 56 62 57 43 58 46 59 61 60 81 61 44 62 45 63
REMARK SMILES IDX 60 65 82 66 47 67 30 68 31 69 40 70 32 71 33 72 39 73 41 74
REMARK SMILES IDX 34 75 35 76 36 77 37 78 38 79 64 80 65 81 74 82 66 83 67 84
REMARK SMILES IDX 73 85 75 86 68 87 69 88 70 89 71 90 72 91 48 92 49 93 58 94
REMARK SMILES IDX 50 95 51 96 57 97 59 98 52 99 53 100 54 101 55 102 56 103
REMARK H PARENT 80 53 46 64
REMARK Flexibility Score: inf
ROOT
ATOM      1  O   UNL A   1      36.152  20.935  24.951  1.00  0.00    -0.374 OA
ENDROOT
BRANCH   1   2
ATOM      2  C   UNL A   1      35.124  21.745  24.379  1.00  0.00     0.202 C 
BRANCH   2   3
ATOM      3  C   UNL A   1      35.542  23.080  23.765  1.00  0.00     0.261 C 
BRANCH   3   4
ATOM      4  O   UNL A   1      35.001  23.253  22.444  1.00  0.00    -0.458 OA
BRANCH   4   5
ATOM      5  C   UNL A   1      33.686  23.610  22.395  1.00  0.00     0.361 C 
ATOM      6  O   UNL A   1      32.768  22.840  22.129  1.00  0.00    -0.244 OA
BRANCH   5   7
ATOM      7  C   UNL A   1      33.450  24.984  22.794  1.00  0.00     0.198 A 
ATOM      8  C   UNL A   1      32.805  25.500  23.913  1.00  0.00     0.109 A 
ATOM      9  N   UNL A   1      33.108  26.860  23.821  1.00  0.00    -0.212 N 
ATOM     10  N   UNL A   1      33.857  26.021  21.987  1.00  0.00    -0.122 NA
ATOM     11  N   UNL A   1      33.514  27.157  22.567  1.00  0.00    -0.061 NA
BRANCH   8  12
ATOM     12  C   UNL A   1      32.042  24.895  25.008  1.00  0.00     0.007 A 
ATOM     13  C   UNL A   1      31.993  23.496  27.003  1.00  0.00     0.119 A 
ATOM     14  C   UNL A   1      30.602  23.548  26.999  1.00  0.00     0.046 A 
ATOM     15  C   UNL A   1      32.711  24.171  26.016  1.00  0.00     0.056 A 
ATOM     16  C   UNL A   1      29.928  24.300  26.036  1.00  0.00     0.005 A 
ATOM     17  C   UNL A   1      30.645  24.972  25.043  1.00  0.00     0.011 A 
BRANCH  13  18
ATOM     18  O   UNL A   1      32.550  22.684  27.953  1.00  0.00    -0.497 OA
ATOM     19  C   UNL A   1      33.677  21.926  27.524  1.00  0.00     0.278 C 
ENDBRANCH  13  18
ENDBRANCH   8  12
BRANCH   9  20
ATOM     20  C   UNL A   1      33.195  27.832  24.847  1.00  0.00     0.067 A 
ATOM     21  C   UNL A   1      32.514  29.045  24.719  1.00  0.00     0.032 A 
ATOM     22  C   UNL A   1      34.019  27.606  25.955  1.00  0.00     0.032 A 
ATOM     23  C   UNL A   1      32.619  29.999  25.734  1.00  0.00     0.049 A 
ATOM     24  C   UNL A   1      34.149  28.584  26.944  1.00  0.00     0.049 A 
ATOM     25  C   UNL A   1      33.439  29.781  26.848  1.00  0.00     0.129 A 
BRANCH  25  26
ATOM     26  O   UNL A   1      33.455  30.802  27.754  1.00  0.00    -0.406 OA
BRANCH  26  27
ATOM     27  C   UNL A   1      34.693  31.451  27.988  1.00  0.00     0.573 C 
ATOM     28  F   UNL A   1      35.721  30.782  27.425  1.00  0.00    -0.132 F 
ATOM     29  F   UNL A   1      34.670  32.718  27.513  1.00  0.00    -0.132 F 
ATOM     30  F   UNL A   1      34.910  31.512  29.320  1.00  0.00    -0.132 F 
ENDBRANCH  26  27
ENDBRANCH  25  26
ENDBRANCH   9  20
ENDBRANCH   5   7
ENDBRANCH   4   5
ENDBRANCH   3   4
ENDBRANCH   2   3
ENDBRANCH   1   2
BRANCH   1  31
ATOM     31  C   UNL A   1      37.516  21.181  24.624  1.00  0.00     0.202 C 
BRANCH  31  32
ATOM     32  C   UNL A   1      38.501  21.409  25.763  1.00  0.00     0.261 C 
BRANCH  32  33
ATOM     33  O   UNL A   1      38.520  22.760  26.195  1.00  0.00    -0.460 OA
BRANCH  33  34
ATOM     34  C   UNL A   1      39.760  23.238  26.453  1.00  0.00     0.338 C 
ATOM     35  O   UNL A   1      40.803  22.606  26.481  1.00  0.00    -0.246 OA
BRANCH  34  36
ATOM     36  C   UNL A   1      39.641  24.649  26.831  1.00  0.00     0.060 A 
ATOM     37  C   UNL A   1      40.587  25.519  26.280  1.00  0.00     0.016 A 
ATOM     38  C   UNL A   1      38.835  25.011  27.920  1.00  0.00     0.016 A 
ATOM     39  C   UNL A   1      40.894  26.668  26.969  1.00  0.00     0.010 A 
ATOM     40  C   UNL A   1      39.170  26.136  28.626  1.00  0.00     0.010 A 
ATOM     41  C   UNL A   1      40.248  26.901  28.183  1.00  0.00    -0.014 A 
BRANCH  41  42
ATOM     42  C   UNL A   1      40.738  27.972  29.019  1.00  0.00     0.031 A 
ATOM     43  C   UNL A   1      42.023  28.544  28.563  1.00  0.00     0.074 A 
ATOM     44  C   UNL A   1      39.972  28.469  30.008  1.00  0.00     0.049 A 
ATOM     45  N   UNL A   1      43.166  28.541  29.162  1.00  0.00    -0.248 NA
ATOM     46  C   UNL A   1      42.069  29.047  27.178  1.00  0.00     0.031 C 
ATOM     47  C   UNL A   1      38.553  28.183  30.266  1.00  0.00     0.029 A 
ATOM     48  N   UNL A   1      40.258  29.439  30.911  1.00  0.00    -0.354 N 
ATOM     49  C   UNL A   1      44.019  29.243  28.316  1.00  0.00     0.074 A 
ATOM     50  C   UNL A   1      43.364  29.320  27.039  1.00  0.00     0.031 C 
ATOM     51  C   UNL A   1      38.058  29.130  31.093  1.00  0.00     0.029 A 
ATOM     52  C   UNL A   1      39.142  30.007  31.507  1.00  0.00     0.049 A 
ATOM     53  H   UNL A   1      41.178  29.716  31.125  1.00  0.00     0.167 HD
ATOM     54  C   UNL A   1      45.071  29.959  28.795  1.00  0.00     0.037 A 
ATOM     55  C   UNL A   1      39.110  31.177  32.192  1.00  0.00     0.037 A 
ATOM     56  C   UNL A   1      45.420  29.552  30.129  1.00  0.00     0.049 A 
ATOM     57  C   UNL A   1      40.516  31.527  32.540  1.00  0.00     0.074 A 
ATOM     58  C   UNL A   1      45.830  28.363  30.700  1.00  0.00     0.029 A 
ATOM     59  N   UNL A   1      45.011  30.354  31.168  1.00  0.00    -0.354 N 
ATOM     60  N   UNL A   1      41.264  30.846  33.368  1.00  0.00    -0.248 NA
ATOM     61  C   UNL A   1      41.244  32.390  31.619  1.00  0.00     0.031 C 
ATOM     62  C   UNL A   1      45.236  28.346  31.993  1.00  0.00     0.029 A 
ATOM     63  C   UNL A   1      44.531  29.540  32.160  1.00  0.00     0.049 A 
ATOM     64  H   UNL A   1      45.056  31.338  31.194  1.00  0.00     0.167 HD
ATOM     65  C   UNL A   1      42.541  30.887  32.822  1.00  0.00     0.074 A 
ATOM     66  C   UNL A   1      42.485  31.928  31.801  1.00  0.00     0.031 C 
ATOM     67  C   UNL A   1      43.445  29.890  33.052  1.00  0.00     0.037 A 
BRANCH  54  68
ATOM     68  C   UNL A   1      45.529  31.264  28.191  1.00  0.00     0.058 A 
ATOM     69  C   UNL A   1      44.619  32.332  28.084  1.00  0.00     0.135 A 
ATOM     70  C   UNL A   1      46.739  31.420  27.473  1.00  0.00     0.135 A 
ATOM     71  F   UNL A   1      43.432  32.283  28.711  1.00  0.00    -0.206 F 
ATOM     72  C   UNL A   1      44.864  33.440  27.274  1.00  0.00     0.059 A 
ATOM     73  C   UNL A   1      47.030  32.544  26.714  1.00  0.00     0.059 A 
ATOM     74  F   UNL A   1      47.655  30.448  27.382  1.00  0.00    -0.206 F 
ATOM     75  C   UNL A   1      46.067  33.528  26.581  1.00  0.00     0.060 A 
BRANCH  75  76
ATOM     76  S   UNL A   1      46.343  34.887  25.434  1.00  0.00     0.124 S 
ATOM     77  O   UNL A   1      47.724  34.647  25.034  1.00  0.00    -0.237 OA
ATOM     78  O   UNL A   1      45.327  34.637  24.417  1.00  0.00    -0.237 OA
ATOM     79  O   UNL A   1      46.119  36.070  26.258  1.00  0.00    -0.744 OA
ENDBRANCH  75  76
ENDBRANCH  54  68
BRANCH  55  80
ATOM     80  C   UNL A   1      37.999  32.162  32.224  1.00  0.00     0.058 A 
ATOM     81  C   UNL A   1      37.654  32.921  31.093  1.00  0.00     0.135 A 
ATOM     82  C   UNL A   1      37.090  32.209  33.304  1.00  0.00     0.135 A 
ATOM     83  F   UNL A   1      38.440  32.903  30.007  1.00  0.00    -0.206 F 
ATOM     84  C   UNL A   1      36.473  33.672  31.032  1.00  0.00     0.059 A 
ATOM     85  C   UNL A   1      35.917  32.961  33.272  1.00  0.00     0.059 A 
ATOM     86  F   UNL A   1      37.273  31.453  34.397  1.00  0.00    -0.206 F 
ATOM     87  C   UNL A   1      35.605  33.677  32.124  1.00  0.00     0.060 A 
BRANCH  87  88
ATOM     88  S   UNL A   1      34.021  34.539  32.003  1.00  0.00     0.124 S 
ATOM     89  O   UNL A   1      33.730  34.438  30.577  1.00  0.00    -0.237 OA
ATOM     90  O   UNL A   1      33.172  33.747  32.886  1.00  0.00    -0.237 OA
ATOM     91  O   UNL A   1      34.330  35.884  32.481  1.00  0.00    -0.744 OA
ENDBRANCH  87  88
ENDBRANCH  55  80
BRANCH  67  92
ATOM     92  C   UNL A   1      43.170  28.917  34.168  1.00  0.00     0.058 A 
ATOM     93  C   UNL A   1      42.306  27.814  34.057  1.00  0.00     0.135 A 
ATOM     94  C   UNL A   1      43.976  28.992  35.315  1.00  0.00     0.135 A 
ATOM     95  F   UNL A   1      41.575  27.620  32.951  1.00  0.00    -0.206 F 
ATOM     96  C   UNL A   1      42.236  26.838  35.052  1.00  0.00     0.059 A 
ATOM     97  C   UNL A   1      43.943  28.014  36.304  1.00  0.00     0.059 A 
ATOM     98  F   UNL A   1      44.864  29.992  35.448  1.00  0.00    -0.206 F 
ATOM     99  C   UNL A   1      43.069  26.940  36.168  1.00  0.00     0.060 A 
BRANCH  99 100
ATOM    100  S   UNL A   1      43.078  25.606  37.387  1.00  0.00     0.124 S 
ATOM    101  O   UNL A   1      41.795  24.957  37.141  1.00  0.00    -0.237 OA
ATOM    102  O   UNL A   1      44.261  24.837  37.008  1.00  0.00    -0.237 OA
ATOM    103  O   UNL A   1      43.188  26.310  38.662  1.00  0.00    -0.744 OA
ENDBRANCH  99 100
ENDBRANCH  67  92
ENDBRANCH  41  42
ENDBRANCH  34  36
ENDBRANCH  33  34
ENDBRANCH  32  33
ENDBRANCH  31  32
ENDBRANCH   1  31
TORSDOF 22
ENDMDL
MODEL 2
REMARK VINA RESULT:     -11.6      2.670      4.220
REMARK SMILES COc1cccc(-c2c(C(=O)OCCOCCOC(=O)c3ccc(-c4c5nc(c(-c6c(F)cc(S(=O)(=O)[O-])cc6F)c6ccc([nH]6)c(-c6c(F)cc(S(=O)(=O)[O-])cc6F)c6nc(c(-c7c(F)cc(S(=O)(=O)[O-])cc7F)c7ccc4[nH]7)C=C6)C=C5)cc3)nnn2-c2ccc(OC(F)(F)F)cc2)c1
REMARK SMILES IDX 15 1 14 2 13 3 12 4 10 5 11 6 9 7 8 8 89 9 87 10 88 11 7 12
REMARK SMILES IDX 3 13 4 14 101 15 5 16 6 17 2 18 1 19 90 20 91 21 100 22
REMARK SMILES IDX 92 23 99 24 93 25 94 26 95 27 96 28 97 29 98 30 16 31 17 32
REMARK SMILES IDX 18 33 19 34 20 35 21 36 22 37 86 38 23 39 85 40 24 41 25 42
REMARK SMILES IDX 26 43 79 44 27 45 84 46 78 47 80 48 28 49 83 50 77 51 76 52
REMARK SMILES IDX 29 54 63 55 42 56 62 57 43 58 46 59 61 60 81 61 44 62 45 63
REMARK SMILES IDX 60 65 82 66 47 67 30 68 31 69 40 70 32 71 33 72 39 73 41 74
REMARK SMILES IDX 34 75 35 76 36 77 37 78 38 79 64 80 65 81 74 82 66 83 67 84
REMARK SMILES IDX 73 85 75 86 68 87 69 88 70 89 71 90 72 91 48 92 49 93 58 94
REMARK SMILES IDX 50 95 51 96 57 97 59 98 52 99 53 100 54 101 55 102 56 103
REMARK H PARENT 80 53 46 64
REMARK Flexibility Score: inf
ROOT
ATOM      1  O   UNL A   1      40.526  21.434  27.663  1.00  0.00    -0.374 OA
ENDROOT
BRANCH   1   2
ATOM      2  C   UNL A   1      40.029  22.054  26.476  1.00  0.00     0.202 C 
BRANCH   2   3
ATOM      3  C   UNL A   1      38.961  21.302  25.684  1.00  0.00     0.261 C 
BRANCH   3   4
ATOM      4  O   UNL A   1      37.896  22.171  25.262  1.00  0.00    -0.458 OA
BRANCH   4   5
ATOM      5  C   UNL A   1      36.820  21.545  24.706  1.00  0.00     0.361 C 
ATOM      6  O   UNL A   1      36.586  20.345  24.810  1.00  0.00    -0.244 OA
BRANCH   5   7
ATOM      7  C   UNL A   1      35.900  22.457  24.056  1.00  0.00     0.198 A 
ATOM      8  C   UNL A   1      34.712  23.019  24.512  1.00  0.00     0.109 A 
ATOM      9  N   UNL A   1      34.435  23.960  23.518  1.00  0.00    -0.212 N 
ATOM     10  N   UNL A   1      36.127  22.866  22.761  1.00  0.00    -0.122 NA
ATOM     11  N   UNL A   1      35.145  23.674  22.404  1.00  0.00    -0.061 NA
BRANCH   8  12
ATOM     12  C   UNL A   1      33.900  22.826  25.717  1.00  0.00     0.007 A 
ATOM     13  C   UNL A   1      31.799  23.173  26.902  1.00  0.00     0.119 A 
ATOM     14  C   UNL A   1      32.378  22.669  28.064  1.00  0.00     0.046 A 
ATOM     15  C   UNL A   1      32.555  23.247  25.731  1.00  0.00     0.056 A 
ATOM     16  C   UNL A   1      33.693  22.206  28.051  1.00  0.00     0.005 A 
ATOM     17  C   UNL A   1      34.454  22.284  26.882  1.00  0.00     0.011 A 
BRANCH  13  18
ATOM     18  O   UNL A   1      30.525  23.654  27.038  1.00  0.00    -0.497 OA
ATOM     19  C   UNL A   1      30.229  24.820  26.276  1.00  0.00     0.278 C 
ENDBRANCH  13  18
ENDBRANCH   8  12
BRANCH   9  20
ATOM     20  C   UNL A   1      33.696  25.164  23.602  1.00  0.00     0.067 A 
ATOM     21  C   UNL A   1      32.595  25.367  22.766  1.00  0.00     0.032 A 
ATOM     22  C   UNL A   1      34.110  26.179  24.472  1.00  0.00     0.032 A 
ATOM     23  C   UNL A   1      31.882  26.566  22.852  1.00  0.00     0.049 A 
ATOM     24  C   UNL A   1      33.414  27.390  24.520  1.00  0.00     0.049 A 
ATOM     25  C   UNL A   1      32.287  27.586  23.723  1.00  0.00     0.129 A 
BRANCH  25  26
ATOM     26  O   UNL A   1      31.506  28.705  23.694  1.00  0.00    -0.406 OA
BRANCH  26  27
ATOM     27  C   UNL A   1      31.462  29.505  24.863  1.00  0.00     0.573 C 
ATOM     28  F   UNL A   1      31.152  28.774  25.954  1.00  0.00    -0.132 F 
ATOM     29  F   UNL A   1      32.644  30.131  25.063  1.00  0.00    -0.132 F 
ATOM     30  F   UNL A   1      30.512  30.453  24.708  1.00  0.00    -0.132 F 
ENDBRANCH  26  27
ENDBRANCH  25  26
ENDBRANCH   9  20
ENDBRANCH   5   7
ENDBRANCH   4   5
ENDBRANCH   3   4
ENDBRANCH   2   3
ENDBRANCH   1   2
BRANCH   1  31
ATOM     31  C   UNL A   1      41.740  20.691  27.622  1.00  0.00     0.202 C 
BRANCH  31  32
ATOM     32  C   UNL A   1      42.178  20.098  26.289  1.00  0.00     0.261 C 
BRANCH  32  33
ATOM     33  O   UNL A   1      43.589  20.053  26.158  1.00  0.00    -0.460 OA
BRANCH  33  34
ATOM     34  C   UNL A   1      44.049  20.532  24.979  1.00  0.00     0.338 C 
ATOM     35  O   UNL A   1      44.268  19.899  23.960  1.00  0.00    -0.246 OA
BRANCH  34  36
ATOM     36  C   UNL A   1      44.375  21.950  25.152  1.00  0.00     0.060 A 
ATOM     37  C   UNL A   1      45.386  22.245  26.072  1.00  0.00     0.016 A 
ATOM     38  C   UNL A   1      43.498  22.930  24.664  1.00  0.00     0.016 A 
ATOM     39  C   UNL A   1      45.370  23.475  26.686  1.00  0.00     0.010 A 
ATOM     40  C   UNL A   1      43.458  24.139  25.306  1.00  0.00     0.010 A 
ATOM     41  C   UNL A   1      44.342  24.360  26.361  1.00  0.00    -0.014 A 
BRANCH  41  42
ATOM     42  C   UNL A   1      44.184  25.544  27.173  1.00  0.00     0.031 A 
ATOM     43  C   UNL A   1      45.251  26.548  26.978  1.00  0.00     0.074 A 
ATOM     44  C   UNL A   1      43.062  25.730  27.895  1.00  0.00     0.049 A 
ATOM     45  N   UNL A   1      46.123  26.975  27.828  1.00  0.00    -0.248 NA
ATOM     46  C   UNL A   1      45.473  27.020  25.599  1.00  0.00     0.031 C 
ATOM     47  C   UNL A   1      41.824  24.941  27.836  1.00  0.00     0.029 A 
ATOM     48  N   UNL A   1      42.739  26.745  28.734  1.00  0.00    -0.354 N 
ATOM     49  C   UNL A   1      46.858  27.936  27.140  1.00  0.00     0.074 A 
ATOM     50  C   UNL A   1      46.573  27.753  25.744  1.00  0.00     0.031 C 
ATOM     51  C   UNL A   1      40.827  25.643  28.419  1.00  0.00     0.029 A 
ATOM     52  C   UNL A   1      41.380  26.863  28.985  1.00  0.00     0.049 A 
ATOM     53  H   UNL A   1      43.411  27.346  29.129  1.00  0.00     0.167 HD
ATOM     54  C   UNL A   1      47.423  28.995  27.778  1.00  0.00     0.037 A 
ATOM     55  C   UNL A   1      40.758  27.944  29.517  1.00  0.00     0.037 A 
ATOM     56  C   UNL A   1      47.536  28.760  29.192  1.00  0.00     0.049 A 
ATOM     57  C   UNL A   1      41.805  28.794  30.150  1.00  0.00     0.074 A 
ATOM     58  C   UNL A   1      48.179  27.813  29.964  1.00  0.00     0.029 A 
ATOM     59  N   UNL A   1      46.613  29.362  30.014  1.00  0.00    -0.354 N 
ATOM     60  N   UNL A   1      42.504  28.448  31.198  1.00  0.00    -0.248 NA
ATOM     61  C   UNL A   1      42.389  29.858  29.343  1.00  0.00     0.031 C 
ATOM     62  C   UNL A   1      47.317  27.588  31.074  1.00  0.00     0.029 A 
ATOM     63  C   UNL A   1      46.215  28.437  30.943  1.00  0.00     0.049 A 
ATOM     64  H   UNL A   1      46.296  30.292  29.947  1.00  0.00     0.167 HD
ATOM     65  C   UNL A   1      43.777  28.955  30.969  1.00  0.00     0.074 A 
ATOM     66  C   UNL A   1      43.620  29.891  29.862  1.00  0.00     0.031 C 
ATOM     67  C   UNL A   1      44.884  28.366  31.510  1.00  0.00     0.037 A 
BRANCH  54  68
ATOM     68  C   UNL A   1      47.526  30.372  27.167  1.00  0.00     0.058 A 
ATOM     69  C   UNL A   1      48.770  31.030  27.157  1.00  0.00     0.135 A 
ATOM     70  C   UNL A   1      46.408  31.175  26.838  1.00  0.00     0.135 A 
ATOM     71  F   UNL A   1      49.895  30.369  27.470  1.00  0.00    -0.206 F 
ATOM     72  C   UNL A   1      48.886  32.397  26.902  1.00  0.00     0.059 A 
ATOM     73  C   UNL A   1      46.510  32.521  26.518  1.00  0.00     0.059 A 
ATOM     74  F   UNL A   1      45.149  30.727  26.915  1.00  0.00    -0.206 F 
ATOM     75  C   UNL A   1      47.746  33.135  26.599  1.00  0.00     0.060 A 
BRANCH  75  76
ATOM     76  S   UNL A   1      47.864  34.919  26.394  1.00  0.00     0.124 S 
ATOM     77  O   UNL A   1      48.749  35.016  25.240  1.00  0.00    -0.237 OA
ATOM     78  O   UNL A   1      46.471  35.291  26.168  1.00  0.00    -0.237 OA
ATOM     79  O   UNL A   1      48.426  35.365  27.665  1.00  0.00    -0.744 OA
ENDBRANCH  75  76
ENDBRANCH  54  68
BRANCH  55  80
ATOM     80  C   UNL A   1      39.400  28.447  29.181  1.00  0.00     0.058 A 
ATOM     81  C   UNL A   1      38.370  28.480  30.135  1.00  0.00     0.135 A 
ATOM     82  C   UNL A   1      39.149  29.131  27.971  1.00  0.00     0.135 A 
ATOM     83  F   UNL A   1      38.539  27.891  31.327  1.00  0.00    -0.206 F 
ATOM     84  C   UNL A   1      37.167  29.162  29.909  1.00  0.00     0.059 A 
ATOM     85  C   UNL A   1      37.955  29.802  27.718  1.00  0.00     0.059 A 
ATOM     86  F   UNL A   1      40.096  29.240  27.027  1.00  0.00    -0.206 F 
ATOM     87  C   UNL A   1      36.974  29.830  28.699  1.00  0.00     0.060 A 
BRANCH  87  88
ATOM     88  S   UNL A   1      35.479  30.816  28.452  1.00  0.00     0.124 S 
ATOM     89  O   UNL A   1      35.930  31.810  27.484  1.00  0.00    -0.237 OA
ATOM     90  O   UNL A   1      34.533  29.823  27.956  1.00  0.00    -0.237 OA
ATOM     91  O   UNL A   1      35.191  31.335  29.787  1.00  0.00    -0.744 OA
ENDBRANCH  87  88
ENDBRANCH  55  80
BRANCH  67  92
ATOM     92  C   UNL A   1      44.696  27.372  32.624  1.00  0.00     0.058 A 
ATOM     93  C   UNL A   1      44.516  27.724  33.973  1.00  0.00     0.135 A 
ATOM     94  C   UNL A   1      44.481  26.029  32.275  1.00  0.00     0.135 A 
ATOM     95  F   UNL A   1      44.609  29.000  34.370  1.00  0.00    -0.206 F 
ATOM     96  C   UNL A   1      44.153  26.778  34.933  1.00  0.00     0.059 A 
ATOM     97  C   UNL A   1      44.090  25.077  33.210  1.00  0.00     0.059 A 
ATOM     98  F   UNL A   1      44.579  25.646  30.990  1.00  0.00    -0.206 F 
ATOM     99  C   UNL A   1      43.930  25.457  34.540  1.00  0.00     0.060 A 
BRANCH  99 100
ATOM    100  S   UNL A   1      43.326  24.264  35.756  1.00  0.00     0.124 S 
ATOM    101  O   UNL A   1      42.013  23.920  35.221  1.00  0.00    -0.237 OA
ATOM    102  O   UNL A   1      44.334  23.209  35.694  1.00  0.00    -0.237 OA
ATOM    103  O   UNL A   1      43.313  25.026  37.002  1.00  0.00    -0.744 OA
ENDBRANCH  99 100
ENDBRANCH  67  92
ENDBRANCH  41  42
ENDBRANCH  34  36
ENDBRANCH  33  34
ENDBRANCH  32  33
ENDBRANCH  31  32
ENDBRANCH   1  31
TORSDOF 22
ENDMDL
MODEL 3
REMARK VINA RESULT:     -11.6      3.794      9.699
REMARK SMILES COc1cccc(-c2c(C(=O)OCCOCCOC(=O)c3ccc(-c4c5nc(c(-c6c(F)cc(S(=O)(=O)[O-])cc6F)c6ccc([nH]6)c(-c6c(F)cc(S(=O)(=O)[O-])cc6F)c6nc(c(-c7c(F)cc(S(=O)(=O)[O-])cc7F)c7ccc4[nH]7)C=C6)C=C5)cc3)nnn2-c2ccc(OC(F)(F)F)cc2)c1
REMARK SMILES IDX 15 1 14 2 13 3 12 4 10 5 11 6 9 7 8 8 89 9 87 10 88 11 7 12
REMARK SMILES IDX 3 13 4 14 101 15 5 16 6 17 2 18 1 19 90 20 91 21 100 22
REMARK SMILES IDX 92 23 99 24 93 25 94 26 95 27 96 28 97 29 98 30 16 31 17 32
REMARK SMILES IDX 18 33 19 34 20 35 21 36 22 37 86 38 23 39 85 40 24 41 25 42
REMARK SMILES IDX 26 43 79 44 27 45 84 46 78 47 80 48 28 49 83 50 77 51 76 52
REMARK SMILES IDX 29 54 63 55 42 56 62 57 43 58 46 59 61 60 81 61 44 62 45 63
REMARK SMILES IDX 60 65 82 66 47 67 30 68 31 69 40 70 32 71 33 72 39 73 41 74
REMARK SMILES IDX 34 75 35 76 36 77 37 78 38 79 64 80 65 81 74 82 66 83 67 84
REMARK SMILES IDX 73 85 75 86 68 87 69 88 70 89 71 90 72 91 48 92 49 93 58 94
REMARK SMILES IDX 50 95 51 96 57 97 59 98 52 99 53 100 54 101 55 102 56 103
REMARK H PARENT 80 53 46 64
REMARK Flexibility Score: inf
ROOT
ATOM      1  O   UNL A   1      31.587  29.532  27.657  1.00  0.00    -0.374 OA
ENDROOT
BRANCH   1   2
ATOM      2  C   UNL A   1      31.740  28.158  27.301  1.00  0.00     0.202 C 
BRANCH   2   3
ATOM      3  C   UNL A   1      31.822  27.824  25.812  1.00  0.00     0.261 C 
BRANCH   3   4
ATOM      4  O   UNL A   1      31.851  26.404  25.584  1.00  0.00    -0.458 OA
BRANCH   4   5
ATOM      5  C   UNL A   1      32.651  25.995  24.557  1.00  0.00     0.361 C 
ATOM      6  O   UNL A   1      33.599  26.641  24.119  1.00  0.00    -0.244 OA
BRANCH   5   7
ATOM      7  C   UNL A   1      32.344  24.659  24.089  1.00  0.00     0.198 A 
ATOM      8  C   UNL A   1      33.162  23.543  23.945  1.00  0.00     0.109 A 
ATOM      9  N   UNL A   1      32.234  22.536  23.670  1.00  0.00    -0.212 N 
ATOM     10  N   UNL A   1      31.075  24.349  23.657  1.00  0.00    -0.122 NA
ATOM     11  N   UNL A   1      31.064  23.085  23.273  1.00  0.00    -0.061 NA
BRANCH   8  12
ATOM     12  C   UNL A   1      34.604  23.322  24.084  1.00  0.00     0.007 A 
ATOM     13  C   UNL A   1      36.609  23.394  25.468  1.00  0.00     0.119 A 
ATOM     14  C   UNL A   1      37.386  23.117  24.346  1.00  0.00     0.046 A 
ATOM     15  C   UNL A   1      35.224  23.491  25.339  1.00  0.00     0.056 A 
ATOM     16  C   UNL A   1      36.783  22.900  23.108  1.00  0.00     0.005 A 
ATOM     17  C   UNL A   1      35.396  23.002  22.975  1.00  0.00     0.011 A 
BRANCH  13  18
ATOM     18  O   UNL A   1      37.304  23.648  26.619  1.00  0.00    -0.497 OA
ATOM     19  C   UNL A   1      38.547  24.321  26.444  1.00  0.00     0.278 C 
ENDBRANCH  13  18
ENDBRANCH   8  12
BRANCH   9  20
ATOM     20  C   UNL A   1      32.324  21.144  23.906  1.00  0.00     0.067 A 
ATOM     21  C   UNL A   1      32.593  20.668  25.192  1.00  0.00     0.032 A 
ATOM     22  C   UNL A   1      32.213  20.246  22.838  1.00  0.00     0.032 A 
ATOM     23  C   UNL A   1      32.690  19.291  25.407  1.00  0.00     0.049 A 
ATOM     24  C   UNL A   1      32.354  18.873  23.057  1.00  0.00     0.049 A 
ATOM     25  C   UNL A   1      32.577  18.385  24.344  1.00  0.00     0.129 A 
BRANCH  25  26
ATOM     26  O   UNL A   1      32.705  17.073  24.697  1.00  0.00    -0.406 OA
BRANCH  26  27
ATOM     27  C   UNL A   1      33.945  16.440  24.432  1.00  0.00     0.573 C 
ATOM     28  F   UNL A   1      34.029  16.026  23.150  1.00  0.00    -0.132 F 
ATOM     29  F   UNL A   1      34.978  17.271  24.703  1.00  0.00    -0.132 F 
ATOM     30  F   UNL A   1      34.063  15.358  25.232  1.00  0.00    -0.132 F 
ENDBRANCH  26  27
ENDBRANCH  25  26
ENDBRANCH   9  20
ENDBRANCH   5   7
ENDBRANCH   4   5
ENDBRANCH   3   4
ENDBRANCH   2   3
ENDBRANCH   1   2
BRANCH   1  31
ATOM     31  C   UNL A   1      32.010  30.552  26.758  1.00  0.00     0.202 C 
BRANCH  31  32
ATOM     32  C   UNL A   1      33.067  31.539  27.234  1.00  0.00     0.261 C 
BRANCH  32  33
ATOM     33  O   UNL A   1      33.953  30.963  28.180  1.00  0.00    -0.460 OA
BRANCH  33  34
ATOM     34  C   UNL A   1      34.949  30.230  27.628  1.00  0.00     0.338 C 
ATOM     35  O   UNL A   1      34.902  29.581  26.597  1.00  0.00    -0.246 OA
BRANCH  34  36
ATOM     36  C   UNL A   1      36.089  30.232  28.549  1.00  0.00     0.060 A 
ATOM     37  C   UNL A   1      37.045  31.232  28.349  1.00  0.00     0.016 A 
ATOM     38  C   UNL A   1      36.338  29.106  29.347  1.00  0.00     0.016 A 
ATOM     39  C   UNL A   1      38.336  30.989  28.755  1.00  0.00     0.010 A 
ATOM     40  C   UNL A   1      37.632  28.849  29.716  1.00  0.00     0.010 A 
ATOM     41  C   UNL A   1      38.621  29.756  29.341  1.00  0.00    -0.014 A 
BRANCH  41  42
ATOM     42  C   UNL A   1      40.008  29.407  29.546  1.00  0.00     0.031 A 
ATOM     43  C   UNL A   1      40.389  29.291  30.970  1.00  0.00     0.074 A 
ATOM     44  C   UNL A   1      40.787  29.069  28.502  1.00  0.00     0.049 A 
ATOM     45  N   UNL A   1      41.232  30.002  31.641  1.00  0.00    -0.248 NA
ATOM     46  C   UNL A   1      39.602  28.355  31.792  1.00  0.00     0.031 C 
ATOM     47  C   UNL A   1      40.361  28.816  27.118  1.00  0.00     0.029 A 
ATOM     48  N   UNL A   1      42.103  28.744  28.481  1.00  0.00    -0.354 N 
ATOM     49  C   UNL A   1      41.238  29.448  32.917  1.00  0.00     0.074 A 
ATOM     50  C   UNL A   1      40.072  28.613  33.010  1.00  0.00     0.031 C 
ATOM     51  C   UNL A   1      41.347  28.157  26.469  1.00  0.00     0.029 A 
ATOM     52  C   UNL A   1      42.499  28.049  27.349  1.00  0.00     0.049 A 
ATOM     53  H   UNL A   1      42.724  28.982  29.207  1.00  0.00     0.167 HD
ATOM     54  C   UNL A   1      42.343  29.484  33.707  1.00  0.00     0.037 A 
ATOM     55  C   UNL A   1      43.648  27.343  27.206  1.00  0.00     0.037 A 
ATOM     56  C   UNL A   1      43.275  30.485  33.263  1.00  0.00     0.049 A 
ATOM     57  C   UNL A   1      44.573  27.774  28.291  1.00  0.00     0.074 A 
ATOM     58  C   UNL A   1      43.214  31.855  33.101  1.00  0.00     0.029 A 
ATOM     59  N   UNL A   1      44.375  30.064  32.555  1.00  0.00    -0.354 N 
ATOM     60  N   UNL A   1      45.098  28.968  28.384  1.00  0.00    -0.248 NA
ATOM     61  C   UNL A   1      44.566  27.006  29.529  1.00  0.00     0.031 C 
ATOM     62  C   UNL A   1      44.009  32.130  31.952  1.00  0.00     0.029 A 
ATOM     63  C   UNL A   1      44.546  30.922  31.501  1.00  0.00     0.049 A 
ATOM     64  H   UNL A   1      44.938  29.284  32.768  1.00  0.00     0.167 HD
ATOM     65  C   UNL A   1      45.121  29.249  29.744  1.00  0.00     0.074 A 
ATOM     66  C   UNL A   1      44.871  27.972  30.401  1.00  0.00     0.031 C 
ATOM     67  C   UNL A   1      45.064  30.534  30.205  1.00  0.00     0.037 A 
BRANCH  54  68
ATOM     68  C   UNL A   1      42.730  28.365  34.644  1.00  0.00     0.058 A 
ATOM     69  C   UNL A   1      42.896  28.640  36.014  1.00  0.00     0.135 A 
ATOM     70  C   UNL A   1      43.202  27.103  34.214  1.00  0.00     0.135 A 
ATOM     71  F   UNL A   1      42.499  29.816  36.528  1.00  0.00    -0.206 F 
ATOM     72  C   UNL A   1      43.541  27.755  36.878  1.00  0.00     0.059 A 
ATOM     73  C   UNL A   1      43.787  26.181  35.069  1.00  0.00     0.059 A 
ATOM     74  F   UNL A   1      43.221  26.739  32.926  1.00  0.00    -0.206 F 
ATOM     75  C   UNL A   1      43.997  26.534  36.390  1.00  0.00     0.060 A 
BRANCH  75  76
ATOM     76  S   UNL A   1      44.942  25.439  37.460  1.00  0.00     0.124 S 
ATOM     77  O   UNL A   1      46.306  25.870  37.176  1.00  0.00    -0.237 OA
ATOM     78  O   UNL A   1      44.422  25.782  38.780  1.00  0.00    -0.237 OA
ATOM     79  O   UNL A   1      44.584  24.109  36.979  1.00  0.00    -0.744 OA
ENDBRANCH  75  76
ENDBRANCH  54  68
BRANCH  55  80
ATOM     80  C   UNL A   1      43.832  26.085  26.436  1.00  0.00     0.058 A 
ATOM     81  C   UNL A   1      44.882  25.932  25.515  1.00  0.00     0.135 A 
ATOM     82  C   UNL A   1      43.119  24.912  26.765  1.00  0.00     0.135 A 
ATOM     83  F   UNL A   1      45.637  26.986  25.176  1.00  0.00    -0.206 F 
ATOM     84  C   UNL A   1      45.212  24.688  24.962  1.00  0.00     0.059 A 
ATOM     85  C   UNL A   1      43.419  23.667  26.216  1.00  0.00     0.059 A 
ATOM     86  F   UNL A   1      42.157  24.925  27.700  1.00  0.00    -0.206 F 
ATOM     87  C   UNL A   1      44.480  23.558  25.328  1.00  0.00     0.060 A 
BRANCH  87  88
ATOM     88  S   UNL A   1      44.981  21.932  24.718  1.00  0.00     0.124 S 
ATOM     89  O   UNL A   1      46.416  21.942  24.976  1.00  0.00    -0.237 OA
ATOM     90  O   UNL A   1      44.187  21.034  25.549  1.00  0.00    -0.237 OA
ATOM     91  O   UNL A   1      44.602  21.968  23.307  1.00  0.00    -0.744 OA
ENDBRANCH  87  88
ENDBRANCH  55  80
BRANCH  67  92
ATOM     92  C   UNL A   1      45.315  31.656  29.233  1.00  0.00     0.058 A 
ATOM     93  C   UNL A   1      46.594  32.104  28.860  1.00  0.00     0.135 A 
ATOM     94  C   UNL A   1      44.221  32.147  28.503  1.00  0.00     0.135 A 
ATOM     95  F   UNL A   1      47.694  31.611  29.444  1.00  0.00    -0.206 F 
ATOM     96  C   UNL A   1      46.774  33.012  27.814  1.00  0.00     0.059 A 
ATOM     97  C   UNL A   1      44.381  33.029  27.439  1.00  0.00     0.059 A 
ATOM     98  F   UNL A   1      42.981  31.709  28.776  1.00  0.00    -0.206 F 
ATOM     99  C   UNL A   1      45.661  33.460  27.101  1.00  0.00     0.060 A 
BRANCH  99 100
ATOM    100  S   UNL A   1      45.906  34.525  25.662  1.00  0.00     0.124 S 
ATOM    101  O   UNL A   1      45.002  33.931  24.684  1.00  0.00    -0.237 OA
ATOM    102  O   UNL A   1      45.518  35.839  26.168  1.00  0.00    -0.237 OA
ATOM    103  O   UNL A   1      47.329  34.378  25.368  1.00  0.00    -0.744 OA
ENDBRANCH  99 100
ENDBRANCH  67  92
ENDBRANCH  41  42
ENDBRANCH  34  36
ENDBRANCH  33  34
ENDBRANCH  32  33
ENDBRANCH  31  32
ENDBRANCH   1  31
TORSDOF 22
ENDMDL
