MODEL 1
REMARK VINA RESULT:     -11.9      0.000      0.000
REMARK SMILES Cc1n[nH]c2c1[C@@]1(C(=O)N([C@@H](C)C(=O)OCCOCCOC(=O)c3ccc(-c4c5nc(c(-c6c(F)cc(S(=O)(=O)[O-])cc6F)c6ccc([nH]6)c(-c6c(F)cc(S(=O)(=O)[O-])cc6F)c6nc(c(-c7c(F)cc(S(=O)(=O)[O-])cc7F)c7ccc4[nH]7)C=C6)C=C5)cc3)c3ccccc31)C(C#N)=C(N)O2
REMARK SMILES IDX 19 1 18 2 17 3 16 4 15 5 13 6 14 7 11 8 12 9 10 10 1 11 2 12
REMARK SMILES IDX 3 13 6 14 4 15 5 16 7 17 101 19 8 20 95 21 96 22 99 23 9 24
REMARK SMILES IDX 90 25 94 26 91 27 93 28 92 29 97 30 98 31 100 32 20 35 21 36
REMARK SMILES IDX 22 37 23 38 24 39 25 40 89 41 26 42 88 43 27 44 28 45 29 46
REMARK SMILES IDX 82 47 30 48 87 49 81 50 83 51 31 52 86 53 80 54 79 55 32 57
REMARK SMILES IDX 66 58 45 59 65 60 46 61 49 62 64 63 84 64 47 65 48 66 63 68
REMARK SMILES IDX 85 69 50 70 33 71 34 72 43 73 35 74 36 75 42 76 44 77 37 78
REMARK SMILES IDX 38 79 39 80 40 81 41 82 67 83 68 84 77 85 69 86 70 87 76 88
REMARK SMILES IDX 78 89 71 90 72 91 73 92 74 93 75 94 51 95 52 96 61 97 53 98
REMARK SMILES IDX 54 99 60 100 62 101 55 102 56 103 57 104 58 105 59 106
REMARK H PARENT 4 18 100 33 100 34 83 56 49 67
REMARK Flexibility Score: inf
ROOT
ATOM      1  C   UNL A   1      42.184  20.268  27.259  1.00  0.00     0.202 C 
ENDROOT
BRANCH   1   2
ATOM      2  O   UNL A   1      40.784  20.053  27.413  1.00  0.00    -0.374 OA
BRANCH   2   3
ATOM      3  C   UNL A   1      39.931  20.359  26.311  1.00  0.00     0.202 C 
BRANCH   3   4
ATOM      4  C   UNL A   1      39.260  21.742  26.256  1.00  0.00     0.261 C 
BRANCH   4   5
ATOM      5  O   UNL A   1      38.503  22.013  25.055  1.00  0.00    -0.462 OA
BRANCH   5   6
ATOM      6  C   UNL A   1      37.165  21.872  25.213  1.00  0.00     0.329 C 
ATOM      7  O   UNL A   1      36.612  20.811  25.501  1.00  0.00    -0.250 OA
BRANCH   6   8
ATOM      8  C   UNL A   1      36.320  23.137  25.010  1.00  0.00     0.197 C 
ATOM      9  C   UNL A   1      36.881  24.206  25.955  1.00  0.00     0.044 C 
BRANCH   8  10
ATOM     10  N   UNL A   1      34.841  23.182  24.971  1.00  0.00    -0.297 N 
ATOM     11  C   UNL A   1      34.242  26.739  25.750  1.00  0.00     0.069 C 
ATOM     12  C   UNL A   1      32.862  26.364  26.133  1.00  0.00     0.068 A 
ATOM     13  N   UNL A   1      32.057  27.301  26.664  1.00  0.00    -0.177 NA
ATOM     14  C   UNL A   1      32.213  25.104  26.050  1.00  0.00     0.063 A 
ATOM     15  N   UNL A   1      30.935  26.635  26.982  1.00  0.00    -0.246 N 
ATOM     16  C   UNL A   1      30.981  25.331  26.616  1.00  0.00     0.222 A 
ATOM     17  C   UNL A   1      32.569  23.724  25.579  1.00  0.00     0.149 C 
ATOM     18  H   UNL A   1      30.164  27.048  27.432  1.00  0.00     0.193 HD
ATOM     19  O   UNL A   1      29.997  24.466  26.832  1.00  0.00    -0.422 OA
ATOM     20  C   UNL A   1      33.992  23.279  26.102  1.00  0.00     0.248 C 
ATOM     21  C   UNL A   1      32.797  23.818  24.090  1.00  0.00     0.002 A 
ATOM     22  C   UNL A   1      31.432  22.758  25.919  1.00  0.00     0.114 C 
ATOM     23  C   UNL A   1      30.263  23.128  26.503  1.00  0.00     0.208 C 
ATOM     24  O   UNL A   1      34.303  23.101  27.253  1.00  0.00    -0.273 OA
ATOM     25  C   UNL A   1      34.119  23.467  23.788  1.00  0.00     0.050 A 
ATOM     26  C   UNL A   1      31.892  24.155  23.088  1.00  0.00     0.008 A 
ATOM     27  C   UNL A   1      34.556  23.449  22.473  1.00  0.00     0.027 A 
ATOM     28  C   UNL A   1      32.328  24.136  21.765  1.00  0.00     0.001 A 
ATOM     29  C   UNL A   1      33.650  23.784  21.461  1.00  0.00     0.002 A 
BRANCH  22  30
ATOM     30  C   UNL A   1      31.691  21.282  25.668  1.00  0.00     0.102 C 
ATOM     31  N   UNL A   1      31.905  20.057  25.459  1.00  0.00    -0.193 NA
ENDBRANCH  22  30
BRANCH  23  32
ATOM     32  N   UNL A   1      29.248  22.286  26.851  1.00  0.00    -0.369 N 
ATOM     33  H   UNL A   1      28.384  22.653  27.150  1.00  0.00     0.159 HD
ATOM     34  H   UNL A   1      29.379  21.312  26.805  1.00  0.00     0.159 HD
ENDBRANCH  23  32
ENDBRANCH   8  10
ENDBRANCH   6   8
ENDBRANCH   5   6
ENDBRANCH   4   5
ENDBRANCH   3   4
ENDBRANCH   2   3
ENDBRANCH   1   2
BRANCH   1  35
ATOM     35  C   UNL A   1      42.929  19.473  26.185  1.00  0.00     0.261 C 
BRANCH  35  36
ATOM     36  O   UNL A   1      43.216  20.278  25.041  1.00  0.00    -0.460 OA
BRANCH  36  37
ATOM     37  C   UNL A   1      44.529  20.571  24.831  1.00  0.00     0.338 C 
ATOM     38  O   UNL A   1      45.352  19.944  24.180  1.00  0.00    -0.246 OA
BRANCH  37  39
ATOM     39  C   UNL A   1      44.689  21.982  25.201  1.00  0.00     0.060 A 
ATOM     40  C   UNL A   1      45.525  22.390  26.247  1.00  0.00     0.016 A 
ATOM     41  C   UNL A   1      43.692  22.815  24.684  1.00  0.00     0.016 A 
ATOM     42  C   UNL A   1      45.250  23.597  26.872  1.00  0.00     0.010 A 
ATOM     43  C   UNL A   1      43.400  23.995  25.333  1.00  0.00     0.010 A 
ATOM     44  C   UNL A   1      44.138  24.348  26.462  1.00  0.00    -0.014 A 
BRANCH  44  45
ATOM     45  C   UNL A   1      43.845  25.600  27.149  1.00  0.00     0.031 A 
ATOM     46  C   UNL A   1      44.902  26.618  26.956  1.00  0.00     0.074 A 
ATOM     47  C   UNL A   1      42.671  25.893  27.745  1.00  0.00     0.049 A 
ATOM     48  N   UNL A   1      45.671  27.147  27.846  1.00  0.00    -0.248 NA
ATOM     49  C   UNL A   1      45.236  26.988  25.570  1.00  0.00     0.031 C 
ATOM     50  C   UNL A   1      41.439  25.097  27.715  1.00  0.00     0.029 A 
ATOM     51  N   UNL A   1      42.291  27.023  28.415  1.00  0.00    -0.354 N 
ATOM     52  C   UNL A   1      46.426  28.092  27.159  1.00  0.00     0.074 A 
ATOM     53  C   UNL A   1      46.262  27.816  25.758  1.00  0.00     0.031 C 
ATOM     54  C   UNL A   1      40.407  25.855  28.154  1.00  0.00     0.029 A 
ATOM     55  C   UNL A   1      40.919  27.132  28.622  1.00  0.00     0.049 A 
ATOM     56  H   UNL A   1      42.934  27.702  28.724  1.00  0.00     0.167 HD
ATOM     57  C   UNL A   1      46.885  29.207  27.784  1.00  0.00     0.037 A 
ATOM     58  C   UNL A   1      40.248  28.205  29.111  1.00  0.00     0.037 A 
ATOM     59  C   UNL A   1      46.814  29.080  29.215  1.00  0.00     0.049 A 
ATOM     60  C   UNL A   1      41.210  29.032  29.877  1.00  0.00     0.074 A 
ATOM     61  C   UNL A   1      47.537  28.451  30.204  1.00  0.00     0.029 A 
ATOM     62  N   UNL A   1      45.605  29.432  29.752  1.00  0.00    -0.354 N 
ATOM     63  N   UNL A   1      41.767  28.651  30.992  1.00  0.00    -0.248 NA
ATOM     64  C   UNL A   1      41.787  30.225  29.265  1.00  0.00     0.031 C 
ATOM     65  C   UNL A   1      46.653  28.299  31.314  1.00  0.00     0.029 A 
ATOM     66  C   UNL A   1      45.418  28.846  30.976  1.00  0.00     0.049 A 
ATOM     67  H   UNL A   1      44.954  30.028  29.315  1.00  0.00     0.167 HD
ATOM     68  C   UNL A   1      42.990  29.288  30.996  1.00  0.00     0.074 A 
ATOM     69  C   UNL A   1      42.874  30.366  30.028  1.00  0.00     0.031 C 
ATOM     70  C   UNL A   1      44.089  28.682  31.522  1.00  0.00     0.037 A 
BRANCH  57  71
ATOM     71  C   UNL A   1      46.956  30.568  27.128  1.00  0.00     0.058 A 
ATOM     72  C   UNL A   1      48.172  31.280  27.149  1.00  0.00     0.135 A 
ATOM     73  C   UNL A   1      45.817  31.315  26.752  1.00  0.00     0.135 A 
ATOM     74  F   UNL A   1      49.312  30.672  27.512  1.00  0.00    -0.206 F 
ATOM     75  C   UNL A   1      48.240  32.646  26.868  1.00  0.00     0.059 A 
ATOM     76  C   UNL A   1      45.871  32.662  26.412  1.00  0.00     0.059 A 
ATOM     77  F   UNL A   1      44.580  30.805  26.797  1.00  0.00    -0.206 F 
ATOM     78  C   UNL A   1      47.080  33.329  26.512  1.00  0.00     0.060 A 
BRANCH  78  79
ATOM     79  S   UNL A   1      47.144  35.108  26.240  1.00  0.00     0.124 S 
ATOM     80  O   UNL A   1      47.588  35.586  27.543  1.00  0.00    -0.237 OA
ATOM     81  O   UNL A   1      48.114  35.214  25.154  1.00  0.00    -0.237 OA
ATOM     82  O   UNL A   1      45.770  35.441  25.878  1.00  0.00    -0.744 OA
ENDBRANCH  78  79
ENDBRANCH  57  71
BRANCH  58  83
ATOM     83  C   UNL A   1      38.872  28.695  28.831  1.00  0.00     0.058 A 
ATOM     84  C   UNL A   1      37.928  28.805  29.871  1.00  0.00     0.135 A 
ATOM     85  C   UNL A   1      38.556  29.359  27.631  1.00  0.00     0.135 A 
ATOM     86  F   UNL A   1      38.143  28.202  31.049  1.00  0.00    -0.206 F 
ATOM     87  C   UNL A   1      36.790  29.607  29.764  1.00  0.00     0.059 A 
ATOM     88  C   UNL A   1      37.417  30.153  27.496  1.00  0.00     0.059 A 
ATOM     89  F   UNL A   1      39.398  29.339  26.587  1.00  0.00    -0.206 F 
ATOM     90  C   UNL A   1      36.561  30.306  28.582  1.00  0.00     0.060 A 
BRANCH  90  91
ATOM     91  S   UNL A   1      35.226  31.524  28.530  1.00  0.00     0.124 S 
ATOM     92  O   UNL A   1      34.132  30.751  27.955  1.00  0.00    -0.237 OA
ATOM     93  O   UNL A   1      35.084  31.879  29.939  1.00  0.00    -0.237 OA
ATOM     94  O   UNL A   1      35.762  32.580  27.676  1.00  0.00    -0.744 OA
ENDBRANCH  90  91
ENDBRANCH  58  83
BRANCH  70  95
ATOM     95  C   UNL A   1      43.871  27.668  32.603  1.00  0.00     0.058 A 
ATOM     96  C   UNL A   1      43.919  26.277  32.420  1.00  0.00     0.135 A 
ATOM     97  C   UNL A   1      43.666  28.144  33.906  1.00  0.00     0.135 A 
ATOM     98  F   UNL A   1      44.179  25.748  31.215  1.00  0.00    -0.206 F 
ATOM     99  C   UNL A   1      43.744  25.397  33.490  1.00  0.00     0.059 A 
ATOM    100  C   UNL A   1      43.517  27.287  34.990  1.00  0.00     0.059 A 
ATOM    101  F   UNL A   1      43.646  29.467  34.144  1.00  0.00    -0.206 F 
ATOM    102  C   UNL A   1      43.549  25.911  34.772  1.00  0.00     0.060 A 
BRANCH 102 103
ATOM    103  S   UNL A   1      43.413  24.775  36.170  1.00  0.00     0.124 S 
ATOM    104  O   UNL A   1      44.711  24.926  36.818  1.00  0.00    -0.237 OA
ATOM    105  O   UNL A   1      42.270  25.312  36.903  1.00  0.00    -0.237 OA
ATOM    106  O   UNL A   1      43.180  23.479  35.536  1.00  0.00    -0.744 OA
ENDBRANCH 102 103
ENDBRANCH  70  95
ENDBRANCH  44  45
ENDBRANCH  37  39
ENDBRANCH  36  37
ENDBRANCH  35  36
ENDBRANCH   1  35
TORSDOF 20
ENDMDL
MODEL 2
REMARK VINA RESULT:     -11.7      2.737      9.253
REMARK SMILES Cc1n[nH]c2c1[C@@]1(C(=O)N([C@@H](C)C(=O)OCCOCCOC(=O)c3ccc(-c4c5nc(c(-c6c(F)cc(S(=O)(=O)[O-])cc6F)c6ccc([nH]6)c(-c6c(F)cc(S(=O)(=O)[O-])cc6F)c6nc(c(-c7c(F)cc(S(=O)(=O)[O-])cc7F)c7ccc4[nH]7)C=C6)C=C5)cc3)c3ccccc31)C(C#N)=C(N)O2
REMARK SMILES IDX 19 1 18 2 17 3 16 4 15 5 13 6 14 7 11 8 12 9 10 10 1 11 2 12
REMARK SMILES IDX 3 13 6 14 4 15 5 16 7 17 101 19 8 20 95 21 96 22 99 23 9 24
REMARK SMILES IDX 90 25 94 26 91 27 93 28 92 29 97 30 98 31 100 32 20 35 21 36
REMARK SMILES IDX 22 37 23 38 24 39 25 40 89 41 26 42 88 43 27 44 28 45 29 46
REMARK SMILES IDX 82 47 30 48 87 49 81 50 83 51 31 52 86 53 80 54 79 55 32 57
REMARK SMILES IDX 66 58 45 59 65 60 46 61 49 62 64 63 84 64 47 65 48 66 63 68
REMARK SMILES IDX 85 69 50 70 33 71 34 72 43 73 35 74 36 75 42 76 44 77 37 78
REMARK SMILES IDX 38 79 39 80 40 81 41 82 67 83 68 84 77 85 69 86 70 87 76 88
REMARK SMILES IDX 78 89 71 90 72 91 73 92 74 93 75 94 51 95 52 96 61 97 53 98
REMARK SMILES IDX 54 99 60 100 62 101 55 102 56 103 57 104 58 105 59 106
REMARK H PARENT 4 18 100 33 100 34 83 56 49 67
REMARK Flexibility Score: inf
ROOT
ATOM      1  C   UNL A   1      34.391  32.606  27.994  1.00  0.00     0.202 C 
ENDROOT
BRANCH   1   2
ATOM      2  O   UNL A   1      33.672  31.377  27.968  1.00  0.00    -0.374 OA
BRANCH   2   3
ATOM      3  C   UNL A   1      32.792  31.134  26.871  1.00  0.00     0.202 C 
BRANCH   3   4
ATOM      4  C   UNL A   1      32.871  29.781  26.146  1.00  0.00     0.261 C 
BRANCH   4   5
ATOM      5  O   UNL A   1      31.809  29.527  25.198  1.00  0.00    -0.462 OA
BRANCH   5   6
ATOM      6  C   UNL A   1      32.233  28.952  24.048  1.00  0.00     0.329 C 
ATOM      7  O   UNL A   1      31.649  29.054  22.969  1.00  0.00    -0.250 OA
BRANCH   6   8
ATOM      8  C   UNL A   1      33.525  28.129  24.135  1.00  0.00     0.197 C 
ATOM      9  C   UNL A   1      34.378  28.504  22.918  1.00  0.00     0.044 C 
BRANCH   8  10
ATOM     10  N   UNL A   1      33.599  26.676  24.410  1.00  0.00    -0.297 N 
ATOM     11  C   UNL A   1      30.146  26.013  25.530  1.00  0.00     0.069 C 
ATOM     12  C   UNL A   1      30.651  24.776  26.168  1.00  0.00     0.068 A 
ATOM     13  N   UNL A   1      29.810  24.041  26.917  1.00  0.00    -0.177 NA
ATOM     14  C   UNL A   1      31.954  24.214  26.140  1.00  0.00     0.063 A 
ATOM     15  N   UNL A   1      30.580  23.062  27.418  1.00  0.00    -0.246 N 
ATOM     16  C   UNL A   1      31.857  23.118  26.965  1.00  0.00     0.222 A 
ATOM     17  C   UNL A   1      33.275  24.555  25.516  1.00  0.00     0.149 C 
ATOM     18  H   UNL A   1      30.254  22.378  28.046  1.00  0.00     0.193 HD
ATOM     19  O   UNL A   1      32.808  22.266  27.325  1.00  0.00    -0.422 OA
ATOM     20  C   UNL A   1      33.627  26.085  25.698  1.00  0.00     0.248 C 
ATOM     21  C   UNL A   1      33.089  24.452  24.020  1.00  0.00     0.002 A 
ATOM     22  C   UNL A   1      34.346  23.587  26.022  1.00  0.00     0.114 C 
ATOM     23  C   UNL A   1      34.102  22.547  26.861  1.00  0.00     0.208 C 
ATOM     24  O   UNL A   1      33.837  26.646  26.744  1.00  0.00    -0.273 OA
ATOM     25  C   UNL A   1      33.316  25.700  23.426  1.00  0.00     0.050 A 
ATOM     26  C   UNL A   1      32.777  23.333  23.255  1.00  0.00     0.008 A 
ATOM     27  C   UNL A   1      33.232  25.846  22.051  1.00  0.00     0.027 A 
ATOM     28  C   UNL A   1      32.695  23.476  21.872  1.00  0.00     0.001 A 
ATOM     29  C   UNL A   1      32.923  24.723  21.275  1.00  0.00     0.002 A 
BRANCH  22  30
ATOM     30  C   UNL A   1      35.782  23.887  25.625  1.00  0.00     0.102 C 
ATOM     31  N   UNL A   1      36.974  24.137  25.296  1.00  0.00    -0.193 NA
ENDBRANCH  22  30
BRANCH  23  32
ATOM     32  N   UNL A   1      35.041  21.691  27.357  1.00  0.00    -0.369 N 
ATOM     33  H   UNL A   1      35.108  20.775  27.002  1.00  0.00     0.159 HD
ATOM     34  H   UNL A   1      35.649  21.987  28.071  1.00  0.00     0.159 HD
ENDBRANCH  23  32
ENDBRANCH   8  10
ENDBRANCH   6   8
ENDBRANCH   5   6
ENDBRANCH   4   5
ENDBRANCH   3   4
ENDBRANCH   2   3
ENDBRANCH   1   2
BRANCH   1  35
ATOM     35  C   UNL A   1      33.758  33.804  28.706  1.00  0.00     0.261 C 
BRANCH  35  36
ATOM     36  O   UNL A   1      34.691  34.453  29.571  1.00  0.00    -0.460 OA
BRANCH  36  37
ATOM     37  C   UNL A   1      34.521  34.235  30.904  1.00  0.00     0.338 C 
ATOM     38  O   UNL A   1      33.491  34.301  31.559  1.00  0.00    -0.246 OA
BRANCH  37  39
ATOM     39  C   UNL A   1      35.724  33.522  31.351  1.00  0.00     0.060 A 
ATOM     40  C   UNL A   1      36.990  34.119  31.350  1.00  0.00     0.016 A 
ATOM     41  C   UNL A   1      35.560  32.135  31.422  1.00  0.00     0.016 A 
ATOM     42  C   UNL A   1      38.102  33.294  31.272  1.00  0.00     0.010 A 
ATOM     43  C   UNL A   1      36.666  31.322  31.305  1.00  0.00     0.010 A 
ATOM     44  C   UNL A   1      37.925  31.906  31.166  1.00  0.00    -0.014 A 
BRANCH  44  45
ATOM     45  C   UNL A   1      39.103  31.055  31.054  1.00  0.00     0.031 A 
ATOM     46  C   UNL A   1      39.809  30.886  32.344  1.00  0.00     0.074 A 
ATOM     47  C   UNL A   1      39.434  30.340  29.959  1.00  0.00     0.049 A 
ATOM     48  N   UNL A   1      41.003  31.264  32.655  1.00  0.00    -0.248 NA
ATOM     49  C   UNL A   1      39.031  30.349  33.473  1.00  0.00     0.031 C 
ATOM     50  C   UNL A   1      38.638  30.169  28.739  1.00  0.00     0.029 A 
ATOM     51  N   UNL A   1      40.507  29.519  29.744  1.00  0.00    -0.354 N 
ATOM     52  C   UNL A   1      41.205  30.799  33.950  1.00  0.00     0.074 A 
ATOM     53  C   UNL A   1      39.916  30.428  34.465  1.00  0.00     0.031 C 
ATOM     54  C   UNL A   1      39.149  29.149  28.012  1.00  0.00     0.029 A 
ATOM     55  C   UNL A   1      40.379  28.689  28.636  1.00  0.00     0.049 A 
ATOM     56  H   UNL A   1      41.302  29.518  30.325  1.00  0.00     0.167 HD
ATOM     57  C   UNL A   1      42.450  30.478  34.390  1.00  0.00     0.037 A 
ATOM     58  C   UNL A   1      41.203  27.673  28.275  1.00  0.00     0.037 A 
ATOM     59  C   UNL A   1      43.471  31.012  33.528  1.00  0.00     0.049 A 
ATOM     60  C   UNL A   1      42.520  27.909  28.911  1.00  0.00     0.074 A 
ATOM     61  C   UNL A   1      44.063  32.236  33.312  1.00  0.00     0.029 A 
ATOM     62  N   UNL A   1      43.781  30.213  32.460  1.00  0.00    -0.354 N 
ATOM     63  N   UNL A   1      43.311  28.897  28.597  1.00  0.00    -0.248 NA
ATOM     64  C   UNL A   1      42.878  27.183  30.126  1.00  0.00     0.031 C 
ATOM     65  C   UNL A   1      44.611  32.192  31.996  1.00  0.00     0.029 A 
ATOM     66  C   UNL A   1      44.347  30.940  31.447  1.00  0.00     0.049 A 
ATOM     67  H   UNL A   1      43.617  29.242  32.425  1.00  0.00     0.167 HD
ATOM     68  C   UNL A   1      43.993  29.170  29.763  1.00  0.00     0.074 A 
ATOM     69  C   UNL A   1      43.831  27.991  30.598  1.00  0.00     0.031 C 
ATOM     70  C   UNL A   1      44.336  30.446  30.087  1.00  0.00     0.037 A 
BRANCH  57  71
ATOM     71  C   UNL A   1      42.740  29.312  35.308  1.00  0.00     0.058 A 
ATOM     72  C   UNL A   1      43.591  29.501  36.414  1.00  0.00     0.135 A 
ATOM     73  C   UNL A   1      42.462  27.966  34.975  1.00  0.00     0.135 A 
ATOM     74  F   UNL A   1      43.938  30.738  36.804  1.00  0.00    -0.206 F 
ATOM     75  C   UNL A   1      44.165  28.432  37.106  1.00  0.00     0.059 A 
ATOM     76  C   UNL A   1      42.975  26.888  35.686  1.00  0.00     0.059 A 
ATOM     77  F   UNL A   1      41.765  27.629  33.883  1.00  0.00    -0.206 F 
ATOM     78  C   UNL A   1      43.858  27.129  36.724  1.00  0.00     0.060 A 
BRANCH  78  79
ATOM     79  S   UNL A   1      44.665  25.747  37.550  1.00  0.00     0.124 S 
ATOM     80  O   UNL A   1      46.071  26.036  37.293  1.00  0.00    -0.237 OA
ATOM     81  O   UNL A   1      44.219  25.916  38.929  1.00  0.00    -0.237 OA
ATOM     82  O   UNL A   1      44.123  24.581  36.860  1.00  0.00    -0.744 OA
ENDBRANCH  78  79
ENDBRANCH  57  71
BRANCH  58  83
ATOM     83  C   UNL A   1      40.915  26.397  27.566  1.00  0.00     0.058 A 
ATOM     84  C   UNL A   1      41.804  25.905  26.591  1.00  0.00     0.135 A 
ATOM     85  C   UNL A   1      39.953  25.489  28.045  1.00  0.00     0.135 A 
ATOM     86  F   UNL A   1      42.751  26.701  26.073  1.00  0.00    -0.206 F 
ATOM     87  C   UNL A   1      41.807  24.568  26.190  1.00  0.00     0.059 A 
ATOM     88  C   UNL A   1      39.926  24.152  27.648  1.00  0.00     0.059 A 
ATOM     89  F   UNL A   1      39.074  25.849  28.994  1.00  0.00    -0.206 F 
ATOM     90  C   UNL A   1      40.884  23.689  26.752  1.00  0.00     0.060 A 
BRANCH  90  91
ATOM     91  S   UNL A   1      41.044  21.920  26.416  1.00  0.00     0.124 S 
ATOM     92  O   UNL A   1      41.421  21.395  27.723  1.00  0.00    -0.237 OA
ATOM     93  O   UNL A   1      39.703  21.576  25.953  1.00  0.00    -0.237 OA
ATOM     94  O   UNL A   1      42.086  21.862  25.395  1.00  0.00    -0.744 OA
ENDBRANCH  90  91
ENDBRANCH  58  83
BRANCH  70  95
ATOM     95  C   UNL A   1      44.537  31.417  28.964  1.00  0.00     0.058 A 
ATOM     96  C   UNL A   1      43.658  32.462  28.639  1.00  0.00     0.135 A 
ATOM     97  C   UNL A   1      45.722  31.311  28.221  1.00  0.00     0.135 A 
ATOM     98  F   UNL A   1      42.539  32.668  29.349  1.00  0.00    -0.206 F 
ATOM     99  C   UNL A   1      43.938  33.351  27.599  1.00  0.00     0.059 A 
ATOM    100  C   UNL A   1      46.034  32.201  27.200  1.00  0.00     0.059 A 
ATOM    101  F   UNL A   1      46.615  30.351  28.512  1.00  0.00    -0.206 F 
ATOM    102  C   UNL A   1      45.132  33.216  26.889  1.00  0.00     0.060 A 
BRANCH 102 103
ATOM    103  S   UNL A   1      45.537  34.418  25.604  1.00  0.00     0.124 S 
ATOM    104  O   UNL A   1      46.988  34.294  25.511  1.00  0.00    -0.237 OA
ATOM    105  O   UNL A   1      44.782  33.921  24.457  1.00  0.00    -0.237 OA
ATOM    106  O   UNL A   1      45.054  35.683  26.154  1.00  0.00    -0.744 OA
ENDBRANCH 102 103
ENDBRANCH  70  95
ENDBRANCH  44  45
ENDBRANCH  37  39
ENDBRANCH  36  37
ENDBRANCH  35  36
ENDBRANCH   1  35
TORSDOF 20
ENDMDL
MODEL 3
REMARK VINA RESULT:     -11.6      2.545      9.217
REMARK SMILES Cc1n[nH]c2c1[C@@]1(C(=O)N([C@@H](C)C(=O)OCCOCCOC(=O)c3ccc(-c4c5nc(c(-c6c(F)cc(S(=O)(=O)[O-])cc6F)c6ccc([nH]6)c(-c6c(F)cc(S(=O)(=O)[O-])cc6F)c6nc(c(-c7c(F)cc(S(=O)(=O)[O-])cc7F)c7ccc4[nH]7)C=C6)C=C5)cc3)c3ccccc31)C(C#N)=C(N)O2
REMARK SMILES IDX 19 1 18 2 17 3 16 4 15 5 13 6 14 7 11 8 12 9 10 10 1 11 2 12
REMARK SMILES IDX 3 13 6 14 4 15 5 16 7 17 101 19 8 20 95 21 96 22 99 23 9 24
REMARK SMILES IDX 90 25 94 26 91 27 93 28 92 29 97 30 98 31 100 32 20 35 21 36
REMARK SMILES IDX 22 37 23 38 24 39 25 40 89 41 26 42 88 43 27 44 28 45 29 46
REMARK SMILES IDX 82 47 30 48 87 49 81 50 83 51 31 52 86 53 80 54 79 55 32 57
REMARK SMILES IDX 66 58 45 59 65 60 46 61 49 62 64 63 84 64 47 65 48 66 63 68
REMARK SMILES IDX 85 69 50 70 33 71 34 72 43 73 35 74 36 75 42 76 44 77 37 78
REMARK SMILES IDX 38 79 39 80 40 81 41 82 67 83 68 84 77 85 69 86 70 87 76 88
REMARK SMILES IDX 78 89 71 90 72 91 73 92 74 93 75 94 51 95 52 96 61 97 53 98
REMARK SMILES IDX 54 99 60 100 62 101 55 102 56 103 57 104 58 105 59 106
REMARK H PARENT 4 18 100 33 100 34 83 56 49 67
REMARK Flexibility Score: inf
ROOT
ATOM      1  C   UNL A   1      32.481  33.266  27.716  1.00  0.00     0.202 C 
ENDROOT
BRANCH   1   2
ATOM      2  O   UNL A   1      31.536  32.554  26.923  1.00  0.00    -0.374 OA
BRANCH   2   3
ATOM      3  C   UNL A   1      31.781  31.174  26.659  1.00  0.00     0.202 C 
BRANCH   3   4
ATOM      4  C   UNL A   1      31.383  30.601  25.289  1.00  0.00     0.261 C 
BRANCH   4   5
ATOM      5  O   UNL A   1      31.569  29.175  25.139  1.00  0.00    -0.462 OA
BRANCH   5   6
ATOM      6  C   UNL A   1      32.104  28.819  23.947  1.00  0.00     0.329 C 
ATOM      7  O   UNL A   1      31.615  29.113  22.856  1.00  0.00    -0.250 OA
BRANCH   6   8
ATOM      8  C   UNL A   1      33.398  27.997  24.001  1.00  0.00     0.197 C 
ATOM      9  C   UNL A   1      34.185  28.316  22.725  1.00  0.00     0.044 C 
BRANCH   8  10
ATOM     10  N   UNL A   1      33.486  26.557  24.335  1.00  0.00    -0.297 N 
ATOM     11  C   UNL A   1      30.013  25.883  25.387  1.00  0.00     0.069 C 
ATOM     12  C   UNL A   1      30.519  24.680  26.086  1.00  0.00     0.068 A 
ATOM     13  N   UNL A   1      29.669  23.962  26.841  1.00  0.00    -0.177 NA
ATOM     14  C   UNL A   1      31.831  24.138  26.116  1.00  0.00     0.063 A 
ATOM     15  N   UNL A   1      30.440  23.016  27.401  1.00  0.00    -0.246 N 
ATOM     16  C   UNL A   1      31.727  23.074  26.981  1.00  0.00     0.222 A 
ATOM     17  C   UNL A   1      33.163  24.476  25.514  1.00  0.00     0.149 C 
ATOM     18  H   UNL A   1      30.106  22.351  28.046  1.00  0.00     0.193 HD
ATOM     19  O   UNL A   1      32.681  22.252  27.400  1.00  0.00    -0.422 OA
ATOM     20  C   UNL A   1      33.488  26.017  25.645  1.00  0.00     0.248 C 
ATOM     21  C   UNL A   1      33.020  24.312  24.020  1.00  0.00     0.002 A 
ATOM     22  C   UNL A   1      34.234  23.545  26.087  1.00  0.00     0.114 C 
ATOM     23  C   UNL A   1      33.982  22.535  26.960  1.00  0.00     0.208 C 
ATOM     24  O   UNL A   1      33.659  26.622  26.674  1.00  0.00    -0.273 OA
ATOM     25  C   UNL A   1      33.244  25.539  23.383  1.00  0.00     0.050 A 
ATOM     26  C   UNL A   1      32.746  23.159  23.292  1.00  0.00     0.008 A 
ATOM     27  C   UNL A   1      33.197  25.630  22.001  1.00  0.00     0.027 A 
ATOM     28  C   UNL A   1      32.700  23.247  21.902  1.00  0.00     0.001 A 
ATOM     29  C   UNL A   1      32.925  24.473  21.263  1.00  0.00     0.002 A 
BRANCH  22  30
ATOM     30  C   UNL A   1      35.676  23.853  25.718  1.00  0.00     0.102 C 
ATOM     31  N   UNL A   1      36.872  24.109  25.412  1.00  0.00    -0.193 NA
ENDBRANCH  22  30
BRANCH  23  32
ATOM     32  N   UNL A   1      34.920  21.714  27.515  1.00  0.00    -0.369 N 
ATOM     33  H   UNL A   1      35.438  22.016  28.296  1.00  0.00     0.159 HD
ATOM     34  H   UNL A   1      35.080  20.822  27.134  1.00  0.00     0.159 HD
ENDBRANCH  23  32
ENDBRANCH   8  10
ENDBRANCH   6   8
ENDBRANCH   5   6
ENDBRANCH   4   5
ENDBRANCH   3   4
ENDBRANCH   2   3
ENDBRANCH   1   2
BRANCH   1  35
ATOM     35  C   UNL A   1      33.834  32.609  28.000  1.00  0.00     0.261 C 
BRANCH  35  36
ATOM     36  O   UNL A   1      34.552  33.306  29.019  1.00  0.00    -0.460 OA
BRANCH  36  37
ATOM     37  C   UNL A   1      34.971  32.555  30.074  1.00  0.00     0.338 C 
ATOM     38  O   UNL A   1      34.363  32.278  31.097  1.00  0.00    -0.246 OA
BRANCH  37  39
ATOM     39  C   UNL A   1      36.140  31.808  29.596  1.00  0.00     0.060 A 
ATOM     40  C   UNL A   1      36.202  30.410  29.638  1.00  0.00     0.016 A 
ATOM     41  C   UNL A   1      37.287  32.595  29.446  1.00  0.00     0.016 A 
ATOM     42  C   UNL A   1      37.452  29.811  29.677  1.00  0.00     0.010 A 
ATOM     43  C   UNL A   1      38.525  31.997  29.524  1.00  0.00     0.010 A 
ATOM     44  C   UNL A   1      38.602  30.617  29.704  1.00  0.00    -0.014 A 
BRANCH  44  45
ATOM     45  C   UNL A   1      39.907  29.973  29.775  1.00  0.00     0.031 A 
ATOM     46  C   UNL A   1      40.385  29.804  31.167  1.00  0.00     0.074 A 
ATOM     47  C   UNL A   1      40.548  29.415  28.728  1.00  0.00     0.049 A 
ATOM     48  N   UNL A   1      41.420  30.335  31.724  1.00  0.00    -0.248 NA
ATOM     49  C   UNL A   1      39.516  29.058  32.092  1.00  0.00     0.031 C 
ATOM     50  C   UNL A   1      40.028  29.227  27.369  1.00  0.00     0.029 A 
ATOM     51  N   UNL A   1      41.765  28.793  28.680  1.00  0.00    -0.354 N 
ATOM     52  C   UNL A   1      41.459  29.798  33.006  1.00  0.00     0.074 A 
ATOM     53  C   UNL A   1      40.178  29.187  33.240  1.00  0.00     0.031 C 
ATOM     54  C   UNL A   1      40.829  28.366  26.700  1.00  0.00     0.029 A 
ATOM     55  C   UNL A   1      41.983  28.050  27.524  1.00  0.00     0.049 A 
ATOM     56  H   UNL A   1      42.430  28.864  29.403  1.00  0.00     0.167 HD
ATOM     57  C   UNL A   1      42.639  29.637  33.660  1.00  0.00     0.037 A 
ATOM     58  C   UNL A   1      43.019  27.210  27.274  1.00  0.00     0.037 A 
ATOM     59  C   UNL A   1      43.694  30.396  33.044  1.00  0.00     0.049 A 
ATOM     60  C   UNL A   1      44.139  27.592  28.166  1.00  0.00     0.074 A 
ATOM     61  C   UNL A   1      44.100  31.711  33.015  1.00  0.00     0.029 A 
ATOM     62  N   UNL A   1      44.324  29.749  32.014  1.00  0.00    -0.354 N 
ATOM     63  N   UNL A   1      44.795  28.715  28.066  1.00  0.00    -0.248 NA
ATOM     64  C   UNL A   1      44.387  26.829  29.385  1.00  0.00     0.031 C 
ATOM     65  C   UNL A   1      44.879  31.866  31.830  1.00  0.00     0.029 A 
ATOM     66  C   UNL A   1      44.934  30.640  31.171  1.00  0.00     0.049 A 
ATOM     67  H   UNL A   1      44.335  28.772  31.894  1.00  0.00     0.167 HD
ATOM     68  C   UNL A   1      45.198  28.989  29.356  1.00  0.00     0.074 A 
ATOM     69  C   UNL A   1      45.088  27.731  30.077  1.00  0.00     0.031 C 
ATOM     70  C   UNL A   1      45.255  30.270  29.810  1.00  0.00     0.037 A 
BRANCH  57  71
ATOM     71  C   UNL A   1      42.949  28.456  34.552  1.00  0.00     0.058 A 
ATOM     72  C   UNL A   1      43.325  28.682  35.890  1.00  0.00     0.135 A 
ATOM     73  C   UNL A   1      43.182  27.149  34.065  1.00  0.00     0.135 A 
ATOM     74  F   UNL A   1      43.168  29.894  36.447  1.00  0.00    -0.206 F 
ATOM     75  C   UNL A   1      43.936  27.699  36.670  1.00  0.00     0.059 A 
ATOM     76  C   UNL A   1      43.734  26.138  34.842  1.00  0.00     0.059 A 
ATOM     77  F   UNL A   1      42.983  26.817  32.784  1.00  0.00    -0.206 F 
ATOM     78  C   UNL A   1      44.146  26.432  36.131  1.00  0.00     0.060 A 
BRANCH  78  79
ATOM     79  S   UNL A   1      45.016  25.187  37.098  1.00  0.00     0.124 S 
ATOM     80  O   UNL A   1      44.155  25.075  38.269  1.00  0.00    -0.237 OA
ATOM     81  O   UNL A   1      45.015  24.043  36.191  1.00  0.00    -0.237 OA
ATOM     82  O   UNL A   1      46.323  25.794  37.328  1.00  0.00    -0.744 OA
ENDBRANCH  78  79
ENDBRANCH  57  71
BRANCH  58  83
ATOM     83  C   UNL A   1      43.085  25.971  26.454  1.00  0.00     0.058 A 
ATOM     84  C   UNL A   1      44.035  25.847  25.421  1.00  0.00     0.135 A 
ATOM     85  C   UNL A   1      42.452  24.782  26.862  1.00  0.00     0.135 A 
ATOM     86  F   UNL A   1      44.685  26.928  24.964  1.00  0.00    -0.206 F 
ATOM     87  C   UNL A   1      44.410  24.609  24.897  1.00  0.00     0.059 A 
ATOM     88  C   UNL A   1      42.799  23.536  26.341  1.00  0.00     0.059 A 
ATOM     89  F   UNL A   1      41.549  24.786  27.855  1.00  0.00    -0.206 F 
ATOM     90  C   UNL A   1      43.810  23.453  25.390  1.00  0.00     0.060 A 
BRANCH  90  91
ATOM     91  S   UNL A   1      44.464  21.845  24.886  1.00  0.00     0.124 S 
ATOM     92  O   UNL A   1      43.428  20.934  25.359  1.00  0.00    -0.237 OA
ATOM     93  O   UNL A   1      44.565  21.998  23.437  1.00  0.00    -0.237 OA
ATOM     94  O   UNL A   1      45.740  21.762  25.591  1.00  0.00    -0.744 OA
ENDBRANCH  90  91
ENDBRANCH  58  83
BRANCH  70  95
ATOM     95  C   UNL A   1      45.490  31.353  28.803  1.00  0.00     0.058 A 
ATOM     96  C   UNL A   1      46.747  31.713  28.290  1.00  0.00     0.135 A 
ATOM     97  C   UNL A   1      44.366  32.015  28.287  1.00  0.00     0.135 A 
ATOM     98  F   UNL A   1      47.860  31.078  28.684  1.00  0.00    -0.206 F 
ATOM     99  C   UNL A   1      46.878  32.710  27.321  1.00  0.00     0.059 A 
ATOM    100  C   UNL A   1      44.471  32.990  27.302  1.00  0.00     0.059 A 
ATOM    101  F   UNL A   1      43.136  31.685  28.717  1.00  0.00    -0.206 F 
ATOM    102  C   UNL A   1      45.734  33.338  26.829  1.00  0.00     0.060 A 
BRANCH 102 103
ATOM    103  S   UNL A   1      45.894  34.563  25.511  1.00  0.00     0.124 S 
ATOM    104  O   UNL A   1      44.987  34.044  24.494  1.00  0.00    -0.237 OA
ATOM    105  O   UNL A   1      45.470  35.795  26.172  1.00  0.00    -0.237 OA
ATOM    106  O   UNL A   1      47.313  34.511  25.167  1.00  0.00    -0.744 OA
ENDBRANCH 102 103
ENDBRANCH  70  95
ENDBRANCH  44  45
ENDBRANCH  37  39
ENDBRANCH  36  37
ENDBRANCH  35  36
ENDBRANCH   1  35
TORSDOF 20
ENDMDL
