MODEL 1
REMARK VINA RESULT:     -11.5      0.000      0.000
REMARK SMILES C[C@@H]1CN(S(=O)(=O)c2cccc(C(=O)N3CCC[C@@H]3C(=O)OCCOCCOC(=O)c3ccc(-c4c5nc(c(-c6c(F)cc(S(=O)(=O)[O-])cc6F)c6ccc([nH]6)c(-c6c(F)cc(S(=O)(=O)[O-])cc6F)c6nc(c(-c7c(F)cc(S(=O)(=O)[O-])cc7F)c7ccc4[nH]7)C=C6)C=C5)cc3)c2)C[C@H](C)O1
REMARK SMILES IDX 24 1 23 2 22 3 20 4 21 5 19 6 15 7 16 8 17 9 18 10 13 11
REMARK SMILES IDX 14 12 12 13 8 14 9 15 97 16 10 17 11 18 5 19 6 20 7 21 4 22
REMARK SMILES IDX 1 23 2 24 3 25 101 26 99 27 98 28 100 29 25 30 26 31 27 32
REMARK SMILES IDX 28 33 29 34 30 35 31 36 32 37 96 38 33 39 95 40 34 41 35 42
REMARK SMILES IDX 36 43 89 44 37 45 94 46 88 47 90 48 38 49 93 50 87 51 86 52
REMARK SMILES IDX 39 54 73 55 52 56 72 57 53 58 56 59 71 60 91 61 54 62 55 63
REMARK SMILES IDX 70 65 92 66 57 67 40 68 41 69 50 70 42 71 43 72 49 73 51 74
REMARK SMILES IDX 44 75 45 76 46 77 47 78 48 79 74 80 75 81 84 82 76 83 77 84
REMARK SMILES IDX 83 85 85 86 78 87 79 88 80 89 81 90 82 91 58 92 59 93 68 94
REMARK SMILES IDX 60 95 61 96 67 97 69 98 62 99 63 100 64 101 65 102 66 103
REMARK H PARENT 90 53 56 64
REMARK Flexibility Score: inf
ROOT
ATOM      1  C   UNL A   1      33.531  29.874  27.368  1.00  0.00     0.202 C 
ENDROOT
BRANCH   1   2
ATOM      2  C   UNL A   1      32.296  29.422  26.578  1.00  0.00     0.261 C 
BRANCH   2   3
ATOM      3  O   UNL A   1      32.117  27.990  26.568  1.00  0.00    -0.462 OA
BRANCH   3   4
ATOM      4  C   UNL A   1      32.854  27.307  25.645  1.00  0.00     0.328 C 
ATOM      5  O   UNL A   1      33.645  26.409  25.910  1.00  0.00    -0.250 OA
BRANCH   4   6
ATOM      6  C   UNL A   1      32.448  27.646  24.207  1.00  0.00     0.195 C 
ATOM      7  N   UNL A   1      31.747  26.598  23.473  1.00  0.00    -0.325 N 
ATOM      8  C   UNL A   1      31.976  26.828  22.059  1.00  0.00     0.121 C 
ATOM      9  C   UNL A   1      33.454  27.142  22.028  1.00  0.00     0.024 C 
ATOM     10  C   UNL A   1      33.684  27.924  23.326  1.00  0.00     0.039 C 
BRANCH   7  11
ATOM     11  C   UNL A   1      30.539  26.134  23.974  1.00  0.00     0.254 C 
ATOM     12  O   UNL A   1      29.546  26.848  24.060  1.00  0.00    -0.269 OA
BRANCH  11  13
ATOM     13  C   UNL A   1      30.595  24.820  24.688  1.00  0.00     0.041 A 
ATOM     14  C   UNL A   1      31.519  22.582  24.914  1.00  0.00     0.083 A 
ATOM     15  C   UNL A   1      31.009  22.481  26.206  1.00  0.00     0.022 A 
ATOM     16  C   UNL A   1      31.269  23.726  24.152  1.00  0.00     0.035 A 
ATOM     17  C   UNL A   1      30.271  23.548  26.732  1.00  0.00     0.002 A 
ATOM     18  C   UNL A   1      30.073  24.716  25.982  1.00  0.00     0.014 A 
BRANCH  14  19
ATOM     19  S   UNL A   1      32.324  21.217  24.108  1.00  0.00     0.243 S 
ATOM     20  O   UNL A   1      32.062  21.375  22.691  1.00  0.00    -0.207 OA
ATOM     21  O   UNL A   1      31.964  20.007  24.811  1.00  0.00    -0.207 OA
BRANCH  19  22
ATOM     22  N   UNL A   1      34.026  21.442  24.330  1.00  0.00    -0.193 NA
ATOM     23  C   UNL A   1      36.894  20.351  24.987  1.00  0.00     0.040 C 
ATOM     24  C   UNL A   1      36.055  21.333  25.789  1.00  0.00     0.130 C 
ATOM     25  C   UNL A   1      34.561  21.042  25.664  1.00  0.00     0.134 C 
ATOM     26  O   UNL A   1      36.380  22.698  25.522  1.00  0.00    -0.373 OA
ATOM     27  C   UNL A   1      35.849  23.230  24.299  1.00  0.00     0.130 C 
ATOM     28  C   UNL A   1      34.361  22.903  24.089  1.00  0.00     0.134 C 
ATOM     29  C   UNL A   1      36.716  22.886  23.100  1.00  0.00     0.040 C 
ENDBRANCH  19  22
ENDBRANCH  14  19
ENDBRANCH  11  13
ENDBRANCH   7  11
ENDBRANCH   4   6
ENDBRANCH   3   4
ENDBRANCH   2   3
ENDBRANCH   1   2
BRANCH   1  30
ATOM     30  O   UNL A   1      33.609  31.283  27.596  1.00  0.00    -0.374 OA
BRANCH  30  31
ATOM     31  C   UNL A   1      34.934  31.793  27.739  1.00  0.00     0.202 C 
BRANCH  31  32
ATOM     32  C   UNL A   1      35.134  32.694  28.961  1.00  0.00     0.261 C 
BRANCH  32  33
ATOM     33  O   UNL A   1      36.468  32.572  29.484  1.00  0.00    -0.460 OA
BRANCH  33  34
ATOM     34  C   UNL A   1      36.681  31.474  30.254  1.00  0.00     0.338 C 
ATOM     35  O   UNL A   1      35.890  30.931  31.005  1.00  0.00    -0.246 OA
BRANCH  34  36
ATOM     36  C   UNL A   1      38.006  30.912  29.929  1.00  0.00     0.060 A 
ATOM     37  C   UNL A   1      38.979  30.875  30.936  1.00  0.00     0.016 A 
ATOM     38  C   UNL A   1      38.295  30.424  28.657  1.00  0.00     0.016 A 
ATOM     39  C   UNL A   1      40.244  30.335  30.678  1.00  0.00     0.010 A 
ATOM     40  C   UNL A   1      39.561  29.883  28.405  1.00  0.00     0.010 A 
ATOM     41  C   UNL A   1      40.550  29.826  29.411  1.00  0.00    -0.014 A 
BRANCH  41  42
ATOM     42  C   UNL A   1      41.906  29.306  29.064  1.00  0.00     0.031 A 
ATOM     43  C   UNL A   1      43.020  30.297  28.845  1.00  0.00     0.074 A 
ATOM     44  C   UNL A   1      42.145  27.994  28.854  1.00  0.00     0.049 A 
ATOM     45  N   UNL A   1      44.203  30.120  28.316  1.00  0.00    -0.248 NA
ATOM     46  C   UNL A   1      42.749  31.683  29.263  1.00  0.00     0.031 C 
ATOM     47  C   UNL A   1      41.187  26.902  29.038  1.00  0.00     0.029 A 
ATOM     48  N   UNL A   1      43.267  27.364  28.361  1.00  0.00    -0.354 N 
ATOM     49  C   UNL A   1      44.812  31.368  28.331  1.00  0.00     0.074 A 
ATOM     50  C   UNL A   1      43.839  32.308  28.846  1.00  0.00     0.031 C 
ATOM     51  C   UNL A   1      41.731  25.757  28.587  1.00  0.00     0.029 A 
ATOM     52  C   UNL A   1      43.070  26.033  28.070  1.00  0.00     0.049 A 
ATOM     53  H   UNL A   1      44.128  27.823  28.228  1.00  0.00     0.167 HD
ATOM     54  C   UNL A   1      46.080  31.703  27.996  1.00  0.00     0.037 A 
ATOM     55  C   UNL A   1      43.851  25.149  27.417  1.00  0.00     0.037 A 
ATOM     56  C   UNL A   1      47.071  30.769  27.539  1.00  0.00     0.049 A 
ATOM     57  C   UNL A   1      45.216  25.560  26.932  1.00  0.00     0.074 A 
ATOM     58  C   UNL A   1      48.416  30.991  27.300  1.00  0.00     0.029 A 
ATOM     59  N   UNL A   1      46.826  29.438  27.247  1.00  0.00    -0.354 N 
ATOM     60  N   UNL A   1      45.804  26.728  27.021  1.00  0.00    -0.248 NA
ATOM     61  C   UNL A   1      46.031  24.528  26.271  1.00  0.00     0.031 C 
ATOM     62  C   UNL A   1      48.978  29.800  26.828  1.00  0.00     0.029 A 
ATOM     63  C   UNL A   1      47.988  28.831  26.803  1.00  0.00     0.049 A 
ATOM     64  H   UNL A   1      45.955  28.989  27.342  1.00  0.00     0.167 HD
ATOM     65  C   UNL A   1      47.075  26.556  26.478  1.00  0.00     0.074 A 
ATOM     66  C   UNL A   1      47.163  25.181  26.038  1.00  0.00     0.031 C 
ATOM     67  C   UNL A   1      48.082  27.456  26.379  1.00  0.00     0.037 A 
BRANCH  54  68
ATOM     68  C   UNL A   1      46.475  33.142  28.155  1.00  0.00     0.058 A 
ATOM     69  C   UNL A   1      47.018  33.619  29.360  1.00  0.00     0.135 A 
ATOM     70  C   UNL A   1      46.317  34.052  27.100  1.00  0.00     0.135 A 
ATOM     71  F   UNL A   1      47.176  32.789  30.405  1.00  0.00    -0.206 F 
ATOM     72  C   UNL A   1      47.350  34.956  29.528  1.00  0.00     0.059 A 
ATOM     73  C   UNL A   1      46.668  35.391  27.237  1.00  0.00     0.059 A 
ATOM     74  F   UNL A   1      45.805  33.647  25.927  1.00  0.00    -0.206 F 
ATOM     75  C   UNL A   1      47.164  35.838  28.462  1.00  0.00     0.060 A 
BRANCH  75  76
ATOM     76  S   UNL A   1      47.580  37.577  28.701  1.00  0.00     0.124 S 
ATOM     77  O   UNL A   1      48.933  37.627  28.159  1.00  0.00    -0.237 OA
ATOM     78  O   UNL A   1      46.556  38.256  27.912  1.00  0.00    -0.237 OA
ATOM     79  O   UNL A   1      47.474  37.755  30.145  1.00  0.00    -0.744 OA
ENDBRANCH  75  76
ENDBRANCH  54  68
BRANCH  55  80
ATOM     80  C   UNL A   1      43.359  23.772  27.142  1.00  0.00     0.058 A 
ATOM     81  C   UNL A   1      42.830  23.429  25.892  1.00  0.00     0.135 A 
ATOM     82  C   UNL A   1      43.362  22.791  28.146  1.00  0.00     0.135 A 
ATOM     83  F   UNL A   1      42.784  24.342  24.909  1.00  0.00    -0.206 F 
ATOM     84  C   UNL A   1      42.307  22.164  25.647  1.00  0.00     0.059 A 
ATOM     85  C   UNL A   1      42.863  21.510  27.919  1.00  0.00     0.059 A 
ATOM     86  F   UNL A   1      43.841  23.087  29.364  1.00  0.00    -0.206 F 
ATOM     87  C   UNL A   1      42.328  21.210  26.667  1.00  0.00     0.060 A 
BRANCH  87  88
ATOM     88  S   UNL A   1      41.653  19.570  26.318  1.00  0.00     0.124 S 
ATOM     89  O   UNL A   1      42.400  19.193  25.124  1.00  0.00    -0.237 OA
ATOM     90  O   UNL A   1      41.990  18.839  27.536  1.00  0.00    -0.237 OA
ATOM     91  O   UNL A   1      40.229  19.816  26.117  1.00  0.00    -0.744 OA
ENDBRANCH  87  88
ENDBRANCH  55  80
BRANCH  67  92
ATOM     92  C   UNL A   1      49.400  26.986  25.832  1.00  0.00     0.058 A 
ATOM     93  C   UNL A   1      49.755  27.180  24.490  1.00  0.00     0.135 A 
ATOM     94  C   UNL A   1      50.355  26.412  26.688  1.00  0.00     0.135 A 
ATOM     95  F   UNL A   1      48.873  27.713  23.629  1.00  0.00    -0.206 F 
ATOM     96  C   UNL A   1      51.014  26.826  24.014  1.00  0.00     0.059 A 
ATOM     97  C   UNL A   1      51.627  26.069  26.239  1.00  0.00     0.059 A 
ATOM     98  F   UNL A   1      50.066  26.210  27.983  1.00  0.00    -0.206 F 
ATOM     99  C   UNL A   1      51.946  26.279  24.899  1.00  0.00     0.060 A 
BRANCH  99 100
ATOM    100  S   UNL A   1      53.602  25.895  24.288  1.00  0.00     0.124 S 
ATOM    101  O   UNL A   1      54.398  26.945  24.915  1.00  0.00    -0.237 OA
ATOM    102  O   UNL A   1      53.820  24.545  24.799  1.00  0.00    -0.237 OA
ATOM    103  O   UNL A   1      53.461  25.994  22.839  1.00  0.00    -0.744 OA
ENDBRANCH  99 100
ENDBRANCH  67  92
ENDBRANCH  41  42
ENDBRANCH  34  36
ENDBRANCH  33  34
ENDBRANCH  32  33
ENDBRANCH  31  32
ENDBRANCH  30  31
ENDBRANCH   1  30
TORSDOF 21
ENDMDL
MODEL 2
REMARK VINA RESULT:     -11.0      1.213      2.205
REMARK SMILES C[C@@H]1CN(S(=O)(=O)c2cccc(C(=O)N3CCC[C@@H]3C(=O)OCCOCCOC(=O)c3ccc(-c4c5nc(c(-c6c(F)cc(S(=O)(=O)[O-])cc6F)c6ccc([nH]6)c(-c6c(F)cc(S(=O)(=O)[O-])cc6F)c6nc(c(-c7c(F)cc(S(=O)(=O)[O-])cc7F)c7ccc4[nH]7)C=C6)C=C5)cc3)c2)C[C@H](C)O1
REMARK SMILES IDX 24 1 23 2 22 3 20 4 21 5 19 6 15 7 16 8 17 9 18 10 13 11
REMARK SMILES IDX 14 12 12 13 8 14 9 15 97 16 10 17 11 18 5 19 6 20 7 21 4 22
REMARK SMILES IDX 1 23 2 24 3 25 101 26 99 27 98 28 100 29 25 30 26 31 27 32
REMARK SMILES IDX 28 33 29 34 30 35 31 36 32 37 96 38 33 39 95 40 34 41 35 42
REMARK SMILES IDX 36 43 89 44 37 45 94 46 88 47 90 48 38 49 93 50 87 51 86 52
REMARK SMILES IDX 39 54 73 55 52 56 72 57 53 58 56 59 71 60 91 61 54 62 55 63
REMARK SMILES IDX 70 65 92 66 57 67 40 68 41 69 50 70 42 71 43 72 49 73 51 74
REMARK SMILES IDX 44 75 45 76 46 77 47 78 48 79 74 80 75 81 84 82 76 83 77 84
REMARK SMILES IDX 83 85 85 86 78 87 79 88 80 89 81 90 82 91 58 92 59 93 68 94
REMARK SMILES IDX 60 95 61 96 67 97 69 98 62 99 63 100 64 101 65 102 66 103
REMARK H PARENT 90 53 56 64
REMARK Flexibility Score: inf
ROOT
ATOM      1  C   UNL A   1      32.673  29.815  27.250  1.00  0.00     0.202 C 
ENDROOT
BRANCH   1   2
ATOM      2  C   UNL A   1      32.368  29.752  25.748  1.00  0.00     0.261 C 
BRANCH   2   3
ATOM      3  O   UNL A   1      32.696  28.480  25.151  1.00  0.00    -0.462 OA
BRANCH   3   4
ATOM      4  C   UNL A   1      31.635  27.695  24.807  1.00  0.00     0.328 C 
ATOM      5  O   UNL A   1      30.668  27.473  25.527  1.00  0.00    -0.250 OA
BRANCH   4   6
ATOM      6  C   UNL A   1      31.680  27.265  23.337  1.00  0.00     0.195 C 
ATOM      7  N   UNL A   1      31.851  25.837  23.090  1.00  0.00    -0.325 N 
ATOM      8  C   UNL A   1      32.454  25.690  21.778  1.00  0.00     0.121 C 
ATOM      9  C   UNL A   1      33.528  26.754  21.806  1.00  0.00     0.024 C 
ATOM     10  C   UNL A   1      32.886  27.893  22.607  1.00  0.00     0.039 C 
BRANCH   7  11
ATOM     11  C   UNL A   1      30.891  24.963  23.580  1.00  0.00     0.254 C 
ATOM     12  O   UNL A   1      29.693  25.121  23.377  1.00  0.00    -0.269 OA
BRANCH  11  13
ATOM     13  C   UNL A   1      31.366  23.998  24.622  1.00  0.00     0.041 A 
ATOM     14  C   UNL A   1      33.069  22.489  25.477  1.00  0.00     0.083 A 
ATOM     15  C   UNL A   1      32.454  22.472  26.727  1.00  0.00     0.022 A 
ATOM     16  C   UNL A   1      32.496  23.210  24.427  1.00  0.00     0.035 A 
ATOM     17  C   UNL A   1      31.277  23.207  26.917  1.00  0.00     0.002 A 
ATOM     18  C   UNL A   1      30.740  23.974  25.874  1.00  0.00     0.014 A 
BRANCH  14  19
ATOM     19  S   UNL A   1      34.469  21.459  25.102  1.00  0.00     0.243 S 
ATOM     20  O   UNL A   1      35.199  21.303  26.344  1.00  0.00    -0.207 OA
ATOM     21  O   UNL A   1      35.104  21.983  23.915  1.00  0.00    -0.207 OA
BRANCH  19  22
ATOM     22  N   UNL A   1      33.841  19.898  24.692  1.00  0.00    -0.193 NA
ATOM     23  C   UNL A   1      33.161  17.655  22.605  1.00  0.00     0.040 C 
ATOM     24  C   UNL A   1      32.200  18.482  23.443  1.00  0.00     0.130 C 
ATOM     25  C   UNL A   1      32.729  19.892  23.697  1.00  0.00     0.134 C 
ATOM     26  O   UNL A   1      31.788  17.820  24.640  1.00  0.00    -0.373 OA
ATOM     27  C   UNL A   1      32.744  17.829  25.711  1.00  0.00     0.130 C 
ATOM     28  C   UNL A   1      33.363  19.215  25.961  1.00  0.00     0.134 C 
ATOM     29  C   UNL A   1      33.777  16.726  25.567  1.00  0.00     0.040 C 
ENDBRANCH  19  22
ENDBRANCH  14  19
ENDBRANCH  11  13
ENDBRANCH   7  11
ENDBRANCH   4   6
ENDBRANCH   3   4
ENDBRANCH   2   3
ENDBRANCH   1   2
BRANCH   1  30
ATOM     30  O   UNL A   1      33.974  30.311  27.572  1.00  0.00    -0.374 OA
BRANCH  30  31
ATOM     31  C   UNL A   1      34.053  31.727  27.729  1.00  0.00     0.202 C 
BRANCH  31  32
ATOM     32  C   UNL A   1      34.832  32.182  28.966  1.00  0.00     0.261 C 
BRANCH  32  33
ATOM     33  O   UNL A   1      35.703  31.143  29.444  1.00  0.00    -0.460 OA
BRANCH  33  34
ATOM     34  C   UNL A   1      36.609  31.540  30.374  1.00  0.00     0.338 C 
ATOM     35  O   UNL A   1      36.393  32.155  31.403  1.00  0.00    -0.246 OA
BRANCH  34  36
ATOM     36  C   UNL A   1      37.926  30.969  30.033  1.00  0.00     0.060 A 
ATOM     37  C   UNL A   1      38.873  30.822  31.055  1.00  0.00     0.016 A 
ATOM     38  C   UNL A   1      38.233  30.578  28.731  1.00  0.00     0.016 A 
ATOM     39  C   UNL A   1      40.129  30.268  30.782  1.00  0.00     0.010 A 
ATOM     40  C   UNL A   1      39.490  30.024  28.465  1.00  0.00     0.010 A 
ATOM     41  C   UNL A   1      40.452  29.856  29.484  1.00  0.00    -0.014 A 
BRANCH  41  42
ATOM     42  C   UNL A   1      41.803  29.328  29.126  1.00  0.00     0.031 A 
ATOM     43  C   UNL A   1      42.923  30.312  28.907  1.00  0.00     0.074 A 
ATOM     44  C   UNL A   1      42.029  28.015  28.906  1.00  0.00     0.049 A 
ATOM     45  N   UNL A   1      44.101  30.128  28.370  1.00  0.00    -0.248 NA
ATOM     46  C   UNL A   1      42.666  31.697  29.336  1.00  0.00     0.031 C 
ATOM     47  C   UNL A   1      41.064  26.930  29.087  1.00  0.00     0.029 A 
ATOM     48  N   UNL A   1      43.143  27.380  28.401  1.00  0.00    -0.354 N 
ATOM     49  C   UNL A   1      44.720  31.372  28.390  1.00  0.00     0.074 A 
ATOM     50  C   UNL A   1      43.759  32.316  28.917  1.00  0.00     0.031 C 
ATOM     51  C   UNL A   1      41.595  25.784  28.625  1.00  0.00     0.029 A 
ATOM     52  C   UNL A   1      42.933  26.053  28.102  1.00  0.00     0.049 A 
ATOM     53  H   UNL A   1      44.007  27.832  28.267  1.00  0.00     0.167 HD
ATOM     54  C   UNL A   1      45.989  31.698  28.050  1.00  0.00     0.037 A 
ATOM     55  C   UNL A   1      43.704  25.166  27.439  1.00  0.00     0.037 A 
ATOM     56  C   UNL A   1      46.970  30.760  27.581  1.00  0.00     0.049 A 
ATOM     57  C   UNL A   1      45.069  25.570  26.949  1.00  0.00     0.074 A 
ATOM     58  C   UNL A   1      48.316  30.973  27.335  1.00  0.00     0.029 A 
ATOM     59  N   UNL A   1      46.713  29.433  27.282  1.00  0.00    -0.354 N 
ATOM     60  N   UNL A   1      45.667  26.733  27.042  1.00  0.00    -0.248 NA
ATOM     61  C   UNL A   1      45.872  24.536  26.276  1.00  0.00     0.031 C 
ATOM     62  C   UNL A   1      48.865  29.780  26.852  1.00  0.00     0.029 A 
ATOM     63  C   UNL A   1      47.867  28.819  26.826  1.00  0.00     0.049 A 
ATOM     64  H   UNL A   1      45.838  28.990  27.379  1.00  0.00     0.167 HD
ATOM     65  C   UNL A   1      46.934  26.554  26.491  1.00  0.00     0.074 A 
ATOM     66  C   UNL A   1      47.008  25.181  26.042  1.00  0.00     0.031 C 
ATOM     67  C   UNL A   1      47.948  27.447  26.393  1.00  0.00     0.037 A 
BRANCH  54  68
ATOM     68  C   UNL A   1      46.396  33.133  28.217  1.00  0.00     0.058 A 
ATOM     69  C   UNL A   1      46.277  34.051  27.160  1.00  0.00     0.135 A 
ATOM     70  C   UNL A   1      46.902  33.600  29.439  1.00  0.00     0.135 A 
ATOM     71  F   UNL A   1      45.811  33.650  25.966  1.00  0.00    -0.206 F 
ATOM     72  C   UNL A   1      46.688  35.371  27.294  1.00  0.00     0.059 A 
ATOM     73  C   UNL A   1      47.294  34.924  29.605  1.00  0.00     0.059 A 
ATOM     74  F   UNL A   1      47.034  32.764  30.481  1.00  0.00    -0.206 F 
ATOM     75  C   UNL A   1      47.202  35.797  28.520  1.00  0.00     0.060 A 
BRANCH  75  76
ATOM     76  S   UNL A   1      47.751  37.508  28.674  1.00  0.00     0.124 S 
ATOM     77  O   UNL A   1      49.003  37.345  29.405  1.00  0.00    -0.237 OA
ATOM     78  O   UNL A   1      47.881  37.923  27.280  1.00  0.00    -0.237 OA
ATOM     79  O   UNL A   1      46.668  38.145  29.416  1.00  0.00    -0.744 OA
ENDBRANCH  75  76
ENDBRANCH  54  68
BRANCH  55  80
ATOM     80  C   UNL A   1      43.199  23.796  27.158  1.00  0.00     0.058 A 
ATOM     81  C   UNL A   1      43.167  22.817  28.158  1.00  0.00     0.135 A 
ATOM     82  C   UNL A   1      42.787  23.430  25.866  1.00  0.00     0.135 A 
ATOM     83  F   UNL A   1      43.574  23.115  29.402  1.00  0.00    -0.206 F 
ATOM     84  C   UNL A   1      42.757  21.516  27.888  1.00  0.00     0.059 A 
ATOM     85  C   UNL A   1      42.353  22.139  25.575  1.00  0.00     0.059 A 
ATOM     86  F   UNL A   1      42.822  24.334  24.876  1.00  0.00    -0.206 F 
ATOM     87  C   UNL A   1      42.352  21.185  26.592  1.00  0.00     0.060 A 
BRANCH  87  88
ATOM     88  S   UNL A   1      41.815  19.489  26.272  1.00  0.00     0.124 S 
ATOM     89  O   UNL A   1      42.287  18.800  27.468  1.00  0.00    -0.237 OA
ATOM     90  O   UNL A   1      40.367  19.648  26.159  1.00  0.00    -0.237 OA
ATOM     91  O   UNL A   1      42.497  19.137  25.032  1.00  0.00    -0.744 OA
ENDBRANCH  87  88
ENDBRANCH  55  80
BRANCH  67  92
ATOM     92  C   UNL A   1      49.258  26.970  25.835  1.00  0.00     0.058 A 
ATOM     93  C   UNL A   1      49.598  27.153  24.487  1.00  0.00     0.135 A 
ATOM     94  C   UNL A   1      50.222  26.400  26.685  1.00  0.00     0.135 A 
ATOM     95  F   UNL A   1      48.708  27.681  23.632  1.00  0.00    -0.206 F 
ATOM     96  C   UNL A   1      50.852  26.792  24.000  1.00  0.00     0.059 A 
ATOM     97  C   UNL A   1      51.488  26.051  26.225  1.00  0.00     0.059 A 
ATOM     98  F   UNL A   1      49.946  26.209  27.984  1.00  0.00    -0.206 F 
ATOM     99  C   UNL A   1      51.793  26.250  24.879  1.00  0.00     0.060 A 
BRANCH  99 100
ATOM    100  S   UNL A   1      53.441  25.858  24.254  1.00  0.00     0.124 S 
ATOM    101  O   UNL A   1      53.230  25.912  22.811  1.00  0.00    -0.237 OA
ATOM    102  O   UNL A   1      54.254  26.933  24.816  1.00  0.00    -0.237 OA
ATOM    103  O   UNL A   1      53.705  24.531  24.801  1.00  0.00    -0.744 OA
ENDBRANCH  99 100
ENDBRANCH  67  92
ENDBRANCH  41  42
ENDBRANCH  34  36
ENDBRANCH  33  34
ENDBRANCH  32  33
ENDBRANCH  31  32
ENDBRANCH  30  31
ENDBRANCH   1  30
TORSDOF 21
ENDMDL
MODEL 3
REMARK VINA RESULT:     -10.9      1.224      7.972
REMARK SMILES C[C@@H]1CN(S(=O)(=O)c2cccc(C(=O)N3CCC[C@@H]3C(=O)OCCOCCOC(=O)c3ccc(-c4c5nc(c(-c6c(F)cc(S(=O)(=O)[O-])cc6F)c6ccc([nH]6)c(-c6c(F)cc(S(=O)(=O)[O-])cc6F)c6nc(c(-c7c(F)cc(S(=O)(=O)[O-])cc7F)c7ccc4[nH]7)C=C6)C=C5)cc3)c2)C[C@H](C)O1
REMARK SMILES IDX 24 1 23 2 22 3 20 4 21 5 19 6 15 7 16 8 17 9 18 10 13 11
REMARK SMILES IDX 14 12 12 13 8 14 9 15 97 16 10 17 11 18 5 19 6 20 7 21 4 22
REMARK SMILES IDX 1 23 2 24 3 25 101 26 99 27 98 28 100 29 25 30 26 31 27 32
REMARK SMILES IDX 28 33 29 34 30 35 31 36 32 37 96 38 33 39 95 40 34 41 35 42
REMARK SMILES IDX 36 43 89 44 37 45 94 46 88 47 90 48 38 49 93 50 87 51 86 52
REMARK SMILES IDX 39 54 73 55 52 56 72 57 53 58 56 59 71 60 91 61 54 62 55 63
REMARK SMILES IDX 70 65 92 66 57 67 40 68 41 69 50 70 42 71 43 72 49 73 51 74
REMARK SMILES IDX 44 75 45 76 46 77 47 78 48 79 74 80 75 81 84 82 76 83 77 84
REMARK SMILES IDX 83 85 85 86 78 87 79 88 80 89 81 90 82 91 58 92 59 93 68 94
REMARK SMILES IDX 60 95 61 96 67 97 69 98 62 99 63 100 64 101 65 102 66 103
REMARK H PARENT 90 53 56 64
REMARK Flexibility Score: inf
ROOT
ATOM      1  C   UNL A   1      33.851  31.030  27.252  1.00  0.00     0.202 C 
ENDROOT
BRANCH   1   2
ATOM      2  C   UNL A   1      32.512  30.378  26.887  1.00  0.00     0.261 C 
BRANCH   2   3
ATOM      3  O   UNL A   1      32.622  28.966  26.609  1.00  0.00    -0.462 OA
BRANCH   3   4
ATOM      4  C   UNL A   1      32.487  28.606  25.301  1.00  0.00     0.328 C 
ATOM      5  O   UNL A   1      33.411  28.265  24.572  1.00  0.00    -0.250 OA
BRANCH   4   6
ATOM      6  C   UNL A   1      31.019  28.486  24.877  1.00  0.00     0.195 C 
ATOM      7  N   UNL A   1      30.561  27.148  24.520  1.00  0.00    -0.325 N 
ATOM      8  C   UNL A   1      29.433  27.298  23.620  1.00  0.00     0.121 C 
ATOM      9  C   UNL A   1      29.920  28.383  22.687  1.00  0.00     0.024 C 
ATOM     10  C   UNL A   1      30.736  29.305  23.600  1.00  0.00     0.039 C 
BRANCH   7  11
ATOM     11  C   UNL A   1      30.630  26.148  25.480  1.00  0.00     0.254 C 
ATOM     12  O   UNL A   1      30.435  26.365  26.670  1.00  0.00    -0.269 OA
BRANCH  11  13
ATOM     13  C   UNL A   1      31.255  24.863  25.033  1.00  0.00     0.041 A 
ATOM     14  C   UNL A   1      32.463  22.816  25.547  1.00  0.00     0.083 A 
ATOM     15  C   UNL A   1      32.114  22.278  24.310  1.00  0.00     0.022 A 
ATOM     16  C   UNL A   1      32.072  24.116  25.877  1.00  0.00     0.035 A 
ATOM     17  C   UNL A   1      31.349  23.045  23.424  1.00  0.00     0.002 A 
ATOM     18  C   UNL A   1      30.913  24.328  23.786  1.00  0.00     0.014 A 
BRANCH  14  19
ATOM     19  S   UNL A   1      33.566  21.980  26.663  1.00  0.00     0.243 S 
ATOM     20  O   UNL A   1      33.295  20.564  26.510  1.00  0.00    -0.207 OA
ATOM     21  O   UNL A   1      33.478  22.630  27.949  1.00  0.00    -0.207 OA
BRANCH  19  22
ATOM     22  N   UNL A   1      35.170  22.247  26.069  1.00  0.00    -0.193 NA
ATOM     23  C   UNL A   1      37.964  23.670  26.205  1.00  0.00     0.040 C 
ATOM     24  C   UNL A   1      36.903  23.784  25.124  1.00  0.00     0.130 C 
ATOM     25  C   UNL A   1      35.491  23.655  25.691  1.00  0.00     0.134 C 
ATOM     26  O   UNL A   1      37.137  22.915  24.014  1.00  0.00    -0.373 OA
ATOM     27  C   UNL A   1      36.787  21.539  24.224  1.00  0.00     0.130 C 
ATOM     28  C   UNL A   1      35.400  21.355  24.862  1.00  0.00     0.134 C 
ATOM     29  C   UNL A   1      37.885  20.771  24.937  1.00  0.00     0.040 C 
ENDBRANCH  19  22
ENDBRANCH  14  19
ENDBRANCH  11  13
ENDBRANCH   7  11
ENDBRANCH   4   6
ENDBRANCH   3   4
ENDBRANCH   2   3
ENDBRANCH   1   2
BRANCH   1  30
ATOM     30  O   UNL A   1      33.747  32.151  28.133  1.00  0.00    -0.374 OA
BRANCH  30  31
ATOM     31  C   UNL A   1      34.976  32.559  28.731  1.00  0.00     0.202 C 
BRANCH  31  32
ATOM     32  C   UNL A   1      35.243  31.942  30.107  1.00  0.00     0.261 C 
BRANCH  32  33
ATOM     33  O   UNL A   1      35.874  30.655  29.987  1.00  0.00    -0.460 OA
BRANCH  33  34
ATOM     34  C   UNL A   1      36.764  30.363  30.970  1.00  0.00     0.338 C 
ATOM     35  O   UNL A   1      36.537  30.231  32.160  1.00  0.00    -0.246 OA
BRANCH  34  36
ATOM     36  C   UNL A   1      38.071  30.059  30.356  1.00  0.00     0.060 A 
ATOM     37  C   UNL A   1      39.164  29.825  31.200  1.00  0.00     0.016 A 
ATOM     38  C   UNL A   1      38.227  30.002  28.973  1.00  0.00     0.016 A 
ATOM     39  C   UNL A   1      40.420  29.517  30.663  1.00  0.00     0.010 A 
ATOM     40  C   UNL A   1      39.484  29.691  28.442  1.00  0.00     0.010 A 
ATOM     41  C   UNL A   1      40.595  29.440  29.276  1.00  0.00    -0.014 A 
BRANCH  41  42
ATOM     42  C   UNL A   1      41.928  29.187  28.651  1.00  0.00     0.031 A 
ATOM     43  C   UNL A   1      42.276  27.777  28.248  1.00  0.00     0.074 A 
ATOM     44  C   UNL A   1      42.858  30.157  28.519  1.00  0.00     0.049 A 
ATOM     45  N   UNL A   1      43.432  27.267  27.912  1.00  0.00    -0.248 NA
ATOM     46  C   UNL A   1      41.167  26.809  28.246  1.00  0.00     0.031 C 
ATOM     47  C   UNL A   1      42.681  31.573  28.842  1.00  0.00     0.029 A 
ATOM     48  N   UNL A   1      44.180  30.071  28.141  1.00  0.00    -0.354 N 
ATOM     49  C   UNL A   1      43.191  25.921  27.666  1.00  0.00     0.074 A 
ATOM     50  C   UNL A   1      41.797  25.678  27.970  1.00  0.00     0.031 C 
ATOM     51  C   UNL A   1      43.864  32.204  28.730  1.00  0.00     0.029 A 
ATOM     52  C   UNL A   1      44.887  31.236  28.339  1.00  0.00     0.049 A 
ATOM     53  H   UNL A   1      44.582  29.254  27.766  1.00  0.00     0.167 HD
ATOM     54  C   UNL A   1      44.034  24.978  27.184  1.00  0.00     0.037 A 
ATOM     55  C   UNL A   1      46.211  31.486  28.266  1.00  0.00     0.037 A 
ATOM     56  C   UNL A   1      45.403  25.222  26.824  1.00  0.00     0.049 A 
ATOM     57  C   UNL A   1      47.164  30.398  27.850  1.00  0.00     0.074 A 
ATOM     58  C   UNL A   1      46.296  24.363  26.207  1.00  0.00     0.029 A 
ATOM     59  N   UNL A   1      46.080  26.408  27.051  1.00  0.00    -0.354 N 
ATOM     60  N   UNL A   1      46.908  29.148  27.550  1.00  0.00    -0.248 NA
ATOM     61  C   UNL A   1      48.588  30.758  27.746  1.00  0.00     0.031 C 
ATOM     62  C   UNL A   1      47.526  25.020  26.094  1.00  0.00     0.029 A 
ATOM     63  C   UNL A   1      47.388  26.297  26.614  1.00  0.00     0.049 A 
ATOM     64  H   UNL A   1      45.689  27.213  27.463  1.00  0.00     0.167 HD
ATOM     65  C   UNL A   1      48.126  28.590  27.171  1.00  0.00     0.074 A 
ATOM     66  C   UNL A   1      49.124  29.628  27.304  1.00  0.00     0.031 C 
ATOM     67  C   UNL A   1      48.381  27.335  26.729  1.00  0.00     0.037 A 
BRANCH  54  68
ATOM     68  C   UNL A   1      43.477  23.600  26.980  1.00  0.00     0.058 A 
ATOM     69  C   UNL A   1      43.488  22.650  28.015  1.00  0.00     0.135 A 
ATOM     70  C   UNL A   1      42.921  23.224  25.748  1.00  0.00     0.135 A 
ATOM     71  F   UNL A   1      44.021  22.958  29.209  1.00  0.00    -0.206 F 
ATOM     72  C   UNL A   1      43.009  21.361  27.822  1.00  0.00     0.059 A 
ATOM     73  C   UNL A   1      42.411  21.946  25.541  1.00  0.00     0.059 A 
ATOM     74  F   UNL A   1      42.884  24.095  24.728  1.00  0.00    -0.206 F 
ATOM     75  C   UNL A   1      42.478  21.016  26.578  1.00  0.00     0.060 A 
BRANCH  75  76
ATOM     76  S   UNL A   1      41.879  19.331  26.336  1.00  0.00     0.124 S 
ATOM     77  O   UNL A   1      42.314  18.690  27.573  1.00  0.00    -0.237 OA
ATOM     78  O   UNL A   1      40.439  19.527  26.197  1.00  0.00    -0.237 OA
ATOM     79  O   UNL A   1      42.570  18.897  25.127  1.00  0.00    -0.744 OA
ENDBRANCH  75  76
ENDBRANCH  54  68
BRANCH  55  80
ATOM     80  C   UNL A   1      46.741  32.828  28.628  1.00  0.00     0.058 A 
ATOM     81  C   UNL A   1      47.076  33.142  29.951  1.00  0.00     0.135 A 
ATOM     82  C   UNL A   1      46.872  33.837  27.660  1.00  0.00     0.135 A 
ATOM     83  F   UNL A   1      46.943  32.216  30.913  1.00  0.00    -0.206 F 
ATOM     84  C   UNL A   1      47.510  34.413  30.308  1.00  0.00     0.059 A 
ATOM     85  C   UNL A   1      47.325  35.112  27.989  1.00  0.00     0.059 A 
ATOM     86  F   UNL A   1      46.542  33.582  26.385  1.00  0.00    -0.206 F 
ATOM     87  C   UNL A   1      47.632  35.394  29.320  1.00  0.00     0.060 A 
BRANCH  87  88
ATOM     88  S   UNL A   1      48.209  37.034  29.811  1.00  0.00     0.124 S 
ATOM     89  O   UNL A   1      47.077  37.871  29.427  1.00  0.00    -0.237 OA
ATOM     90  O   UNL A   1      48.416  36.865  31.246  1.00  0.00    -0.237 OA
ATOM     91  O   UNL A   1      49.425  37.224  29.028  1.00  0.00    -0.744 OA
ENDBRANCH  87  88
ENDBRANCH  55  80
BRANCH  67  92
ATOM     92  C   UNL A   1      49.780  27.011  26.291  1.00  0.00     0.058 A 
ATOM     93  C   UNL A   1      50.699  26.391  27.149  1.00  0.00     0.135 A 
ATOM     94  C   UNL A   1      50.176  27.245  24.963  1.00  0.00     0.135 A 
ATOM     95  F   UNL A   1      50.374  26.157  28.431  1.00  0.00    -0.206 F 
ATOM     96  C   UNL A   1      51.963  26.010  26.706  1.00  0.00     0.059 A 
ATOM     97  C   UNL A   1      51.426  26.854  24.493  1.00  0.00     0.059 A 
ATOM     98  F   UNL A   1      49.331  27.831  24.100  1.00  0.00    -0.206 F 
ATOM     99  C   UNL A   1      52.314  26.238  25.373  1.00  0.00     0.060 A 
BRANCH  99 100
ATOM    100  S   UNL A   1      53.925  25.669  24.789  1.00  0.00     0.124 S 
ATOM    101  O   UNL A   1      54.830  26.352  25.708  1.00  0.00    -0.237 OA
ATOM    102  O   UNL A   1      53.827  24.222  24.955  1.00  0.00    -0.237 OA
ATOM    103  O   UNL A   1      53.967  26.132  23.406  1.00  0.00    -0.744 OA
ENDBRANCH  99 100
ENDBRANCH  67  92
ENDBRANCH  41  42
ENDBRANCH  34  36
ENDBRANCH  33  34
ENDBRANCH  32  33
ENDBRANCH  31  32
ENDBRANCH  30  31
ENDBRANCH   1  30
TORSDOF 21
ENDMDL
