MODEL 1
REMARK VINA RESULT:     -10.4      0.000      0.000
REMARK SMILES C[C@H]1[C@H]([NH+]2CCC(CC(=O)OCCOCCOC(=O)c3ccc(-c4c5nc(c(-c6c(F)cc(S(=O)(=O)[O-])cc6F)c6ccc([nH]6)c(-c6c(F)cc(S(=O)(=O)[O-])cc6F)c6nc(c(-c7c(F)cc(S(=O)(=O)[O-])cc7F)c7ccc4[nH]7)C=C6)C=C5)cc3)CC2)CCC[C@@H]1C
REMARK SMILES IDX 15 1 14 2 13 3 12 4 11 5 9 6 10 7 8 8 7 9 4 10 5 11 87 12
REMARK SMILES IDX 6 14 86 15 3 16 1 17 2 18 91 19 88 20 90 21 92 22 89 23
REMARK SMILES IDX 16 24 17 25 18 26 19 27 20 28 21 29 85 30 22 31 84 32 23 33
REMARK SMILES IDX 24 34 25 35 78 36 26 37 83 38 77 39 79 40 27 41 82 42 76 43
REMARK SMILES IDX 75 44 28 46 62 47 41 48 61 49 42 50 45 51 60 52 80 53 43 54
REMARK SMILES IDX 44 55 59 57 81 58 46 59 29 60 30 61 39 62 31 63 32 64 38 65
REMARK SMILES IDX 40 66 33 67 34 68 35 69 36 70 37 71 63 72 64 73 73 74 65 75
REMARK SMILES IDX 66 76 72 77 74 78 67 79 68 80 69 81 70 82 71 83 47 84 48 85
REMARK SMILES IDX 57 86 49 87 50 88 56 89 58 90 51 91 52 92 53 93 54 94 55 95
REMARK H PARENT 4 13 79 45 45 56
REMARK Flexibility Score: inf
ROOT
ATOM      1  C   UNL A   1      32.180  29.380  26.675  1.00  0.00     0.202 C 
ENDROOT
BRANCH   1   2
ATOM      2  O   UNL A   1      31.475  28.162  26.444  1.00  0.00    -0.374 OA
BRANCH   2   3
ATOM      3  C   UNL A   1      32.094  27.216  25.569  1.00  0.00     0.202 C 
BRANCH   3   4
ATOM      4  C   UNL A   1      32.258  25.805  26.141  1.00  0.00     0.261 C 
BRANCH   4   5
ATOM      5  O   UNL A   1      31.092  25.412  26.888  1.00  0.00    -0.463 OA
BRANCH   5   6
ATOM      6  C   UNL A   1      30.534  24.212  26.594  1.00  0.00     0.306 C 
ATOM      7  O   UNL A   1      29.736  23.607  27.297  1.00  0.00    -0.252 OA
BRANCH   6   8
ATOM      8  C   UNL A   1      31.051  23.679  25.274  1.00  0.00     0.126 C 
BRANCH   8   9
ATOM      9  C   UNL A   1      31.560  22.219  25.244  1.00  0.00     0.011 C 
ATOM     10  N   UNL A   1      34.008  20.525  25.039  1.00  0.00    -0.332 N 
ATOM     11  C   UNL A   1      33.342  20.730  26.328  1.00  0.00     0.262 C 
ATOM     12  C   UNL A   1      33.007  20.516  23.984  1.00  0.00     0.262 C 
ATOM     13  H   UNL A   1      34.431  19.599  25.100  1.00  0.00     0.348 HD
ATOM     14  C   UNL A   1      32.554  22.035  26.408  1.00  0.00     0.066 C 
ATOM     15  C   UNL A   1      32.222  21.828  23.915  1.00  0.00     0.066 C 
BRANCH  10  16
ATOM     16  C   UNL A   1      35.345  21.131  24.758  1.00  0.00     0.187 C 
ATOM     17  C   UNL A   1      34.997  23.739  24.786  1.00  0.00     0.014 C 
ATOM     18  C   UNL A   1      35.748  22.525  25.387  1.00  0.00     0.047 C 
ATOM     19  C   UNL A   1      37.268  22.879  25.257  1.00  0.00    -0.006 C 
ATOM     20  C   UNL A   1      36.441  20.062  25.003  1.00  0.00     0.065 C 
ATOM     21  C   UNL A   1      38.204  21.710  25.545  1.00  0.00     0.004 C 
ATOM     22  C   UNL A   1      37.647  24.070  26.150  1.00  0.00     0.008 C 
ATOM     23  C   UNL A   1      37.844  20.529  24.667  1.00  0.00     0.006 C 
ENDBRANCH  10  16
ENDBRANCH   8   9
ENDBRANCH   6   8
ENDBRANCH   5   6
ENDBRANCH   4   5
ENDBRANCH   3   4
ENDBRANCH   2   3
ENDBRANCH   1   2
BRANCH   1  24
ATOM     24  C   UNL A   1      33.587  29.239  27.273  1.00  0.00     0.261 C 
BRANCH  24  25
ATOM     25  O   UNL A   1      34.370  30.437  27.125  1.00  0.00    -0.460 OA
BRANCH  25  26
ATOM     26  C   UNL A   1      35.059  30.790  28.234  1.00  0.00     0.338 C 
ATOM     27  O   UNL A   1      34.651  31.496  29.151  1.00  0.00    -0.246 OA
BRANCH  26  28
ATOM     28  C   UNL A   1      36.355  30.086  28.309  1.00  0.00     0.060 A 
ATOM     29  C   UNL A   1      36.707  29.553  29.554  1.00  0.00     0.016 A 
ATOM     30  C   UNL A   1      37.251  30.017  27.236  1.00  0.00     0.016 A 
ATOM     31  C   UNL A   1      37.985  29.041  29.762  1.00  0.00     0.010 A 
ATOM     32  C   UNL A   1      38.537  29.493  27.446  1.00  0.00     0.010 A 
ATOM     33  C   UNL A   1      38.928  29.059  28.726  1.00  0.00    -0.014 A 
BRANCH  33  34
ATOM     34  C   UNL A   1      40.351  28.802  29.070  1.00  0.00     0.031 A 
ATOM     35  C   UNL A   1      40.963  27.473  28.706  1.00  0.00     0.074 A 
ATOM     36  C   UNL A   1      41.123  29.775  29.589  1.00  0.00     0.049 A 
ATOM     37  N   UNL A   1      42.206  27.074  28.806  1.00  0.00    -0.248 NA
ATOM     38  C   UNL A   1      40.053  26.458  28.150  1.00  0.00     0.031 C 
ATOM     39  C   UNL A   1      40.662  31.113  29.958  1.00  0.00     0.029 A 
ATOM     40  N   UNL A   1      42.465  29.791  29.879  1.00  0.00    -0.354 N 
ATOM     41  C   UNL A   1      42.228  25.769  28.325  1.00  0.00     0.074 A 
ATOM     42  C   UNL A   1      40.867  25.427  27.974  1.00  0.00     0.031 C 
ATOM     43  C   UNL A   1      41.706  31.824  30.414  1.00  0.00     0.029 A 
ATOM     44  C   UNL A   1      42.907  30.990  30.386  1.00  0.00     0.049 A 
ATOM     45  H   UNL A   1      43.056  29.017  29.735  1.00  0.00     0.167 HD
ATOM     46  C   UNL A   1      43.284  24.935  28.172  1.00  0.00     0.037 A 
ATOM     47  C   UNL A   1      44.137  31.371  30.783  1.00  0.00     0.037 A 
ATOM     48  C   UNL A   1      44.641  25.276  28.515  1.00  0.00     0.049 A 
ATOM     49  C   UNL A   1      45.292  30.414  30.636  1.00  0.00     0.074 A 
ATOM     50  C   UNL A   1      45.783  24.505  28.381  1.00  0.00     0.029 A 
ATOM     51  N   UNL A   1      45.040  26.487  29.060  1.00  0.00    -0.354 N 
ATOM     52  N   UNL A   1      45.299  29.193  30.155  1.00  0.00    -0.248 NA
ATOM     53  C   UNL A   1      46.611  30.894  31.074  1.00  0.00     0.031 C 
ATOM     54  C   UNL A   1      46.866  25.233  28.890  1.00  0.00     0.029 A 
ATOM     55  C   UNL A   1      46.407  26.477  29.290  1.00  0.00     0.049 A 
ATOM     56  H   UNL A   1      44.441  27.242  29.257  1.00  0.00     0.167 HD
ATOM     57  C   UNL A   1      46.624  28.770  30.207  1.00  0.00     0.074 A 
ATOM     58  C   UNL A   1      47.392  29.872  30.751  1.00  0.00     0.031 C 
ATOM     59  C   UNL A   1      47.159  27.579  29.836  1.00  0.00     0.037 A 
BRANCH  46  60
ATOM     60  C   UNL A   1      43.009  23.559  27.628  1.00  0.00     0.058 A 
ATOM     61  C   UNL A   1      43.078  23.278  26.254  1.00  0.00     0.135 A 
ATOM     62  C   UNL A   1      42.692  22.502  28.496  1.00  0.00     0.135 A 
ATOM     63  F   UNL A   1      43.359  24.255  25.377  1.00  0.00    -0.206 F 
ATOM     64  C   UNL A   1      42.813  22.005  25.757  1.00  0.00     0.059 A 
ATOM     65  C   UNL A   1      42.451  21.215  28.024  1.00  0.00     0.059 A 
ATOM     66  F   UNL A   1      42.611  22.715  29.819  1.00  0.00    -0.206 F 
ATOM     67  C   UNL A   1      42.499  20.980  26.650  1.00  0.00     0.060 A 
BRANCH  67  68
ATOM     68  S   UNL A   1      42.156  19.334  25.993  1.00  0.00     0.124 S 
ATOM     69  O   UNL A   1      42.964  19.332  24.777  1.00  0.00    -0.237 OA
ATOM     70  O   UNL A   1      42.626  18.464  27.067  1.00  0.00    -0.237 OA
ATOM     71  O   UNL A   1      40.712  19.344  25.786  1.00  0.00    -0.744 OA
ENDBRANCH  67  68
ENDBRANCH  46  60
BRANCH  47  72
ATOM     72  C   UNL A   1      44.345  32.730  31.352  1.00  0.00     0.058 A 
ATOM     73  C   UNL A   1      44.177  32.984  32.721  1.00  0.00     0.135 A 
ATOM     74  C   UNL A   1      44.717  33.805  30.529  1.00  0.00     0.135 A 
ATOM     75  F   UNL A   1      43.810  31.992  33.547  1.00  0.00    -0.206 F 
ATOM     76  C   UNL A   1      44.355  34.257  33.254  1.00  0.00     0.059 A 
ATOM     77  C   UNL A   1      44.927  35.080  31.042  1.00  0.00     0.059 A 
ATOM     78  F   UNL A   1      44.901  33.613  29.214  1.00  0.00    -0.206 F 
ATOM     79  C   UNL A   1      44.735  35.299  32.405  1.00  0.00     0.060 A 
BRANCH  79  80
ATOM     80  S   UNL A   1      45.019  36.936  33.113  1.00  0.00     0.124 S 
ATOM     81  O   UNL A   1      43.658  37.445  33.234  1.00  0.00    -0.237 OA
ATOM     82  O   UNL A   1      45.696  36.614  34.367  1.00  0.00    -0.237 OA
ATOM     83  O   UNL A   1      45.854  37.593  32.112  1.00  0.00    -0.744 OA
ENDBRANCH  79  80
ENDBRANCH  47  72
BRANCH  59  84
ATOM     84  C   UNL A   1      48.650  27.420  29.976  1.00  0.00     0.058 A 
ATOM     85  C   UNL A   1      49.535  27.789  28.951  1.00  0.00     0.135 A 
ATOM     86  C   UNL A   1      49.201  26.901  31.159  1.00  0.00     0.135 A 
ATOM     87  F   UNL A   1      49.062  28.289  27.798  1.00  0.00    -0.206 F 
ATOM     88  C   UNL A   1      50.909  27.606  29.074  1.00  0.00     0.059 A 
ATOM     89  C   UNL A   1      50.575  26.739  31.317  1.00  0.00     0.059 A 
ATOM     90  F   UNL A   1      48.403  26.548  32.179  1.00  0.00    -0.206 F 
ATOM     91  C   UNL A   1      51.418  27.073  30.259  1.00  0.00     0.060 A 
BRANCH  91  92
ATOM     92  S   UNL A   1      53.202  26.827  30.405  1.00  0.00     0.124 S 
ATOM     93  O   UNL A   1      53.653  28.168  30.761  1.00  0.00    -0.237 OA
ATOM     94  O   UNL A   1      53.296  25.826  31.463  1.00  0.00    -0.237 OA
ATOM     95  O   UNL A   1      53.591  26.365  29.077  1.00  0.00    -0.744 OA
ENDBRANCH  91  92
ENDBRANCH  59  84
ENDBRANCH  33  34
ENDBRANCH  26  28
ENDBRANCH  25  26
ENDBRANCH  24  25
ENDBRANCH   1  24
TORSDOF 19
ENDMDL
MODEL 2
REMARK VINA RESULT:     -10.1      5.012     10.262
REMARK SMILES C[C@H]1[C@H]([NH+]2CCC(CC(=O)OCCOCCOC(=O)c3ccc(-c4c5nc(c(-c6c(F)cc(S(=O)(=O)[O-])cc6F)c6ccc([nH]6)c(-c6c(F)cc(S(=O)(=O)[O-])cc6F)c6nc(c(-c7c(F)cc(S(=O)(=O)[O-])cc7F)c7ccc4[nH]7)C=C6)C=C5)cc3)CC2)CCC[C@@H]1C
REMARK SMILES IDX 15 1 14 2 13 3 12 4 11 5 9 6 10 7 8 8 7 9 4 10 5 11 87 12
REMARK SMILES IDX 6 14 86 15 3 16 1 17 2 18 91 19 88 20 90 21 92 22 89 23
REMARK SMILES IDX 16 24 17 25 18 26 19 27 20 28 21 29 85 30 22 31 84 32 23 33
REMARK SMILES IDX 24 34 25 35 78 36 26 37 83 38 77 39 79 40 27 41 82 42 76 43
REMARK SMILES IDX 75 44 28 46 62 47 41 48 61 49 42 50 45 51 60 52 80 53 43 54
REMARK SMILES IDX 44 55 59 57 81 58 46 59 29 60 30 61 39 62 31 63 32 64 38 65
REMARK SMILES IDX 40 66 33 67 34 68 35 69 36 70 37 71 63 72 64 73 73 74 65 75
REMARK SMILES IDX 66 76 72 77 74 78 67 79 68 80 69 81 70 82 71 83 47 84 48 85
REMARK SMILES IDX 57 86 49 87 50 88 56 89 58 90 51 91 52 92 53 93 54 94 55 95
REMARK H PARENT 4 13 79 45 45 56
REMARK Flexibility Score: inf
ROOT
ATOM      1  C   UNL A   1      40.857  21.543  26.149  1.00  0.00     0.202 C 
ENDROOT
BRANCH   1   2
ATOM      2  O   UNL A   1      39.547  21.687  26.694  1.00  0.00    -0.374 OA
BRANCH   2   3
ATOM      3  C   UNL A   1      38.540  22.205  25.821  1.00  0.00     0.202 C 
BRANCH   3   4
ATOM      4  C   UNL A   1      37.678  21.152  25.120  1.00  0.00     0.261 C 
BRANCH   4   5
ATOM      5  O   UNL A   1      36.483  21.742  24.575  1.00  0.00    -0.463 OA
BRANCH   5   6
ATOM      6  C   UNL A   1      35.535  22.160  25.449  1.00  0.00     0.306 C 
ATOM      7  O   UNL A   1      35.134  21.530  26.418  1.00  0.00    -0.252 OA
BRANCH   6   8
ATOM      8  C   UNL A   1      34.993  23.519  25.058  1.00  0.00     0.126 C 
BRANCH   8   9
ATOM      9  C   UNL A   1      33.874  23.561  23.992  1.00  0.00     0.011 C 
ATOM     10  N   UNL A   1      31.567  25.163  22.983  1.00  0.00    -0.332 N 
ATOM     11  C   UNL A   1      32.849  25.163  22.274  1.00  0.00     0.262 C 
ATOM     12  C   UNL A   1      31.358  23.856  23.586  1.00  0.00     0.262 C 
ATOM     13  H   UNL A   1      30.861  25.311  22.263  1.00  0.00     0.348 HD
ATOM     14  C   UNL A   1      34.045  24.856  23.171  1.00  0.00     0.066 C 
ATOM     15  C   UNL A   1      32.460  23.492  24.585  1.00  0.00     0.066 C 
BRANCH  10  16
ATOM     16  C   UNL A   1      31.091  26.377  23.715  1.00  0.00     0.187 C 
ATOM     17  C   UNL A   1      32.525  26.524  25.917  1.00  0.00     0.014 C 
ATOM     18  C   UNL A   1      32.086  27.224  24.606  1.00  0.00     0.047 C 
ATOM     19  C   UNL A   1      31.528  28.617  25.053  1.00  0.00    -0.006 C 
ATOM     20  C   UNL A   1      30.306  27.280  22.729  1.00  0.00     0.065 C 
ATOM     21  C   UNL A   1      30.794  29.374  23.952  1.00  0.00     0.004 C 
ATOM     22  C   UNL A   1      32.638  29.508  25.633  1.00  0.00     0.008 C 
ATOM     23  C   UNL A   1      29.693  28.509  23.373  1.00  0.00     0.006 C 
ENDBRANCH  10  16
ENDBRANCH   8   9
ENDBRANCH   6   8
ENDBRANCH   5   6
ENDBRANCH   4   5
ENDBRANCH   3   4
ENDBRANCH   2   3
ENDBRANCH   1   2
BRANCH   1  24
ATOM     24  C   UNL A   1      41.937  22.459  26.744  1.00  0.00     0.261 C 
BRANCH  24  25
ATOM     25  O   UNL A   1      41.786  23.829  26.331  1.00  0.00    -0.460 OA
BRANCH  25  26
ATOM     26  C   UNL A   1      42.692  24.675  26.871  1.00  0.00     0.338 C 
ATOM     27  O   UNL A   1      43.899  24.688  26.650  1.00  0.00    -0.246 OA
BRANCH  26  28
ATOM     28  C   UNL A   1      42.034  25.729  27.671  1.00  0.00     0.060 A 
ATOM     29  C   UNL A   1      42.777  26.890  27.908  1.00  0.00     0.016 A 
ATOM     30  C   UNL A   1      40.772  25.569  28.254  1.00  0.00     0.016 A 
ATOM     31  C   UNL A   1      42.311  27.849  28.803  1.00  0.00     0.010 A 
ATOM     32  C   UNL A   1      40.300  26.542  29.150  1.00  0.00     0.010 A 
ATOM     33  C   UNL A   1      41.096  27.656  29.474  1.00  0.00    -0.014 A 
BRANCH  33  34
ATOM     34  C   UNL A   1      40.791  28.531  30.637  1.00  0.00     0.031 A 
ATOM     35  C   UNL A   1      41.652  28.434  31.871  1.00  0.00     0.074 A 
ATOM     36  C   UNL A   1      39.840  29.480  30.556  1.00  0.00     0.049 A 
ATOM     37  N   UNL A   1      41.641  29.171  32.952  1.00  0.00    -0.248 NA
ATOM     38  C   UNL A   1      42.664  27.365  31.886  1.00  0.00     0.031 C 
ATOM     39  C   UNL A   1      38.961  29.700  29.409  1.00  0.00     0.029 A 
ATOM     40  N   UNL A   1      39.471  30.453  31.452  1.00  0.00    -0.354 N 
ATOM     41  C   UNL A   1      42.641  28.659  33.772  1.00  0.00     0.074 A 
ATOM     42  C   UNL A   1      43.210  27.522  33.083  1.00  0.00     0.031 C 
ATOM     43  C   UNL A   1      38.160  30.748  29.667  1.00  0.00     0.029 A 
ATOM     44  C   UNL A   1      38.458  31.265  31.002  1.00  0.00     0.049 A 
ATOM     45  H   UNL A   1      39.893  30.559  32.335  1.00  0.00     0.167 HD
ATOM     46  C   UNL A   1      43.063  29.104  34.981  1.00  0.00     0.037 A 
ATOM     47  C   UNL A   1      37.842  32.305  31.596  1.00  0.00     0.037 A 
ATOM     48  C   UNL A   1      42.502  30.240  35.666  1.00  0.00     0.049 A 
ATOM     49  C   UNL A   1      38.303  32.761  32.957  1.00  0.00     0.074 A 
ATOM     50  C   UNL A   1      42.872  30.779  36.886  1.00  0.00     0.029 A 
ATOM     51  N   UNL A   1      41.453  31.013  35.191  1.00  0.00    -0.354 N 
ATOM     52  N   UNL A   1      39.268  32.282  33.706  1.00  0.00    -0.248 NA
ATOM     53  C   UNL A   1      37.600  33.910  33.546  1.00  0.00     0.031 C 
ATOM     54  C   UNL A   1      42.014  31.849  37.172  1.00  0.00     0.029 A 
ATOM     55  C   UNL A   1      41.146  32.010  36.104  1.00  0.00     0.049 A 
ATOM     56  H   UNL A   1      40.992  30.874  34.333  1.00  0.00     0.167 HD
ATOM     57  C   UNL A   1      39.305  33.087  34.841  1.00  0.00     0.074 A 
ATOM     58  C   UNL A   1      38.277  34.093  34.671  1.00  0.00     0.031 C 
ATOM     59  C   UNL A   1      40.118  33.004  35.925  1.00  0.00     0.037 A 
BRANCH  46  60
ATOM     60  C   UNL A   1      44.173  28.342  35.652  1.00  0.00     0.058 A 
ATOM     61  C   UNL A   1      45.525  28.613  35.385  1.00  0.00     0.135 A 
ATOM     62  C   UNL A   1      43.881  27.339  36.591  1.00  0.00     0.135 A 
ATOM     63  F   UNL A   1      45.861  29.548  34.484  1.00  0.00    -0.206 F 
ATOM     64  C   UNL A   1      46.546  27.898  36.004  1.00  0.00     0.059 A 
ATOM     65  C   UNL A   1      44.887  26.631  37.242  1.00  0.00     0.059 A 
ATOM     66  F   UNL A   1      42.605  27.037  36.883  1.00  0.00    -0.206 F 
ATOM     67  C   UNL A   1      46.217  26.907  36.930  1.00  0.00     0.060 A 
BRANCH  67  68
ATOM     68  S   UNL A   1      47.551  25.985  37.722  1.00  0.00     0.124 S 
ATOM     69  O   UNL A   1      48.566  25.982  36.673  1.00  0.00    -0.237 OA
ATOM     70  O   UNL A   1      47.850  26.809  38.890  1.00  0.00    -0.237 OA
ATOM     71  O   UNL A   1      46.946  24.690  38.013  1.00  0.00    -0.744 OA
ENDBRANCH  67  68
ENDBRANCH  46  60
BRANCH  47  72
ATOM     72  C   UNL A   1      36.721  32.998  30.904  1.00  0.00     0.058 A 
ATOM     73  C   UNL A   1      35.386  32.783  31.277  1.00  0.00     0.135 A 
ATOM     74  C   UNL A   1      36.969  33.890  29.849  1.00  0.00     0.135 A 
ATOM     75  F   UNL A   1      35.096  31.930  32.271  1.00  0.00    -0.206 F 
ATOM     76  C   UNL A   1      34.335  33.418  30.621  1.00  0.00     0.059 A 
ATOM     77  C   UNL A   1      35.938  34.556  29.196  1.00  0.00     0.059 A 
ATOM     78  F   UNL A   1      38.230  34.138  29.460  1.00  0.00    -0.206 F 
ATOM     79  C   UNL A   1      34.622  34.306  29.583  1.00  0.00     0.060 A 
BRANCH  79  80
ATOM     80  S   UNL A   1      33.256  35.167  28.775  1.00  0.00     0.124 S 
ATOM     81  O   UNL A   1      33.962  36.194  28.018  1.00  0.00    -0.237 OA
ATOM     82  O   UNL A   1      32.644  34.100  27.988  1.00  0.00    -0.237 OA
ATOM     83  O   UNL A   1      32.453  35.646  29.895  1.00  0.00    -0.744 OA
ENDBRANCH  79  80
ENDBRANCH  47  72
BRANCH  59  84
ATOM     84  C   UNL A   1      39.948  34.049  36.996  1.00  0.00     0.058 A 
ATOM     85  C   UNL A   1      39.138  33.833  38.121  1.00  0.00     0.135 A 
ATOM     86  C   UNL A   1      40.616  35.281  36.899  1.00  0.00     0.135 A 
ATOM     87  F   UNL A   1      38.475  32.674  38.264  1.00  0.00    -0.206 F 
ATOM     88  C   UNL A   1      38.957  34.817  39.089  1.00  0.00     0.059 A 
ATOM     89  C   UNL A   1      40.476  36.268  37.870  1.00  0.00     0.059 A 
ATOM     90  F   UNL A   1      41.418  35.536  35.853  1.00  0.00    -0.206 F 
ATOM     91  C   UNL A   1      39.625  36.035  38.950  1.00  0.00     0.060 A 
BRANCH  91  92
ATOM     92  S   UNL A   1      39.376  37.311  40.204  1.00  0.00     0.124 S 
ATOM     93  O   UNL A   1      40.751  37.700  40.501  1.00  0.00    -0.237 OA
ATOM     94  O   UNL A   1      38.578  38.302  39.490  1.00  0.00    -0.237 OA
ATOM     95  O   UNL A   1      38.678  36.604  41.273  1.00  0.00    -0.744 OA
ENDBRANCH  91  92
ENDBRANCH  59  84
ENDBRANCH  33  34
ENDBRANCH  26  28
ENDBRANCH  25  26
ENDBRANCH  24  25
ENDBRANCH   1  24
TORSDOF 19
ENDMDL
MODEL 3
REMARK VINA RESULT:     -10.1      5.015     10.322
REMARK SMILES C[C@H]1[C@H]([NH+]2CCC(CC(=O)OCCOCCOC(=O)c3ccc(-c4c5nc(c(-c6c(F)cc(S(=O)(=O)[O-])cc6F)c6ccc([nH]6)c(-c6c(F)cc(S(=O)(=O)[O-])cc6F)c6nc(c(-c7c(F)cc(S(=O)(=O)[O-])cc7F)c7ccc4[nH]7)C=C6)C=C5)cc3)CC2)CCC[C@@H]1C
REMARK SMILES IDX 15 1 14 2 13 3 12 4 11 5 9 6 10 7 8 8 7 9 4 10 5 11 87 12
REMARK SMILES IDX 6 14 86 15 3 16 1 17 2 18 91 19 88 20 90 21 92 22 89 23
REMARK SMILES IDX 16 24 17 25 18 26 19 27 20 28 21 29 85 30 22 31 84 32 23 33
REMARK SMILES IDX 24 34 25 35 78 36 26 37 83 38 77 39 79 40 27 41 82 42 76 43
REMARK SMILES IDX 75 44 28 46 62 47 41 48 61 49 42 50 45 51 60 52 80 53 43 54
REMARK SMILES IDX 44 55 59 57 81 58 46 59 29 60 30 61 39 62 31 63 32 64 38 65
REMARK SMILES IDX 40 66 33 67 34 68 35 69 36 70 37 71 63 72 64 73 73 74 65 75
REMARK SMILES IDX 66 76 72 77 74 78 67 79 68 80 69 81 70 82 71 83 47 84 48 85
REMARK SMILES IDX 57 86 49 87 50 88 56 89 58 90 51 91 52 92 53 93 54 94 55 95
REMARK H PARENT 4 13 79 45 45 56
REMARK Flexibility Score: inf
ROOT
ATOM      1  C   UNL A   1      42.755  22.100  26.384  1.00  0.00     0.202 C 
ENDROOT
BRANCH   1   2
ATOM      2  O   UNL A   1      42.013  21.942  27.591  1.00  0.00    -0.374 OA
BRANCH   2   3
ATOM      3  C   UNL A   1      40.757  21.265  27.491  1.00  0.00     0.202 C 
BRANCH   3   4
ATOM      4  C   UNL A   1      40.129  21.253  26.095  1.00  0.00     0.261 C 
BRANCH   4   5
ATOM      5  O   UNL A   1      38.949  22.076  26.052  1.00  0.00    -0.463 OA
BRANCH   5   6
ATOM      6  C   UNL A   1      37.925  21.663  25.265  1.00  0.00     0.306 C 
ATOM      7  O   UNL A   1      37.761  20.522  24.852  1.00  0.00    -0.252 OA
BRANCH   6   8
ATOM      8  C   UNL A   1      37.002  22.813  24.921  1.00  0.00     0.126 C 
BRANCH   8   9
ATOM      9  C   UNL A   1      35.493  22.505  24.795  1.00  0.00     0.011 C 
ATOM     10  N   UNL A   1      32.792  23.751  24.551  1.00  0.00    -0.332 N 
ATOM     11  C   UNL A   1      33.458  23.166  23.384  1.00  0.00     0.262 C 
ATOM     12  C   UNL A   1      33.155  22.991  25.735  1.00  0.00     0.262 C 
ATOM     13  H   UNL A   1      31.794  23.635  24.377  1.00  0.00     0.348 HD
ATOM     14  C   UNL A   1      34.980  23.151  23.492  1.00  0.00     0.066 C 
ATOM     15  C   UNL A   1      34.665  22.996  25.992  1.00  0.00     0.066 C 
BRANCH  10  16
ATOM     16  C   UNL A   1      32.610  25.230  24.673  1.00  0.00     0.187 C 
ATOM     17  C   UNL A   1      30.359  25.593  25.988  1.00  0.00     0.014 C 
ATOM     18  C   UNL A   1      31.886  25.853  25.933  1.00  0.00     0.047 C 
ATOM     19  C   UNL A   1      32.041  27.405  26.068  1.00  0.00    -0.006 C 
ATOM     20  C   UNL A   1      33.968  25.926  24.399  1.00  0.00     0.065 C 
ATOM     21  C   UNL A   1      33.447  27.916  25.774  1.00  0.00     0.004 C 
ATOM     22  C   UNL A   1      31.598  27.896  27.455  1.00  0.00     0.008 C 
ATOM     23  C   UNL A   1      33.896  27.441  24.407  1.00  0.00     0.006 C 
ENDBRANCH  10  16
ENDBRANCH   8   9
ENDBRANCH   6   8
ENDBRANCH   5   6
ENDBRANCH   4   5
ENDBRANCH   3   4
ENDBRANCH   2   3
ENDBRANCH   1   2
BRANCH   1  24
ATOM     24  C   UNL A   1      42.988  23.545  25.922  1.00  0.00     0.261 C 
BRANCH  24  25
ATOM     25  O   UNL A   1      41.778  24.325  25.921  1.00  0.00    -0.460 OA
BRANCH  25  26
ATOM     26  C   UNL A   1      41.978  25.661  25.865  1.00  0.00     0.338 C 
ATOM     27  O   UNL A   1      42.017  26.350  24.850  1.00  0.00    -0.246 OA
BRANCH  26  28
ATOM     28  C   UNL A   1      41.990  26.260  27.215  1.00  0.00     0.060 A 
ATOM     29  C   UNL A   1      40.931  25.915  28.062  1.00  0.00     0.016 A 
ATOM     30  C   UNL A   1      42.943  27.200  27.625  1.00  0.00     0.016 A 
ATOM     31  C   UNL A   1      40.762  26.575  29.276  1.00  0.00     0.010 A 
ATOM     32  C   UNL A   1      42.775  27.857  28.854  1.00  0.00     0.010 A 
ATOM     33  C   UNL A   1      41.650  27.590  29.656  1.00  0.00    -0.014 A 
BRANCH  33  34
ATOM     34  C   UNL A   1      41.262  28.473  30.788  1.00  0.00     0.031 A 
ATOM     35  C   UNL A   1      42.076  28.437  32.056  1.00  0.00     0.074 A 
ATOM     36  C   UNL A   1      40.275  29.378  30.651  1.00  0.00     0.049 A 
ATOM     37  N   UNL A   1      41.991  29.194  33.121  1.00  0.00    -0.248 NA
ATOM     38  C   UNL A   1      43.132  27.414  32.133  1.00  0.00     0.031 C 
ATOM     39  C   UNL A   1      39.433  29.537  29.466  1.00  0.00     0.029 A 
ATOM     40  N   UNL A   1      39.829  30.350  31.512  1.00  0.00    -0.354 N 
ATOM     41  C   UNL A   1      42.979  28.742  33.990  1.00  0.00     0.074 A 
ATOM     42  C   UNL A   1      43.623  27.618  33.347  1.00  0.00     0.031 C 
ATOM     43  C   UNL A   1      38.578  30.553  29.671  1.00  0.00     0.029 A 
ATOM     44  C   UNL A   1      38.800  31.108  31.006  1.00  0.00     0.049 A 
ATOM     45  H   UNL A   1      40.211  30.491  32.408  1.00  0.00     0.167 HD
ATOM     46  C   UNL A   1      43.333  29.227  35.204  1.00  0.00     0.037 A 
ATOM     47  C   UNL A   1      38.116  32.131  31.554  1.00  0.00     0.037 A 
ATOM     48  C   UNL A   1      42.697  30.351  35.843  1.00  0.00     0.049 A 
ATOM     49  C   UNL A   1      38.503  32.632  32.922  1.00  0.00     0.074 A 
ATOM     50  C   UNL A   1      42.994  30.928  37.066  1.00  0.00     0.029 A 
ATOM     51  N   UNL A   1      41.634  31.068  35.312  1.00  0.00    -0.354 N 
ATOM     52  N   UNL A   1      39.457  32.211  33.718  1.00  0.00    -0.248 NA
ATOM     53  C   UNL A   1      37.728  33.761  33.459  1.00  0.00     0.031 C 
ATOM     54  C   UNL A   1      42.080  31.964  37.295  1.00  0.00     0.029 A 
ATOM     55  C   UNL A   1      41.249  32.067  36.192  1.00  0.00     0.049 A 
ATOM     56  H   UNL A   1      41.215  30.892  34.440  1.00  0.00     0.167 HD
ATOM     57  C   UNL A   1      39.415  33.038  34.837  1.00  0.00     0.074 A 
ATOM     58  C   UNL A   1      38.351  33.995  34.606  1.00  0.00     0.031 C 
ATOM     59  C   UNL A   1      40.187  33.011  35.953  1.00  0.00     0.037 A 
BRANCH  46  60
ATOM     60  C   UNL A   1      44.447  28.528  35.934  1.00  0.00     0.058 A 
ATOM     61  C   UNL A   1      45.786  28.930  35.802  1.00  0.00     0.135 A 
ATOM     62  C   UNL A   1      44.170  27.452  36.793  1.00  0.00     0.135 A 
ATOM     63  F   UNL A   1      46.111  29.941  34.980  1.00  0.00    -0.206 F 
ATOM     64  C   UNL A   1      46.813  28.272  36.473  1.00  0.00     0.059 A 
ATOM     65  C   UNL A   1      45.178  26.798  37.495  1.00  0.00     0.059 A 
ATOM     66  F   UNL A   1      42.907  27.024  36.955  1.00  0.00    -0.206 F 
ATOM     67  C   UNL A   1      46.499  27.206  37.316  1.00  0.00     0.060 A 
BRANCH  67  68
ATOM     68  S   UNL A   1      47.840  26.360  38.179  1.00  0.00     0.124 S 
ATOM     69  O   UNL A   1      48.928  26.477  37.212  1.00  0.00    -0.237 OA
ATOM     70  O   UNL A   1      47.984  27.158  39.393  1.00  0.00    -0.237 OA
ATOM     71  O   UNL A   1      47.321  25.011  38.378  1.00  0.00    -0.744 OA
ENDBRANCH  67  68
ENDBRANCH  46  60
BRANCH  47  72
ATOM     72  C   UNL A   1      36.995  32.760  30.805  1.00  0.00     0.058 A 
ATOM     73  C   UNL A   1      37.202  33.873  29.976  1.00  0.00     0.135 A 
ATOM     74  C   UNL A   1      35.689  32.256  30.908  1.00  0.00     0.135 A 
ATOM     75  F   UNL A   1      38.430  34.399  29.854  1.00  0.00    -0.206 F 
ATOM     76  C   UNL A   1      36.153  34.473  29.286  1.00  0.00     0.059 A 
ATOM     77  C   UNL A   1      34.629  32.823  30.208  1.00  0.00     0.059 A 
ATOM     78  F   UNL A   1      35.439  31.187  31.680  1.00  0.00    -0.206 F 
ATOM     79  C   UNL A   1      34.869  33.938  29.406  1.00  0.00     0.060 A 
BRANCH  79  80
ATOM     80  S   UNL A   1      33.524  34.688  28.464  1.00  0.00     0.124 S 
ATOM     81  O   UNL A   1      32.900  33.518  27.859  1.00  0.00    -0.237 OA
ATOM     82  O   UNL A   1      32.753  35.355  29.510  1.00  0.00    -0.237 OA
ATOM     83  O   UNL A   1      34.218  35.583  27.543  1.00  0.00    -0.744 OA
ENDBRANCH  79  80
ENDBRANCH  47  72
BRANCH  59  84
ATOM     84  C   UNL A   1      39.929  34.068  36.994  1.00  0.00     0.058 A 
ATOM     85  C   UNL A   1      40.467  35.360  36.888  1.00  0.00     0.135 A 
ATOM     86  C   UNL A   1      39.121  33.787  38.108  1.00  0.00     0.135 A 
ATOM     87  F   UNL A   1      41.247  35.684  35.844  1.00  0.00    -0.206 F 
ATOM     88  C   UNL A   1      40.254  36.321  37.872  1.00  0.00     0.059 A 
ATOM     89  C   UNL A   1      38.868  34.741  39.089  1.00  0.00     0.059 A 
ATOM     90  F   UNL A   1      38.566  32.573  38.252  1.00  0.00    -0.206 F 
ATOM     91  C   UNL A   1      39.458  35.999  38.973  1.00  0.00     0.060 A 
BRANCH  91  92
ATOM     92  S   UNL A   1      39.197  37.248  40.251  1.00  0.00     0.124 S 
ATOM     93  O   UNL A   1      40.569  37.575  40.625  1.00  0.00    -0.237 OA
ATOM     94  O   UNL A   1      38.472  38.289  39.531  1.00  0.00    -0.237 OA
ATOM     95  O   UNL A   1      38.421  36.539  41.265  1.00  0.00    -0.744 OA
ENDBRANCH  91  92
ENDBRANCH  59  84
ENDBRANCH  33  34
ENDBRANCH  26  28
ENDBRANCH  25  26
ENDBRANCH  24  25
ENDBRANCH   1  24
TORSDOF 19
ENDMDL
