MODEL 1
REMARK VINA RESULT:     -10.8      0.000      0.000
REMARK SMILES C[C@H]1[C@@H](C(=O)OCCOCCOC(=O)c2ccc(-c3c4nc(c(-c5c(F)cc(S(=O)(=O)[O-])cc5F)c5ccc([nH]5)c(-c5c(F)cc(S(=O)(=O)[O-])cc5F)c5nc(c(-c6c(F)cc(S(=O)(=O)[O-])cc6F)c6ccc3[nH]6)C=C5)C=C4)cc2)CCN1S(=O)(=O)Cc1cccc(C#N)c1
REMARK SMILES IDX 8 1 7 2 6 3 4 4 5 5 3 6 1 7 2 8 83 9 81 10 82 11 84 12 85 13
REMARK SMILES IDX 86 14 87 15 88 16 89 17 95 18 90 19 92 20 91 21 93 22 94 23
REMARK SMILES IDX 9 24 10 25 11 26 12 27 13 28 14 29 15 30 16 31 80 32 17 33
REMARK SMILES IDX 79 34 18 35 19 36 20 37 73 38 21 39 78 40 72 41 74 42 22 43
REMARK SMILES IDX 77 44 71 45 70 46 23 48 57 49 36 50 56 51 37 52 40 53 55 54
REMARK SMILES IDX 75 55 38 56 39 57 54 59 76 60 41 61 24 62 25 63 34 64 26 65
REMARK SMILES IDX 27 66 33 67 35 68 28 69 29 70 30 71 31 72 32 73 58 74 59 75
REMARK SMILES IDX 68 76 60 77 61 78 67 79 69 80 62 81 63 82 64 83 65 84 66 85
REMARK SMILES IDX 42 86 43 87 52 88 44 89 45 90 51 91 53 92 46 93 47 94 48 95
REMARK SMILES IDX 49 96 50 97
REMARK H PARENT 74 47 40 58
REMARK Flexibility Score: inf
ROOT
ATOM      1  C   UNL A   1      40.061  22.092  27.195  1.00  0.00     0.202 C 
ENDROOT
BRANCH   1   2
ATOM      2  C   UNL A   1      39.513  21.625  25.840  1.00  0.00     0.261 C 
BRANCH   2   3
ATOM      3  O   UNL A   1      38.072  21.680  25.828  1.00  0.00    -0.463 OA
BRANCH   3   4
ATOM      4  C   UNL A   1      37.414  20.701  25.173  1.00  0.00     0.310 C 
ATOM      5  O   UNL A   1      37.944  19.673  24.767  1.00  0.00    -0.252 OA
BRANCH   4   6
ATOM      6  C   UNL A   1      35.913  20.941  25.037  1.00  0.00     0.118 C 
ATOM      7  C   UNL A   1      36.215  22.860  23.245  1.00  0.00     0.027 C 
ATOM      8  C   UNL A   1      35.300  21.894  23.988  1.00  0.00     0.084 C 
ATOM      9  N   UNL A   1      34.276  22.733  24.709  1.00  0.00    -0.198 NA
ATOM     10  C   UNL A   1      35.336  21.387  26.386  1.00  0.00     0.034 C 
ATOM     11  C   UNL A   1      34.643  22.714  26.147  1.00  0.00     0.103 C 
BRANCH   9  12
ATOM     12  S   UNL A   1      32.628  22.433  24.432  1.00  0.00     0.218 S 
ATOM     13  O   UNL A   1      31.913  23.470  25.152  1.00  0.00    -0.212 OA
ATOM     14  O   UNL A   1      32.444  22.307  23.000  1.00  0.00    -0.212 OA
BRANCH  12  15
ATOM     15  C   UNL A   1      32.243  20.858  25.226  1.00  0.00     0.189 C 
BRANCH  15  16
ATOM     16  C   UNL A   1      32.583  19.649  24.393  1.00  0.00    -0.030 A 
ATOM     17  C   UNL A   1      32.146  19.527  23.066  1.00  0.00     0.005 A 
ATOM     18  C   UNL A   1      33.275  18.569  24.963  1.00  0.00     0.024 A 
ATOM     19  C   UNL A   1      32.425  18.375  22.323  1.00  0.00     0.002 A 
ATOM     20  C   UNL A   1      33.597  17.434  24.208  1.00  0.00     0.052 A 
ATOM     21  C   UNL A   1      33.162  17.335  22.887  1.00  0.00     0.019 A 
BRANCH  20  22
ATOM     22  C   UNL A   1      34.391  16.395  24.789  1.00  0.00     0.099 C 
ATOM     23  N   UNL A   1      35.005  15.537  25.276  1.00  0.00    -0.192 NA
ENDBRANCH  20  22
ENDBRANCH  15  16
ENDBRANCH  12  15
ENDBRANCH   9  12
ENDBRANCH   4   6
ENDBRANCH   3   4
ENDBRANCH   2   3
ENDBRANCH   1   2
BRANCH   1  24
ATOM     24  O   UNL A   1      41.366  22.676  27.184  1.00  0.00    -0.374 OA
BRANCH  24  25
ATOM     25  C   UNL A   1      42.272  22.222  26.183  1.00  0.00     0.202 C 
BRANCH  25  26
ATOM     26  C   UNL A   1      43.180  23.264  25.517  1.00  0.00     0.261 C 
BRANCH  26  27
ATOM     27  O   UNL A   1      42.738  24.604  25.767  1.00  0.00    -0.460 OA
BRANCH  27  28
ATOM     28  C   UNL A   1      43.558  25.294  26.594  1.00  0.00     0.338 C 
ATOM     29  O   UNL A   1      44.777  25.309  26.568  1.00  0.00    -0.246 OA
BRANCH  28  30
ATOM     30  C   UNL A   1      42.770  26.199  27.449  1.00  0.00     0.060 A 
ATOM     31  C   UNL A   1      43.242  27.511  27.569  1.00  0.00     0.016 A 
ATOM     32  C   UNL A   1      41.659  25.770  28.177  1.00  0.00     0.016 A 
ATOM     33  C   UNL A   1      42.678  28.364  28.506  1.00  0.00     0.010 A 
ATOM     34  C   UNL A   1      41.084  26.637  29.111  1.00  0.00     0.010 A 
ATOM     35  C   UNL A   1      41.636  27.910  29.326  1.00  0.00    -0.014 A 
BRANCH  35  36
ATOM     36  C   UNL A   1      41.272  28.716  30.516  1.00  0.00     0.031 A 
ATOM     37  C   UNL A   1      42.103  28.588  31.768  1.00  0.00     0.074 A 
ATOM     38  C   UNL A   1      40.278  29.618  30.445  1.00  0.00     0.049 A 
ATOM     39  N   UNL A   1      42.015  29.249  32.893  1.00  0.00    -0.248 NA
ATOM     40  C   UNL A   1      43.179  27.582  31.749  1.00  0.00     0.031 C 
ATOM     41  C   UNL A   1      39.428  29.845  29.276  1.00  0.00     0.029 A 
ATOM     42  N   UNL A   1      39.824  30.521  31.373  1.00  0.00    -0.354 N 
ATOM     43  C   UNL A   1      43.014  28.737  33.714  1.00  0.00     0.074 A 
ATOM     44  C   UNL A   1      43.667  27.680  32.976  1.00  0.00     0.031 C 
ATOM     45  C   UNL A   1      38.563  30.835  29.552  1.00  0.00     0.029 A 
ATOM     46  C   UNL A   1      38.774  31.286  30.926  1.00  0.00     0.049 A 
ATOM     47  H   UNL A   1      40.214  30.613  32.271  1.00  0.00     0.167 HD
ATOM     48  C   UNL A   1      43.364  29.124  34.964  1.00  0.00     0.037 A 
ATOM     49  C   UNL A   1      38.056  32.232  31.561  1.00  0.00     0.037 A 
ATOM     50  C   UNL A   1      42.701  30.178  35.689  1.00  0.00     0.049 A 
ATOM     51  C   UNL A   1      38.429  32.607  32.970  1.00  0.00     0.074 A 
ATOM     52  C   UNL A   1      42.987  30.664  36.952  1.00  0.00     0.029 A 
ATOM     53  N   UNL A   1      41.614  30.901  35.220  1.00  0.00    -0.354 N 
ATOM     54  N   UNL A   1      39.398  32.139  33.724  1.00  0.00    -0.248 NA
ATOM     55  C   UNL A   1      37.619  33.648  33.615  1.00  0.00     0.031 C 
ATOM     56  C   UNL A   1      42.030  31.631  37.274  1.00  0.00     0.029 A 
ATOM     57  C   UNL A   1      41.197  31.808  36.181  1.00  0.00     0.049 A 
ATOM     58  H   UNL A   1      41.199  30.787  34.334  1.00  0.00     0.167 HD
ATOM     59  C   UNL A   1      39.334  32.853  34.916  1.00  0.00     0.074 A 
ATOM     60  C   UNL A   1      38.243  33.796  34.775  1.00  0.00     0.031 C 
ATOM     61  C   UNL A   1      40.107  32.742  36.026  1.00  0.00     0.037 A 
BRANCH  48  62
ATOM     62  C   UNL A   1      44.492  28.386  35.638  1.00  0.00     0.058 A 
ATOM     63  C   UNL A   1      44.274  27.241  36.422  1.00  0.00     0.135 A 
ATOM     64  C   UNL A   1      45.821  28.810  35.465  1.00  0.00     0.135 A 
ATOM     65  F   UNL A   1      43.026  26.797  36.639  1.00  0.00    -0.206 F 
ATOM     66  C   UNL A   1      45.326  26.562  37.031  1.00  0.00     0.059 A 
ATOM     67  C   UNL A   1      46.891  28.126  36.035  1.00  0.00     0.059 A 
ATOM     68  F   UNL A   1      46.092  29.900  34.728  1.00  0.00    -0.206 F 
ATOM     69  C   UNL A   1      46.632  27.010  36.828  1.00  0.00     0.060 A 
BRANCH  69  70
ATOM     70  S   UNL A   1      47.985  26.109  37.613  1.00  0.00     0.124 S 
ATOM     71  O   UNL A   1      47.695  24.736  37.211  1.00  0.00    -0.237 OA
ATOM     72  O   UNL A   1      49.161  26.715  36.995  1.00  0.00    -0.237 OA
ATOM     73  O   UNL A   1      47.808  26.396  39.033  1.00  0.00    -0.744 OA
ENDBRANCH  69  70
ENDBRANCH  48  62
BRANCH  49  74
ATOM     74  C   UNL A   1      36.915  32.889  30.866  1.00  0.00     0.058 A 
ATOM     75  C   UNL A   1      37.109  33.996  30.027  1.00  0.00     0.135 A 
ATOM     76  C   UNL A   1      35.602  32.417  31.031  1.00  0.00     0.135 A 
ATOM     77  F   UNL A   1      38.342  34.491  29.843  1.00  0.00    -0.206 F 
ATOM     78  C   UNL A   1      36.042  34.625  29.392  1.00  0.00     0.059 A 
ATOM     79  C   UNL A   1      34.525  33.008  30.379  1.00  0.00     0.059 A 
ATOM     80  F   UNL A   1      35.362  31.353  31.812  1.00  0.00    -0.206 F 
ATOM     81  C   UNL A   1      34.754  34.119  29.570  1.00  0.00     0.060 A 
BRANCH  81  82
ATOM     82  S   UNL A   1      33.384  34.912  28.703  1.00  0.00     0.124 S 
ATOM     83  O   UNL A   1      32.835  33.799  27.937  1.00  0.00    -0.237 OA
ATOM     84  O   UNL A   1      32.563  35.393  29.809  1.00  0.00    -0.237 OA
ATOM     85  O   UNL A   1      34.042  35.954  27.918  1.00  0.00    -0.744 OA
ENDBRANCH  81  82
ENDBRANCH  49  74
BRANCH  61  86
ATOM     86  C   UNL A   1      39.833  33.699  37.158  1.00  0.00     0.058 A 
ATOM     87  C   UNL A   1      40.448  34.959  37.236  1.00  0.00     0.135 A 
ATOM     88  C   UNL A   1      38.924  33.354  38.172  1.00  0.00     0.135 A 
ATOM     89  F   UNL A   1      41.327  35.344  36.296  1.00  0.00    -0.206 F 
ATOM     90  C   UNL A   1      40.210  35.819  38.303  1.00  0.00     0.059 A 
ATOM     91  C   UNL A   1      38.640  34.215  39.226  1.00  0.00     0.059 A 
ATOM     92  F   UNL A   1      38.293  32.169  38.141  1.00  0.00    -0.206 F 
ATOM     93  C   UNL A   1      39.306  35.436  39.295  1.00  0.00     0.060 A 
BRANCH  93  94
ATOM     94  S   UNL A   1      39.010  36.561  40.676  1.00  0.00     0.124 S 
ATOM     95  O   UNL A   1      38.148  35.753  41.533  1.00  0.00    -0.237 OA
ATOM     96  O   UNL A   1      40.360  36.800  41.178  1.00  0.00    -0.237 OA
ATOM     97  O   UNL A   1      38.369  37.712  40.048  1.00  0.00    -0.744 OA
ENDBRANCH  93  94
ENDBRANCH  61  86
ENDBRANCH  35  36
ENDBRANCH  28  30
ENDBRANCH  27  28
ENDBRANCH  26  27
ENDBRANCH  25  26
ENDBRANCH  24  25
ENDBRANCH   1  24
TORSDOF 21
ENDMDL
MODEL 2
REMARK VINA RESULT:     -10.7      2.177      3.763
REMARK SMILES C[C@H]1[C@@H](C(=O)OCCOCCOC(=O)c2ccc(-c3c4nc(c(-c5c(F)cc(S(=O)(=O)[O-])cc5F)c5ccc([nH]5)c(-c5c(F)cc(S(=O)(=O)[O-])cc5F)c5nc(c(-c6c(F)cc(S(=O)(=O)[O-])cc6F)c6ccc3[nH]6)C=C5)C=C4)cc2)CCN1S(=O)(=O)Cc1cccc(C#N)c1
REMARK SMILES IDX 8 1 7 2 6 3 4 4 5 5 3 6 1 7 2 8 83 9 81 10 82 11 84 12 85 13
REMARK SMILES IDX 86 14 87 15 88 16 89 17 95 18 90 19 92 20 91 21 93 22 94 23
REMARK SMILES IDX 9 24 10 25 11 26 12 27 13 28 14 29 15 30 16 31 80 32 17 33
REMARK SMILES IDX 79 34 18 35 19 36 20 37 73 38 21 39 78 40 72 41 74 42 22 43
REMARK SMILES IDX 77 44 71 45 70 46 23 48 57 49 36 50 56 51 37 52 40 53 55 54
REMARK SMILES IDX 75 55 38 56 39 57 54 59 76 60 41 61 24 62 25 63 34 64 26 65
REMARK SMILES IDX 27 66 33 67 35 68 28 69 29 70 30 71 31 72 32 73 58 74 59 75
REMARK SMILES IDX 68 76 60 77 61 78 67 79 69 80 62 81 63 82 64 83 65 84 66 85
REMARK SMILES IDX 42 86 43 87 52 88 44 89 45 90 51 91 53 92 46 93 47 94 48 95
REMARK SMILES IDX 49 96 50 97
REMARK H PARENT 74 47 40 58
REMARK Flexibility Score: inf
ROOT
ATOM      1  C   UNL A   1      38.685  21.075  25.443  1.00  0.00     0.202 C 
ENDROOT
BRANCH   1   2
ATOM      2  C   UNL A   1      37.362  21.644  24.912  1.00  0.00     0.261 C 
BRANCH   2   3
ATOM      3  O   UNL A   1      36.287  21.376  25.835  1.00  0.00    -0.463 OA
BRANCH   3   4
ATOM      4  C   UNL A   1      35.159  20.826  25.340  1.00  0.00     0.310 C 
ATOM      5  O   UNL A   1      35.118  19.738  24.775  1.00  0.00    -0.252 OA
BRANCH   4   6
ATOM      6  C   UNL A   1      33.898  21.643  25.605  1.00  0.00     0.118 C 
ATOM      7  C   UNL A   1      34.056  22.941  23.308  1.00  0.00     0.027 C 
ATOM      8  C   UNL A   1      33.259  22.579  24.555  1.00  0.00     0.084 C 
ATOM      9  N   UNL A   1      32.945  23.873  25.261  1.00  0.00    -0.198 NA
ATOM     10  C   UNL A   1      34.092  22.503  26.860  1.00  0.00     0.034 C 
ATOM     11  C   UNL A   1      33.833  23.939  26.450  1.00  0.00     0.103 C 
BRANCH   9  12
ATOM     12  S   UNL A   1      31.327  24.245  25.611  1.00  0.00     0.218 S 
ATOM     13  O   UNL A   1      30.597  23.000  25.468  1.00  0.00    -0.212 OA
ATOM     14  O   UNL A   1      31.306  24.938  26.884  1.00  0.00    -0.212 OA
BRANCH  12  15
ATOM     15  C   UNL A   1      30.755  25.361  24.313  1.00  0.00     0.189 C 
BRANCH  15  16
ATOM     16  C   UNL A   1      31.605  26.593  24.141  1.00  0.00    -0.030 A 
ATOM     17  C   UNL A   1      32.659  26.633  23.217  1.00  0.00     0.005 A 
ATOM     18  C   UNL A   1      31.416  27.705  24.976  1.00  0.00     0.024 A 
ATOM     19  C   UNL A   1      33.473  27.765  23.106  1.00  0.00     0.002 A 
ATOM     20  C   UNL A   1      32.200  28.859  24.836  1.00  0.00     0.052 A 
ATOM     21  C   UNL A   1      33.236  28.883  23.904  1.00  0.00     0.019 A 
BRANCH  20  22
ATOM     22  C   UNL A   1      31.915  30.013  25.633  1.00  0.00     0.099 C 
ATOM     23  N   UNL A   1      31.677  30.969  26.248  1.00  0.00    -0.192 NA
ENDBRANCH  20  22
ENDBRANCH  15  16
ENDBRANCH  12  15
ENDBRANCH   9  12
ENDBRANCH   4   6
ENDBRANCH   3   4
ENDBRANCH   2   3
ENDBRANCH   1   2
BRANCH   1  24
ATOM     24  O   UNL A   1      39.600  22.019  26.005  1.00  0.00    -0.374 OA
BRANCH  24  25
ATOM     25  C   UNL A   1      40.907  21.547  26.319  1.00  0.00     0.202 C 
BRANCH  25  26
ATOM     26  C   UNL A   1      42.050  22.571  26.334  1.00  0.00     0.261 C 
BRANCH  26  27
ATOM     27  O   UNL A   1      41.787  23.662  27.225  1.00  0.00    -0.460 OA
BRANCH  27  28
ATOM     28  C   UNL A   1      41.931  24.876  26.644  1.00  0.00     0.338 C 
ATOM     29  O   UNL A   1      42.360  25.104  25.525  1.00  0.00    -0.246 OA
BRANCH  28  30
ATOM     30  C   UNL A   1      41.317  25.917  27.486  1.00  0.00     0.060 A 
ATOM     31  C   UNL A   1      41.984  27.146  27.543  1.00  0.00     0.016 A 
ATOM     32  C   UNL A   1      40.179  25.685  28.262  1.00  0.00     0.016 A 
ATOM     33  C   UNL A   1      41.586  28.105  28.463  1.00  0.00     0.010 A 
ATOM     34  C   UNL A   1      39.773  26.659  29.178  1.00  0.00     0.010 A 
ATOM     35  C   UNL A   1      40.517  27.841  29.329  1.00  0.00    -0.014 A 
BRANCH  35  36
ATOM     36  C   UNL A   1      40.319  28.731  30.498  1.00  0.00     0.031 A 
ATOM     37  C   UNL A   1      41.219  28.575  31.698  1.00  0.00     0.074 A 
ATOM     38  C   UNL A   1      39.414  29.725  30.447  1.00  0.00     0.049 A 
ATOM     39  N   UNL A   1      41.275  29.291  32.791  1.00  0.00    -0.248 NA
ATOM     40  C   UNL A   1      42.187  27.466  31.659  1.00  0.00     0.031 C 
ATOM     41  C   UNL A   1      38.511  29.985  29.326  1.00  0.00     0.029 A 
ATOM     42  N   UNL A   1      39.118  30.710  31.355  1.00  0.00    -0.354 N 
ATOM     43  C   UNL A   1      42.275  28.716  33.570  1.00  0.00     0.074 A 
ATOM     44  C   UNL A   1      42.768  27.567  32.845  1.00  0.00     0.031 C 
ATOM     45  C   UNL A   1      37.769  31.069  29.608  1.00  0.00     0.029 A 
ATOM     46  C   UNL A   1      38.119  31.556  30.940  1.00  0.00     0.049 A 
ATOM     47  H   UNL A   1      39.578  30.801  32.220  1.00  0.00     0.167 HD
ATOM     48  C   UNL A   1      42.748  29.121  34.772  1.00  0.00     0.037 A 
ATOM     49  C   UNL A   1      37.544  32.598  31.571  1.00  0.00     0.037 A 
ATOM     50  C   UNL A   1      42.244  30.268  35.485  1.00  0.00     0.049 A 
ATOM     51  C   UNL A   1      38.050  32.994  32.933  1.00  0.00     0.074 A 
ATOM     52  C   UNL A   1      42.665  30.777  36.700  1.00  0.00     0.029 A 
ATOM     53  N   UNL A   1      41.202  31.076  35.052  1.00  0.00    -0.354 N 
ATOM     54  N   UNL A   1      39.019  32.464  33.643  1.00  0.00    -0.248 NA
ATOM     55  C   UNL A   1      37.393  34.140  33.575  1.00  0.00     0.031 C 
ATOM     56  C   UNL A   1      41.832  31.850  37.035  1.00  0.00     0.029 A 
ATOM     57  C   UNL A   1      40.945  32.061  35.991  1.00  0.00     0.049 A 
ATOM     58  H   UNL A   1      40.717  30.966  34.202  1.00  0.00     0.167 HD
ATOM     59  C   UNL A   1      39.109  33.233  34.800  1.00  0.00     0.074 A 
ATOM     60  C   UNL A   1      38.109  34.274  34.682  1.00  0.00     0.031 C 
ATOM     61  C   UNL A   1      39.944  33.093  35.860  1.00  0.00     0.037 A 
BRANCH  48  62
ATOM     62  C   UNL A   1      43.843  28.303  35.407  1.00  0.00     0.058 A 
ATOM     63  C   UNL A   1      45.203  28.555  35.159  1.00  0.00     0.135 A 
ATOM     64  C   UNL A   1      43.528  27.274  36.311  1.00  0.00     0.135 A 
ATOM     65  F   UNL A   1      45.568  29.512  34.293  1.00  0.00    -0.206 F 
ATOM     66  C   UNL A   1      46.206  27.798  35.761  1.00  0.00     0.059 A 
ATOM     67  C   UNL A   1      44.514  26.529  36.950  1.00  0.00     0.059 A 
ATOM     68  F   UNL A   1      42.245  26.985  36.586  1.00  0.00    -0.206 F 
ATOM     69  C   UNL A   1      45.851  26.790  36.658  1.00  0.00     0.060 A 
BRANCH  69  70
ATOM     70  S   UNL A   1      47.165  25.830  37.440  1.00  0.00     0.124 S 
ATOM     71  O   UNL A   1      48.087  25.634  36.325  1.00  0.00    -0.237 OA
ATOM     72  O   UNL A   1      47.625  26.731  38.491  1.00  0.00    -0.237 OA
ATOM     73  O   UNL A   1      46.480  24.627  37.903  1.00  0.00    -0.744 OA
ENDBRANCH  69  70
ENDBRANCH  48  62
BRANCH  49  74
ATOM     74  C   UNL A   1      36.427  33.335  30.921  1.00  0.00     0.058 A 
ATOM     75  C   UNL A   1      35.104  33.207  31.370  1.00  0.00     0.135 A 
ATOM     76  C   UNL A   1      36.665  34.189  29.831  1.00  0.00     0.135 A 
ATOM     77  F   UNL A   1      34.822  32.398  32.403  1.00  0.00    -0.206 F 
ATOM     78  C   UNL A   1      34.056  33.880  30.752  1.00  0.00     0.059 A 
ATOM     79  C   UNL A   1      35.637  34.899  29.219  1.00  0.00     0.059 A 
ATOM     80  F   UNL A   1      37.913  34.360  29.368  1.00  0.00    -0.206 F 
ATOM     81  C   UNL A   1      34.334  34.729  29.679  1.00  0.00     0.060 A 
BRANCH  81  82
ATOM     82  S   UNL A   1      32.972  35.635  28.916  1.00  0.00     0.124 S 
ATOM     83  O   UNL A   1      33.683  36.684  28.194  1.00  0.00    -0.237 OA
ATOM     84  O   UNL A   1      32.346  34.605  28.094  1.00  0.00    -0.237 OA
ATOM     85  O   UNL A   1      32.182  36.080  30.061  1.00  0.00    -0.744 OA
ENDBRANCH  81  82
ENDBRANCH  49  74
BRANCH  61  86
ATOM     86  C   UNL A   1      39.846  34.122  36.957  1.00  0.00     0.058 A 
ATOM     87  C   UNL A   1      40.517  35.354  36.890  1.00  0.00     0.135 A 
ATOM     88  C   UNL A   1      39.049  33.877  38.089  1.00  0.00     0.135 A 
ATOM     89  F   UNL A   1      41.294  35.644  35.833  1.00  0.00    -0.206 F 
ATOM     90  C   UNL A   1      40.443  36.281  37.925  1.00  0.00     0.059 A 
ATOM     91  C   UNL A   1      38.928  34.806  39.116  1.00  0.00     0.059 A 
ATOM     92  F   UNL A   1      38.370  32.723  38.201  1.00  0.00    -0.206 F 
ATOM     93  C   UNL A   1      39.648  35.996  39.035  1.00  0.00     0.060 A 
BRANCH  93  94
ATOM     94  S   UNL A   1      39.563  37.206  40.372  1.00  0.00     0.124 S 
ATOM     95  O   UNL A   1      40.777  37.983  40.141  1.00  0.00    -0.237 OA
ATOM     96  O   UNL A   1      38.306  37.893  40.091  1.00  0.00    -0.237 OA
ATOM     97  O   UNL A   1      39.565  36.384  41.578  1.00  0.00    -0.744 OA
ENDBRANCH  93  94
ENDBRANCH  61  86
ENDBRANCH  35  36
ENDBRANCH  28  30
ENDBRANCH  27  28
ENDBRANCH  26  27
ENDBRANCH  25  26
ENDBRANCH  24  25
ENDBRANCH   1  24
TORSDOF 21
ENDMDL
MODEL 3
REMARK VINA RESULT:     -10.6      2.015      3.356
REMARK SMILES C[C@H]1[C@@H](C(=O)OCCOCCOC(=O)c2ccc(-c3c4nc(c(-c5c(F)cc(S(=O)(=O)[O-])cc5F)c5ccc([nH]5)c(-c5c(F)cc(S(=O)(=O)[O-])cc5F)c5nc(c(-c6c(F)cc(S(=O)(=O)[O-])cc6F)c6ccc3[nH]6)C=C5)C=C4)cc2)CCN1S(=O)(=O)Cc1cccc(C#N)c1
REMARK SMILES IDX 8 1 7 2 6 3 4 4 5 5 3 6 1 7 2 8 83 9 81 10 82 11 84 12 85 13
REMARK SMILES IDX 86 14 87 15 88 16 89 17 95 18 90 19 92 20 91 21 93 22 94 23
REMARK SMILES IDX 9 24 10 25 11 26 12 27 13 28 14 29 15 30 16 31 80 32 17 33
REMARK SMILES IDX 79 34 18 35 19 36 20 37 73 38 21 39 78 40 72 41 74 42 22 43
REMARK SMILES IDX 77 44 71 45 70 46 23 48 57 49 36 50 56 51 37 52 40 53 55 54
REMARK SMILES IDX 75 55 38 56 39 57 54 59 76 60 41 61 24 62 25 63 34 64 26 65
REMARK SMILES IDX 27 66 33 67 35 68 28 69 29 70 30 71 31 72 32 73 58 74 59 75
REMARK SMILES IDX 68 76 60 77 61 78 67 79 69 80 62 81 63 82 64 83 65 84 66 85
REMARK SMILES IDX 42 86 43 87 52 88 44 89 45 90 51 91 53 92 46 93 47 94 48 95
REMARK SMILES IDX 49 96 50 97
REMARK H PARENT 74 47 40 58
REMARK Flexibility Score: inf
ROOT
ATOM      1  C   UNL A   1      39.198  21.901  26.462  1.00  0.00     0.202 C 
ENDROOT
BRANCH   1   2
ATOM      2  C   UNL A   1      38.242  21.692  25.281  1.00  0.00     0.261 C 
BRANCH   2   3
ATOM      3  O   UNL A   1      36.873  21.877  25.697  1.00  0.00    -0.463 OA
BRANCH   3   4
ATOM      4  C   UNL A   1      35.968  20.961  25.294  1.00  0.00     0.310 C 
ATOM      5  O   UNL A   1      36.256  19.828  24.926  1.00  0.00    -0.252 OA
BRANCH   4   6
ATOM      6  C   UNL A   1      34.519  21.427  25.402  1.00  0.00     0.118 C 
ATOM      7  C   UNL A   1      34.713  23.052  23.325  1.00  0.00     0.027 C 
ATOM      8  C   UNL A   1      33.843  22.342  24.355  1.00  0.00     0.084 C 
ATOM      9  N   UNL A   1      33.113  23.414  25.122  1.00  0.00    -0.198 NA
ATOM     10  C   UNL A   1      34.295  22.115  26.754  1.00  0.00     0.034 C 
ATOM     11  C   UNL A   1      33.759  23.501  26.457  1.00  0.00     0.103 C 
BRANCH   9  12
ATOM     12  S   UNL A   1      31.418  23.360  25.198  1.00  0.00     0.218 S 
ATOM     13  O   UNL A   1      30.953  23.725  23.874  1.00  0.00    -0.212 OA
ATOM     14  O   UNL A   1      31.050  22.071  25.750  1.00  0.00    -0.212 OA
BRANCH  12  15
ATOM     15  C   UNL A   1      30.904  24.666  26.333  1.00  0.00     0.189 C 
BRANCH  15  16
ATOM     16  C   UNL A   1      31.196  26.060  25.839  1.00  0.00    -0.030 A 
ATOM     17  C   UNL A   1      32.060  26.918  26.535  1.00  0.00     0.005 A 
ATOM     18  C   UNL A   1      30.531  26.564  24.711  1.00  0.00     0.024 A 
ATOM     19  C   UNL A   1      32.279  28.227  26.094  1.00  0.00     0.002 A 
ATOM     20  C   UNL A   1      30.783  27.859  24.239  1.00  0.00     0.052 A 
ATOM     21  C   UNL A   1      31.653  28.694  24.939  1.00  0.00     0.019 A 
BRANCH  20  22
ATOM     22  C   UNL A   1      30.166  28.307  23.027  1.00  0.00     0.099 C 
ATOM     23  N   UNL A   1      29.666  28.705  22.058  1.00  0.00    -0.192 NA
ENDBRANCH  20  22
ENDBRANCH  15  16
ENDBRANCH  12  15
ENDBRANCH   9  12
ENDBRANCH   4   6
ENDBRANCH   3   4
ENDBRANCH   2   3
ENDBRANCH   1   2
BRANCH   1  24
ATOM     24  O   UNL A   1      40.355  22.703  26.207  1.00  0.00    -0.374 OA
BRANCH  24  25
ATOM     25  C   UNL A   1      41.599  22.022  26.072  1.00  0.00     0.202 C 
BRANCH  25  26
ATOM     26  C   UNL A   1      42.835  22.860  25.718  1.00  0.00     0.261 C 
BRANCH  26  27
ATOM     27  O   UNL A   1      42.591  24.266  25.850  1.00  0.00    -0.460 OA
BRANCH  27  28
ATOM     28  C   UNL A   1      43.426  24.877  26.722  1.00  0.00     0.338 C 
ATOM     29  O   UNL A   1      44.641  24.783  26.758  1.00  0.00    -0.246 OA
BRANCH  28  30
ATOM     30  C   UNL A   1      42.680  25.845  27.545  1.00  0.00     0.060 A 
ATOM     31  C   UNL A   1      43.222  27.131  27.640  1.00  0.00     0.016 A 
ATOM     32  C   UNL A   1      41.536  25.497  28.267  1.00  0.00     0.016 A 
ATOM     33  C   UNL A   1      42.695  28.037  28.548  1.00  0.00     0.010 A 
ATOM     34  C   UNL A   1      40.999  26.417  29.172  1.00  0.00     0.010 A 
ATOM     35  C   UNL A   1      41.620  27.663  29.365  1.00  0.00    -0.014 A 
BRANCH  35  36
ATOM     36  C   UNL A   1      41.287  28.516  30.530  1.00  0.00     0.031 A 
ATOM     37  C   UNL A   1      42.145  28.433  31.767  1.00  0.00     0.074 A 
ATOM     38  C   UNL A   1      40.295  29.420  30.446  1.00  0.00     0.049 A 
ATOM     39  N   UNL A   1      42.086  29.137  32.867  1.00  0.00    -0.248 NA
ATOM     40  C   UNL A   1      43.216  27.421  31.763  1.00  0.00     0.031 C 
ATOM     41  C   UNL A   1      39.420  29.606  29.289  1.00  0.00     0.029 A 
ATOM     42  N   UNL A   1      39.867  30.361  31.347  1.00  0.00    -0.354 N 
ATOM     43  C   UNL A   1      43.101  28.652  33.685  1.00  0.00     0.074 A 
ATOM     44  C   UNL A   1      43.732  27.563  32.974  1.00  0.00     0.031 C 
ATOM     45  C   UNL A   1      38.567  30.611  29.545  1.00  0.00     0.029 A 
ATOM     46  C   UNL A   1      38.811  31.114  30.895  1.00  0.00     0.049 A 
ATOM     47  H   UNL A   1      40.278  30.486  32.232  1.00  0.00     0.167 HD
ATOM     48  C   UNL A   1      43.481  29.086  34.910  1.00  0.00     0.037 A 
ATOM     49  C   UNL A   1      38.112  32.088  31.508  1.00  0.00     0.037 A 
ATOM     50  C   UNL A   1      42.840  30.171  35.608  1.00  0.00     0.049 A 
ATOM     51  C   UNL A   1      38.518  32.515  32.893  1.00  0.00     0.074 A 
ATOM     52  C   UNL A   1      43.157  30.704  36.844  1.00  0.00     0.029 A 
ATOM     53  N   UNL A   1      41.745  30.881  35.135  1.00  0.00    -0.354 N 
ATOM     54  N   UNL A   1      39.502  32.072  33.642  1.00  0.00    -0.248 NA
ATOM     55  C   UNL A   1      37.727  33.586  33.514  1.00  0.00     0.031 C 
ATOM     56  C   UNL A   1      42.211  31.689  37.150  1.00  0.00     0.029 A 
ATOM     57  C   UNL A   1      41.354  31.827  36.069  1.00  0.00     0.049 A 
ATOM     58  H   UNL A   1      41.310  30.735  34.265  1.00  0.00     0.167 HD
ATOM     59  C   UNL A   1      39.468  32.832  34.807  1.00  0.00     0.074 A 
ATOM     60  C   UNL A   1      38.379  33.775  34.653  1.00  0.00     0.031 C 
ATOM     61  C   UNL A   1      40.266  32.760  35.902  1.00  0.00     0.037 A 
BRANCH  48  62
ATOM     62  C   UNL A   1      44.621  28.369  35.587  1.00  0.00     0.058 A 
ATOM     63  C   UNL A   1      44.414  27.263  36.429  1.00  0.00     0.135 A 
ATOM     64  C   UNL A   1      45.948  28.770  35.358  1.00  0.00     0.135 A 
ATOM     65  F   UNL A   1      43.168  26.843  36.701  1.00  0.00    -0.206 F 
ATOM     66  C   UNL A   1      45.476  26.603  37.041  1.00  0.00     0.059 A 
ATOM     67  C   UNL A   1      47.027  28.103  35.930  1.00  0.00     0.059 A 
ATOM     68  F   UNL A   1      46.208  29.822  34.564  1.00  0.00    -0.206 F 
ATOM     69  C   UNL A   1      46.780  27.028  36.781  1.00  0.00     0.060 A 
BRANCH  69  70
ATOM     70  S   UNL A   1      48.146  26.151  37.570  1.00  0.00     0.124 S 
ATOM     71  O   UNL A   1      48.037  24.829  36.960  1.00  0.00    -0.237 OA
ATOM     72  O   UNL A   1      49.302  26.943  37.161  1.00  0.00    -0.237 OA
ATOM     73  O   UNL A   1      47.818  26.213  38.991  1.00  0.00    -0.744 OA
ENDBRANCH  69  70
ENDBRANCH  48  62
BRANCH  49  74
ATOM     74  C   UNL A   1      36.959  32.724  30.814  1.00  0.00     0.058 A 
ATOM     75  C   UNL A   1      37.145  33.735  29.860  1.00  0.00     0.135 A 
ATOM     76  C   UNL A   1      35.640  32.328  31.095  1.00  0.00     0.135 A 
ATOM     77  F   UNL A   1      38.384  34.156  29.562  1.00  0.00    -0.206 F 
ATOM     78  C   UNL A   1      36.069  34.345  29.224  1.00  0.00     0.059 A 
ATOM     79  C   UNL A   1      34.551  32.899  30.447  1.00  0.00     0.059 A 
ATOM     80  F   UNL A   1      35.405  31.356  31.989  1.00  0.00    -0.206 F 
ATOM     81  C   UNL A   1      34.774  33.915  29.521  1.00  0.00     0.060 A 
BRANCH  81  82
ATOM     82  S   UNL A   1      33.388  34.679  28.654  1.00  0.00     0.124 S 
ATOM     83  O   UNL A   1      32.457  34.930  29.748  1.00  0.00    -0.237 OA
ATOM     84  O   UNL A   1      34.013  35.858  28.063  1.00  0.00    -0.237 OA
ATOM     85  O   UNL A   1      32.979  33.651  27.701  1.00  0.00    -0.744 OA
ENDBRANCH  81  82
ENDBRANCH  49  74
BRANCH  61  86
ATOM     86  C   UNL A   1      40.022  33.762  37.002  1.00  0.00     0.058 A 
ATOM     87  C   UNL A   1      39.083  33.540  38.022  1.00  0.00     0.135 A 
ATOM     88  C   UNL A   1      40.758  34.959  37.045  1.00  0.00     0.135 A 
ATOM     89  F   UNL A   1      38.349  32.415  38.033  1.00  0.00    -0.206 F 
ATOM     90  C   UNL A   1      38.846  34.488  39.012  1.00  0.00     0.059 A 
ATOM     91  C   UNL A   1      40.567  35.902  38.049  1.00  0.00     0.059 A 
ATOM     92  F   UNL A   1      41.683  35.219  36.106  1.00  0.00    -0.206 F 
ATOM     93  C   UNL A   1      39.592  35.667  39.015  1.00  0.00     0.060 A 
BRANCH  93  94
ATOM     94  S   UNL A   1      39.271  36.890  40.304  1.00  0.00     0.124 S 
ATOM     95  O   UNL A   1      38.517  36.102  41.274  1.00  0.00    -0.237 OA
ATOM     96  O   UNL A   1      40.620  37.275  40.709  1.00  0.00    -0.237 OA
ATOM     97  O   UNL A   1      38.512  37.926  39.611  1.00  0.00    -0.744 OA
ENDBRANCH  93  94
ENDBRANCH  61  86
ENDBRANCH  35  36
ENDBRANCH  28  30
ENDBRANCH  27  28
ENDBRANCH  26  27
ENDBRANCH  25  26
ENDBRANCH  24  25
ENDBRANCH   1  24
TORSDOF 21
ENDMDL
