MODEL 1
REMARK VINA RESULT:     -10.8      0.000      0.000
REMARK SMILES O=C(OCCOCCOC(=O)c1cc(-c2ccn(C(F)F)c(=O)c2)ccc1O)c1ccc(-c2c3nc(c(-c4c(F)cc(S(=O)(=O)[O-])cc4F)c4ccc([nH]4)c(-c4c(F)cc(S(=O)(=O)[O-])cc4F)c4nc(c(-c5c(F)cc(S(=O)(=O)[O-])cc5F)c5ccc2[nH]5)C=C4)C=C3)cc1
REMARK SMILES IDX 5 1 4 2 3 3 2 4 1 5 29 6 30 7 94 8 31 9 93 10 32 11 33 12
REMARK SMILES IDX 34 13 87 14 35 15 92 16 86 17 88 18 36 19 91 20 85 21 84 22
REMARK SMILES IDX 37 24 71 25 50 26 70 27 51 28 54 29 69 30 89 31 52 32 53 33
REMARK SMILES IDX 68 35 90 36 55 37 38 38 39 39 48 40 40 41 41 42 47 43 49 44
REMARK SMILES IDX 42 45 43 46 44 47 45 48 46 49 72 50 73 51 82 52 74 53 75 54
REMARK SMILES IDX 81 55 83 56 76 57 77 58 78 59 79 60 80 61 56 62 57 63 66 64
REMARK SMILES IDX 58 65 59 66 65 67 67 68 60 69 61 70 62 71 63 72 64 73 6 74
REMARK SMILES IDX 7 75 8 76 9 77 10 78 11 79 12 80 13 81 27 82 14 83 26 84
REMARK SMILES IDX 25 85 28 86 15 88 16 89 24 90 17 91 22 92 18 93 23 94 19 95
REMARK SMILES IDX 20 96 21 97
REMARK H PARENT 88 23 54 34 28 87
REMARK Flexibility Score: inf
ROOT
ATOM      1  C   UNL A   1      33.231  28.399  24.155  1.00  0.00     0.202 C 
ENDROOT
BRANCH   1   2
ATOM      2  C   UNL A   1      33.169  29.394  25.316  1.00  0.00     0.261 C 
BRANCH   2   3
ATOM      3  O   UNL A   1      34.246  29.185  26.241  1.00  0.00    -0.460 OA
BRANCH   3   4
ATOM      4  C   UNL A   1      34.689  29.970  27.248  1.00  0.00     0.338 C 
ATOM      5  O   UNL A   1      33.986  30.937  27.551  1.00  0.00    -0.246 OA
BRANCH   4   6
ATOM      6  C   UNL A   1      35.981  29.793  27.999  1.00  0.00     0.060 A 
ATOM      7  C   UNL A   1      37.162  30.005  27.257  1.00  0.00     0.016 A 
ATOM      8  C   UNL A   1      36.128  29.367  29.320  1.00  0.00     0.016 A 
ATOM      9  C   UNL A   1      38.425  29.751  27.802  1.00  0.00     0.010 A 
ATOM     10  C   UNL A   1      37.378  29.094  29.867  1.00  0.00     0.010 A 
ATOM     11  C   UNL A   1      38.530  29.273  29.107  1.00  0.00    -0.014 A 
BRANCH  11  12
ATOM     12  C   UNL A   1      39.825  29.048  29.767  1.00  0.00     0.031 A 
ATOM     13  C   UNL A   1      40.699  27.904  29.364  1.00  0.00     0.074 A 
ATOM     14  C   UNL A   1      40.109  29.816  30.830  1.00  0.00     0.049 A 
ATOM     15  N   UNL A   1      41.855  27.541  29.854  1.00  0.00    -0.248 NA
ATOM     16  C   UNL A   1      40.202  27.042  28.281  1.00  0.00     0.031 C 
ATOM     17  C   UNL A   1      39.256  30.900  31.328  1.00  0.00     0.029 A 
ATOM     18  N   UNL A   1      41.162  29.788  31.698  1.00  0.00    -0.354 N 
ATOM     19  C   UNL A   1      42.247  26.432  29.116  1.00  0.00     0.074 A 
ATOM     20  C   UNL A   1      41.172  26.139  28.191  1.00  0.00     0.031 C 
ATOM     21  C   UNL A   1      39.825  31.435  32.417  1.00  0.00     0.029 A 
ATOM     22  C   UNL A   1      41.071  30.729  32.692  1.00  0.00     0.049 A 
ATOM     23  H   UNL A   1      41.912  29.155  31.619  1.00  0.00     0.167 HD
ATOM     24  C   UNL A   1      43.411  25.743  29.198  1.00  0.00     0.037 A 
ATOM     25  C   UNL A   1      41.915  30.999  33.702  1.00  0.00     0.037 A 
ATOM     26  C   UNL A   1      44.428  26.027  30.182  1.00  0.00     0.049 A 
ATOM     27  C   UNL A   1      43.185  30.209  33.795  1.00  0.00     0.074 A 
ATOM     28  C   UNL A   1      45.659  25.421  30.359  1.00  0.00     0.029 A 
ATOM     29  N   UNL A   1      44.317  26.995  31.175  1.00  0.00    -0.354 N 
ATOM     30  N   UNL A   1      43.592  29.215  33.039  1.00  0.00    -0.248 NA
ATOM     31  C   UNL A   1      44.117  30.587  34.858  1.00  0.00     0.031 C 
ATOM     32  C   UNL A   1      46.271  25.994  31.483  1.00  0.00     0.029 A 
ATOM     33  C   UNL A   1      45.444  26.990  31.980  1.00  0.00     0.049 A 
ATOM     34  H   UNL A   1      43.546  27.597  31.290  1.00  0.00     0.167 HD
ATOM     35  C   UNL A   1      44.841  28.855  33.525  1.00  0.00     0.074 A 
ATOM     36  C   UNL A   1      45.125  29.756  34.629  1.00  0.00     0.031 C 
ATOM     37  C   UNL A   1      45.678  27.875  33.099  1.00  0.00     0.037 A 
BRANCH  24  38
ATOM     38  C   UNL A   1      43.636  24.639  28.195  1.00  0.00     0.058 A 
ATOM     39  C   UNL A   1      44.407  24.852  27.039  1.00  0.00     0.135 A 
ATOM     40  C   UNL A   1      43.094  23.357  28.381  1.00  0.00     0.135 A 
ATOM     41  F   UNL A   1      44.948  26.059  26.799  1.00  0.00    -0.206 F 
ATOM     42  C   UNL A   1      44.596  23.854  26.088  1.00  0.00     0.059 A 
ATOM     43  C   UNL A   1      43.294  22.333  27.456  1.00  0.00     0.059 A 
ATOM     44  F   UNL A   1      42.352  23.087  29.467  1.00  0.00    -0.206 F 
ATOM     45  C   UNL A   1      44.031  22.597  26.303  1.00  0.00     0.060 A 
BRANCH  45  46
ATOM     46  S   UNL A   1      44.270  21.322  25.046  1.00  0.00     0.124 S 
ATOM     47  O   UNL A   1      43.157  20.421  25.327  1.00  0.00    -0.237 OA
ATOM     48  O   UNL A   1      44.170  22.084  23.805  1.00  0.00    -0.237 OA
ATOM     49  O   UNL A   1      45.596  20.791  25.345  1.00  0.00    -0.744 OA
ENDBRANCH  45  46
ENDBRANCH  24  38
BRANCH  25  50
ATOM     50  C   UNL A   1      41.610  32.140  34.600  1.00  0.00     0.058 A 
ATOM     51  C   UNL A   1      41.979  33.440  34.230  1.00  0.00     0.135 A 
ATOM     52  C   UNL A   1      40.828  31.980  35.754  1.00  0.00     0.135 A 
ATOM     53  F   UNL A   1      42.720  33.639  33.130  1.00  0.00    -0.206 F 
ATOM     54  C   UNL A   1      41.569  34.547  34.962  1.00  0.00     0.059 A 
ATOM     55  C   UNL A   1      40.390  33.074  36.494  1.00  0.00     0.059 A 
ATOM     56  F   UNL A   1      40.426  30.755  36.131  1.00  0.00    -0.206 F 
ATOM     57  C   UNL A   1      40.761  34.355  36.084  1.00  0.00     0.060 A 
BRANCH  57  58
ATOM     58  S   UNL A   1      40.142  35.814  36.951  1.00  0.00     0.124 S 
ATOM     59  O   UNL A   1      41.344  36.289  37.625  1.00  0.00    -0.237 OA
ATOM     60  O   UNL A   1      39.658  36.638  35.849  1.00  0.00    -0.237 OA
ATOM     61  O   UNL A   1      39.103  35.273  37.823  1.00  0.00    -0.744 OA
ENDBRANCH  57  58
ENDBRANCH  25  50
BRANCH  37  62
ATOM     62  C   UNL A   1      46.970  27.731  33.853  1.00  0.00     0.058 A 
ATOM     63  C   UNL A   1      48.121  28.439  33.472  1.00  0.00     0.135 A 
ATOM     64  C   UNL A   1      47.060  26.877  34.962  1.00  0.00     0.135 A 
ATOM     65  F   UNL A   1      48.089  29.263  32.412  1.00  0.00    -0.206 F 
ATOM     66  C   UNL A   1      49.330  28.270  34.138  1.00  0.00     0.059 A 
ATOM     67  C   UNL A   1      48.251  26.715  35.662  1.00  0.00     0.059 A 
ATOM     68  F   UNL A   1      45.985  26.185  35.375  1.00  0.00    -0.206 F 
ATOM     69  C   UNL A   1      49.386  27.401  35.229  1.00  0.00     0.060 A 
BRANCH  69  70
ATOM     70  S   UNL A   1      50.964  27.182  36.075  1.00  0.00     0.124 S 
ATOM     71  O   UNL A   1      50.687  26.021  36.915  1.00  0.00    -0.237 OA
ATOM     72  O   UNL A   1      51.884  26.957  34.964  1.00  0.00    -0.237 OA
ATOM     73  O   UNL A   1      51.147  28.442  36.788  1.00  0.00    -0.744 OA
ENDBRANCH  69  70
ENDBRANCH  37  62
ENDBRANCH  11  12
ENDBRANCH   4   6
ENDBRANCH   3   4
ENDBRANCH   2   3
ENDBRANCH   1   2
BRANCH   1  74
ATOM     74  O   UNL A   1      32.601  27.152  24.440  1.00  0.00    -0.374 OA
BRANCH  74  75
ATOM     75  C   UNL A   1      31.398  27.237  25.212  1.00  0.00     0.202 C 
BRANCH  75  76
ATOM     76  C   UNL A   1      31.534  26.429  26.501  1.00  0.00     0.261 C 
BRANCH  76  77
ATOM     77  O   UNL A   1      30.760  25.228  26.375  1.00  0.00    -0.460 OA
BRANCH  77  78
ATOM     78  C   UNL A   1      31.397  24.070  26.675  1.00  0.00     0.342 C 
ATOM     79  O   UNL A   1      31.178  23.316  27.609  1.00  0.00    -0.246 OA
BRANCH  78  80
ATOM     80  C   UNL A   1      32.250  23.703  25.527  1.00  0.00     0.102 A 
ATOM     81  C   UNL A   1      33.616  23.494  25.783  1.00  0.00     0.028 A 
ATOM     82  C   UNL A   1      31.734  23.483  24.246  1.00  0.00     0.130 A 
ATOM     83  C   UNL A   1      34.448  23.005  24.775  1.00  0.00    -0.017 A 
ATOM     84  C   UNL A   1      32.569  23.026  23.229  1.00  0.00     0.048 A 
ATOM     85  C   UNL A   1      33.918  22.778  23.498  1.00  0.00     0.012 A 
BRANCH  82  86
ATOM     86  O   UNL A   1      30.420  23.733  23.975  1.00  0.00    -0.507 OA
ATOM     87  H   UNL A   1      29.798  23.779  24.675  1.00  0.00     0.293 HD
ENDBRANCH  82  86
BRANCH  83  88
ATOM     88  C   UNL A   1      35.874  22.733  25.019  1.00  0.00    -0.011 A 
ATOM     89  C   UNL A   1      36.461  21.430  24.787  1.00  0.00     0.027 A 
ATOM     90  C   UNL A   1      36.628  23.709  25.554  1.00  0.00     0.080 A 
ATOM     91  C   UNL A   1      37.716  21.173  25.171  1.00  0.00     0.095 A 
ATOM     92  C   UNL A   1      38.035  23.442  25.973  1.00  0.00     0.255 A 
ATOM     93  N   UNL A   1      38.491  22.149  25.772  1.00  0.00    -0.258 N 
ATOM     94  O   UNL A   1      38.673  24.353  26.491  1.00  0.00    -0.269 OA
BRANCH  93  95
ATOM     95  C   UNL A   1      39.809  21.835  26.259  1.00  0.00     0.451 C 
ATOM     96  F   UNL A   1      39.928  22.086  27.584  1.00  0.00    -0.185 F 
ATOM     97  F   UNL A   1      40.096  20.525  26.052  1.00  0.00    -0.185 F 
ENDBRANCH  93  95
ENDBRANCH  83  88
ENDBRANCH  78  80
ENDBRANCH  77  78
ENDBRANCH  76  77
ENDBRANCH  75  76
ENDBRANCH  74  75
ENDBRANCH   1  74
TORSDOF 20
ENDMDL
MODEL 2
REMARK VINA RESULT:     -10.7      0.842      8.248
REMARK SMILES O=C(OCCOCCOC(=O)c1cc(-c2ccn(C(F)F)c(=O)c2)ccc1O)c1ccc(-c2c3nc(c(-c4c(F)cc(S(=O)(=O)[O-])cc4F)c4ccc([nH]4)c(-c4c(F)cc(S(=O)(=O)[O-])cc4F)c4nc(c(-c5c(F)cc(S(=O)(=O)[O-])cc5F)c5ccc2[nH]5)C=C4)C=C3)cc1
REMARK SMILES IDX 5 1 4 2 3 3 2 4 1 5 29 6 30 7 94 8 31 9 93 10 32 11 33 12
REMARK SMILES IDX 34 13 87 14 35 15 92 16 86 17 88 18 36 19 91 20 85 21 84 22
REMARK SMILES IDX 37 24 71 25 50 26 70 27 51 28 54 29 69 30 89 31 52 32 53 33
REMARK SMILES IDX 68 35 90 36 55 37 38 38 39 39 48 40 40 41 41 42 47 43 49 44
REMARK SMILES IDX 42 45 43 46 44 47 45 48 46 49 72 50 73 51 82 52 74 53 75 54
REMARK SMILES IDX 81 55 83 56 76 57 77 58 78 59 79 60 80 61 56 62 57 63 66 64
REMARK SMILES IDX 58 65 59 66 65 67 67 68 60 69 61 70 62 71 63 72 64 73 6 74
REMARK SMILES IDX 7 75 8 76 9 77 10 78 11 79 12 80 13 81 27 82 14 83 26 84
REMARK SMILES IDX 25 85 28 86 15 88 16 89 24 90 17 91 22 92 18 93 23 94 19 95
REMARK SMILES IDX 20 96 21 97
REMARK H PARENT 88 23 54 34 28 87
REMARK Flexibility Score: inf
ROOT
ATOM      1  C   UNL A   1      31.723  28.756  27.474  1.00  0.00     0.202 C 
ENDROOT
BRANCH   1   2
ATOM      2  C   UNL A   1      32.225  29.439  26.200  1.00  0.00     0.261 C 
BRANCH   2   3
ATOM      3  O   UNL A   1      33.628  29.729  26.281  1.00  0.00    -0.460 OA
BRANCH   3   4
ATOM      4  C   UNL A   1      34.316  30.429  27.211  1.00  0.00     0.338 C 
ATOM      5  O   UNL A   1      33.849  31.520  27.545  1.00  0.00    -0.246 OA
BRANCH   4   6
ATOM      6  C   UNL A   1      35.620  30.014  27.836  1.00  0.00     0.060 A 
ATOM      7  C   UNL A   1      35.557  29.594  29.181  1.00  0.00     0.016 A 
ATOM      8  C   UNL A   1      36.886  30.078  27.248  1.00  0.00     0.016 A 
ATOM      9  C   UNL A   1      36.713  29.303  29.914  1.00  0.00     0.010 A 
ATOM     10  C   UNL A   1      38.044  29.809  27.973  1.00  0.00     0.010 A 
ATOM     11  C   UNL A   1      37.963  29.433  29.309  1.00  0.00    -0.014 A 
BRANCH  11  12
ATOM     12  C   UNL A   1      39.214  29.080  29.996  1.00  0.00     0.031 A 
ATOM     13  C   UNL A   1      39.695  29.877  31.167  1.00  0.00     0.074 A 
ATOM     14  C   UNL A   1      39.967  28.119  29.438  1.00  0.00     0.049 A 
ATOM     15  N   UNL A   1      40.784  29.726  31.872  1.00  0.00    -0.248 NA
ATOM     16  C   UNL A   1      38.850  31.005  31.590  1.00  0.00     0.031 C 
ATOM     17  C   UNL A   1      39.593  27.356  28.243  1.00  0.00     0.029 A 
ATOM     18  N   UNL A   1      41.202  27.643  29.772  1.00  0.00    -0.354 N 
ATOM     19  C   UNL A   1      40.742  30.712  32.849  1.00  0.00     0.074 A 
ATOM     20  C   UNL A   1      39.552  31.501  32.601  1.00  0.00     0.031 C 
ATOM     21  C   UNL A   1      40.583  26.504  27.945  1.00  0.00     0.029 A 
ATOM     22  C   UNL A   1      41.654  26.667  28.921  1.00  0.00     0.049 A 
ATOM     23  H   UNL A   1      41.716  27.967  30.545  1.00  0.00     0.167 HD
ATOM     24  C   UNL A   1      41.611  30.917  33.868  1.00  0.00     0.037 A 
ATOM     25  C   UNL A   1      42.804  25.970  28.943  1.00  0.00     0.037 A 
ATOM     26  C   UNL A   1      42.822  30.150  34.038  1.00  0.00     0.049 A 
ATOM     27  C   UNL A   1      43.767  26.229  30.060  1.00  0.00     0.074 A 
ATOM     28  C   UNL A   1      43.775  30.240  35.036  1.00  0.00     0.029 A 
ATOM     29  N   UNL A   1      43.255  29.157  33.165  1.00  0.00    -0.354 N 
ATOM     30  N   UNL A   1      43.682  27.106  31.034  1.00  0.00    -0.248 NA
ATOM     31  C   UNL A   1      44.970  25.394  30.097  1.00  0.00     0.031 C 
ATOM     32  C   UNL A   1      44.803  29.333  34.744  1.00  0.00     0.029 A 
ATOM     33  C   UNL A   1      44.469  28.641  33.589  1.00  0.00     0.049 A 
ATOM     34  H   UNL A   1      42.769  28.862  32.361  1.00  0.00     0.167 HD
ATOM     35  C   UNL A   1      44.814  26.920  31.814  1.00  0.00     0.074 A 
ATOM     36  C   UNL A   1      45.556  25.830  31.204  1.00  0.00     0.031 C 
ATOM     37  C   UNL A   1      45.204  27.582  32.933  1.00  0.00     0.037 A 
BRANCH  24  38
ATOM     38  C   UNL A   1      41.270  31.996  34.865  1.00  0.00     0.058 A 
ATOM     39  C   UNL A   1      40.425  31.736  35.958  1.00  0.00     0.135 A 
ATOM     40  C   UNL A   1      41.789  33.296  34.746  1.00  0.00     0.135 A 
ATOM     41  F   UNL A   1      39.890  30.515  36.125  1.00  0.00    -0.206 F 
ATOM     42  C   UNL A   1      40.074  32.730  36.868  1.00  0.00     0.059 A 
ATOM     43  C   UNL A   1      41.475  34.299  35.662  1.00  0.00     0.059 A 
ATOM     44  F   UNL A   1      42.606  33.607  33.728  1.00  0.00    -0.206 F 
ATOM     45  C   UNL A   1      40.601  34.011  36.709  1.00  0.00     0.060 A 
BRANCH  45  46
ATOM     46  S   UNL A   1      40.116  35.291  37.888  1.00  0.00     0.124 S 
ATOM     47  O   UNL A   1      39.979  36.455  37.018  1.00  0.00    -0.237 OA
ATOM     48  O   UNL A   1      38.870  34.758  38.432  1.00  0.00    -0.237 OA
ATOM     49  O   UNL A   1      41.235  35.336  38.824  1.00  0.00    -0.744 OA
ENDBRANCH  45  46
ENDBRANCH  24  38
BRANCH  25  50
ATOM     50  C   UNL A   1      43.008  24.902  27.935  1.00  0.00     0.058 A 
ATOM     51  C   UNL A   1      43.653  25.194  26.725  1.00  0.00     0.135 A 
ATOM     52  C   UNL A   1      42.702  23.560  28.211  1.00  0.00     0.135 A 
ATOM     53  F   UNL A   1      43.970  26.462  26.425  1.00  0.00    -0.206 F 
ATOM     54  C   UNL A   1      44.006  24.193  25.830  1.00  0.00     0.059 A 
ATOM     55  C   UNL A   1      43.062  22.537  27.338  1.00  0.00     0.059 A 
ATOM     56  F   UNL A   1      42.111  23.229  29.370  1.00  0.00    -0.206 F 
ATOM     57  C   UNL A   1      43.721  22.864  26.153  1.00  0.00     0.060 A 
BRANCH  57  58
ATOM     58  S   UNL A   1      44.295  21.570  25.032  1.00  0.00     0.124 S 
ATOM     59  O   UNL A   1      43.355  20.493  25.318  1.00  0.00    -0.237 OA
ATOM     60  O   UNL A   1      44.154  22.213  23.730  1.00  0.00    -0.237 OA
ATOM     61  O   UNL A   1      45.670  21.336  25.462  1.00  0.00    -0.744 OA
ENDBRANCH  57  58
ENDBRANCH  25  50
BRANCH  37  62
ATOM     62  C   UNL A   1      46.504  27.143  33.546  1.00  0.00     0.058 A 
ATOM     63  C   UNL A   1      46.550  26.123  34.510  1.00  0.00     0.135 A 
ATOM     64  C   UNL A   1      47.713  27.748  33.169  1.00  0.00     0.135 A 
ATOM     65  F   UNL A   1      45.420  25.519  34.910  1.00  0.00    -0.206 F 
ATOM     66  C   UNL A   1      47.746  25.750  35.113  1.00  0.00     0.059 A 
ATOM     67  C   UNL A   1      48.925  27.369  33.738  1.00  0.00     0.059 A 
ATOM     68  F   UNL A   1      47.725  28.720  32.243  1.00  0.00    -0.206 F 
ATOM     69  C   UNL A   1      48.927  26.382  34.724  1.00  0.00     0.060 A 
BRANCH  69  70
ATOM     70  S   UNL A   1      50.469  25.896  35.525  1.00  0.00     0.124 S 
ATOM     71  O   UNL A   1      49.976  25.212  36.716  1.00  0.00    -0.237 OA
ATOM     72  O   UNL A   1      51.089  25.044  34.515  1.00  0.00    -0.237 OA
ATOM     73  O   UNL A   1      51.143  27.168  35.765  1.00  0.00    -0.744 OA
ENDBRANCH  69  70
ENDBRANCH  37  62
ENDBRANCH  11  12
ENDBRANCH   4   6
ENDBRANCH   3   4
ENDBRANCH   2   3
ENDBRANCH   1   2
BRANCH   1  74
ATOM     74  O   UNL A   1      31.552  27.348  27.335  1.00  0.00    -0.374 OA
BRANCH  74  75
ATOM     75  C   UNL A   1      31.167  26.904  26.030  1.00  0.00     0.202 C 
BRANCH  75  76
ATOM     76  C   UNL A   1      30.316  25.639  26.126  1.00  0.00     0.261 C 
BRANCH  76  77
ATOM     77  O   UNL A   1      31.111  24.593  26.702  1.00  0.00    -0.460 OA
BRANCH  77  78
ATOM     78  C   UNL A   1      31.037  23.382  26.098  1.00  0.00     0.342 C 
ATOM     79  O   UNL A   1      30.180  22.525  26.242  1.00  0.00    -0.246 OA
BRANCH  78  80
ATOM     80  C   UNL A   1      32.032  23.350  25.008  1.00  0.00     0.102 A 
ATOM     81  C   UNL A   1      33.374  23.144  25.370  1.00  0.00     0.028 A 
ATOM     82  C   UNL A   1      31.674  23.434  23.659  1.00  0.00     0.130 A 
ATOM     83  C   UNL A   1      34.343  22.959  24.383  1.00  0.00    -0.017 A 
ATOM     84  C   UNL A   1      32.643  23.282  22.671  1.00  0.00     0.048 A 
ATOM     85  C   UNL A   1      33.970  23.034  23.033  1.00  0.00     0.012 A 
BRANCH  82  86
ATOM     86  O   UNL A   1      30.381  23.686  23.299  1.00  0.00    -0.507 OA
ATOM     87  H   UNL A   1      30.023  23.287  22.531  1.00  0.00     0.293 HD
ENDBRANCH  82  86
BRANCH  83  88
ATOM     88  C   UNL A   1      35.750  22.697  24.724  1.00  0.00    -0.011 A 
ATOM     89  C   UNL A   1      36.338  21.379  24.615  1.00  0.00     0.027 A 
ATOM     90  C   UNL A   1      36.482  23.704  25.234  1.00  0.00     0.080 A 
ATOM     91  C   UNL A   1      37.567  21.144  25.086  1.00  0.00     0.095 A 
ATOM     92  C   UNL A   1      37.860  23.461  25.749  1.00  0.00     0.255 A 
ATOM     93  N   UNL A   1      38.316  22.154  25.663  1.00  0.00    -0.258 N 
ATOM     94  O   UNL A   1      38.475  24.401  26.239  1.00  0.00    -0.269 OA
BRANCH  93  95
ATOM     95  C   UNL A   1      39.602  21.869  26.244  1.00  0.00     0.451 C 
ATOM     96  F   UNL A   1      39.653  22.223  27.549  1.00  0.00    -0.185 F 
ATOM     97  F   UNL A   1      39.883  20.544  26.156  1.00  0.00    -0.185 F 
ENDBRANCH  93  95
ENDBRANCH  83  88
ENDBRANCH  78  80
ENDBRANCH  77  78
ENDBRANCH  76  77
ENDBRANCH  75  76
ENDBRANCH  74  75
ENDBRANCH   1  74
TORSDOF 20
ENDMDL
MODEL 3
REMARK VINA RESULT:     -10.6      3.645      8.960
REMARK SMILES O=C(OCCOCCOC(=O)c1cc(-c2ccn(C(F)F)c(=O)c2)ccc1O)c1ccc(-c2c3nc(c(-c4c(F)cc(S(=O)(=O)[O-])cc4F)c4ccc([nH]4)c(-c4c(F)cc(S(=O)(=O)[O-])cc4F)c4nc(c(-c5c(F)cc(S(=O)(=O)[O-])cc5F)c5ccc2[nH]5)C=C4)C=C3)cc1
REMARK SMILES IDX 5 1 4 2 3 3 2 4 1 5 29 6 30 7 94 8 31 9 93 10 32 11 33 12
REMARK SMILES IDX 34 13 87 14 35 15 92 16 86 17 88 18 36 19 91 20 85 21 84 22
REMARK SMILES IDX 37 24 71 25 50 26 70 27 51 28 54 29 69 30 89 31 52 32 53 33
REMARK SMILES IDX 68 35 90 36 55 37 38 38 39 39 48 40 40 41 41 42 47 43 49 44
REMARK SMILES IDX 42 45 43 46 44 47 45 48 46 49 72 50 73 51 82 52 74 53 75 54
REMARK SMILES IDX 81 55 83 56 76 57 77 58 78 59 79 60 80 61 56 62 57 63 66 64
REMARK SMILES IDX 58 65 59 66 65 67 67 68 60 69 61 70 62 71 63 72 64 73 6 74
REMARK SMILES IDX 7 75 8 76 9 77 10 78 11 79 12 80 13 81 27 82 14 83 26 84
REMARK SMILES IDX 25 85 28 86 15 88 16 89 24 90 17 91 22 92 18 93 23 94 19 95
REMARK SMILES IDX 20 96 21 97
REMARK H PARENT 88 23 54 34 28 87
REMARK Flexibility Score: inf
ROOT
ATOM      1  C   UNL A   1      41.278  21.537  26.511  1.00  0.00     0.202 C 
ENDROOT
BRANCH   1   2
ATOM      2  C   UNL A   1      41.522  22.898  27.166  1.00  0.00     0.261 C 
BRANCH   2   3
ATOM      3  O   UNL A   1      41.932  23.876  26.198  1.00  0.00    -0.460 OA
BRANCH   3   4
ATOM      4  C   UNL A   1      41.661  25.199  26.134  1.00  0.00     0.338 C 
ATOM      5  O   UNL A   1      41.465  25.674  25.013  1.00  0.00    -0.246 OA
BRANCH   4   6
ATOM      6  C   UNL A   1      41.622  26.146  27.303  1.00  0.00     0.060 A 
ATOM      7  C   UNL A   1      40.536  25.991  28.191  1.00  0.00     0.016 A 
ATOM      8  C   UNL A   1      42.499  27.203  27.550  1.00  0.00     0.016 A 
ATOM      9  C   UNL A   1      40.316  26.886  29.243  1.00  0.00     0.010 A 
ATOM     10  C   UNL A   1      42.280  28.111  28.583  1.00  0.00     0.010 A 
ATOM     11  C   UNL A   1      41.183  27.962  29.425  1.00  0.00    -0.014 A 
BRANCH  11  12
ATOM     12  C   UNL A   1      41.052  28.902  30.549  1.00  0.00     0.031 A 
ATOM     13  C   UNL A   1      41.905  28.759  31.768  1.00  0.00     0.074 A 
ATOM     14  C   UNL A   1      40.044  29.786  30.491  1.00  0.00     0.049 A 
ATOM     15  N   UNL A   1      41.906  29.476  32.860  1.00  0.00    -0.248 NA
ATOM     16  C   UNL A   1      42.874  27.651  31.771  1.00  0.00     0.031 C 
ATOM     17  C   UNL A   1      39.120  29.924  29.361  1.00  0.00     0.029 A 
ATOM     18  N   UNL A   1      39.607  30.705  31.400  1.00  0.00    -0.354 N 
ATOM     19  C   UNL A   1      42.898  28.937  33.668  1.00  0.00     0.074 A 
ATOM     20  C   UNL A   1      43.431  27.786  32.968  1.00  0.00     0.031 C 
ATOM     21  C   UNL A   1      38.222  30.876  29.647  1.00  0.00     0.029 A 
ATOM     22  C   UNL A   1      38.507  31.407  30.976  1.00  0.00     0.049 A 
ATOM     23  H   UNL A   1      40.037  30.850  32.273  1.00  0.00     0.167 HD
ATOM     24  C   UNL A   1      43.331  29.383  34.872  1.00  0.00     0.037 A 
ATOM     25  C   UNL A   1      37.819  32.384  31.590  1.00  0.00     0.037 A 
ATOM     26  C   UNL A   1      42.724  30.494  35.565  1.00  0.00     0.049 A 
ATOM     27  C   UNL A   1      38.293  32.847  32.934  1.00  0.00     0.074 A 
ATOM     28  C   UNL A   1      43.078  31.060  36.777  1.00  0.00     0.029 A 
ATOM     29  N   UNL A   1      41.614  31.197  35.109  1.00  0.00    -0.354 N 
ATOM     30  N   UNL A   1      39.289  32.389  33.657  1.00  0.00    -0.248 NA
ATOM     31  C   UNL A   1      37.569  33.969  33.536  1.00  0.00     0.031 C 
ATOM     32  C   UNL A   1      42.157  32.076  37.071  1.00  0.00     0.029 A 
ATOM     33  C   UNL A   1      41.257  32.177  36.021  1.00  0.00     0.049 A 
ATOM     34  H   UNL A   1      41.148  31.024  34.258  1.00  0.00     0.167 HD
ATOM     35  C   UNL A   1      39.325  33.178  34.798  1.00  0.00     0.074 A 
ATOM     36  C   UNL A   1      38.258  34.154  34.654  1.00  0.00     0.031 C 
ATOM     37  C   UNL A   1      40.161  33.107  35.865  1.00  0.00     0.037 A 
BRANCH  24  38
ATOM     38  C   UNL A   1      44.510  28.676  35.491  1.00  0.00     0.058 A 
ATOM     39  C   UNL A   1      44.329  27.603  36.382  1.00  0.00     0.135 A 
ATOM     40  C   UNL A   1      45.830  29.053  35.196  1.00  0.00     0.135 A 
ATOM     41  F   UNL A   1      43.091  27.198  36.711  1.00  0.00    -0.206 F 
ATOM     42  C   UNL A   1      45.406  26.962  36.988  1.00  0.00     0.059 A 
ATOM     43  C   UNL A   1      46.925  28.407  35.768  1.00  0.00     0.059 A 
ATOM     44  F   UNL A   1      46.070  30.067  34.349  1.00  0.00    -0.206 F 
ATOM     45  C   UNL A   1      46.702  27.374  36.678  1.00  0.00     0.060 A 
BRANCH  45  46
ATOM     46  S   UNL A   1      48.085  26.543  37.490  1.00  0.00     0.124 S 
ATOM     47  O   UNL A   1      47.506  25.239  37.794  1.00  0.00    -0.237 OA
ATOM     48  O   UNL A   1      49.110  26.554  36.451  1.00  0.00    -0.237 OA
ATOM     49  O   UNL A   1      48.362  27.390  38.646  1.00  0.00    -0.744 OA
ENDBRANCH  45  46
ENDBRANCH  24  38
BRANCH  25  50
ATOM     50  C   UNL A   1      36.703  33.036  30.862  1.00  0.00     0.058 A 
ATOM     51  C   UNL A   1      35.379  32.803  31.257  1.00  0.00     0.135 A 
ATOM     52  C   UNL A   1      36.935  34.001  29.870  1.00  0.00     0.135 A 
ATOM     53  F   UNL A   1      35.113  31.894  32.207  1.00  0.00    -0.206 F 
ATOM     54  C   UNL A   1      34.322  33.517  30.708  1.00  0.00     0.059 A 
ATOM     55  C   UNL A   1      35.894  34.742  29.318  1.00  0.00     0.059 A 
ATOM     56  F   UNL A   1      38.189  34.279  29.481  1.00  0.00    -0.206 F 
ATOM     57  C   UNL A   1      34.590  34.496  29.751  1.00  0.00     0.060 A 
BRANCH  57  58
ATOM     58  S   UNL A   1      33.215  35.494  29.138  1.00  0.00     0.124 S 
ATOM     59  O   UNL A   1      32.456  34.512  28.373  1.00  0.00    -0.237 OA
ATOM     60  O   UNL A   1      32.599  35.953  30.379  1.00  0.00    -0.237 OA
ATOM     61  O   UNL A   1      33.874  36.532  28.352  1.00  0.00    -0.744 OA
ENDBRANCH  57  58
ENDBRANCH  25  50
BRANCH  37  62
ATOM     62  C   UNL A   1      39.929  34.112  36.958  1.00  0.00     0.058 A 
ATOM     63  C   UNL A   1      39.203  33.782  38.114  1.00  0.00     0.135 A 
ATOM     64  C   UNL A   1      40.434  35.417  36.849  1.00  0.00     0.135 A 
ATOM     65  F   UNL A   1      38.692  32.549  38.262  1.00  0.00    -0.206 F 
ATOM     66  C   UNL A   1      38.946  34.724  39.103  1.00  0.00     0.059 A 
ATOM     67  C   UNL A   1      40.215  36.368  37.840  1.00  0.00     0.059 A 
ATOM     68  F   UNL A   1      41.144  35.781  35.770  1.00  0.00    -0.206 F 
ATOM     69  C   UNL A   1      39.452  36.017  38.954  1.00  0.00     0.060 A 
BRANCH  69  70
ATOM     70  S   UNL A   1      39.099  37.233  40.240  1.00  0.00     0.124 S 
ATOM     71  O   UNL A   1      38.353  38.240  39.493  1.00  0.00    -0.237 OA
ATOM     72  O   UNL A   1      38.326  36.453  41.201  1.00  0.00    -0.237 OA
ATOM     73  O   UNL A   1      40.425  37.642  40.694  1.00  0.00    -0.744 OA
ENDBRANCH  69  70
ENDBRANCH  37  62
ENDBRANCH  11  12
ENDBRANCH   4   6
ENDBRANCH   3   4
ENDBRANCH   2   3
ENDBRANCH   1   2
BRANCH   1  74
ATOM     74  O   UNL A   1      39.907  21.292  26.204  1.00  0.00    -0.374 OA
BRANCH  74  75
ATOM     75  C   UNL A   1      39.011  22.368  26.498  1.00  0.00     0.202 C 
BRANCH  75  76
ATOM     76  C   UNL A   1      37.939  22.482  25.416  1.00  0.00     0.261 C 
BRANCH  76  77
ATOM     77  O   UNL A   1      36.822  21.662  25.788  1.00  0.00    -0.460 OA
BRANCH  77  78
ATOM     78  C   UNL A   1      36.616  20.554  25.036  1.00  0.00     0.342 C 
ATOM     79  O   UNL A   1      37.440  19.729  24.677  1.00  0.00    -0.246 OA
BRANCH  78  80
ATOM     80  C   UNL A   1      35.159  20.335  24.929  1.00  0.00     0.102 A 
ATOM     81  C   UNL A   1      34.337  21.475  24.940  1.00  0.00     0.028 A 
ATOM     82  C   UNL A   1      34.600  19.068  24.738  1.00  0.00     0.130 A 
ATOM     83  C   UNL A   1      32.968  21.351  24.697  1.00  0.00    -0.017 A 
ATOM     84  C   UNL A   1      33.230  18.937  24.529  1.00  0.00     0.048 A 
ATOM     85  C   UNL A   1      32.420  20.076  24.497  1.00  0.00     0.012 A 
BRANCH  82  86
ATOM     86  O   UNL A   1      35.385  17.951  24.778  1.00  0.00    -0.507 OA
ATOM     87  H   UNL A   1      36.080  17.890  25.403  1.00  0.00     0.293 HD
ENDBRANCH  82  86
BRANCH  83  88
ATOM     88  C   UNL A   1      32.083  22.525  24.658  1.00  0.00    -0.011 A 
ATOM     89  C   UNL A   1      31.480  22.996  23.429  1.00  0.00     0.027 A 
ATOM     90  C   UNL A   1      31.903  23.228  25.791  1.00  0.00     0.080 A 
ATOM     91  C   UNL A   1      30.816  24.156  23.400  1.00  0.00     0.095 A 
ATOM     92  C   UNL A   1      31.151  24.516  25.777  1.00  0.00     0.255 A 
ATOM     93  N   UNL A   1      30.666  24.920  24.543  1.00  0.00    -0.258 N 
ATOM     94  O   UNL A   1      31.044  25.140  26.827  1.00  0.00    -0.269 OA
BRANCH  93  95
ATOM     95  C   UNL A   1      30.024  26.208  24.481  1.00  0.00     0.451 C 
ATOM     96  F   UNL A   1      30.820  27.138  23.905  1.00  0.00    -0.185 F 
ATOM     97  F   UNL A   1      28.875  26.135  23.763  1.00  0.00    -0.185 F 
ENDBRANCH  93  95
ENDBRANCH  83  88
ENDBRANCH  78  80
ENDBRANCH  77  78
ENDBRANCH  76  77
ENDBRANCH  75  76
ENDBRANCH  74  75
ENDBRANCH   1  74
TORSDOF 20
ENDMDL
