MODEL 1
REMARK VINA RESULT:     -11.3      0.000      0.000
REMARK SMILES Cc1cc(N2CCC[C@H]2C2CCCC2)cc(C(=O)OCCOCCOC(=O)c2ccc(-c3c4nc(c(-c5c(F)cc(S(=O)(=O)[O-])cc5F)c5ccc([nH]5)c(-c5c(F)cc(S(=O)(=O)[O-])cc5F)c5nc(c(-c6c(F)cc(S(=O)(=O)[O-])cc6F)c6ccc3[nH]6)C=C5)C=C4)cc2)c1N
REMARK SMILES IDX 23 1 22 2 21 3 20 4 19 5 17 6 18 7 16 8 1 9 2 10 3 11 94 12
REMARK SMILES IDX 4 13 15 14 95 15 5 18 6 19 9 20 7 21 8 22 10 23 11 24 14 25
REMARK SMILES IDX 12 26 13 27 24 28 25 29 26 30 27 31 28 32 29 33 93 34 30 35
REMARK SMILES IDX 92 36 31 37 32 38 33 39 86 40 34 41 91 42 85 43 87 44 35 45
REMARK SMILES IDX 90 46 84 47 83 48 36 50 70 51 49 52 69 53 50 54 53 55 68 56
REMARK SMILES IDX 88 57 51 58 52 59 67 61 89 62 54 63 37 64 38 65 47 66 39 67
REMARK SMILES IDX 40 68 46 69 48 70 41 71 42 72 43 73 44 74 45 75 71 76 72 77
REMARK SMILES IDX 81 78 73 79 74 80 80 81 82 82 75 83 76 84 77 85 78 86 79 87
REMARK SMILES IDX 55 88 56 89 65 90 57 91 58 92 64 93 66 94 59 95 60 96 61 97
REMARK SMILES IDX 62 98 63 99
REMARK H PARENT 95 16 95 17 87 49 53 60
REMARK Flexibility Score: inf
ROOT
ATOM      1  C   UNL A   1      38.819  21.653  25.800  1.00  0.00     0.202 C 
ENDROOT
BRANCH   1   2
ATOM      2  O   UNL A   1      37.834  22.600  25.378  1.00  0.00    -0.374 OA
BRANCH   2   3
ATOM      3  C   UNL A   1      36.711  22.060  24.678  1.00  0.00     0.202 C 
BRANCH   3   4
ATOM      4  C   UNL A   1      35.532  23.024  24.504  1.00  0.00     0.261 C 
BRANCH   4   5
ATOM      5  O   UNL A   1      34.291  22.307  24.423  1.00  0.00    -0.460 OA
BRANCH   5   6
ATOM      6  C   UNL A   1      33.330  22.811  23.607  1.00  0.00     0.340 C 
ATOM      7  O   UNL A   1      33.289  22.682  22.389  1.00  0.00    -0.246 OA
BRANCH   6   8
ATOM      8  C   UNL A   1      32.261  23.493  24.411  1.00  0.00     0.085 A 
ATOM      9  C   UNL A   1      29.764  22.863  27.191  1.00  0.00     0.047 C 
ATOM     10  C   UNL A   1      30.557  23.531  26.098  1.00  0.00    -0.025 A 
ATOM     11  C   UNL A   1      30.324  24.910  25.822  1.00  0.00     0.031 A 
ATOM     12  C   UNL A   1      31.542  22.809  25.394  1.00  0.00     0.049 A 
ATOM     13  C   UNL A   1      31.067  25.627  24.878  1.00  0.00     0.038 A 
ATOM     14  C   UNL A   1      32.004  24.856  24.195  1.00  0.00     0.043 A 
BRANCH  12  15
ATOM     15  N   UNL A   1      31.909  21.522  25.786  1.00  0.00    -0.398 N 
ATOM     16  H   UNL A   1      31.816  20.770  25.157  1.00  0.00     0.156 HD
ATOM     17  H   UNL A   1      32.263  21.364  26.691  1.00  0.00     0.156 HD
ENDBRANCH  12  15
BRANCH  13  18
ATOM     18  N   UNL A   1      30.964  26.999  24.641  1.00  0.00    -0.368 N 
ATOM     19  C   UNL A   1      29.978  27.522  23.689  1.00  0.00     0.117 C 
ATOM     20  C   UNL A   1      32.180  27.877  24.627  1.00  0.00     0.085 C 
ATOM     21  C   UNL A   1      30.823  28.183  22.612  1.00  0.00     0.024 C 
ATOM     22  C   UNL A   1      31.952  28.816  23.408  1.00  0.00     0.027 C 
BRANCH  20  23
ATOM     23  C   UNL A   1      32.509  28.707  25.910  1.00  0.00     0.011 C 
ATOM     24  C   UNL A   1      33.955  28.739  26.425  1.00  0.00     0.006 C 
ATOM     25  C   UNL A   1      32.193  30.194  25.877  1.00  0.00     0.006 C 
ATOM     26  C   UNL A   1      34.037  29.944  27.377  1.00  0.00     0.000 C 
ATOM     27  C   UNL A   1      32.797  30.786  27.128  1.00  0.00     0.000 C 
ENDBRANCH  20  23
ENDBRANCH  13  18
ENDBRANCH   6   8
ENDBRANCH   5   6
ENDBRANCH   4   5
ENDBRANCH   3   4
ENDBRANCH   2   3
ENDBRANCH   1   2
BRANCH   1  28
ATOM     28  C   UNL A   1      39.940  22.217  26.677  1.00  0.00     0.261 C 
BRANCH  28  29
ATOM     29  O   UNL A   1      39.905  23.653  26.733  1.00  0.00    -0.460 OA
BRANCH  29  30
ATOM     30  C   UNL A   1      41.049  24.230  27.158  1.00  0.00     0.338 C 
ATOM     31  O   UNL A   1      42.196  23.913  26.849  1.00  0.00    -0.246 OA
BRANCH  30  32
ATOM     32  C   UNL A   1      40.753  25.428  27.962  1.00  0.00     0.060 A 
ATOM     33  C   UNL A   1      41.760  26.394  28.078  1.00  0.00     0.016 A 
ATOM     34  C   UNL A   1      39.546  25.579  28.651  1.00  0.00     0.016 A 
ATOM     35  C   UNL A   1      41.589  27.482  28.929  1.00  0.00     0.010 A 
ATOM     36  C   UNL A   1      39.377  26.673  29.507  1.00  0.00     0.010 A 
ATOM     37  C   UNL A   1      40.412  27.609  29.679  1.00  0.00    -0.014 A 
BRANCH  37  38
ATOM     38  C   UNL A   1      40.323  28.648  30.735  1.00  0.00     0.031 A 
ATOM     39  C   UNL A   1      41.230  28.555  31.934  1.00  0.00     0.074 A 
ATOM     40  C   UNL A   1      39.464  29.676  30.613  1.00  0.00     0.049 A 
ATOM     41  N   UNL A   1      41.293  29.328  32.987  1.00  0.00    -0.248 NA
ATOM     42  C   UNL A   1      42.192  27.441  31.946  1.00  0.00     0.031 C 
ATOM     43  C   UNL A   1      38.559  29.890  29.484  1.00  0.00     0.029 A 
ATOM     44  N   UNL A   1      39.209  30.729  31.454  1.00  0.00    -0.354 N 
ATOM     45  C   UNL A   1      42.295  28.794  33.789  1.00  0.00     0.074 A 
ATOM     46  C   UNL A   1      42.790  27.613  33.117  1.00  0.00     0.031 C 
ATOM     47  C   UNL A   1      37.839  31.002  29.709  1.00  0.00     0.029 A 
ATOM     48  C   UNL A   1      38.208  31.558  31.009  1.00  0.00     0.049 A 
ATOM     49  H   UNL A   1      39.699  30.879  32.295  1.00  0.00     0.167 HD
ATOM     50  C   UNL A   1      42.766  29.254  34.973  1.00  0.00     0.037 A 
ATOM     51  C   UNL A   1      37.637  32.630  31.596  1.00  0.00     0.037 A 
ATOM     52  C   UNL A   1      42.270  30.433  35.637  1.00  0.00     0.049 A 
ATOM     53  C   UNL A   1      38.137  33.088  32.942  1.00  0.00     0.074 A 
ATOM     54  C   UNL A   1      42.691  30.988  36.833  1.00  0.00     0.029 A 
ATOM     55  N   UNL A   1      41.242  31.235  35.164  1.00  0.00    -0.354 N 
ATOM     56  N   UNL A   1      39.097  32.584  33.682  1.00  0.00    -0.248 NA
ATOM     57  C   UNL A   1      37.479  34.263  33.532  1.00  0.00     0.031 C 
ATOM     58  C   UNL A   1      41.886  32.098  37.107  1.00  0.00     0.029 A 
ATOM     59  C   UNL A   1      41.000  32.268  36.055  1.00  0.00     0.049 A 
ATOM     60  H   UNL A   1      40.756  31.093  34.320  1.00  0.00     0.167 HD
ATOM     61  C   UNL A   1      39.175  33.396  34.809  1.00  0.00     0.074 A 
ATOM     62  C   UNL A   1      38.174  34.429  34.649  1.00  0.00     0.031 C 
ATOM     63  C   UNL A   1      40.003  33.295  35.880  1.00  0.00     0.037 A 
BRANCH  50  64
ATOM     64  C   UNL A   1      43.863  28.470  35.641  1.00  0.00     0.058 A 
ATOM     65  C   UNL A   1      45.219  28.732  35.387  1.00  0.00     0.135 A 
ATOM     66  C   UNL A   1      43.555  27.472  36.580  1.00  0.00     0.135 A 
ATOM     67  F   UNL A   1      45.570  29.664  34.486  1.00  0.00    -0.206 F 
ATOM     68  C   UNL A   1      46.230  28.017  36.021  1.00  0.00     0.059 A 
ATOM     69  C   UNL A   1      44.550  26.762  37.247  1.00  0.00     0.059 A 
ATOM     70  F   UNL A   1      42.276  27.179  36.861  1.00  0.00    -0.206 F 
ATOM     71  C   UNL A   1      45.885  27.034  36.951  1.00  0.00     0.060 A 
BRANCH  71  72
ATOM     72  S   UNL A   1      47.209  26.123  37.775  1.00  0.00     0.124 S 
ATOM     73  O   UNL A   1      47.419  25.015  36.847  1.00  0.00    -0.237 OA
ATOM     74  O   UNL A   1      48.280  27.113  37.833  1.00  0.00    -0.237 OA
ATOM     75  O   UNL A   1      46.623  25.760  39.061  1.00  0.00    -0.744 OA
ENDBRANCH  71  72
ENDBRANCH  50  64
BRANCH  51  76
ATOM     76  C   UNL A   1      36.513  33.333  30.922  1.00  0.00     0.058 A 
ATOM     77  C   UNL A   1      35.193  33.199  31.377  1.00  0.00     0.135 A 
ATOM     78  C   UNL A   1      36.740  34.153  29.806  1.00  0.00     0.135 A 
ATOM     79  F   UNL A   1      34.924  32.417  32.433  1.00  0.00    -0.206 F 
ATOM     80  C   UNL A   1      34.135  33.840  30.741  1.00  0.00     0.059 A 
ATOM     81  C   UNL A   1      35.701  34.827  29.170  1.00  0.00     0.059 A 
ATOM     82  F   UNL A   1      37.985  34.325  29.337  1.00  0.00    -0.206 F 
ATOM     83  C   UNL A   1      34.400  34.654  29.638  1.00  0.00     0.060 A 
BRANCH  83  84
ATOM     84  S   UNL A   1      33.027  35.520  28.847  1.00  0.00     0.124 S 
ATOM     85  O   UNL A   1      32.421  34.452  28.060  1.00  0.00    -0.237 OA
ATOM     86  O   UNL A   1      32.255  35.985  29.995  1.00  0.00    -0.237 OA
ATOM     87  O   UNL A   1      33.690  36.571  28.081  1.00  0.00    -0.744 OA
ENDBRANCH  83  84
ENDBRANCH  51  76
BRANCH  63  88
ATOM     88  C   UNL A   1      39.890  34.349  36.949  1.00  0.00     0.058 A 
ATOM     89  C   UNL A   1      40.604  35.556  36.876  1.00  0.00     0.135 A 
ATOM     90  C   UNL A   1      39.013  34.172  38.032  1.00  0.00     0.135 A 
ATOM     91  F   UNL A   1      41.460  35.775  35.865  1.00  0.00    -0.206 F 
ATOM     92  C   UNL A   1      40.471  36.539  37.852  1.00  0.00     0.059 A 
ATOM     93  C   UNL A   1      38.843  35.153  39.004  1.00  0.00     0.059 A 
ATOM     94  F   UNL A   1      38.298  33.041  38.145  1.00  0.00    -0.206 F 
ATOM     95  C   UNL A   1      39.586  36.329  38.911  1.00  0.00     0.060 A 
BRANCH  95  96
ATOM     96  S   UNL A   1      39.398  37.627  40.153  1.00  0.00     0.124 S 
ATOM     97  O   UNL A   1      40.703  38.275  40.101  1.00  0.00    -0.237 OA
ATOM     98  O   UNL A   1      38.282  38.405  39.624  1.00  0.00    -0.237 OA
ATOM     99  O   UNL A   1      39.112  36.886  41.378  1.00  0.00    -0.744 OA
ENDBRANCH  95  96
ENDBRANCH  63  88
ENDBRANCH  37  38
ENDBRANCH  30  32
ENDBRANCH  29  30
ENDBRANCH  28  29
ENDBRANCH   1  28
TORSDOF 20
ENDMDL
MODEL 2
REMARK VINA RESULT:     -11.2      6.360     10.810
REMARK SMILES Cc1cc(N2CCC[C@H]2C2CCCC2)cc(C(=O)OCCOCCOC(=O)c2ccc(-c3c4nc(c(-c5c(F)cc(S(=O)(=O)[O-])cc5F)c5ccc([nH]5)c(-c5c(F)cc(S(=O)(=O)[O-])cc5F)c5nc(c(-c6c(F)cc(S(=O)(=O)[O-])cc6F)c6ccc3[nH]6)C=C5)C=C4)cc2)c1N
REMARK SMILES IDX 23 1 22 2 21 3 20 4 19 5 17 6 18 7 16 8 1 9 2 10 3 11 94 12
REMARK SMILES IDX 4 13 15 14 95 15 5 18 6 19 9 20 7 21 8 22 10 23 11 24 14 25
REMARK SMILES IDX 12 26 13 27 24 28 25 29 26 30 27 31 28 32 29 33 93 34 30 35
REMARK SMILES IDX 92 36 31 37 32 38 33 39 86 40 34 41 91 42 85 43 87 44 35 45
REMARK SMILES IDX 90 46 84 47 83 48 36 50 70 51 49 52 69 53 50 54 53 55 68 56
REMARK SMILES IDX 88 57 51 58 52 59 67 61 89 62 54 63 37 64 38 65 47 66 39 67
REMARK SMILES IDX 40 68 46 69 48 70 41 71 42 72 43 73 44 74 45 75 71 76 72 77
REMARK SMILES IDX 81 78 73 79 74 80 80 81 82 82 75 83 76 84 77 85 78 86 79 87
REMARK SMILES IDX 55 88 56 89 65 90 57 91 58 92 64 93 66 94 59 95 60 96 61 97
REMARK SMILES IDX 62 98 63 99
REMARK H PARENT 95 16 95 17 87 49 53 60
REMARK Flexibility Score: inf
ROOT
ATOM      1  C   UNL A   1      38.731  21.497  25.468  1.00  0.00     0.202 C 
ENDROOT
BRANCH   1   2
ATOM      2  O   UNL A   1      39.119  22.458  26.453  1.00  0.00    -0.374 OA
BRANCH   2   3
ATOM      3  C   UNL A   1      38.352  23.664  26.483  1.00  0.00     0.202 C 
BRANCH   3   4
ATOM      4  C   UNL A   1      37.104  23.658  25.592  1.00  0.00     0.261 C 
BRANCH   4   5
ATOM      5  O   UNL A   1      35.911  23.792  26.380  1.00  0.00    -0.460 OA
BRANCH   5   6
ATOM      6  C   UNL A   1      34.992  22.797  26.296  1.00  0.00     0.340 C 
ATOM      7  O   UNL A   1      35.217  21.603  26.453  1.00  0.00    -0.246 OA
BRANCH   6   8
ATOM      8  C   UNL A   1      33.623  23.364  26.058  1.00  0.00     0.085 A 
ATOM      9  C   UNL A   1      29.998  22.927  27.074  1.00  0.00     0.047 C 
ATOM     10  C   UNL A   1      31.250  23.431  26.406  1.00  0.00    -0.025 A 
ATOM     11  C   UNL A   1      31.158  24.545  25.521  1.00  0.00     0.031 A 
ATOM     12  C   UNL A   1      32.495  22.833  26.690  1.00  0.00     0.049 A 
ATOM     13  C   UNL A   1      32.281  25.125  24.919  1.00  0.00     0.038 A 
ATOM     14  C   UNL A   1      33.477  24.475  25.213  1.00  0.00     0.043 A 
BRANCH  12  15
ATOM     15  N   UNL A   1      32.622  21.874  27.694  1.00  0.00    -0.398 N 
ATOM     16  H   UNL A   1      33.448  21.826  28.228  1.00  0.00     0.156 HD
ATOM     17  H   UNL A   1      31.884  21.246  27.872  1.00  0.00     0.156 HD
ENDBRANCH  12  15
BRANCH  13  18
ATOM     18  N   UNL A   1      32.270  26.280  24.135  1.00  0.00    -0.368 N 
ATOM     19  C   UNL A   1      31.812  26.235  22.742  1.00  0.00     0.117 C 
ATOM     20  C   UNL A   1      33.345  27.318  24.270  1.00  0.00     0.085 C 
ATOM     21  C   UNL A   1      33.040  26.632  21.939  1.00  0.00     0.024 C 
ATOM     22  C   UNL A   1      33.675  27.710  22.801  1.00  0.00     0.027 C 
BRANCH  20  23
ATOM     23  C   UNL A   1      33.042  28.590  25.126  1.00  0.00     0.011 C 
ATOM     24  C   UNL A   1      31.912  29.531  24.687  1.00  0.00     0.006 C 
ATOM     25  C   UNL A   1      32.672  28.375  26.584  1.00  0.00     0.006 C 
ATOM     26  C   UNL A   1      31.575  30.390  25.917  1.00  0.00     0.000 C 
ATOM     27  C   UNL A   1      32.225  29.717  27.114  1.00  0.00     0.000 C 
ENDBRANCH  20  23
ENDBRANCH  13  18
ENDBRANCH   6   8
ENDBRANCH   5   6
ENDBRANCH   4   5
ENDBRANCH   3   4
ENDBRANCH   2   3
ENDBRANCH   1   2
BRANCH   1  28
ATOM     28  C   UNL A   1      39.133  20.050  25.768  1.00  0.00     0.261 C 
BRANCH  28  29
ATOM     29  O   UNL A   1      40.149  19.976  26.783  1.00  0.00    -0.460 OA
BRANCH  29  30
ATOM     30  C   UNL A   1      41.393  19.730  26.320  1.00  0.00     0.338 C 
ATOM     31  O   UNL A   1      41.775  18.724  25.726  1.00  0.00    -0.246 OA
BRANCH  30  32
ATOM     32  C   UNL A   1      42.248  20.918  26.490  1.00  0.00     0.060 A 
ATOM     33  C   UNL A   1      42.445  21.391  27.792  1.00  0.00     0.016 A 
ATOM     34  C   UNL A   1      42.789  21.603  25.398  1.00  0.00     0.016 A 
ATOM     35  C   UNL A   1      43.132  22.583  28.005  1.00  0.00     0.010 A 
ATOM     36  C   UNL A   1      43.478  22.802  25.615  1.00  0.00     0.010 A 
ATOM     37  C   UNL A   1      43.619  23.317  26.915  1.00  0.00    -0.014 A 
BRANCH  37  38
ATOM     38  C   UNL A   1      44.160  24.682  27.133  1.00  0.00     0.031 A 
ATOM     39  C   UNL A   1      43.224  25.783  27.554  1.00  0.00     0.074 A 
ATOM     40  C   UNL A   1      45.474  24.929  26.983  1.00  0.00     0.049 A 
ATOM     41  N   UNL A   1      43.475  27.050  27.760  1.00  0.00    -0.248 NA
ATOM     42  C   UNL A   1      41.818  25.405  27.770  1.00  0.00     0.031 C 
ATOM     43  C   UNL A   1      46.482  23.938  26.609  1.00  0.00     0.029 A 
ATOM     44  N   UNL A   1      46.183  26.095  27.121  1.00  0.00    -0.354 N 
ATOM     45  C   UNL A   1      42.262  27.623  28.124  1.00  0.00     0.074 A 
ATOM     46  C   UNL A   1      41.268  26.571  28.080  1.00  0.00     0.031 C 
ATOM     47  C   UNL A   1      47.681  24.541  26.537  1.00  0.00     0.029 A 
ATOM     48  C   UNL A   1      47.519  25.965  26.826  1.00  0.00     0.049 A 
ATOM     49  H   UNL A   1      45.775  26.945  27.406  1.00  0.00     0.167 HD
ATOM     50  C   UNL A   1      42.002  28.905  28.475  1.00  0.00     0.037 A 
ATOM     51  C   UNL A   1      48.495  26.894  26.772  1.00  0.00     0.037 A 
ATOM     52  C   UNL A   1      42.996  29.947  28.520  1.00  0.00     0.049 A 
ATOM     53  C   UNL A   1      48.171  28.327  27.107  1.00  0.00     0.074 A 
ATOM     54  C   UNL A   1      42.834  31.275  28.875  1.00  0.00     0.029 A 
ATOM     55  N   UNL A   1      44.334  29.780  28.196  1.00  0.00    -0.354 N 
ATOM     56  N   UNL A   1      47.022  28.851  27.467  1.00  0.00    -0.248 NA
ATOM     57  C   UNL A   1      49.274  29.295  27.034  1.00  0.00     0.031 C 
ATOM     58  C   UNL A   1      44.065  31.922  28.721  1.00  0.00     0.029 A 
ATOM     59  C   UNL A   1      45.006  30.986  28.322  1.00  0.00     0.049 A 
ATOM     60  H   UNL A   1      44.747  28.931  27.918  1.00  0.00     0.167 HD
ATOM     61  C   UNL A   1      47.272  30.201  27.688  1.00  0.00     0.074 A 
ATOM     62  C   UNL A   1      48.682  30.412  27.433  1.00  0.00     0.031 C 
ATOM     63  C   UNL A   1      46.412  31.180  28.070  1.00  0.00     0.037 A 
BRANCH  50  64
ATOM     64  C   UNL A   1      40.581  29.262  28.820  1.00  0.00     0.058 A 
ATOM     65  C   UNL A   1      39.604  29.445  27.827  1.00  0.00     0.135 A 
ATOM     66  C   UNL A   1      40.182  29.381  30.161  1.00  0.00     0.135 A 
ATOM     67  F   UNL A   1      39.935  29.359  26.529  1.00  0.00    -0.206 F 
ATOM     68  C   UNL A   1      38.288  29.756  28.151  1.00  0.00     0.059 A 
ATOM     69  C   UNL A   1      38.864  29.665  30.509  1.00  0.00     0.059 A 
ATOM     70  F   UNL A   1      41.074  29.217  31.149  1.00  0.00    -0.206 F 
ATOM     71  C   UNL A   1      37.927  29.863  29.496  1.00  0.00     0.060 A 
BRANCH  71  72
ATOM     72  S   UNL A   1      36.212  30.257  29.901  1.00  0.00     0.124 S 
ATOM     73  O   UNL A   1      35.497  29.594  28.814  1.00  0.00    -0.237 OA
ATOM     74  O   UNL A   1      36.056  29.654  31.222  1.00  0.00    -0.237 OA
ATOM     75  O   UNL A   1      36.181  31.715  29.873  1.00  0.00    -0.744 OA
ENDBRANCH  71  72
ENDBRANCH  50  64
BRANCH  51  76
ATOM     76  C   UNL A   1      49.871  26.501  26.364  1.00  0.00     0.058 A 
ATOM     77  C   UNL A   1      50.764  25.922  27.277  1.00  0.00     0.135 A 
ATOM     78  C   UNL A   1      50.318  26.699  25.048  1.00  0.00     0.135 A 
ATOM     79  F   UNL A   1      50.386  25.723  28.549  1.00  0.00    -0.206 F 
ATOM     80  C   UNL A   1      52.057  25.569  26.907  1.00  0.00     0.059 A 
ATOM     81  C   UNL A   1      51.598  26.328  24.647  1.00  0.00     0.059 A 
ATOM     82  F   UNL A   1      49.500  27.239  24.132  1.00  0.00    -0.206 F 
ATOM     83  C   UNL A   1      52.464  25.774  25.588  1.00  0.00     0.060 A 
BRANCH  83  84
ATOM     84  S   UNL A   1      54.129  25.268  25.103  1.00  0.00     0.124 S 
ATOM     85  O   UNL A   1      54.916  25.717  26.247  1.00  0.00    -0.237 OA
ATOM     86  O   UNL A   1      53.981  23.824  24.957  1.00  0.00    -0.237 OA
ATOM     87  O   UNL A   1      54.352  25.997  23.859  1.00  0.00    -0.744 OA
ENDBRANCH  83  84
ENDBRANCH  51  76
BRANCH  63  88
ATOM     88  C   UNL A   1      46.975  32.561  28.273  1.00  0.00     0.058 A 
ATOM     89  C   UNL A   1      47.658  32.917  29.446  1.00  0.00     0.135 A 
ATOM     90  C   UNL A   1      46.875  33.525  27.255  1.00  0.00     0.135 A 
ATOM     91  F   UNL A   1      47.778  32.036  30.453  1.00  0.00    -0.206 F 
ATOM     92  C   UNL A   1      48.203  34.186  29.613  1.00  0.00     0.059 A 
ATOM     93  C   UNL A   1      47.436  34.791  27.389  1.00  0.00     0.059 A 
ATOM     94  F   UNL A   1      46.242  33.234  26.108  1.00  0.00    -0.206 F 
ATOM     95  C   UNL A   1      48.089  35.116  28.578  1.00  0.00     0.060 A 
BRANCH  95  96
ATOM     96  S   UNL A   1      48.828  36.749  28.795  1.00  0.00     0.124 S 
ATOM     97  O   UNL A   1      48.689  36.947  30.233  1.00  0.00    -0.237 OA
ATOM     98  O   UNL A   1      50.190  36.542  28.312  1.00  0.00    -0.237 OA
ATOM     99  O   UNL A   1      47.999  37.612  27.958  1.00  0.00    -0.744 OA
ENDBRANCH  95  96
ENDBRANCH  63  88
ENDBRANCH  37  38
ENDBRANCH  30  32
ENDBRANCH  29  30
ENDBRANCH  28  29
ENDBRANCH   1  28
TORSDOF 20
ENDMDL
MODEL 3
REMARK VINA RESULT:     -11.2      6.261      8.308
REMARK SMILES Cc1cc(N2CCC[C@H]2C2CCCC2)cc(C(=O)OCCOCCOC(=O)c2ccc(-c3c4nc(c(-c5c(F)cc(S(=O)(=O)[O-])cc5F)c5ccc([nH]5)c(-c5c(F)cc(S(=O)(=O)[O-])cc5F)c5nc(c(-c6c(F)cc(S(=O)(=O)[O-])cc6F)c6ccc3[nH]6)C=C5)C=C4)cc2)c1N
REMARK SMILES IDX 23 1 22 2 21 3 20 4 19 5 17 6 18 7 16 8 1 9 2 10 3 11 94 12
REMARK SMILES IDX 4 13 15 14 95 15 5 18 6 19 9 20 7 21 8 22 10 23 11 24 14 25
REMARK SMILES IDX 12 26 13 27 24 28 25 29 26 30 27 31 28 32 29 33 93 34 30 35
REMARK SMILES IDX 92 36 31 37 32 38 33 39 86 40 34 41 91 42 85 43 87 44 35 45
REMARK SMILES IDX 90 46 84 47 83 48 36 50 70 51 49 52 69 53 50 54 53 55 68 56
REMARK SMILES IDX 88 57 51 58 52 59 67 61 89 62 54 63 37 64 38 65 47 66 39 67
REMARK SMILES IDX 40 68 46 69 48 70 41 71 42 72 43 73 44 74 45 75 71 76 72 77
REMARK SMILES IDX 81 78 73 79 74 80 80 81 82 82 75 83 76 84 77 85 78 86 79 87
REMARK SMILES IDX 55 88 56 89 65 90 57 91 58 92 64 93 66 94 59 95 60 96 61 97
REMARK SMILES IDX 62 98 63 99
REMARK H PARENT 95 16 95 17 87 49 53 60
REMARK Flexibility Score: inf
ROOT
ATOM      1  C   UNL A   1      38.609  21.158  25.554  1.00  0.00     0.202 C 
ENDROOT
BRANCH   1   2
ATOM      2  O   UNL A   1      39.100  22.208  26.391  1.00  0.00    -0.374 OA
BRANCH   2   3
ATOM      3  C   UNL A   1      38.361  23.432  26.353  1.00  0.00     0.202 C 
BRANCH   3   4
ATOM      4  C   UNL A   1      37.148  23.425  25.416  1.00  0.00     0.261 C 
BRANCH   4   5
ATOM      5  O   UNL A   1      35.950  23.771  26.128  1.00  0.00    -0.460 OA
BRANCH   5   6
ATOM      6  C   UNL A   1      35.015  22.799  26.288  1.00  0.00     0.340 C 
ATOM      7  O   UNL A   1      35.234  21.655  26.672  1.00  0.00    -0.246 OA
BRANCH   6   8
ATOM      8  C   UNL A   1      33.643  23.336  26.003  1.00  0.00     0.085 A 
ATOM      9  C   UNL A   1      30.017  22.948  27.036  1.00  0.00     0.047 C 
ATOM     10  C   UNL A   1      31.269  23.410  26.336  1.00  0.00    -0.025 A 
ATOM     11  C   UNL A   1      31.173  24.454  25.370  1.00  0.00     0.031 A 
ATOM     12  C   UNL A   1      32.517  22.845  26.669  1.00  0.00     0.049 A 
ATOM     13  C   UNL A   1      32.293  24.995  24.730  1.00  0.00     0.038 A 
ATOM     14  C   UNL A   1      33.492  24.379  25.076  1.00  0.00     0.043 A 
BRANCH  12  15
ATOM     15  N   UNL A   1      32.646  21.965  27.743  1.00  0.00    -0.398 N 
ATOM     16  H   UNL A   1      32.837  22.313  28.644  1.00  0.00     0.156 HD
ATOM     17  H   UNL A   1      32.546  20.996  27.601  1.00  0.00     0.156 HD
ENDBRANCH  12  15
BRANCH  13  18
ATOM     18  N   UNL A   1      32.277  26.088  23.861  1.00  0.00    -0.368 N 
ATOM     19  C   UNL A   1      31.749  25.955  22.500  1.00  0.00     0.117 C 
ATOM     20  C   UNL A   1      33.387  27.098  23.865  1.00  0.00     0.085 C 
ATOM     21  C   UNL A   1      32.947  26.249  21.611  1.00  0.00     0.024 C 
ATOM     22  C   UNL A   1      33.655  27.367  22.356  1.00  0.00     0.027 C 
BRANCH  20  23
ATOM     23  C   UNL A   1      33.165  28.439  24.635  1.00  0.00     0.011 C 
ATOM     24  C   UNL A   1      31.734  28.865  24.991  1.00  0.00     0.006 C 
ATOM     25  C   UNL A   1      33.842  28.585  25.988  1.00  0.00     0.006 C 
ATOM     26  C   UNL A   1      31.871  29.933  26.088  1.00  0.00     0.000 C 
ATOM     27  C   UNL A   1      33.299  29.853  26.603  1.00  0.00     0.000 C 
ENDBRANCH  20  23
ENDBRANCH  13  18
ENDBRANCH   6   8
ENDBRANCH   5   6
ENDBRANCH   4   5
ENDBRANCH   3   4
ENDBRANCH   2   3
ENDBRANCH   1   2
BRANCH   1  28
ATOM     28  C   UNL A   1      39.361  19.828  25.660  1.00  0.00     0.261 C 
BRANCH  28  29
ATOM     29  O   UNL A   1      40.325  19.840  26.727  1.00  0.00    -0.460 OA
BRANCH  29  30
ATOM     30  C   UNL A   1      41.606  19.677  26.333  1.00  0.00     0.338 C 
ATOM     31  O   UNL A   1      42.096  18.680  25.807  1.00  0.00    -0.246 OA
BRANCH  30  32
ATOM     32  C   UNL A   1      42.353  20.938  26.480  1.00  0.00     0.060 A 
ATOM     33  C   UNL A   1      42.581  21.406  27.780  1.00  0.00     0.016 A 
ATOM     34  C   UNL A   1      42.762  21.691  25.375  1.00  0.00     0.016 A 
ATOM     35  C   UNL A   1      43.164  22.654  27.980  1.00  0.00     0.010 A 
ATOM     36  C   UNL A   1      43.346  22.946  25.579  1.00  0.00     0.010 A 
ATOM     37  C   UNL A   1      43.515  23.450  26.881  1.00  0.00    -0.014 A 
BRANCH  37  38
ATOM     38  C   UNL A   1      43.937  24.856  27.098  1.00  0.00     0.031 A 
ATOM     39  C   UNL A   1      45.379  25.231  26.883  1.00  0.00     0.074 A 
ATOM     40  C   UNL A   1      43.039  25.792  27.456  1.00  0.00     0.049 A 
ATOM     41  N   UNL A   1      45.969  26.385  27.053  1.00  0.00    -0.248 NA
ATOM     42  C   UNL A   1      46.275  24.160  26.418  1.00  0.00     0.031 C 
ATOM     43  C   UNL A   1      41.611  25.556  27.662  1.00  0.00     0.029 A 
ATOM     44  N   UNL A   1      43.201  27.129  27.715  1.00  0.00    -0.354 N 
ATOM     45  C   UNL A   1      47.303  26.182  26.721  1.00  0.00     0.074 A 
ATOM     46  C   UNL A   1      47.443  24.784  26.371  1.00  0.00     0.031 C 
ATOM     47  C   UNL A   1      41.027  26.711  28.028  1.00  0.00     0.029 A 
ATOM     48  C   UNL A   1      42.045  27.756  28.113  1.00  0.00     0.049 A 
ATOM     49  H   UNL A   1      44.063  27.596  27.623  1.00  0.00     0.167 HD
ATOM     50  C   UNL A   1      48.317  27.080  26.698  1.00  0.00     0.037 A 
ATOM     51  C   UNL A   1      41.837  29.024  28.522  1.00  0.00     0.037 A 
ATOM     52  C   UNL A   1      48.171  28.471  27.044  1.00  0.00     0.049 A 
ATOM     53  C   UNL A   1      42.991  29.992  28.547  1.00  0.00     0.074 A 
ATOM     54  C   UNL A   1      49.135  29.464  27.041  1.00  0.00     0.029 A 
ATOM     55  N   UNL A   1      46.989  29.064  27.461  1.00  0.00    -0.354 N 
ATOM     56  N   UNL A   1      44.245  29.790  28.213  1.00  0.00    -0.248 NA
ATOM     57  C   UNL A   1      42.705  31.360  29.000  1.00  0.00     0.031 C 
ATOM     58  C   UNL A   1      48.546  30.647  27.500  1.00  0.00     0.029 A 
ATOM     59  C   UNL A   1      47.203  30.404  27.738  1.00  0.00     0.049 A 
ATOM     60  H   UNL A   1      46.124  28.602  27.547  1.00  0.00     0.167 HD
ATOM     61  C   UNL A   1      44.888  31.011  28.390  1.00  0.00     0.074 A 
ATOM     62  C   UNL A   1      43.884  31.948  28.849  1.00  0.00     0.031 C 
ATOM     63  C   UNL A   1      46.192  31.329  28.189  1.00  0.00     0.037 A 
BRANCH  50  64
ATOM     64  C   UNL A   1      49.682  26.585  26.303  1.00  0.00     0.058 A 
ATOM     65  C   UNL A   1      50.147  26.677  24.981  1.00  0.00     0.135 A 
ATOM     66  C   UNL A   1      50.552  26.050  27.267  1.00  0.00     0.135 A 
ATOM     67  F   UNL A   1      49.351  27.164  24.016  1.00  0.00    -0.206 F 
ATOM     68  C   UNL A   1      51.417  26.235  24.624  1.00  0.00     0.059 A 
ATOM     69  C   UNL A   1      51.837  25.626  26.938  1.00  0.00     0.059 A 
ATOM     70  F   UNL A   1      50.159  25.938  28.545  1.00  0.00    -0.206 F 
ATOM     71  C   UNL A   1      52.255  25.712  25.611  1.00  0.00     0.060 A 
BRANCH  71  72
ATOM     72  S   UNL A   1      53.905  25.153  25.135  1.00  0.00     0.124 S 
ATOM     73  O   UNL A   1      54.702  25.594  26.275  1.00  0.00    -0.237 OA
ATOM     74  O   UNL A   1      53.722  23.710  25.009  1.00  0.00    -0.237 OA
ATOM     75  O   UNL A   1      54.157  25.861  23.884  1.00  0.00    -0.744 OA
ENDBRANCH  71  72
ENDBRANCH  50  64
BRANCH  51  76
ATOM     76  C   UNL A   1      40.480  29.447  28.963  1.00  0.00     0.058 A 
ATOM     77  C   UNL A   1      39.451  29.674  28.037  1.00  0.00     0.135 A 
ATOM     78  C   UNL A   1      40.188  29.635  30.323  1.00  0.00     0.135 A 
ATOM     79  F   UNL A   1      39.685  29.519  26.725  1.00  0.00    -0.206 F 
ATOM     80  C   UNL A   1      38.186  30.087  28.440  1.00  0.00     0.059 A 
ATOM     81  C   UNL A   1      38.922  30.020  30.753  1.00  0.00     0.059 A 
ATOM     82  F   UNL A   1      41.133  29.421  31.251  1.00  0.00    -0.206 F 
ATOM     83  C   UNL A   1      37.930  30.255  29.802  1.00  0.00     0.060 A 
BRANCH  83  84
ATOM     84  S   UNL A   1      36.271  30.746  30.321  1.00  0.00     0.124 S 
ATOM     85  O   UNL A   1      36.001  29.784  31.384  1.00  0.00    -0.237 OA
ATOM     86  O   UNL A   1      36.478  32.126  30.746  1.00  0.00    -0.237 OA
ATOM     87  O   UNL A   1      35.479  30.584  29.106  1.00  0.00    -0.744 OA
ENDBRANCH  83  84
ENDBRANCH  51  76
BRANCH  63  88
ATOM     88  C   UNL A   1      46.605  32.756  28.427  1.00  0.00     0.058 A 
ATOM     89  C   UNL A   1      47.101  33.186  29.668  1.00  0.00     0.135 A 
ATOM     90  C   UNL A   1      46.558  33.693  27.381  1.00  0.00     0.135 A 
ATOM     91  F   UNL A   1      47.162  32.333  30.703  1.00  0.00    -0.206 F 
ATOM     92  C   UNL A   1      47.511  34.500  29.872  1.00  0.00     0.059 A 
ATOM     93  C   UNL A   1      46.989  35.005  27.554  1.00  0.00     0.059 A 
ATOM     94  F   UNL A   1      46.103  33.333  26.170  1.00  0.00    -0.206 F 
ATOM     95  C   UNL A   1      47.454  35.401  28.807  1.00  0.00     0.060 A 
BRANCH  95  96
ATOM     96  S   UNL A   1      48.020  37.095  29.076  1.00  0.00     0.124 S 
ATOM     97  O   UNL A   1      48.858  37.315  27.902  1.00  0.00    -0.237 OA
ATOM     98  O   UNL A   1      46.766  37.842  29.108  1.00  0.00    -0.237 OA
ATOM     99  O   UNL A   1      48.729  37.020  30.349  1.00  0.00    -0.744 OA
ENDBRANCH  95  96
ENDBRANCH  63  88
ENDBRANCH  37  38
ENDBRANCH  30  32
ENDBRANCH  29  30
ENDBRANCH  28  29
ENDBRANCH   1  28
TORSDOF 20
ENDMDL
