MODEL 1
REMARK VINA RESULT:     -11.7      0.000      0.000
REMARK SMILES Cc1ccc(C(=O)OCCOCCOC(=O)c2ccc(-c3c4nc(c(-c5c(F)cc(S(=O)(=O)[O-])cc5F)c5ccc([nH]5)c(-c5c(F)cc(S(=O)(=O)[O-])cc5F)c5nc(c(-c6c(F)cc(S(=O)(=O)[O-])cc6F)c6ccc3[nH]6)C=C5)C=C4)cc2)cc1N1C(=O)/C(=C/c2ccc([N+](=O)[O-])cc2)SC1=S
REMARK SMILES IDX 11 1 10 2 9 3 8 4 6 5 7 6 5 7 1 8 2 9 3 10 84 11 4 12 83 13
REMARK SMILES IDX 85 14 86 15 100 16 87 17 88 18 99 19 101 20 89 21 90 22
REMARK SMILES IDX 91 23 98 24 92 25 97 26 93 27 94 28 95 29 96 30 12 31 13 32
REMARK SMILES IDX 14 33 15 34 16 35 17 36 18 37 82 38 19 39 81 40 20 41 21 42
REMARK SMILES IDX 22 43 75 44 23 45 80 46 74 47 76 48 24 49 79 50 73 51 72 52
REMARK SMILES IDX 25 54 59 55 38 56 58 57 39 58 42 59 57 60 77 61 40 62 41 63
REMARK SMILES IDX 56 65 78 66 43 67 26 68 27 69 36 70 28 71 29 72 35 73 37 74
REMARK SMILES IDX 30 75 31 76 32 77 33 78 34 79 60 80 61 81 70 82 62 83 63 84
REMARK SMILES IDX 69 85 71 86 64 87 65 88 66 89 67 90 68 91 44 92 45 93 54 94
REMARK SMILES IDX 46 95 47 96 53 97 55 98 48 99 49 100 50 101 51 102 52 103
REMARK H PARENT 76 53 42 64
REMARK Flexibility Score: inf
ROOT
ATOM      1  O   UNL A   1      33.514  29.212  26.210  1.00  0.00    -0.374 OA
ENDROOT
BRANCH   1   2
ATOM      2  C   UNL A   1      33.423  27.938  26.832  1.00  0.00     0.202 C 
BRANCH   2   3
ATOM      3  C   UNL A   1      32.011  27.828  27.299  1.00  0.00     0.261 C 
BRANCH   3   4
ATOM      4  O   UNL A   1      31.266  26.851  26.539  1.00  0.00    -0.460 OA
BRANCH   4   5
ATOM      5  C   UNL A   1      30.818  27.075  25.268  1.00  0.00     0.338 C 
ATOM      6  O   UNL A   1      30.404  28.082  24.754  1.00  0.00    -0.246 OA
BRANCH   5   7
ATOM      7  C   UNL A   1      31.108  25.840  24.513  1.00  0.00     0.062 A 
ATOM      8  C   UNL A   1      32.974  22.877  22.032  1.00  0.00     0.046 C 
ATOM      9  C   UNL A   1      32.311  23.876  22.933  1.00  0.00    -0.027 A 
ATOM     10  C   UNL A   1      31.389  24.777  22.371  1.00  0.00     0.006 A 
ATOM     11  C   UNL A   1      32.568  23.950  24.311  1.00  0.00     0.054 A 
ATOM     12  C   UNL A   1      30.815  25.782  23.150  1.00  0.00     0.016 A 
ATOM     13  C   UNL A   1      31.887  24.856  25.108  1.00  0.00     0.042 A 
BRANCH  11  14
ATOM     14  N   UNL A   1      33.614  23.242  24.934  1.00  0.00    -0.261 N 
ATOM     15  C   UNL A   1      34.888  23.767  24.906  1.00  0.00     0.270 C 
ATOM     16  C   UNL A   1      33.492  21.932  25.387  1.00  0.00     0.152 C 
ATOM     17  O   UNL A   1      35.241  24.898  24.601  1.00  0.00    -0.268 OA
ATOM     18  C   UNL A   1      35.836  22.703  25.309  1.00  0.00     0.081 C 
ATOM     19  S   UNL A   1      35.015  21.455  26.144  1.00  0.00    -0.054 SA
ATOM     20  S   UNL A   1      32.200  20.878  25.307  1.00  0.00    -0.051 S 
ATOM     21  C   UNL A   1      37.110  22.721  24.915  1.00  0.00     0.029 C 
BRANCH  21  22
ATOM     22  C   UNL A   1      38.144  21.842  25.445  1.00  0.00    -0.024 A 
ATOM     23  C   UNL A   1      38.256  20.487  25.119  1.00  0.00     0.015 A 
ATOM     24  C   UNL A   1      39.096  22.454  26.268  1.00  0.00     0.015 A 
ATOM     25  C   UNL A   1      39.374  19.767  25.554  1.00  0.00     0.086 A 
ATOM     26  C   UNL A   1      40.210  21.748  26.700  1.00  0.00     0.086 A 
ATOM     27  C   UNL A   1      40.362  20.413  26.314  1.00  0.00     0.269 A 
BRANCH  27  28
ATOM     28  N   UNL A   1      41.598  19.710  26.673  1.00  0.00     0.062 N 
ATOM     29  O   UNL A   1      42.216  20.097  27.673  1.00  0.00    -0.258 OA
ATOM     30  O   UNL A   1      41.941  18.750  25.964  1.00  0.00    -0.258 OA
ENDBRANCH  27  28
ENDBRANCH  21  22
ENDBRANCH  11  14
ENDBRANCH   5   7
ENDBRANCH   4   5
ENDBRANCH   3   4
ENDBRANCH   2   3
ENDBRANCH   1   2
BRANCH   1  31
ATOM     31  C   UNL A   1      32.504  30.128  26.551  1.00  0.00     0.202 C 
BRANCH  31  32
ATOM     32  C   UNL A   1      33.057  31.417  27.167  1.00  0.00     0.261 C 
BRANCH  32  33
ATOM     33  O   UNL A   1      34.055  31.131  28.174  1.00  0.00    -0.460 OA
BRANCH  33  34
ATOM     34  C   UNL A   1      35.325  31.574  27.927  1.00  0.00     0.338 C 
ATOM     35  O   UNL A   1      35.582  32.691  27.512  1.00  0.00    -0.246 OA
BRANCH  34  36
ATOM     36  C   UNL A   1      36.332  30.542  28.309  1.00  0.00     0.060 A 
ATOM     37  C   UNL A   1      36.206  29.768  29.480  1.00  0.00     0.016 A 
ATOM     38  C   UNL A   1      37.505  30.473  27.569  1.00  0.00     0.016 A 
ATOM     39  C   UNL A   1      37.311  29.057  29.989  1.00  0.00     0.010 A 
ATOM     40  C   UNL A   1      38.605  29.863  28.124  1.00  0.00     0.010 A 
ATOM     41  C   UNL A   1      38.538  29.173  29.347  1.00  0.00    -0.014 A 
BRANCH  41  42
ATOM     42  C   UNL A   1      39.844  28.684  29.810  1.00  0.00     0.031 A 
ATOM     43  C   UNL A   1      40.222  27.310  29.391  1.00  0.00     0.074 A 
ATOM     44  C   UNL A   1      40.805  29.558  30.213  1.00  0.00     0.049 A 
ATOM     45  N   UNL A   1      41.330  26.735  29.693  1.00  0.00    -0.248 NA
ATOM     46  C   UNL A   1      39.353  26.439  28.596  1.00  0.00     0.031 C 
ATOM     47  C   UNL A   1      42.257  29.458  30.036  1.00  0.00     0.029 A 
ATOM     48  N   UNL A   1      40.679  30.801  30.840  1.00  0.00    -0.354 N 
ATOM     49  C   UNL A   1      41.496  25.673  28.828  1.00  0.00     0.074 A 
ATOM     50  C   UNL A   1      40.182  25.433  28.298  1.00  0.00     0.031 C 
ATOM     51  C   UNL A   1      42.876  30.397  30.776  1.00  0.00     0.029 A 
ATOM     52  C   UNL A   1      41.850  31.061  31.564  1.00  0.00     0.049 A 
ATOM     53  H   UNL A   1      39.897  31.396  30.782  1.00  0.00     0.167 HD
ATOM     54  C   UNL A   1      42.771  25.264  28.565  1.00  0.00     0.037 A 
ATOM     55  C   UNL A   1      41.787  31.217  32.913  1.00  0.00     0.037 A 
ATOM     56  C   UNL A   1      43.708  25.965  29.466  1.00  0.00     0.049 A 
ATOM     57  C   UNL A   1      42.516  30.052  33.517  1.00  0.00     0.074 A 
ATOM     58  C   UNL A   1      44.655  26.956  29.272  1.00  0.00     0.029 A 
ATOM     59  N   UNL A   1      43.501  25.895  30.846  1.00  0.00    -0.354 N 
ATOM     60  N   UNL A   1      42.648  28.916  32.885  1.00  0.00    -0.248 NA
ATOM     61  C   UNL A   1      43.295  30.105  34.747  1.00  0.00     0.031 C 
ATOM     62  C   UNL A   1      44.931  27.549  30.540  1.00  0.00     0.029 A 
ATOM     63  C   UNL A   1      44.166  26.911  31.507  1.00  0.00     0.049 A 
ATOM     64  H   UNL A   1      42.951  25.209  31.291  1.00  0.00     0.167 HD
ATOM     65  C   UNL A   1      43.599  28.168  33.498  1.00  0.00     0.074 A 
ATOM     66  C   UNL A   1      43.926  28.916  34.702  1.00  0.00     0.031 C 
ATOM     67  C   UNL A   1      44.099  27.019  32.963  1.00  0.00     0.037 A 
BRANCH  54  68
ATOM     68  C   UNL A   1      43.229  24.421  27.374  1.00  0.00     0.058 A 
ATOM     69  C   UNL A   1      44.010  23.261  27.591  1.00  0.00     0.135 A 
ATOM     70  C   UNL A   1      43.013  24.708  26.006  1.00  0.00     0.135 A 
ATOM     71  F   UNL A   1      44.297  22.832  28.828  1.00  0.00    -0.206 F 
ATOM     72  C   UNL A   1      44.548  22.484  26.556  1.00  0.00     0.059 A 
ATOM     73  C   UNL A   1      43.522  23.935  24.955  1.00  0.00     0.059 A 
ATOM     74  F   UNL A   1      42.307  25.760  25.591  1.00  0.00    -0.206 F 
ATOM     75  C   UNL A   1      44.298  22.827  25.237  1.00  0.00     0.060 A 
BRANCH  75  76
ATOM     76  S   UNL A   1      44.975  21.809  23.914  1.00  0.00     0.124 S 
ATOM     77  O   UNL A   1      44.197  22.249  22.761  1.00  0.00    -0.237 OA
ATOM     78  O   UNL A   1      46.382  22.196  23.919  1.00  0.00    -0.237 OA
ATOM     79  O   UNL A   1      44.705  20.443  24.359  1.00  0.00    -0.744 OA
ENDBRANCH  75  76
ENDBRANCH  54  68
BRANCH  55  80
ATOM     80  C   UNL A   1      40.517  31.905  33.323  1.00  0.00     0.058 A 
ATOM     81  C   UNL A   1      40.345  33.232  32.861  1.00  0.00     0.135 A 
ATOM     82  C   UNL A   1      39.345  31.185  33.611  1.00  0.00     0.135 A 
ATOM     83  F   UNL A   1      41.422  33.975  32.546  1.00  0.00    -0.206 F 
ATOM     84  C   UNL A   1      39.090  33.761  32.549  1.00  0.00     0.059 A 
ATOM     85  C   UNL A   1      38.076  31.693  33.290  1.00  0.00     0.059 A 
ATOM     86  F   UNL A   1      39.423  29.918  34.043  1.00  0.00    -0.206 F 
ATOM     87  C   UNL A   1      37.964  32.957  32.707  1.00  0.00     0.060 A 
BRANCH  87  88
ATOM     88  S   UNL A   1      36.412  33.491  31.925  1.00  0.00     0.124 S 
ATOM     89  O   UNL A   1      36.867  33.913  30.607  1.00  0.00    -0.237 OA
ATOM     90  O   UNL A   1      35.613  32.267  31.955  1.00  0.00    -0.237 OA
ATOM     91  O   UNL A   1      35.943  34.553  32.807  1.00  0.00    -0.744 OA
ENDBRANCH  87  88
ENDBRANCH  55  80
BRANCH  67  92
ATOM     92  C   UNL A   1      44.644  25.915  33.812  1.00  0.00     0.058 A 
ATOM     93  C   UNL A   1      43.820  25.094  34.602  1.00  0.00     0.135 A 
ATOM     94  C   UNL A   1      45.996  25.522  33.704  1.00  0.00     0.135 A 
ATOM     95  F   UNL A   1      42.494  25.282  34.676  1.00  0.00    -0.206 F 
ATOM     96  C   UNL A   1      44.323  24.020  35.322  1.00  0.00     0.059 A 
ATOM     97  C   UNL A   1      46.502  24.405  34.354  1.00  0.00     0.059 A 
ATOM     98  F   UNL A   1      46.872  26.196  32.944  1.00  0.00    -0.206 F 
ATOM     99  C   UNL A   1      45.666  23.690  35.196  1.00  0.00     0.060 A 
BRANCH  99 100
ATOM    100  S   UNL A   1      46.310  22.311  36.145  1.00  0.00     0.124 S 
ATOM    101  O   UNL A   1      46.143  22.806  37.509  1.00  0.00    -0.237 OA
ATOM    102  O   UNL A   1      45.425  21.217  35.756  1.00  0.00    -0.237 OA
ATOM    103  O   UNL A   1      47.688  22.192  35.679  1.00  0.00    -0.744 OA
ENDBRANCH  99 100
ENDBRANCH  67  92
ENDBRANCH  41  42
ENDBRANCH  34  36
ENDBRANCH  33  34
ENDBRANCH  32  33
ENDBRANCH  31  32
ENDBRANCH   1  31
TORSDOF 20
ENDMDL
MODEL 2
REMARK VINA RESULT:     -10.9      4.462     10.653
REMARK SMILES Cc1ccc(C(=O)OCCOCCOC(=O)c2ccc(-c3c4nc(c(-c5c(F)cc(S(=O)(=O)[O-])cc5F)c5ccc([nH]5)c(-c5c(F)cc(S(=O)(=O)[O-])cc5F)c5nc(c(-c6c(F)cc(S(=O)(=O)[O-])cc6F)c6ccc3[nH]6)C=C5)C=C4)cc2)cc1N1C(=O)/C(=C/c2ccc([N+](=O)[O-])cc2)SC1=S
REMARK SMILES IDX 11 1 10 2 9 3 8 4 6 5 7 6 5 7 1 8 2 9 3 10 84 11 4 12 83 13
REMARK SMILES IDX 85 14 86 15 100 16 87 17 88 18 99 19 101 20 89 21 90 22
REMARK SMILES IDX 91 23 98 24 92 25 97 26 93 27 94 28 95 29 96 30 12 31 13 32
REMARK SMILES IDX 14 33 15 34 16 35 17 36 18 37 82 38 19 39 81 40 20 41 21 42
REMARK SMILES IDX 22 43 75 44 23 45 80 46 74 47 76 48 24 49 79 50 73 51 72 52
REMARK SMILES IDX 25 54 59 55 38 56 58 57 39 58 42 59 57 60 77 61 40 62 41 63
REMARK SMILES IDX 56 65 78 66 43 67 26 68 27 69 36 70 28 71 29 72 35 73 37 74
REMARK SMILES IDX 30 75 31 76 32 77 33 78 34 79 60 80 61 81 70 82 62 83 63 84
REMARK SMILES IDX 69 85 71 86 64 87 65 88 66 89 67 90 68 91 44 92 45 93 54 94
REMARK SMILES IDX 46 95 47 96 53 97 55 98 48 99 49 100 50 101 51 102 52 103
REMARK H PARENT 76 53 42 64
REMARK Flexibility Score: inf
ROOT
ATOM      1  O   UNL A   1      45.926  29.682  27.816  1.00  0.00    -0.374 OA
ENDROOT
BRANCH   1   2
ATOM      2  C   UNL A   1      44.974  29.478  28.850  1.00  0.00     0.202 C 
BRANCH   2   3
ATOM      3  C   UNL A   1      44.630  30.843  29.342  1.00  0.00     0.261 C 
BRANCH   3   4
ATOM      4  O   UNL A   1      43.214  31.112  29.240  1.00  0.00    -0.460 OA
BRANCH   4   5
ATOM      5  C   UNL A   1      42.418  31.353  30.324  1.00  0.00     0.338 C 
ATOM      6  O   UNL A   1      42.593  32.069  31.276  1.00  0.00    -0.246 OA
BRANCH   5   7
ATOM      7  C   UNL A   1      41.133  30.683  30.040  1.00  0.00     0.062 A 
ATOM      8  C   UNL A   1      37.633  29.160  28.078  1.00  0.00     0.046 C 
ATOM      9  C   UNL A   1      38.862  29.647  28.787  1.00  0.00    -0.027 A 
ATOM     10  C   UNL A   1      38.812  30.895  29.434  1.00  0.00     0.006 A 
ATOM     11  C   UNL A   1      40.057  28.913  28.834  1.00  0.00     0.054 A 
ATOM     12  C   UNL A   1      39.955  31.431  30.028  1.00  0.00     0.016 A 
ATOM     13  C   UNL A   1      41.146  29.384  29.549  1.00  0.00     0.042 A 
BRANCH  11  14
ATOM     14  N   UNL A   1      40.280  27.761  28.055  1.00  0.00    -0.261 N 
ATOM     15  C   UNL A   1      39.994  26.523  28.590  1.00  0.00     0.270 C 
ATOM     16  C   UNL A   1      40.981  27.770  26.853  1.00  0.00     0.152 C 
ATOM     17  O   UNL A   1      39.352  26.257  29.597  1.00  0.00    -0.268 OA
ATOM     18  C   UNL A   1      40.622  25.492  27.733  1.00  0.00     0.081 C 
ATOM     19  S   UNL A   1      40.979  26.135  26.187  1.00  0.00    -0.054 SA
ATOM     20  S   UNL A   1      41.739  29.026  26.056  1.00  0.00    -0.051 S 
ATOM     21  C   UNL A   1      40.959  24.296  28.218  1.00  0.00     0.029 C 
BRANCH  21  22
ATOM     22  C   UNL A   1      41.371  23.166  27.396  1.00  0.00    -0.024 A 
ATOM     23  C   UNL A   1      42.645  23.035  26.835  1.00  0.00     0.015 A 
ATOM     24  C   UNL A   1      40.423  22.146  27.248  1.00  0.00     0.015 A 
ATOM     25  C   UNL A   1      42.994  21.840  26.195  1.00  0.00     0.086 A 
ATOM     26  C   UNL A   1      40.762  20.957  26.619  1.00  0.00     0.086 A 
ATOM     27  C   UNL A   1      42.059  20.795  26.122  1.00  0.00     0.269 A 
BRANCH  27  28
ATOM     28  N   UNL A   1      42.446  19.494  25.567  1.00  0.00     0.062 N 
ATOM     29  O   UNL A   1      41.750  18.511  25.855  1.00  0.00    -0.258 OA
ATOM     30  O   UNL A   1      43.437  19.457  24.821  1.00  0.00    -0.258 OA
ENDBRANCH  27  28
ENDBRANCH  21  22
ENDBRANCH  11  14
ENDBRANCH   5   7
ENDBRANCH   4   5
ENDBRANCH   3   4
ENDBRANCH   2   3
ENDBRANCH   1   2
BRANCH   1  31
ATOM     31  C   UNL A   1      46.072  28.621  26.905  1.00  0.00     0.202 C 
BRANCH  31  32
ATOM     32  C   UNL A   1      45.092  27.475  27.169  1.00  0.00     0.261 C 
BRANCH  32  33
ATOM     33  O   UNL A   1      45.593  26.225  26.640  1.00  0.00    -0.460 OA
BRANCH  33  34
ATOM     34  C   UNL A   1      46.648  25.656  27.299  1.00  0.00     0.338 C 
ATOM     35  O   UNL A   1      47.763  25.544  26.819  1.00  0.00    -0.246 OA
BRANCH  34  36
ATOM     36  C   UNL A   1      46.264  25.278  28.690  1.00  0.00     0.060 A 
ATOM     37  C   UNL A   1      45.062  24.604  28.980  1.00  0.00     0.016 A 
ATOM     38  C   UNL A   1      47.043  25.761  29.732  1.00  0.00     0.016 A 
ATOM     39  C   UNL A   1      44.566  24.559  30.298  1.00  0.00     0.010 A 
ATOM     40  C   UNL A   1      46.507  25.805  30.998  1.00  0.00     0.010 A 
ATOM     41  C   UNL A   1      45.257  25.235  31.298  1.00  0.00    -0.014 A 
BRANCH  41  42
ATOM     42  C   UNL A   1      44.824  25.481  32.680  1.00  0.00     0.031 A 
ATOM     43  C   UNL A   1      44.258  26.824  32.967  1.00  0.00     0.074 A 
ATOM     44  C   UNL A   1      44.559  24.441  33.516  1.00  0.00     0.049 A 
ATOM     45  N   UNL A   1      43.820  27.200  34.115  1.00  0.00    -0.248 NA
ATOM     46  C   UNL A   1      44.157  27.890  31.967  1.00  0.00     0.031 C 
ATOM     47  C   UNL A   1      43.532  24.352  34.558  1.00  0.00     0.029 A 
ATOM     48  N   UNL A   1      45.136  23.168  33.574  1.00  0.00    -0.354 N 
ATOM     49  C   UNL A   1      43.031  28.313  33.912  1.00  0.00     0.074 A 
ATOM     50  C   UNL A   1      43.413  28.793  32.613  1.00  0.00     0.031 C 
ATOM     51  C   UNL A   1      43.743  23.261  35.320  1.00  0.00     0.029 A 
ATOM     52  C   UNL A   1      44.996  22.670  34.875  1.00  0.00     0.049 A 
ATOM     53  H   UNL A   1      45.569  22.701  32.823  1.00  0.00     0.167 HD
ATOM     54  C   UNL A   1      42.044  28.562  34.821  1.00  0.00     0.037 A 
ATOM     55  C   UNL A   1      46.103  22.381  35.609  1.00  0.00     0.037 A 
ATOM     56  C   UNL A   1      42.187  27.643  35.967  1.00  0.00     0.049 A 
ATOM     57  C   UNL A   1      46.133  23.359  36.747  1.00  0.00     0.074 A 
ATOM     58  C   UNL A   1      41.457  26.554  36.413  1.00  0.00     0.029 A 
ATOM     59  N   UNL A   1      43.407  27.595  36.649  1.00  0.00    -0.354 N 
ATOM     60  N   UNL A   1      45.549  24.526  36.672  1.00  0.00    -0.248 NA
ATOM     61  C   UNL A   1      46.632  23.065  38.085  1.00  0.00     0.031 C 
ATOM     62  C   UNL A   1      42.295  25.796  37.285  1.00  0.00     0.029 A 
ATOM     63  C   UNL A   1      43.527  26.429  37.383  1.00  0.00     0.049 A 
ATOM     64  H   UNL A   1      44.092  28.300  36.609  1.00  0.00     0.167 HD
ATOM     65  C   UNL A   1      45.453  25.061  37.915  1.00  0.00     0.074 A 
ATOM     66  C   UNL A   1      46.209  24.150  38.760  1.00  0.00     0.031 C 
ATOM     67  C   UNL A   1      44.720  26.177  38.186  1.00  0.00     0.037 A 
BRANCH  54  68
ATOM     68  C   UNL A   1      40.818  29.454  34.612  1.00  0.00     0.058 A 
ATOM     69  C   UNL A   1      39.967  29.233  33.502  1.00  0.00     0.135 A 
ATOM     70  C   UNL A   1      40.447  30.572  35.394  1.00  0.00     0.135 A 
ATOM     71  F   UNL A   1      40.163  28.204  32.665  1.00  0.00    -0.206 F 
ATOM     72  C   UNL A   1      38.879  30.055  33.184  1.00  0.00     0.059 A 
ATOM     73  C   UNL A   1      39.351  31.396  35.108  1.00  0.00     0.059 A 
ATOM     74  F   UNL A   1      41.121  30.952  36.479  1.00  0.00    -0.206 F 
ATOM     75  C   UNL A   1      38.574  31.137  33.994  1.00  0.00     0.060 A 
BRANCH  75  76
ATOM     76  S   UNL A   1      37.159  32.176  33.590  1.00  0.00     0.124 S 
ATOM     77  O   UNL A   1      36.294  31.247  32.870  1.00  0.00    -0.237 OA
ATOM     78  O   UNL A   1      36.693  32.587  34.910  1.00  0.00    -0.237 OA
ATOM     79  O   UNL A   1      37.738  33.243  32.776  1.00  0.00    -0.744 OA
ENDBRANCH  75  76
ENDBRANCH  54  68
BRANCH  55  80
ATOM     80  C   UNL A   1      47.204  21.841  34.744  1.00  0.00     0.058 A 
ATOM     81  C   UNL A   1      48.347  22.665  34.595  1.00  0.00     0.135 A 
ATOM     82  C   UNL A   1      47.401  20.460  34.572  1.00  0.00     0.135 A 
ATOM     83  F   UNL A   1      48.238  23.995  34.764  1.00  0.00    -0.206 F 
ATOM     84  C   UNL A   1      49.634  22.142  34.445  1.00  0.00     0.059 A 
ATOM     85  C   UNL A   1      48.689  19.915  34.437  1.00  0.00     0.059 A 
ATOM     86  F   UNL A   1      46.372  19.612  34.708  1.00  0.00    -0.206 F 
ATOM     87  C   UNL A   1      49.800  20.760  34.432  1.00  0.00     0.060 A 
BRANCH  87  88
ATOM     88  S   UNL A   1      51.479  20.096  34.650  1.00  0.00     0.124 S 
ATOM     89  O   UNL A   1      52.106  21.125  35.471  1.00  0.00    -0.237 OA
ATOM     90  O   UNL A   1      51.223  18.823  35.321  1.00  0.00    -0.237 OA
ATOM     91  O   UNL A   1      51.973  19.983  33.283  1.00  0.00    -0.744 OA
ENDBRANCH  87  88
ENDBRANCH  55  80
BRANCH  67  92
ATOM     92  C   UNL A   1      45.058  27.096  39.318  1.00  0.00     0.058 A 
ATOM     93  C   UNL A   1      44.752  26.789  40.656  1.00  0.00     0.135 A 
ATOM     94  C   UNL A   1      45.879  28.226  39.110  1.00  0.00     0.135 A 
ATOM     95  F   UNL A   1      44.095  25.669  40.994  1.00  0.00    -0.206 F 
ATOM     96  C   UNL A   1      45.141  27.606  41.707  1.00  0.00     0.059 A 
ATOM     97  C   UNL A   1      46.344  29.011  40.155  1.00  0.00     0.059 A 
ATOM     98  F   UNL A   1      46.278  28.596  37.884  1.00  0.00    -0.206 F 
ATOM     99  C   UNL A   1      45.931  28.718  41.444  1.00  0.00     0.060 A 
BRANCH  99 100
ATOM    100  S   UNL A   1      46.414  29.777  42.808  1.00  0.00     0.124 S 
ATOM    101  O   UNL A   1      45.274  29.617  43.706  1.00  0.00    -0.237 OA
ATOM    102  O   UNL A   1      47.663  29.169  43.256  1.00  0.00    -0.237 OA
ATOM    103  O   UNL A   1      46.550  31.091  42.186  1.00  0.00    -0.744 OA
ENDBRANCH  99 100
ENDBRANCH  67  92
ENDBRANCH  41  42
ENDBRANCH  34  36
ENDBRANCH  33  34
ENDBRANCH  32  33
ENDBRANCH  31  32
ENDBRANCH   1  31
TORSDOF 20
ENDMDL
MODEL 3
REMARK VINA RESULT:     -10.5      1.904      2.415
REMARK SMILES Cc1ccc(C(=O)OCCOCCOC(=O)c2ccc(-c3c4nc(c(-c5c(F)cc(S(=O)(=O)[O-])cc5F)c5ccc([nH]5)c(-c5c(F)cc(S(=O)(=O)[O-])cc5F)c5nc(c(-c6c(F)cc(S(=O)(=O)[O-])cc6F)c6ccc3[nH]6)C=C5)C=C4)cc2)cc1N1C(=O)/C(=C/c2ccc([N+](=O)[O-])cc2)SC1=S
REMARK SMILES IDX 11 1 10 2 9 3 8 4 6 5 7 6 5 7 1 8 2 9 3 10 84 11 4 12 83 13
REMARK SMILES IDX 85 14 86 15 100 16 87 17 88 18 99 19 101 20 89 21 90 22
REMARK SMILES IDX 91 23 98 24 92 25 97 26 93 27 94 28 95 29 96 30 12 31 13 32
REMARK SMILES IDX 14 33 15 34 16 35 17 36 18 37 82 38 19 39 81 40 20 41 21 42
REMARK SMILES IDX 22 43 75 44 23 45 80 46 74 47 76 48 24 49 79 50 73 51 72 52
REMARK SMILES IDX 25 54 59 55 38 56 58 57 39 58 42 59 57 60 77 61 40 62 41 63
REMARK SMILES IDX 56 65 78 66 43 67 26 68 27 69 36 70 28 71 29 72 35 73 37 74
REMARK SMILES IDX 30 75 31 76 32 77 33 78 34 79 60 80 61 81 70 82 62 83 63 84
REMARK SMILES IDX 69 85 71 86 64 87 65 88 66 89 67 90 68 91 44 92 45 93 54 94
REMARK SMILES IDX 46 95 47 96 53 97 55 98 48 99 49 100 50 101 51 102 52 103
REMARK H PARENT 76 53 42 64
REMARK Flexibility Score: inf
ROOT
ATOM      1  O   UNL A   1      33.983  29.567  26.582  1.00  0.00    -0.374 OA
ENDROOT
BRANCH   1   2
ATOM      2  C   UNL A   1      33.412  28.758  25.564  1.00  0.00     0.202 C 
BRANCH   2   3
ATOM      3  C   UNL A   1      31.995  29.209  25.452  1.00  0.00     0.261 C 
BRANCH   3   4
ATOM      4  O   UNL A   1      31.070  28.100  25.508  1.00  0.00    -0.460 OA
BRANCH   4   5
ATOM      5  C   UNL A   1      30.380  27.645  24.421  1.00  0.00     0.338 C 
ATOM      6  O   UNL A   1      29.827  28.250  23.540  1.00  0.00    -0.246 OA
BRANCH   5   7
ATOM      7  C   UNL A   1      30.583  26.182  24.396  1.00  0.00     0.062 A 
ATOM      8  C   UNL A   1      32.067  22.249  23.533  1.00  0.00     0.046 C 
ATOM      9  C   UNL A   1      31.547  23.611  23.885  1.00  0.00    -0.027 A 
ATOM     10  C   UNL A   1      30.469  24.128  23.144  1.00  0.00     0.006 A 
ATOM     11  C   UNL A   1      32.087  24.391  24.920  1.00  0.00     0.054 A 
ATOM     12  C   UNL A   1      30.010  25.426  23.372  1.00  0.00     0.016 A 
ATOM     13  C   UNL A   1      31.533  25.621  25.238  1.00  0.00     0.042 A 
BRANCH  11  14
ATOM     14  N   UNL A   1      33.286  24.062  25.580  1.00  0.00    -0.261 N 
ATOM     15  C   UNL A   1      34.484  24.487  25.047  1.00  0.00     0.270 C 
ATOM     16  C   UNL A   1      33.362  23.142  26.622  1.00  0.00     0.152 C 
ATOM     17  O   UNL A   1      34.677  25.319  24.172  1.00  0.00    -0.268 OA
ATOM     18  C   UNL A   1      35.577  23.741  25.712  1.00  0.00     0.081 C 
ATOM     19  S   UNL A   1      35.033  23.073  27.191  1.00  0.00    -0.054 SA
ATOM     20  S   UNL A   1      32.172  22.203  27.321  1.00  0.00    -0.051 S 
ATOM     21  C   UNL A   1      36.751  23.546  25.110  1.00  0.00     0.029 C 
BRANCH  21  22
ATOM     22  C   UNL A   1      37.936  23.022  25.777  1.00  0.00    -0.024 A 
ATOM     23  C   UNL A   1      38.414  21.720  25.606  1.00  0.00     0.015 A 
ATOM     24  C   UNL A   1      38.639  23.937  26.570  1.00  0.00     0.015 A 
ATOM     25  C   UNL A   1      39.647  21.362  26.164  1.00  0.00     0.086 A 
ATOM     26  C   UNL A   1      39.863  23.591  27.124  1.00  0.00     0.086 A 
ATOM     27  C   UNL A   1      40.380  22.313  26.892  1.00  0.00     0.269 A 
BRANCH  27  28
ATOM     28  N   UNL A   1      41.726  21.995  27.378  1.00  0.00     0.062 N 
ATOM     29  O   UNL A   1      42.565  22.905  27.397  1.00  0.00    -0.258 OA
ATOM     30  O   UNL A   1      41.940  20.836  27.765  1.00  0.00    -0.258 OA
ENDBRANCH  27  28
ENDBRANCH  21  22
ENDBRANCH  11  14
ENDBRANCH   5   7
ENDBRANCH   4   5
ENDBRANCH   3   4
ENDBRANCH   2   3
ENDBRANCH   1   2
BRANCH   1  31
ATOM     31  C   UNL A   1      33.109  30.483  27.192  1.00  0.00     0.202 C 
BRANCH  31  32
ATOM     32  C   UNL A   1      33.831  31.714  27.746  1.00  0.00     0.261 C 
BRANCH  32  33
ATOM     33  O   UNL A   1      34.902  31.334  28.643  1.00  0.00    -0.460 OA
BRANCH  33  34
ATOM     34  C   UNL A   1      36.015  32.128  28.645  1.00  0.00     0.338 C 
ATOM     35  O   UNL A   1      35.976  33.346  28.624  1.00  0.00    -0.246 OA
BRANCH  34  36
ATOM     36  C   UNL A   1      37.255  31.304  28.757  1.00  0.00     0.060 A 
ATOM     37  C   UNL A   1      37.226  29.897  28.718  1.00  0.00     0.016 A 
ATOM     38  C   UNL A   1      38.439  31.954  29.077  1.00  0.00     0.016 A 
ATOM     39  C   UNL A   1      38.335  29.147  29.157  1.00  0.00     0.010 A 
ATOM     40  C   UNL A   1      39.479  31.221  29.599  1.00  0.00     0.010 A 
ATOM     41  C   UNL A   1      39.437  29.818  29.676  1.00  0.00    -0.014 A 
BRANCH  41  42
ATOM     42  C   UNL A   1      40.602  29.240  30.359  1.00  0.00     0.031 A 
ATOM     43  C   UNL A   1      41.367  28.211  29.607  1.00  0.00     0.074 A 
ATOM     44  C   UNL A   1      41.186  29.892  31.399  1.00  0.00     0.049 A 
ATOM     45  N   UNL A   1      42.417  27.617  30.047  1.00  0.00    -0.248 NA
ATOM     46  C   UNL A   1      40.991  27.739  28.272  1.00  0.00     0.031 C 
ATOM     47  C   UNL A   1      42.608  29.951  31.752  1.00  0.00     0.029 A 
ATOM     48  N   UNL A   1      40.617  30.723  32.369  1.00  0.00    -0.354 N 
ATOM     49  C   UNL A   1      43.060  27.055  28.965  1.00  0.00     0.074 A 
ATOM     50  C   UNL A   1      42.058  27.010  27.935  1.00  0.00     0.031 C 
ATOM     51  C   UNL A   1      42.756  30.496  32.975  1.00  0.00     0.029 A 
ATOM     52  C   UNL A   1      41.420  30.693  33.515  1.00  0.00     0.049 A 
ATOM     53  H   UNL A   1      39.788  31.244  32.262  1.00  0.00     0.167 HD
ATOM     54  C   UNL A   1      44.409  26.867  29.058  1.00  0.00     0.037 A 
ATOM     55  C   UNL A   1      40.906  30.235  34.687  1.00  0.00     0.037 A 
ATOM     56  C   UNL A   1      44.850  27.143  30.439  1.00  0.00     0.049 A 
ATOM     57  C   UNL A   1      41.631  28.961  35.008  1.00  0.00     0.074 A 
ATOM     58  C   UNL A   1      45.585  28.163  31.019  1.00  0.00     0.029 A 
ATOM     59  N   UNL A   1      44.238  26.461  31.495  1.00  0.00    -0.354 N 
ATOM     60  N   UNL A   1      42.185  28.228  34.079  1.00  0.00    -0.248 NA
ATOM     61  C   UNL A   1      41.955  28.503  36.353  1.00  0.00     0.031 C 
ATOM     62  C   UNL A   1      45.319  28.149  32.421  1.00  0.00     0.029 A 
ATOM     63  C   UNL A   1      44.437  27.113  32.698  1.00  0.00     0.049 A 
ATOM     64  H   UNL A   1      43.729  25.624  31.394  1.00  0.00     0.167 HD
ATOM     65  C   UNL A   1      43.027  27.334  34.655  1.00  0.00     0.074 A 
ATOM     66  C   UNL A   1      42.798  27.489  36.083  1.00  0.00     0.031 C 
ATOM     67  C   UNL A   1      43.895  26.565  33.939  1.00  0.00     0.037 A 
BRANCH  54  68
ATOM     68  C   UNL A   1      45.381  26.659  27.896  1.00  0.00     0.058 A 
ATOM     69  C   UNL A   1      45.425  27.598  26.838  1.00  0.00     0.135 A 
ATOM     70  C   UNL A   1      46.240  25.553  27.704  1.00  0.00     0.135 A 
ATOM     71  F   UNL A   1      44.687  28.717  26.865  1.00  0.00    -0.206 F 
ATOM     72  C   UNL A   1      46.218  27.440  25.693  1.00  0.00     0.059 A 
ATOM     73  C   UNL A   1      47.057  25.383  26.579  1.00  0.00     0.059 A 
ATOM     74  F   UNL A   1      46.342  24.555  28.582  1.00  0.00    -0.206 F 
ATOM     75  C   UNL A   1      47.035  26.328  25.570  1.00  0.00     0.060 A 
BRANCH  75  76
ATOM     76  S   UNL A   1      48.066  26.144  24.105  1.00  0.00     0.124 S 
ATOM     77  O   UNL A   1      47.689  27.313  23.317  1.00  0.00    -0.237 OA
ATOM     78  O   UNL A   1      49.411  26.165  24.672  1.00  0.00    -0.237 OA
ATOM     79  O   UNL A   1      47.647  24.860  23.549  1.00  0.00    -0.744 OA
ENDBRANCH  75  76
ENDBRANCH  54  68
BRANCH  55  80
ATOM     80  C   UNL A   1      39.459  30.609  34.829  1.00  0.00     0.058 A 
ATOM     81  C   UNL A   1      39.188  31.834  35.486  1.00  0.00     0.135 A 
ATOM     82  C   UNL A   1      38.485  30.156  33.923  1.00  0.00     0.135 A 
ATOM     83  F   UNL A   1      40.085  32.339  36.354  1.00  0.00    -0.206 F 
ATOM     84  C   UNL A   1      38.099  32.642  35.149  1.00  0.00     0.059 A 
ATOM     85  C   UNL A   1      37.392  30.960  33.559  1.00  0.00     0.059 A 
ATOM     86  F   UNL A   1      38.671  29.010  33.253  1.00  0.00    -0.206 F 
ATOM     87  C   UNL A   1      37.241  32.223  34.135  1.00  0.00     0.060 A 
BRANCH  87  88
ATOM     88  S   UNL A   1      36.091  33.441  33.427  1.00  0.00     0.124 S 
ATOM     89  O   UNL A   1      36.780  34.698  33.695  1.00  0.00    -0.237 OA
ATOM     90  O   UNL A   1      36.039  33.037  32.023  1.00  0.00    -0.237 OA
ATOM     91  O   UNL A   1      34.863  33.215  34.179  1.00  0.00    -0.744 OA
ENDBRANCH  87  88
ENDBRANCH  55  80
BRANCH  67  92
ATOM     92  C   UNL A   1      44.360  25.227  34.422  1.00  0.00     0.058 A 
ATOM     93  C   UNL A   1      43.466  24.201  34.778  1.00  0.00     0.135 A 
ATOM     94  C   UNL A   1      45.724  24.869  34.352  1.00  0.00     0.135 A 
ATOM     95  F   UNL A   1      42.137  24.378  34.749  1.00  0.00    -0.206 F 
ATOM     96  C   UNL A   1      43.904  22.938  35.146  1.00  0.00     0.059 A 
ATOM     97  C   UNL A   1      46.174  23.589  34.640  1.00  0.00     0.059 A 
ATOM     98  F   UNL A   1      46.669  25.746  33.980  1.00  0.00    -0.206 F 
ATOM     99  C   UNL A   1      45.260  22.645  35.079  1.00  0.00     0.060 A 
BRANCH  99 100
ATOM    100  S   UNL A   1      45.817  21.014  35.574  1.00  0.00     0.124 S 
ATOM    101  O   UNL A   1      44.818  20.167  34.929  1.00  0.00    -0.237 OA
ATOM    102  O   UNL A   1      47.160  20.952  35.006  1.00  0.00    -0.237 OA
ATOM    103  O   UNL A   1      45.760  21.063  37.031  1.00  0.00    -0.744 OA
ENDBRANCH  99 100
ENDBRANCH  67  92
ENDBRANCH  41  42
ENDBRANCH  34  36
ENDBRANCH  33  34
ENDBRANCH  32  33
ENDBRANCH  31  32
ENDBRANCH   1  31
TORSDOF 20
ENDMDL
