MODEL 1
REMARK VINA RESULT:      -9.7      0.000      0.000
REMARK SMILES CC(C)c1nc(N(C)CCc2ccccn2)sc1C(=O)OCCOCCOC(=O)c1ccc(-c2c3nc(c(-c4c(F)cc(S(=O)(=O)[O-])cc4F)c4ccc([nH]4)c(-c4c(F)cc(S(=O)(=O)[O-])cc4F)c4nc(c(-c5c(F)cc(S(=O)(=O)[O-])cc5F)c5ccc2[nH]5)C=C4)C=C3)cc1
REMARK SMILES IDX 23 1 22 2 21 3 19 4 20 5 18 6 4 7 5 8 6 9 17 10 2 11 1 12
REMARK SMILES IDX 3 13 7 14 8 15 9 16 10 17 11 18 12 19 16 20 13 21 15 22
REMARK SMILES IDX 14 23 24 24 25 25 26 26 27 27 28 28 29 29 30 30 31 31 95 32
REMARK SMILES IDX 32 33 94 34 33 35 34 36 35 37 88 38 36 39 93 40 87 41 89 42
REMARK SMILES IDX 37 43 92 44 86 45 85 46 38 48 72 49 51 50 71 51 52 52 55 53
REMARK SMILES IDX 70 54 90 55 53 56 54 57 69 59 91 60 56 61 39 62 40 63 49 64
REMARK SMILES IDX 41 65 42 66 48 67 50 68 43 69 44 70 45 71 46 72 47 73 73 74
REMARK SMILES IDX 74 75 83 76 75 77 76 78 82 79 84 80 77 81 78 82 79 83 80 84
REMARK SMILES IDX 81 85 57 86 58 87 67 88 59 89 60 90 66 91 68 92 61 93 62 94
REMARK SMILES IDX 63 95 64 96 65 97
REMARK H PARENT 89 47 55 58
REMARK Flexibility Score: inf
ROOT
ATOM      1  C   UNL A   1      34.514  22.130  26.403  1.00  0.00     0.202 C 
ENDROOT
BRANCH   1   2
ATOM      2  C   UNL A   1      33.088  21.796  26.844  1.00  0.00     0.261 C 
BRANCH   2   3
ATOM      3  O   UNL A   1      32.334  23.013  26.979  1.00  0.00    -0.459 OA
BRANCH   3   4
ATOM      4  C   UNL A   1      31.160  23.082  26.295  1.00  0.00     0.350 C 
ATOM      5  O   UNL A   1      30.194  22.357  26.504  1.00  0.00    -0.245 OA
BRANCH   4   6
ATOM      6  C   UNL A   1      31.186  24.208  25.389  1.00  0.00     0.137 A 
ATOM      7  C   UNL A   1      31.857  24.444  24.200  1.00  0.00     0.071 A 
ATOM      8  N   UNL A   1      31.666  25.726  23.694  1.00  0.00    -0.224 NA
ATOM      9  C   UNL A   1      30.895  26.463  24.459  1.00  0.00     0.186 A 
ATOM     10  S   UNL A   1      30.275  25.597  25.815  1.00  0.00    -0.089 S 
BRANCH   7  11
ATOM     11  C   UNL A   1      32.743  23.512  23.409  1.00  0.00     0.034 C 
ATOM     12  C   UNL A   1      32.056  22.168  23.158  1.00  0.00     0.014 C 
ATOM     13  C   UNL A   1      33.173  24.137  22.081  1.00  0.00     0.014 C 
ENDBRANCH   7  11
BRANCH   9  14
ATOM     14  N   UNL A   1      30.622  27.779  24.208  1.00  0.00    -0.351 N 
ATOM     15  C   UNL A   1      29.656  28.204  23.213  1.00  0.00     0.146 C 
BRANCH  14  16
ATOM     16  C   UNL A   1      31.481  28.806  24.815  1.00  0.00     0.125 C 
BRANCH  16  17
ATOM     17  C   UNL A   1      32.567  28.213  25.718  1.00  0.00     0.077 C 
BRANCH  17  18
ATOM     18  C   UNL A   1      33.345  29.248  26.487  1.00  0.00     0.042 A 
ATOM     19  C   UNL A   1      32.757  30.459  26.843  1.00  0.00     0.024 A 
ATOM     20  N   UNL A   1      34.628  28.940  26.800  1.00  0.00    -0.261 NA
ATOM     21  C   UNL A   1      33.506  31.386  27.562  1.00  0.00     0.003 A 
ATOM     22  C   UNL A   1      35.326  29.854  27.509  1.00  0.00     0.111 A 
ATOM     23  C   UNL A   1      34.817  31.081  27.903  1.00  0.00     0.020 A 
ENDBRANCH  17  18
ENDBRANCH  16  17
ENDBRANCH  14  16
ENDBRANCH   9  14
ENDBRANCH   4   6
ENDBRANCH   3   4
ENDBRANCH   2   3
ENDBRANCH   1   2
BRANCH   1  24
ATOM     24  O   UNL A   1      35.134  21.073  25.668  1.00  0.00    -0.374 OA
BRANCH  24  25
ATOM     25  C   UNL A   1      36.134  21.477  24.728  1.00  0.00     0.202 C 
BRANCH  25  26
ATOM     26  C   UNL A   1      37.565  21.404  25.270  1.00  0.00     0.261 C 
BRANCH  26  27
ATOM     27  O   UNL A   1      37.976  22.678  25.802  1.00  0.00    -0.460 OA
BRANCH  27  28
ATOM     28  C   UNL A   1      39.160  22.670  26.462  1.00  0.00     0.338 C 
ATOM     29  O   UNL A   1      39.945  21.742  26.551  1.00  0.00    -0.246 OA
BRANCH  28  30
ATOM     30  C   UNL A   1      39.476  24.034  26.938  1.00  0.00     0.060 A 
ATOM     31  C   UNL A   1      40.014  24.932  26.009  1.00  0.00     0.016 A 
ATOM     32  C   UNL A   1      39.297  24.419  28.271  1.00  0.00     0.016 A 
ATOM     33  C   UNL A   1      40.419  26.202  26.416  1.00  0.00     0.010 A 
ATOM     34  C   UNL A   1      39.710  25.693  28.679  1.00  0.00     0.010 A 
ATOM     35  C   UNL A   1      40.302  26.578  27.760  1.00  0.00    -0.014 A 
BRANCH  35  36
ATOM     36  C   UNL A   1      40.920  27.845  28.223  1.00  0.00     0.031 A 
ATOM     37  C   UNL A   1      42.411  28.018  28.104  1.00  0.00     0.074 A 
ATOM     38  C   UNL A   1      40.162  28.842  28.713  1.00  0.00     0.049 A 
ATOM     39  N   UNL A   1      43.159  29.028  28.461  1.00  0.00    -0.248 NA
ATOM     40  C   UNL A   1      43.157  26.899  27.503  1.00  0.00     0.031 C 
ATOM     41  C   UNL A   1      38.706  28.808  28.847  1.00  0.00     0.029 A 
ATOM     42  N   UNL A   1      40.515  30.078  29.194  1.00  0.00    -0.354 N 
ATOM     43  C   UNL A   1      44.462  28.671  28.135  1.00  0.00     0.074 A 
ATOM     44  C   UNL A   1      44.406  27.337  27.574  1.00  0.00     0.031 C 
ATOM     45  C   UNL A   1      38.290  29.969  29.384  1.00  0.00     0.029 A 
ATOM     46  C   UNL A   1      39.451  30.816  29.655  1.00  0.00     0.049 A 
ATOM     47  H   UNL A   1      41.444  30.406  29.206  1.00  0.00     0.167 HD
ATOM     48  C   UNL A   1      45.599  29.390  28.282  1.00  0.00     0.037 A 
ATOM     49  C   UNL A   1      39.421  32.027  30.245  1.00  0.00     0.037 A 
ATOM     50  C   UNL A   1      45.652  30.719  28.831  1.00  0.00     0.049 A 
ATOM     51  C   UNL A   1      40.708  32.785  30.448  1.00  0.00     0.074 A 
ATOM     52  C   UNL A   1      46.756  31.539  28.996  1.00  0.00     0.029 A 
ATOM     53  N   UNL A   1      44.558  31.422  29.311  1.00  0.00    -0.354 N 
ATOM     54  N   UNL A   1      41.928  32.445  30.110  1.00  0.00    -0.248 NA
ATOM     55  C   UNL A   1      40.613  34.094  31.112  1.00  0.00     0.031 C 
ATOM     56  C   UNL A   1      46.333  32.723  29.613  1.00  0.00     0.029 A 
ATOM     57  C   UNL A   1      44.961  32.656  29.792  1.00  0.00     0.049 A 
ATOM     58  H   UNL A   1      43.630  31.092  29.310  1.00  0.00     0.167 HD
ATOM     59  C   UNL A   1      42.740  33.507  30.494  1.00  0.00     0.074 A 
ATOM     60  C   UNL A   1      41.873  34.505  31.083  1.00  0.00     0.031 C 
ATOM     61  C   UNL A   1      44.084  33.644  30.367  1.00  0.00     0.037 A 
BRANCH  48  62
ATOM     62  C   UNL A   1      46.890  28.746  27.859  1.00  0.00     0.058 A 
ATOM     63  C   UNL A   1      47.345  28.809  26.533  1.00  0.00     0.135 A 
ATOM     64  C   UNL A   1      47.701  28.096  28.803  1.00  0.00     0.135 A 
ATOM     65  F   UNL A   1      46.598  29.404  25.590  1.00  0.00    -0.206 F 
ATOM     66  C   UNL A   1      48.553  28.233  26.152  1.00  0.00     0.059 A 
ATOM     67  C   UNL A   1      48.923  27.532  28.449  1.00  0.00     0.059 A 
ATOM     68  F   UNL A   1      47.309  28.005  30.083  1.00  0.00    -0.206 F 
ATOM     69  C   UNL A   1      49.335  27.596  27.118  1.00  0.00     0.060 A 
BRANCH  69  70
ATOM     70  S   UNL A   1      50.905  26.863  26.612  1.00  0.00     0.124 S 
ATOM     71  O   UNL A   1      51.223  27.649  25.425  1.00  0.00    -0.237 OA
ATOM     72  O   UNL A   1      51.753  27.104  27.776  1.00  0.00    -0.237 OA
ATOM     73  O   UNL A   1      50.564  25.465  26.368  1.00  0.00    -0.744 OA
ENDBRANCH  69  70
ENDBRANCH  48  62
BRANCH  49  74
ATOM     74  C   UNL A   1      38.128  32.602  30.700  1.00  0.00     0.058 A 
ATOM     75  C   UNL A   1      37.284  33.284  29.812  1.00  0.00     0.135 A 
ATOM     76  C   UNL A   1      37.717  32.490  32.038  1.00  0.00     0.135 A 
ATOM     77  F   UNL A   1      37.640  33.426  28.526  1.00  0.00    -0.206 F 
ATOM     78  C   UNL A   1      36.086  33.849  30.235  1.00  0.00     0.059 A 
ATOM     79  C   UNL A   1      36.512  33.028  32.479  1.00  0.00     0.059 A 
ATOM     80  F   UNL A   1      38.484  31.838  32.925  1.00  0.00    -0.206 F 
ATOM     81  C   UNL A   1      35.708  33.716  31.573  1.00  0.00     0.060 A 
BRANCH  81  82
ATOM     82  S   UNL A   1      34.132  34.417  32.105  1.00  0.00     0.124 S 
ATOM     83  O   UNL A   1      33.424  34.541  30.835  1.00  0.00    -0.237 OA
ATOM     84  O   UNL A   1      33.632  33.394  33.018  1.00  0.00    -0.237 OA
ATOM     85  O   UNL A   1      34.522  35.674  32.737  1.00  0.00    -0.744 OA
ENDBRANCH  81  82
ENDBRANCH  49  74
BRANCH  61  86
ATOM     86  C   UNL A   1      44.698  34.932  30.842  1.00  0.00     0.058 A 
ATOM     87  C   UNL A   1      45.224  35.065  32.136  1.00  0.00     0.135 A 
ATOM     88  C   UNL A   1      44.810  36.028  29.971  1.00  0.00     0.135 A 
ATOM     89  F   UNL A   1      45.138  34.048  33.008  1.00  0.00    -0.206 F 
ATOM     90  C   UNL A   1      45.823  36.247  32.558  1.00  0.00     0.059 A 
ATOM     91  C   UNL A   1      45.425  37.212  30.364  1.00  0.00     0.059 A 
ATOM     92  F   UNL A   1      44.332  35.949  28.719  1.00  0.00    -0.206 F 
ATOM     93  C   UNL A   1      45.919  37.316  31.664  1.00  0.00     0.060 A 
BRANCH  93  94
ATOM     94  S   UNL A   1      46.729  38.835  32.210  1.00  0.00     0.124 S 
ATOM     95  O   UNL A   1      48.006  38.754  31.508  1.00  0.00    -0.237 OA
ATOM     96  O   UNL A   1      45.812  39.869  31.741  1.00  0.00    -0.237 OA
ATOM     97  O   UNL A   1      46.799  38.680  33.661  1.00  0.00    -0.744 OA
ENDBRANCH  93  94
ENDBRANCH  61  86
ENDBRANCH  35  36
ENDBRANCH  28  30
ENDBRANCH  27  28
ENDBRANCH  26  27
ENDBRANCH  25  26
ENDBRANCH  24  25
ENDBRANCH   1  24
TORSDOF 22
ENDMDL
MODEL 2
REMARK VINA RESULT:      -9.6      3.007      9.092
REMARK SMILES CC(C)c1nc(N(C)CCc2ccccn2)sc1C(=O)OCCOCCOC(=O)c1ccc(-c2c3nc(c(-c4c(F)cc(S(=O)(=O)[O-])cc4F)c4ccc([nH]4)c(-c4c(F)cc(S(=O)(=O)[O-])cc4F)c4nc(c(-c5c(F)cc(S(=O)(=O)[O-])cc5F)c5ccc2[nH]5)C=C4)C=C3)cc1
REMARK SMILES IDX 23 1 22 2 21 3 19 4 20 5 18 6 4 7 5 8 6 9 17 10 2 11 1 12
REMARK SMILES IDX 3 13 7 14 8 15 9 16 10 17 11 18 12 19 16 20 13 21 15 22
REMARK SMILES IDX 14 23 24 24 25 25 26 26 27 27 28 28 29 29 30 30 31 31 95 32
REMARK SMILES IDX 32 33 94 34 33 35 34 36 35 37 88 38 36 39 93 40 87 41 89 42
REMARK SMILES IDX 37 43 92 44 86 45 85 46 38 48 72 49 51 50 71 51 52 52 55 53
REMARK SMILES IDX 70 54 90 55 53 56 54 57 69 59 91 60 56 61 39 62 40 63 49 64
REMARK SMILES IDX 41 65 42 66 48 67 50 68 43 69 44 70 45 71 46 72 47 73 73 74
REMARK SMILES IDX 74 75 83 76 75 77 76 78 82 79 84 80 77 81 78 82 79 83 80 84
REMARK SMILES IDX 81 85 57 86 58 87 67 88 59 89 60 90 66 91 68 92 61 93 62 94
REMARK SMILES IDX 63 95 64 96 65 97
REMARK H PARENT 89 47 55 58
REMARK Flexibility Score: inf
ROOT
ATOM      1  C   UNL A   1      36.353  21.510  24.371  1.00  0.00     0.202 C 
ENDROOT
BRANCH   1   2
ATOM      2  C   UNL A   1      36.473  22.926  23.805  1.00  0.00     0.261 C 
BRANCH   2   3
ATOM      3  O   UNL A   1      35.319  23.692  24.190  1.00  0.00    -0.459 OA
BRANCH   3   4
ATOM      4  C   UNL A   1      34.318  23.790  23.274  1.00  0.00     0.350 C 
ATOM      5  O   UNL A   1      34.366  23.318  22.144  1.00  0.00    -0.245 OA
BRANCH   4   6
ATOM      6  C   UNL A   1      33.163  24.418  23.875  1.00  0.00     0.137 A 
ATOM      7  C   UNL A   1      32.299  24.028  24.885  1.00  0.00     0.071 A 
ATOM      8  N   UNL A   1      31.241  24.908  25.089  1.00  0.00    -0.224 NA
ATOM      9  C   UNL A   1      31.268  25.930  24.265  1.00  0.00     0.186 A 
ATOM     10  S   UNL A   1      32.653  25.926  23.238  1.00  0.00    -0.089 S 
BRANCH   7  11
ATOM     11  C   UNL A   1      32.360  22.803  25.767  1.00  0.00     0.034 C 
ATOM     12  C   UNL A   1      31.271  22.835  26.843  1.00  0.00     0.014 C 
ATOM     13  C   UNL A   1      32.252  21.515  24.950  1.00  0.00     0.014 C 
ENDBRANCH   7  11
BRANCH   9  14
ATOM     14  N   UNL A   1      30.294  26.889  24.224  1.00  0.00    -0.351 N 
ATOM     15  C   UNL A   1      28.892  26.576  24.020  1.00  0.00     0.146 C 
BRANCH  14  16
ATOM     16  C   UNL A   1      30.695  28.302  24.178  1.00  0.00     0.125 C 
BRANCH  16  17
ATOM     17  C   UNL A   1      30.696  28.872  22.756  1.00  0.00     0.077 C 
BRANCH  17  18
ATOM     18  C   UNL A   1      29.643  29.923  22.524  1.00  0.00     0.042 A 
ATOM     19  C   UNL A   1      29.221  30.747  23.565  1.00  0.00     0.024 A 
ATOM     20  N   UNL A   1      29.134  30.013  21.271  1.00  0.00    -0.261 NA
ATOM     21  C   UNL A   1      28.252  31.712  23.310  1.00  0.00     0.003 A 
ATOM     22  C   UNL A   1      28.204  30.968  21.050  1.00  0.00     0.111 A 
ATOM     23  C   UNL A   1      27.731  31.828  22.028  1.00  0.00     0.020 A 
ENDBRANCH  17  18
ENDBRANCH  16  17
ENDBRANCH  14  16
ENDBRANCH   9  14
ENDBRANCH   4   6
ENDBRANCH   3   4
ENDBRANCH   2   3
ENDBRANCH   1   2
BRANCH   1  24
ATOM     24  O   UNL A   1      37.600  20.984  24.831  1.00  0.00    -0.374 OA
BRANCH  24  25
ATOM     25  C   UNL A   1      38.187  21.668  25.942  1.00  0.00     0.202 C 
BRANCH  25  26
ATOM     26  C   UNL A   1      39.709  21.516  26.035  1.00  0.00     0.261 C 
BRANCH  26  27
ATOM     27  O   UNL A   1      40.068  20.162  26.372  1.00  0.00    -0.460 OA
BRANCH  27  28
ATOM     28  C   UNL A   1      41.375  19.851  26.190  1.00  0.00     0.338 C 
ATOM     29  O   UNL A   1      41.827  18.799  25.771  1.00  0.00    -0.246 OA
BRANCH  28  30
ATOM     30  C   UNL A   1      42.210  21.051  26.407  1.00  0.00     0.060 A 
ATOM     31  C   UNL A   1      42.403  21.470  27.729  1.00  0.00     0.016 A 
ATOM     32  C   UNL A   1      42.755  21.783  25.348  1.00  0.00     0.016 A 
ATOM     33  C   UNL A   1      43.102  22.646  27.996  1.00  0.00     0.010 A 
ATOM     34  C   UNL A   1      43.451  22.967  25.617  1.00  0.00     0.010 A 
ATOM     35  C   UNL A   1      43.600  23.421  26.941  1.00  0.00    -0.014 A 
BRANCH  35  36
ATOM     36  C   UNL A   1      44.159  24.767  27.220  1.00  0.00     0.031 A 
ATOM     37  C   UNL A   1      43.230  25.868  27.655  1.00  0.00     0.074 A 
ATOM     38  C   UNL A   1      45.480  24.998  27.119  1.00  0.00     0.049 A 
ATOM     39  N   UNL A   1      43.498  27.117  27.931  1.00  0.00    -0.248 NA
ATOM     40  C   UNL A   1      41.808  25.513  27.795  1.00  0.00     0.031 C 
ATOM     41  C   UNL A   1      46.485  24.005  26.739  1.00  0.00     0.029 A 
ATOM     42  N   UNL A   1      46.203  26.147  27.323  1.00  0.00    -0.354 N 
ATOM     43  C   UNL A   1      42.284  27.700  28.273  1.00  0.00     0.074 A 
ATOM     44  C   UNL A   1      41.271  26.674  28.145  1.00  0.00     0.031 C 
ATOM     45  C   UNL A   1      47.695  24.591  26.729  1.00  0.00     0.029 A 
ATOM     46  C   UNL A   1      47.548  26.004  27.076  1.00  0.00     0.049 A 
ATOM     47  H   UNL A   1      45.796  26.993  27.619  1.00  0.00     0.167 HD
ATOM     48  C   UNL A   1      42.036  28.972  28.666  1.00  0.00     0.037 A 
ATOM     49  C   UNL A   1      48.541  26.914  27.109  1.00  0.00     0.037 A 
ATOM     50  C   UNL A   1      43.044  29.989  28.802  1.00  0.00     0.049 A 
ATOM     51  C   UNL A   1      48.230  28.337  27.495  1.00  0.00     0.074 A 
ATOM     52  C   UNL A   1      42.894  31.301  29.220  1.00  0.00     0.029 A 
ATOM     53  N   UNL A   1      44.390  29.813  28.518  1.00  0.00    -0.354 N 
ATOM     54  N   UNL A   1      47.081  28.866  27.842  1.00  0.00    -0.248 NA
ATOM     55  C   UNL A   1      49.353  29.288  27.497  1.00  0.00     0.031 C 
ATOM     56  C   UNL A   1      44.142  31.929  29.150  1.00  0.00     0.029 A 
ATOM     57  C   UNL A   1      45.077  30.997  28.730  1.00  0.00     0.049 A 
ATOM     58  H   UNL A   1      44.798  28.971  28.212  1.00  0.00     0.167 HD
ATOM     59  C   UNL A   1      47.348  30.201  28.129  1.00  0.00     0.074 A 
ATOM     60  C   UNL A   1      48.767  30.398  27.923  1.00  0.00     0.031 C 
ATOM     61  C   UNL A   1      46.493  31.175  28.530  1.00  0.00     0.037 A 
BRANCH  48  62
ATOM     62  C   UNL A   1      40.610  29.344  28.960  1.00  0.00     0.058 A 
ATOM     63  C   UNL A   1      39.679  29.567  27.934  1.00  0.00     0.135 A 
ATOM     64  C   UNL A   1      40.160  29.434  30.288  1.00  0.00     0.135 A 
ATOM     65  F   UNL A   1      40.063  29.511  26.649  1.00  0.00    -0.206 F 
ATOM     66  C   UNL A   1      38.353  29.886  28.213  1.00  0.00     0.059 A 
ATOM     67  C   UNL A   1      38.834  29.730  30.590  1.00  0.00     0.059 A 
ATOM     68  F   UNL A   1      41.012  29.233  31.305  1.00  0.00    -0.206 F 
ATOM     69  C   UNL A   1      37.940  29.965  29.545  1.00  0.00     0.060 A 
BRANCH  69  70
ATOM     70  S   UNL A   1      36.215  30.369  29.893  1.00  0.00     0.124 S 
ATOM     71  O   UNL A   1      36.190  31.800  29.611  1.00  0.00    -0.237 OA
ATOM     72  O   UNL A   1      35.499  29.523  28.942  1.00  0.00    -0.237 OA
ATOM     73  O   UNL A   1      36.057  30.001  31.296  1.00  0.00    -0.744 OA
ENDBRANCH  69  70
ENDBRANCH  48  62
BRANCH  49  74
ATOM     74  C   UNL A   1      49.929  26.515  26.754  1.00  0.00     0.058 A 
ATOM     75  C   UNL A   1      50.369  26.527  25.423  1.00  0.00     0.135 A 
ATOM     76  C   UNL A   1      50.836  26.099  27.740  1.00  0.00     0.135 A 
ATOM     77  F   UNL A   1      49.533  26.905  24.444  1.00  0.00    -0.206 F 
ATOM     78  C   UNL A   1      51.656  26.127  25.079  1.00  0.00     0.059 A 
ATOM     79  C   UNL A   1      52.135  25.717  27.423  1.00  0.00     0.059 A 
ATOM     80  F   UNL A   1      50.466  26.080  29.030  1.00  0.00    -0.206 F 
ATOM     81  C   UNL A   1      52.533  25.723  26.087  1.00  0.00     0.060 A 
BRANCH  81  82
ATOM     82  S   UNL A   1      54.215  25.245  25.637  1.00  0.00     0.124 S 
ATOM     83  O   UNL A   1      54.759  24.838  26.927  1.00  0.00    -0.237 OA
ATOM     84  O   UNL A   1      53.984  24.173  24.673  1.00  0.00    -0.237 OA
ATOM     85  O   UNL A   1      54.770  26.473  25.075  1.00  0.00    -0.744 OA
ENDBRANCH  81  82
ENDBRANCH  49  74
BRANCH  61  86
ATOM     86  C   UNL A   1      47.072  32.535  28.807  1.00  0.00     0.058 A 
ATOM     87  C   UNL A   1      47.567  32.881  30.074  1.00  0.00     0.135 A 
ATOM     88  C   UNL A   1      47.183  33.483  27.777  1.00  0.00     0.135 A 
ATOM     89  F   UNL A   1      47.480  32.011  31.093  1.00  0.00    -0.206 F 
ATOM     90  C   UNL A   1      48.134  34.128  30.316  1.00  0.00     0.059 A 
ATOM     91  C   UNL A   1      47.767  34.727  27.990  1.00  0.00     0.059 A 
ATOM     92  F   UNL A   1      46.735  33.198  26.544  1.00  0.00    -0.206 F 
ATOM     93  C   UNL A   1      48.230  35.045  29.267  1.00  0.00     0.060 A 
BRANCH  93  94
ATOM     94  S   UNL A   1      48.999  36.648  29.583  1.00  0.00     0.124 S 
ATOM     95  O   UNL A   1      49.561  36.446  30.914  1.00  0.00    -0.237 OA
ATOM     96  O   UNL A   1      49.968  36.753  28.496  1.00  0.00    -0.237 OA
ATOM     97  O   UNL A   1      47.880  37.583  29.508  1.00  0.00    -0.744 OA
ENDBRANCH  93  94
ENDBRANCH  61  86
ENDBRANCH  35  36
ENDBRANCH  28  30
ENDBRANCH  27  28
ENDBRANCH  26  27
ENDBRANCH  25  26
ENDBRANCH  24  25
ENDBRANCH   1  24
TORSDOF 22
ENDMDL
MODEL 3
REMARK VINA RESULT:      -9.4      4.880      6.334
REMARK SMILES CC(C)c1nc(N(C)CCc2ccccn2)sc1C(=O)OCCOCCOC(=O)c1ccc(-c2c3nc(c(-c4c(F)cc(S(=O)(=O)[O-])cc4F)c4ccc([nH]4)c(-c4c(F)cc(S(=O)(=O)[O-])cc4F)c4nc(c(-c5c(F)cc(S(=O)(=O)[O-])cc5F)c5ccc2[nH]5)C=C4)C=C3)cc1
REMARK SMILES IDX 23 1 22 2 21 3 19 4 20 5 18 6 4 7 5 8 6 9 17 10 2 11 1 12
REMARK SMILES IDX 3 13 7 14 8 15 9 16 10 17 11 18 12 19 16 20 13 21 15 22
REMARK SMILES IDX 14 23 24 24 25 25 26 26 27 27 28 28 29 29 30 30 31 31 95 32
REMARK SMILES IDX 32 33 94 34 33 35 34 36 35 37 88 38 36 39 93 40 87 41 89 42
REMARK SMILES IDX 37 43 92 44 86 45 85 46 38 48 72 49 51 50 71 51 52 52 55 53
REMARK SMILES IDX 70 54 90 55 53 56 54 57 69 59 91 60 56 61 39 62 40 63 49 64
REMARK SMILES IDX 41 65 42 66 48 67 50 68 43 69 44 70 45 71 46 72 47 73 73 74
REMARK SMILES IDX 74 75 83 76 75 77 76 78 82 79 84 80 77 81 78 82 79 83 80 84
REMARK SMILES IDX 81 85 57 86 58 87 67 88 59 89 60 90 66 91 68 92 61 93 62 94
REMARK SMILES IDX 63 95 64 96 65 97
REMARK H PARENT 89 47 55 58
REMARK Flexibility Score: inf
ROOT
ATOM      1  C   UNL A   1      37.104  22.151  25.135  1.00  0.00     0.202 C 
ENDROOT
BRANCH   1   2
ATOM      2  C   UNL A   1      36.485  22.945  23.984  1.00  0.00     0.261 C 
BRANCH   2   3
ATOM      3  O   UNL A   1      35.191  23.429  24.382  1.00  0.00    -0.459 OA
BRANCH   3   4
ATOM      4  C   UNL A   1      34.245  23.514  23.408  1.00  0.00     0.350 C 
ATOM      5  O   UNL A   1      34.322  22.958  22.319  1.00  0.00    -0.245 OA
BRANCH   4   6
ATOM      6  C   UNL A   1      33.100  24.246  23.900  1.00  0.00     0.137 A 
ATOM      7  C   UNL A   1      32.140  23.961  24.857  1.00  0.00     0.071 A 
ATOM      8  N   UNL A   1      31.139  24.922  24.951  1.00  0.00    -0.224 NA
ATOM      9  C   UNL A   1      31.298  25.904  24.094  1.00  0.00     0.186 A 
ATOM     10  S   UNL A   1      32.748  25.759  23.172  1.00  0.00    -0.089 S 
BRANCH   7  11
ATOM     11  C   UNL A   1      32.049  22.773  25.786  1.00  0.00     0.034 C 
ATOM     12  C   UNL A   1      30.828  22.875  26.704  1.00  0.00     0.014 C 
ATOM     13  C   UNL A   1      32.014  21.455  25.012  1.00  0.00     0.014 C 
ENDBRANCH   7  11
BRANCH   9  14
ATOM     14  N   UNL A   1      30.402  26.927  23.947  1.00  0.00    -0.351 N 
ATOM     15  C   UNL A   1      28.976  26.705  23.794  1.00  0.00     0.146 C 
BRANCH  14  16
ATOM     16  C   UNL A   1      30.913  28.287  23.728  1.00  0.00     0.125 C 
BRANCH  16  17
ATOM     17  C   UNL A   1      30.574  28.831  22.337  1.00  0.00     0.077 C 
BRANCH  17  18
ATOM     18  C   UNL A   1      29.616  29.992  22.357  1.00  0.00     0.042 A 
ATOM     19  C   UNL A   1      29.219  30.564  23.564  1.00  0.00     0.024 A 
ATOM     20  N   UNL A   1      29.164  30.434  21.158  1.00  0.00    -0.261 NA
ATOM     21  C   UNL A   1      28.339  31.641  23.542  1.00  0.00     0.003 A 
ATOM     22  C   UNL A   1      28.320  31.489  21.167  1.00  0.00     0.111 A 
ATOM     23  C   UNL A   1      27.878  32.116  22.321  1.00  0.00     0.020 A 
ENDBRANCH  17  18
ENDBRANCH  16  17
ENDBRANCH  14  16
ENDBRANCH   9  14
ENDBRANCH   4   6
ENDBRANCH   3   4
ENDBRANCH   2   3
ENDBRANCH   1   2
BRANCH   1  24
ATOM     24  O   UNL A   1      38.220  22.813  25.735  1.00  0.00    -0.374 OA
BRANCH  24  25
ATOM     25  C   UNL A   1      37.954  24.114  26.266  1.00  0.00     0.202 C 
BRANCH  25  26
ATOM     26  C   UNL A   1      39.211  24.902  26.647  1.00  0.00     0.261 C 
BRANCH  26  27
ATOM     27  O   UNL A   1      40.399  24.137  26.365  1.00  0.00    -0.460 OA
BRANCH  27  28
ATOM     28  C   UNL A   1      41.549  24.854  26.320  1.00  0.00     0.338 C 
ATOM     29  O   UNL A   1      42.370  24.869  25.419  1.00  0.00    -0.246 OA
BRANCH  28  30
ATOM     30  C   UNL A   1      41.602  25.784  27.468  1.00  0.00     0.060 A 
ATOM     31  C   UNL A   1      40.875  25.437  28.612  1.00  0.00     0.016 A 
ATOM     32  C   UNL A   1      42.306  26.992  27.418  1.00  0.00     0.016 A 
ATOM     33  C   UNL A   1      40.809  26.314  29.694  1.00  0.00     0.010 A 
ATOM     34  C   UNL A   1      42.233  27.875  28.502  1.00  0.00     0.010 A 
ATOM     35  C   UNL A   1      41.459  27.554  29.631  1.00  0.00    -0.014 A 
BRANCH  35  36
ATOM     36  C   UNL A   1      41.216  28.562  30.693  1.00  0.00     0.031 A 
ATOM     37  C   UNL A   1      42.086  28.554  31.921  1.00  0.00     0.074 A 
ATOM     38  C   UNL A   1      40.255  29.492  30.551  1.00  0.00     0.049 A 
ATOM     39  N   UNL A   1      42.038  29.327  32.975  1.00  0.00    -0.248 NA
ATOM     40  C   UNL A   1      43.150  27.538  31.968  1.00  0.00     0.031 C 
ATOM     41  C   UNL A   1      39.371  29.623  29.394  1.00  0.00     0.029 A 
ATOM     42  N   UNL A   1      39.860  30.502  31.392  1.00  0.00    -0.354 N 
ATOM     43  C   UNL A   1      43.058  28.892  33.812  1.00  0.00     0.074 A 
ATOM     44  C   UNL A   1      43.693  27.768  33.155  1.00  0.00     0.031 C 
ATOM     45  C   UNL A   1      38.529  30.652  29.602  1.00  0.00     0.029 A 
ATOM     46  C   UNL A   1      38.798  31.234  30.916  1.00  0.00     0.049 A 
ATOM     47  H   UNL A   1      40.297  30.686  32.255  1.00  0.00     0.167 HD
ATOM     48  C   UNL A   1      43.437  29.387  35.014  1.00  0.00     0.037 A 
ATOM     49  C   UNL A   1      38.111  32.244  31.485  1.00  0.00     0.037 A 
ATOM     50  C   UNL A   1      42.811  30.509  35.661  1.00  0.00     0.049 A 
ATOM     51  C   UNL A   1      38.517  32.742  32.848  1.00  0.00     0.074 A 
ATOM     52  C   UNL A   1      43.142  31.101  36.868  1.00  0.00     0.029 A 
ATOM     53  N   UNL A   1      41.722  31.206  35.160  1.00  0.00    -0.354 N 
ATOM     54  N   UNL A   1      39.501  32.337  33.615  1.00  0.00    -0.248 NA
ATOM     55  C   UNL A   1      37.720  33.836  33.423  1.00  0.00     0.031 C 
ATOM     56  C   UNL A   1      42.227  32.131  37.116  1.00  0.00     0.029 A 
ATOM     57  C   UNL A   1      41.355  32.208  36.043  1.00  0.00     0.049 A 
ATOM     58  H   UNL A   1      41.277  31.018  34.302  1.00  0.00     0.167 HD
ATOM     59  C   UNL A   1      39.458  33.143  34.748  1.00  0.00     0.074 A 
ATOM     60  C   UNL A   1      38.356  34.064  34.564  1.00  0.00     0.031 C 
ATOM     61  C   UNL A   1      40.261  33.124  35.841  1.00  0.00     0.037 A 
BRANCH  48  62
ATOM     62  C   UNL A   1      44.574  28.705  35.721  1.00  0.00     0.058 A 
ATOM     63  C   UNL A   1      45.906  29.105  35.533  1.00  0.00     0.135 A 
ATOM     64  C   UNL A   1      44.322  27.665  36.631  1.00  0.00     0.135 A 
ATOM     65  F   UNL A   1      46.201  30.082  34.661  1.00  0.00    -0.206 F 
ATOM     66  C   UNL A   1      46.952  28.487  36.210  1.00  0.00     0.059 A 
ATOM     67  C   UNL A   1      45.351  27.047  37.335  1.00  0.00     0.059 A 
ATOM     68  F   UNL A   1      43.066  27.242  36.843  1.00  0.00    -0.206 F 
ATOM     69  C   UNL A   1      46.665  27.458  37.109  1.00  0.00     0.060 A 
BRANCH  69  70
ATOM     70  S   UNL A   1      48.031  26.671  37.989  1.00  0.00     0.124 S 
ATOM     71  O   UNL A   1      48.422  27.726  38.918  1.00  0.00    -0.237 OA
ATOM     72  O   UNL A   1      47.388  25.505  38.588  1.00  0.00    -0.237 OA
ATOM     73  O   UNL A   1      48.992  26.377  36.931  1.00  0.00    -0.744 OA
ENDBRANCH  69  70
ENDBRANCH  48  62
BRANCH  49  74
ATOM     74  C   UNL A   1      36.956  32.853  30.773  1.00  0.00     0.058 A 
ATOM     75  C   UNL A   1      35.643  32.438  31.036  1.00  0.00     0.135 A 
ATOM     76  C   UNL A   1      37.147  33.851  29.806  1.00  0.00     0.135 A 
ATOM     77  F   UNL A   1      35.412  31.478  31.945  1.00  0.00    -0.206 F 
ATOM     78  C   UNL A   1      34.559  32.981  30.355  1.00  0.00     0.059 A 
ATOM     79  C   UNL A   1      36.077  34.425  29.127  1.00  0.00     0.059 A 
ATOM     80  F   UNL A   1      38.384  34.289  29.525  1.00  0.00    -0.206 F 
ATOM     81  C   UNL A   1      34.786  33.974  29.400  1.00  0.00     0.060 A 
BRANCH  81  82
ATOM     82  S   UNL A   1      33.370  34.703  28.550  1.00  0.00     0.124 S 
ATOM     83  O   UNL A   1      32.497  35.038  29.670  1.00  0.00    -0.237 OA
ATOM     84  O   UNL A   1      33.977  35.833  27.853  1.00  0.00    -0.237 OA
ATOM     85  O   UNL A   1      32.906  33.620  27.688  1.00  0.00    -0.744 OA
ENDBRANCH  81  82
ENDBRANCH  49  74
BRANCH  61  86
ATOM     86  C   UNL A   1      40.002  34.150  36.910  1.00  0.00     0.058 A 
ATOM     87  C   UNL A   1      39.170  33.879  38.006  1.00  0.00     0.135 A 
ATOM     88  C   UNL A   1      40.641  35.400  36.863  1.00  0.00     0.135 A 
ATOM     89  F   UNL A   1      38.533  32.701  38.095  1.00  0.00    -0.206 F 
ATOM     90  C   UNL A   1      38.963  34.819  39.010  1.00  0.00     0.059 A 
ATOM     91  C   UNL A   1      40.467  36.347  37.867  1.00  0.00     0.059 A 
ATOM     92  F   UNL A   1      41.456  35.705  35.841  1.00  0.00    -0.206 F 
ATOM     93  C   UNL A   1      39.616  36.051  38.932  1.00  0.00     0.060 A 
BRANCH  93  94
ATOM     94  S   UNL A   1      39.369  37.251  40.258  1.00  0.00     0.124 S 
ATOM     95  O   UNL A   1      38.667  36.447  41.254  1.00  0.00    -0.237 OA
ATOM     96  O   UNL A   1      40.736  37.631  40.600  1.00  0.00    -0.237 OA
ATOM     97  O   UNL A   1      38.575  38.300  39.624  1.00  0.00    -0.744 OA
ENDBRANCH  93  94
ENDBRANCH  61  86
ENDBRANCH  35  36
ENDBRANCH  28  30
ENDBRANCH  27  28
ENDBRANCH  26  27
ENDBRANCH  25  26
ENDBRANCH  24  25
ENDBRANCH   1  24
TORSDOF 22
ENDMDL
