MODEL 1
REMARK VINA RESULT:      -9.7      0.000      0.000
REMARK SMILES CC(C)[C@@H]([NH2+][C@@H]1CSCC(C)(C)C1)C(=O)OCCOCCOC(=O)c1ccc(-c2c3nc(c(-c4c(F)cc(S(=O)(=O)[O-])cc4F)c4ccc([nH]4)c(-c4c(F)cc(S(=O)(=O)[O-])cc4F)c4nc(c(-c5c(F)cc(S(=O)(=O)[O-])cc5F)c5ccc2[nH]5)C=C4)C=C3)cc1
REMARK SMILES IDX 20 1 19 2 18 3 17 4 16 5 14 6 15 7 4 8 2 9 1 10 3 11 5 12
REMARK SMILES IDX 6 15 7 16 13 17 8 18 10 19 9 20 11 21 12 22 21 23 22 24
REMARK SMILES IDX 23 25 24 26 25 27 26 28 90 29 27 30 89 31 28 32 29 33 30 34
REMARK SMILES IDX 83 35 31 36 88 37 82 38 84 39 32 40 87 41 81 42 80 43 33 45
REMARK SMILES IDX 67 46 46 47 66 48 47 49 50 50 65 51 85 52 48 53 49 54 64 56
REMARK SMILES IDX 86 57 51 58 34 59 35 60 44 61 36 62 37 63 43 64 45 65 38 66
REMARK SMILES IDX 39 67 40 68 41 69 42 70 68 71 69 72 78 73 70 74 71 75 77 76
REMARK SMILES IDX 79 77 72 78 73 79 74 80 75 81 76 82 52 83 53 84 62 85 54 86
REMARK SMILES IDX 55 87 61 88 63 89 56 90 57 91 58 92 59 93 60 94
REMARK H PARENT 5 13 5 14 84 44 50 55
REMARK Flexibility Score: inf
ROOT
ATOM      1  C   UNL A   1      32.941  29.712  25.841  1.00  0.00     0.202 C 
ENDROOT
BRANCH   1   2
ATOM      2  O   UNL A   1      31.965  28.688  25.683  1.00  0.00    -0.374 OA
BRANCH   2   3
ATOM      3  C   UNL A   1      31.856  27.729  26.727  1.00  0.00     0.202 C 
BRANCH   3   4
ATOM      4  C   UNL A   1      31.404  26.317  26.352  1.00  0.00     0.261 C 
BRANCH   4   5
ATOM      5  O   UNL A   1      32.061  25.715  25.225  1.00  0.00    -0.459 OA
BRANCH   5   6
ATOM      6  C   UNL A   1      31.247  25.437  24.167  1.00  0.00     0.365 C 
ATOM      7  O   UNL A   1      30.021  25.486  24.200  1.00  0.00    -0.245 OA
BRANCH   6   8
ATOM      8  C   UNL A   1      32.016  24.986  22.912  1.00  0.00     0.296 C 
BRANCH   8   9
ATOM      9  C   UNL A   1      32.251  26.136  21.878  1.00  0.00     0.053 C 
ATOM     10  C   UNL A   1      33.406  27.052  22.319  1.00  0.00     0.014 C 
ATOM     11  C   UNL A   1      32.545  25.658  20.455  1.00  0.00     0.014 C 
ENDBRANCH   8   9
BRANCH   8  12
ATOM     12  N   UNL A   1      33.332  24.443  23.288  1.00  0.00    -0.331 N 
ATOM     13  H   UNL A   1      33.389  24.511  24.303  1.00  0.00     0.347 HD
ATOM     14  H   UNL A   1      33.963  25.001  22.714  1.00  0.00     0.347 HD
BRANCH  12  15
ATOM     15  C   UNL A   1      33.740  23.080  22.948  1.00  0.00     0.193 C 
ATOM     16  C   UNL A   1      32.944  21.853  23.421  1.00  0.00     0.134 C 
ATOM     17  C   UNL A   1      35.208  22.944  23.400  1.00  0.00     0.073 C 
ATOM     18  S   UNL A   1      33.376  21.058  25.003  1.00  0.00    -0.155 SA
ATOM     19  C   UNL A   1      35.449  23.103  24.928  1.00  0.00    -0.021 C 
ATOM     20  C   UNL A   1      34.481  22.269  25.797  1.00  0.00     0.076 C 
ATOM     21  C   UNL A   1      35.357  24.584  25.384  1.00  0.00     0.012 C 
ATOM     22  C   UNL A   1      36.902  22.670  25.215  1.00  0.00     0.012 C 
ENDBRANCH  12  15
ENDBRANCH   8  12
ENDBRANCH   6   8
ENDBRANCH   5   6
ENDBRANCH   4   5
ENDBRANCH   3   4
ENDBRANCH   2   3
ENDBRANCH   1   2
BRANCH   1  23
ATOM     23  C   UNL A   1      33.074  30.315  27.244  1.00  0.00     0.261 C 
BRANCH  23  24
ATOM     24  O   UNL A   1      34.123  31.303  27.315  1.00  0.00    -0.460 OA
BRANCH  24  25
ATOM     25  C   UNL A   1      34.772  31.347  28.503  1.00  0.00     0.338 C 
ATOM     26  O   UNL A   1      34.390  31.901  29.527  1.00  0.00    -0.246 OA
BRANCH  25  27
ATOM     27  C   UNL A   1      35.963  30.479  28.493  1.00  0.00     0.060 A 
ATOM     28  C   UNL A   1      36.363  29.930  29.720  1.00  0.00     0.016 A 
ATOM     29  C   UNL A   1      36.754  30.316  27.354  1.00  0.00     0.016 A 
ATOM     30  C   UNL A   1      37.597  29.295  29.833  1.00  0.00     0.010 A 
ATOM     31  C   UNL A   1      38.000  29.684  27.471  1.00  0.00     0.010 A 
ATOM     32  C   UNL A   1      38.449  29.222  28.722  1.00  0.00    -0.014 A 
BRANCH  32  33
ATOM     33  C   UNL A   1      39.874  28.865  28.940  1.00  0.00     0.031 A 
ATOM     34  C   UNL A   1      40.784  29.887  29.575  1.00  0.00     0.074 A 
ATOM     35  C   UNL A   1      40.337  27.635  28.654  1.00  0.00     0.049 A 
ATOM     36  N   UNL A   1      42.054  29.795  29.874  1.00  0.00    -0.248 NA
ATOM     37  C   UNL A   1      40.178  31.182  29.925  1.00  0.00     0.031 C 
ATOM     38  C   UNL A   1      39.546  26.544  28.088  1.00  0.00     0.029 A 
ATOM     39  N   UNL A   1      41.592  27.098  28.807  1.00  0.00    -0.354 N 
ATOM     40  C   UNL A   1      42.398  31.016  30.444  1.00  0.00     0.074 A 
ATOM     41  C   UNL A   1      41.212  31.844  30.422  1.00  0.00     0.031 C 
ATOM     42  C   UNL A   1      40.337  25.467  27.935  1.00  0.00     0.029 A 
ATOM     43  C   UNL A   1      41.693  25.799  28.368  1.00  0.00     0.049 A 
ATOM     44  H   UNL A   1      42.347  27.596  29.195  1.00  0.00     0.167 HD
ATOM     45  C   UNL A   1      43.590  31.410  30.952  1.00  0.00     0.037 A 
ATOM     46  C   UNL A   1      42.763  24.980  28.310  1.00  0.00     0.037 A 
ATOM     47  C   UNL A   1      44.769  30.586  30.981  1.00  0.00     0.049 A 
ATOM     48  C   UNL A   1      44.096  25.465  28.816  1.00  0.00     0.074 A 
ATOM     49  C   UNL A   1      46.022  30.893  31.481  1.00  0.00     0.029 A 
ATOM     50  N   UNL A   1      44.842  29.293  30.487  1.00  0.00    -0.354 N 
ATOM     51  N   UNL A   1      44.404  26.619  29.360  1.00  0.00    -0.248 NA
ATOM     52  C   UNL A   1      45.230  24.536  28.703  1.00  0.00     0.031 C 
ATOM     53  C   UNL A   1      46.864  29.800  31.251  1.00  0.00     0.029 A 
ATOM     54  C   UNL A   1      46.124  28.795  30.650  1.00  0.00     0.049 A 
ATOM     55  H   UNL A   1      44.092  28.800  30.080  1.00  0.00     0.167 HD
ATOM     56  C   UNL A   1      45.758  26.544  29.674  1.00  0.00     0.074 A 
ATOM     57  C   UNL A   1      46.208  25.229  29.270  1.00  0.00     0.031 C 
ATOM     58  C   UNL A   1      46.556  27.480  30.247  1.00  0.00     0.037 A 
BRANCH  45  59
ATOM     59  C   UNL A   1      43.684  32.807  31.501  1.00  0.00     0.058 A 
ATOM     60  C   UNL A   1      43.446  33.083  32.857  1.00  0.00     0.135 A 
ATOM     61  C   UNL A   1      44.052  33.875  30.668  1.00  0.00     0.135 A 
ATOM     62  F   UNL A   1      43.072  32.100  33.692  1.00  0.00    -0.206 F 
ATOM     63  C   UNL A   1      43.549  34.374  33.364  1.00  0.00     0.059 A 
ATOM     64  C   UNL A   1      44.184  35.171  31.158  1.00  0.00     0.059 A 
ATOM     65  F   UNL A   1      44.287  33.665  29.364  1.00  0.00    -0.206 F 
ATOM     66  C   UNL A   1      43.918  35.412  32.506  1.00  0.00     0.060 A 
BRANCH  66  67
ATOM     67  S   UNL A   1      44.058  37.083  33.178  1.00  0.00     0.124 S 
ATOM     68  O   UNL A   1      42.868  37.158  34.020  1.00  0.00    -0.237 OA
ATOM     69  O   UNL A   1      45.332  37.029  33.888  1.00  0.00    -0.237 OA
ATOM     70  O   UNL A   1      44.040  37.930  31.990  1.00  0.00    -0.744 OA
ENDBRANCH  66  67
ENDBRANCH  45  59
BRANCH  46  71
ATOM     71  C   UNL A   1      42.624  23.617  27.732  1.00  0.00     0.058 A 
ATOM     72  C   UNL A   1      42.423  22.495  28.548  1.00  0.00     0.135 A 
ATOM     73  C   UNL A   1      42.705  23.411  26.346  1.00  0.00     0.135 A 
ATOM     74  F   UNL A   1      42.351  22.640  29.880  1.00  0.00    -0.206 F 
ATOM     75  C   UNL A   1      42.320  21.215  28.014  1.00  0.00     0.059 A 
ATOM     76  C   UNL A   1      42.581  22.143  25.785  1.00  0.00     0.059 A 
ATOM     77  F   UNL A   1      42.890  24.452  25.520  1.00  0.00    -0.206 F 
ATOM     78  C   UNL A   1      42.401  21.049  26.630  1.00  0.00     0.060 A 
BRANCH  78  79
ATOM     79  S   UNL A   1      42.223  19.390  25.939  1.00  0.00     0.124 S 
ATOM     80  O   UNL A   1      43.029  19.489  24.728  1.00  0.00    -0.237 OA
ATOM     81  O   UNL A   1      42.767  18.552  27.003  1.00  0.00    -0.237 OA
ATOM     82  O   UNL A   1      40.783  19.268  25.731  1.00  0.00    -0.744 OA
ENDBRANCH  78  79
ENDBRANCH  46  71
BRANCH  58  83
ATOM     83  C   UNL A   1      47.990  27.110  30.497  1.00  0.00     0.058 A 
ATOM     84  C   UNL A   1      48.996  27.381  29.557  1.00  0.00     0.135 A 
ATOM     85  C   UNL A   1      48.372  26.528  31.718  1.00  0.00     0.135 A 
ATOM     86  F   UNL A   1      48.683  27.933  28.374  1.00  0.00    -0.206 F 
ATOM     87  C   UNL A   1      50.328  27.067  29.807  1.00  0.00     0.059 A 
ATOM     88  C   UNL A   1      49.702  26.228  31.999  1.00  0.00     0.059 A 
ATOM     89  F   UNL A   1      47.451  26.259  32.657  1.00  0.00    -0.206 F 
ATOM     90  C   UNL A   1      50.672  26.491  31.033  1.00  0.00     0.060 A 
BRANCH  90  91
ATOM     91  S   UNL A   1      52.408  26.118  31.360  1.00  0.00     0.124 S 
ATOM     92  O   UNL A   1      52.316  24.789  31.955  1.00  0.00    -0.237 OA
ATOM     93  O   UNL A   1      52.998  26.176  30.025  1.00  0.00    -0.237 OA
ATOM     94  O   UNL A   1      52.820  27.186  32.266  1.00  0.00    -0.744 OA
ENDBRANCH  90  91
ENDBRANCH  58  83
ENDBRANCH  32  33
ENDBRANCH  25  27
ENDBRANCH  24  25
ENDBRANCH  23  24
ENDBRANCH   1  23
TORSDOF 20
ENDMDL
MODEL 2
REMARK VINA RESULT:      -9.6      4.727     10.527
REMARK SMILES CC(C)[C@@H]([NH2+][C@@H]1CSCC(C)(C)C1)C(=O)OCCOCCOC(=O)c1ccc(-c2c3nc(c(-c4c(F)cc(S(=O)(=O)[O-])cc4F)c4ccc([nH]4)c(-c4c(F)cc(S(=O)(=O)[O-])cc4F)c4nc(c(-c5c(F)cc(S(=O)(=O)[O-])cc5F)c5ccc2[nH]5)C=C4)C=C3)cc1
REMARK SMILES IDX 20 1 19 2 18 3 17 4 16 5 14 6 15 7 4 8 2 9 1 10 3 11 5 12
REMARK SMILES IDX 6 15 7 16 13 17 8 18 10 19 9 20 11 21 12 22 21 23 22 24
REMARK SMILES IDX 23 25 24 26 25 27 26 28 90 29 27 30 89 31 28 32 29 33 30 34
REMARK SMILES IDX 83 35 31 36 88 37 82 38 84 39 32 40 87 41 81 42 80 43 33 45
REMARK SMILES IDX 67 46 46 47 66 48 47 49 50 50 65 51 85 52 48 53 49 54 64 56
REMARK SMILES IDX 86 57 51 58 34 59 35 60 44 61 36 62 37 63 43 64 45 65 38 66
REMARK SMILES IDX 39 67 40 68 41 69 42 70 68 71 69 72 78 73 70 74 71 75 77 76
REMARK SMILES IDX 79 77 72 78 73 79 74 80 75 81 76 82 52 83 53 84 62 85 54 86
REMARK SMILES IDX 55 87 61 88 63 89 56 90 57 91 58 92 59 93 60 94
REMARK H PARENT 5 13 5 14 84 44 50 55
REMARK Flexibility Score: inf
ROOT
ATOM      1  C   UNL A   1      38.270  23.126  26.194  1.00  0.00     0.202 C 
ENDROOT
BRANCH   1   2
ATOM      2  O   UNL A   1      37.637  22.675  25.001  1.00  0.00    -0.374 OA
BRANCH   2   3
ATOM      3  C   UNL A   1      36.987  21.411  25.050  1.00  0.00     0.202 C 
BRANCH   3   4
ATOM      4  C   UNL A   1      35.466  21.388  24.901  1.00  0.00     0.261 C 
BRANCH   4   5
ATOM      5  O   UNL A   1      34.806  22.665  24.889  1.00  0.00    -0.459 OA
BRANCH   5   6
ATOM      6  C   UNL A   1      34.382  23.081  23.661  1.00  0.00     0.365 C 
ATOM      7  O   UNL A   1      35.114  23.239  22.689  1.00  0.00    -0.245 OA
BRANCH   6   8
ATOM      8  C   UNL A   1      32.878  23.403  23.617  1.00  0.00     0.296 C 
BRANCH   8   9
ATOM      9  C   UNL A   1      31.967  22.132  23.639  1.00  0.00     0.053 C 
ATOM     10  C   UNL A   1      32.219  21.247  22.404  1.00  0.00     0.014 C 
ATOM     11  C   UNL A   1      32.126  21.260  24.884  1.00  0.00     0.014 C 
ENDBRANCH   8   9
BRANCH   8  12
ATOM     12  N   UNL A   1      32.502  24.247  24.763  1.00  0.00    -0.331 N 
ATOM     13  H   UNL A   1      33.060  25.096  24.687  1.00  0.00     0.347 HD
ATOM     14  H   UNL A   1      32.657  23.616  25.550  1.00  0.00     0.347 HD
BRANCH  12  15
ATOM     15  C   UNL A   1      31.126  24.684  24.993  1.00  0.00     0.193 C 
ATOM     16  C   UNL A   1      30.279  25.321  23.879  1.00  0.00     0.134 C 
ATOM     17  C   UNL A   1      31.171  25.633  26.207  1.00  0.00     0.073 C 
ATOM     18  S   UNL A   1      30.294  27.131  23.663  1.00  0.00    -0.155 SA
ATOM     19  C   UNL A   1      32.012  26.926  26.007  1.00  0.00    -0.021 C 
ATOM     20  C   UNL A   1      31.702  27.666  24.687  1.00  0.00     0.076 C 
ATOM     21  C   UNL A   1      33.538  26.647  26.061  1.00  0.00     0.012 C 
ATOM     22  C   UNL A   1      31.718  27.858  27.202  1.00  0.00     0.012 C 
ENDBRANCH  12  15
ENDBRANCH   8  12
ENDBRANCH   6   8
ENDBRANCH   5   6
ENDBRANCH   4   5
ENDBRANCH   3   4
ENDBRANCH   2   3
ENDBRANCH   1   2
BRANCH   1  23
ATOM     23  C   UNL A   1      39.636  22.508  26.516  1.00  0.00     0.261 C 
BRANCH  23  24
ATOM     24  O   UNL A   1      40.229  23.084  27.698  1.00  0.00    -0.460 OA
BRANCH  24  25
ATOM     25  C   UNL A   1      41.159  24.037  27.450  1.00  0.00     0.338 C 
ATOM     26  O   UNL A   1      42.131  23.939  26.711  1.00  0.00    -0.246 OA
BRANCH  25  27
ATOM     27  C   UNL A   1      40.777  25.326  28.056  1.00  0.00     0.060 A 
ATOM     28  C   UNL A   1      41.793  26.276  28.229  1.00  0.00     0.016 A 
ATOM     29  C   UNL A   1      39.500  25.554  28.574  1.00  0.00     0.016 A 
ATOM     30  C   UNL A   1      41.562  27.415  28.997  1.00  0.00     0.010 A 
ATOM     31  C   UNL A   1      39.272  26.696  29.353  1.00  0.00     0.010 A 
ATOM     32  C   UNL A   1      40.318  27.601  29.614  1.00  0.00    -0.014 A 
BRANCH  32  33
ATOM     33  C   UNL A   1      40.202  28.616  30.691  1.00  0.00     0.031 A 
ATOM     34  C   UNL A   1      41.136  28.523  31.872  1.00  0.00     0.074 A 
ATOM     35  C   UNL A   1      39.341  29.645  30.592  1.00  0.00     0.049 A 
ATOM     36  N   UNL A   1      41.228  29.300  32.920  1.00  0.00    -0.248 NA
ATOM     37  C   UNL A   1      42.097  27.409  31.866  1.00  0.00     0.031 C 
ATOM     38  C   UNL A   1      38.425  29.875  29.476  1.00  0.00     0.029 A 
ATOM     39  N   UNL A   1      39.104  30.693  31.446  1.00  0.00    -0.354 N 
ATOM     40  C   UNL A   1      42.253  28.770  33.696  1.00  0.00     0.074 A 
ATOM     41  C   UNL A   1      42.732  27.587  33.014  1.00  0.00     0.031 C 
ATOM     42  C   UNL A   1      37.718  30.994  29.718  1.00  0.00     0.029 A 
ATOM     43  C   UNL A   1      38.114  31.543  31.014  1.00  0.00     0.049 A 
ATOM     44  H   UNL A   1      39.596  30.824  32.288  1.00  0.00     0.167 HD
ATOM     45  C   UNL A   1      42.759  29.231  34.864  1.00  0.00     0.037 A 
ATOM     46  C   UNL A   1      37.579  32.631  31.606  1.00  0.00     0.037 A 
ATOM     47  C   UNL A   1      42.289  30.411  35.540  1.00  0.00     0.049 A 
ATOM     48  C   UNL A   1      38.111  33.085  32.940  1.00  0.00     0.074 A 
ATOM     49  C   UNL A   1      42.742  30.963  36.725  1.00  0.00     0.029 A 
ATOM     50  N   UNL A   1      41.255  31.219  35.092  1.00  0.00    -0.354 N 
ATOM     51  N   UNL A   1      39.086  32.578  33.657  1.00  0.00    -0.248 NA
ATOM     52  C   UNL A   1      37.471  34.261  33.547  1.00  0.00     0.031 C 
ATOM     53  C   UNL A   1      41.955  32.083  37.015  1.00  0.00     0.029 A 
ATOM     54  C   UNL A   1      41.041  32.254  35.987  1.00  0.00     0.049 A 
ATOM     55  H   UNL A   1      40.748  31.079  34.260  1.00  0.00     0.167 HD
ATOM     56  C   UNL A   1      39.191  33.386  34.785  1.00  0.00     0.074 A 
ATOM     57  C   UNL A   1      38.189  34.423  34.651  1.00  0.00     0.031 C 
ATOM     58  C   UNL A   1      40.042  33.282  35.837  1.00  0.00     0.037 A 
BRANCH  45  59
ATOM     59  C   UNL A   1      43.872  28.444  35.499  1.00  0.00     0.058 A 
ATOM     60  C   UNL A   1      43.615  27.429  36.436  1.00  0.00     0.135 A 
ATOM     61  C   UNL A   1      45.207  28.683  35.141  1.00  0.00     0.135 A 
ATOM     62  F   UNL A   1      42.357  27.174  36.828  1.00  0.00    -0.206 F 
ATOM     63  C   UNL A   1      44.646  26.694  37.010  1.00  0.00     0.059 A 
ATOM     64  C   UNL A   1      46.253  27.944  35.684  1.00  0.00     0.059 A 
ATOM     65  F   UNL A   1      45.507  29.644  34.254  1.00  0.00    -0.206 F 
ATOM     66  C   UNL A   1      45.963  26.958  36.628  1.00  0.00     0.060 A 
BRANCH  66  67
ATOM     67  S   UNL A   1      47.292  25.989  37.373  1.00  0.00     0.124 S 
ATOM     68  O   UNL A   1      48.159  27.040  37.897  1.00  0.00    -0.237 OA
ATOM     69  O   UNL A   1      46.581  25.198  38.372  1.00  0.00    -0.237 OA
ATOM     70  O   UNL A   1      47.834  25.233  36.248  1.00  0.00    -0.744 OA
ENDBRANCH  66  67
ENDBRANCH  45  59
BRANCH  46  71
ATOM     71  C   UNL A   1      36.461  33.360  30.950  1.00  0.00     0.058 A 
ATOM     72  C   UNL A   1      36.678  34.171  29.827  1.00  0.00     0.135 A 
ATOM     73  C   UNL A   1      35.151  33.268  31.447  1.00  0.00     0.135 A 
ATOM     74  F   UNL A   1      37.915  34.300  29.323  1.00  0.00    -0.206 F 
ATOM     75  C   UNL A   1      35.641  34.877  29.226  1.00  0.00     0.059 A 
ATOM     76  C   UNL A   1      34.093  33.945  30.850  1.00  0.00     0.059 A 
ATOM     77  F   UNL A   1      34.889  32.499  32.515  1.00  0.00    -0.206 F 
ATOM     78  C   UNL A   1      34.350  34.757  29.746  1.00  0.00     0.060 A 
BRANCH  78  79
ATOM     79  S   UNL A   1      32.999  35.641  28.936  1.00  0.00     0.124 S 
ATOM     80  O   UNL A   1      32.217  36.094  30.081  1.00  0.00    -0.237 OA
ATOM     81  O   UNL A   1      33.709  36.679  28.195  1.00  0.00    -0.237 OA
ATOM     82  O   UNL A   1      32.374  34.611  28.111  1.00  0.00    -0.744 OA
ENDBRANCH  78  79
ENDBRANCH  46  71
BRANCH  58  83
ATOM     83  C   UNL A   1      39.948  34.326  36.913  1.00  0.00     0.058 A 
ATOM     84  C   UNL A   1      40.652  35.537  36.829  1.00  0.00     0.135 A 
ATOM     85  C   UNL A   1      39.098  34.136  38.015  1.00  0.00     0.135 A 
ATOM     86  F   UNL A   1      41.480  35.766  35.797  1.00  0.00    -0.206 F 
ATOM     87  C   UNL A   1      40.535  36.515  37.811  1.00  0.00     0.059 A 
ATOM     88  C   UNL A   1      38.947  35.111  38.998  1.00  0.00     0.059 A 
ATOM     89  F   UNL A   1      38.393  33.000  38.138  1.00  0.00    -0.206 F 
ATOM     90  C   UNL A   1      39.679  36.293  38.892  1.00  0.00     0.060 A 
BRANCH  90  91
ATOM     91  S   UNL A   1      39.510  37.583  40.145  1.00  0.00     0.124 S 
ATOM     92  O   UNL A   1      40.851  38.155  40.160  1.00  0.00    -0.237 OA
ATOM     93  O   UNL A   1      38.464  38.431  39.582  1.00  0.00    -0.237 OA
ATOM     94  O   UNL A   1      39.129  36.843  41.345  1.00  0.00    -0.744 OA
ENDBRANCH  90  91
ENDBRANCH  58  83
ENDBRANCH  32  33
ENDBRANCH  25  27
ENDBRANCH  24  25
ENDBRANCH  23  24
ENDBRANCH   1  23
TORSDOF 20
ENDMDL
MODEL 3
REMARK VINA RESULT:      -9.5      3.435      9.254
REMARK SMILES CC(C)[C@@H]([NH2+][C@@H]1CSCC(C)(C)C1)C(=O)OCCOCCOC(=O)c1ccc(-c2c3nc(c(-c4c(F)cc(S(=O)(=O)[O-])cc4F)c4ccc([nH]4)c(-c4c(F)cc(S(=O)(=O)[O-])cc4F)c4nc(c(-c5c(F)cc(S(=O)(=O)[O-])cc5F)c5ccc2[nH]5)C=C4)C=C3)cc1
REMARK SMILES IDX 20 1 19 2 18 3 17 4 16 5 14 6 15 7 4 8 2 9 1 10 3 11 5 12
REMARK SMILES IDX 6 15 7 16 13 17 8 18 10 19 9 20 11 21 12 22 21 23 22 24
REMARK SMILES IDX 23 25 24 26 25 27 26 28 90 29 27 30 89 31 28 32 29 33 30 34
REMARK SMILES IDX 83 35 31 36 88 37 82 38 84 39 32 40 87 41 81 42 80 43 33 45
REMARK SMILES IDX 67 46 46 47 66 48 47 49 50 50 65 51 85 52 48 53 49 54 64 56
REMARK SMILES IDX 86 57 51 58 34 59 35 60 44 61 36 62 37 63 43 64 45 65 38 66
REMARK SMILES IDX 39 67 40 68 41 69 42 70 68 71 69 72 78 73 70 74 71 75 77 76
REMARK SMILES IDX 79 77 72 78 73 79 74 80 75 81 76 82 52 83 53 84 62 85 54 86
REMARK SMILES IDX 55 87 61 88 63 89 56 90 57 91 58 92 59 93 60 94
REMARK H PARENT 5 13 5 14 84 44 50 55
REMARK Flexibility Score: inf
ROOT
ATOM      1  C   UNL A   1      38.878  21.904  26.111  1.00  0.00     0.202 C 
ENDROOT
BRANCH   1   2
ATOM      2  O   UNL A   1      37.498  22.094  25.817  1.00  0.00    -0.374 OA
BRANCH   2   3
ATOM      3  C   UNL A   1      37.072  23.421  25.534  1.00  0.00     0.202 C 
BRANCH   3   4
ATOM      4  C   UNL A   1      35.649  23.614  25.009  1.00  0.00     0.261 C 
BRANCH   4   5
ATOM      5  O   UNL A   1      34.994  24.839  25.376  1.00  0.00    -0.459 OA
BRANCH   5   6
ATOM      6  C   UNL A   1      33.632  24.770  25.423  1.00  0.00     0.365 C 
ATOM      7  O   UNL A   1      32.968  24.830  26.453  1.00  0.00    -0.245 OA
BRANCH   6   8
ATOM      8  C   UNL A   1      32.989  24.543  24.043  1.00  0.00     0.296 C 
BRANCH   8   9
ATOM      9  C   UNL A   1      32.058  23.287  23.988  1.00  0.00     0.053 C 
ATOM     10  C   UNL A   1      30.686  23.641  23.387  1.00  0.00     0.014 C 
ATOM     11  C   UNL A   1      32.630  22.109  23.198  1.00  0.00     0.014 C 
ENDBRANCH   8   9
BRANCH   8  12
ATOM     12  N   UNL A   1      32.189  25.716  23.654  1.00  0.00    -0.331 N 
ATOM     13  H   UNL A   1      31.726  26.039  24.502  1.00  0.00     0.347 HD
ATOM     14  H   UNL A   1      31.626  25.343  22.889  1.00  0.00     0.347 HD
BRANCH  12  15
ATOM     15  C   UNL A   1      32.786  26.900  23.039  1.00  0.00     0.193 C 
ATOM     16  C   UNL A   1      33.651  27.883  23.846  1.00  0.00     0.134 C 
ATOM     17  C   UNL A   1      31.631  27.668  22.367  1.00  0.00     0.073 C 
ATOM     18  S   UNL A   1      32.864  29.311  24.661  1.00  0.00    -0.155 SA
ATOM     19  C   UNL A   1      30.528  28.186  23.334  1.00  0.00    -0.021 C 
ATOM     20  C   UNL A   1      31.087  28.922  24.571  1.00  0.00     0.076 C 
ATOM     21  C   UNL A   1      29.597  27.046  23.826  1.00  0.00     0.012 C 
ATOM     22  C   UNL A   1      29.622  29.144  22.531  1.00  0.00     0.012 C 
ENDBRANCH  12  15
ENDBRANCH   8  12
ENDBRANCH   6   8
ENDBRANCH   5   6
ENDBRANCH   4   5
ENDBRANCH   3   4
ENDBRANCH   2   3
ENDBRANCH   1   2
BRANCH   1  23
ATOM     23  C   UNL A   1      39.481  20.555  25.700  1.00  0.00     0.261 C 
BRANCH  23  24
ATOM     24  O   UNL A   1      40.325  20.000  26.731  1.00  0.00    -0.460 OA
BRANCH  24  25
ATOM     25  C   UNL A   1      41.582  19.702  26.325  1.00  0.00     0.338 C 
ATOM     26  O   UNL A   1      41.941  18.692  25.731  1.00  0.00    -0.246 OA
BRANCH  25  27
ATOM     27  C   UNL A   1      42.493  20.843  26.529  1.00  0.00     0.060 A 
ATOM     28  C   UNL A   1      42.642  21.315  27.841  1.00  0.00     0.016 A 
ATOM     29  C   UNL A   1      43.074  21.529  25.460  1.00  0.00     0.016 A 
ATOM     30  C   UNL A   1      43.296  22.521  28.080  1.00  0.00     0.010 A 
ATOM     31  C   UNL A   1      43.725  22.747  25.702  1.00  0.00     0.010 A 
ATOM     32  C   UNL A   1      43.788  23.274  27.005  1.00  0.00    -0.014 A 
BRANCH  32  33
ATOM     33  C   UNL A   1      44.160  24.692  27.240  1.00  0.00     0.031 A 
ATOM     34  C   UNL A   1      45.596  25.104  27.031  1.00  0.00     0.074 A 
ATOM     35  C   UNL A   1      43.234  25.614  27.557  1.00  0.00     0.049 A 
ATOM     36  N   UNL A   1      46.149  26.283  27.160  1.00  0.00    -0.248 NA
ATOM     37  C   UNL A   1      46.531  24.047  26.613  1.00  0.00     0.031 C 
ATOM     38  C   UNL A   1      41.807  25.352  27.734  1.00  0.00     0.029 A 
ATOM     39  N   UNL A   1      43.360  26.963  27.780  1.00  0.00    -0.354 N 
ATOM     40  C   UNL A   1      47.491  26.108  26.842  1.00  0.00     0.074 A 
ATOM     41  C   UNL A   1      47.678  24.706  26.543  1.00  0.00     0.031 C 
ATOM     42  C   UNL A   1      41.188  26.505  28.046  1.00  0.00     0.029 A 
ATOM     43  C   UNL A   1      42.178  27.580  28.114  1.00  0.00     0.049 A 
ATOM     44  H   UNL A   1      44.215  27.443  27.706  1.00  0.00     0.167 HD
ATOM     45  C   UNL A   1      48.479  27.034  26.792  1.00  0.00     0.037 A 
ATOM     46  C   UNL A   1      41.928  28.861  28.452  1.00  0.00     0.037 A 
ATOM     47  C   UNL A   1      48.294  28.431  27.082  1.00  0.00     0.049 A 
ATOM     48  C   UNL A   1      43.056  29.860  28.457  1.00  0.00     0.074 A 
ATOM     49  C   UNL A   1      49.231  29.448  27.052  1.00  0.00     0.029 A 
ATOM     50  N   UNL A   1      47.091  29.007  27.460  1.00  0.00    -0.354 N 
ATOM     51  N   UNL A   1      44.319  29.681  28.146  1.00  0.00    -0.248 NA
ATOM     52  C   UNL A   1      42.727  31.235  28.858  1.00  0.00     0.031 C 
ATOM     53  C   UNL A   1      48.603  30.633  27.452  1.00  0.00     0.029 A 
ATOM     54  C   UNL A   1      47.265  30.362  27.687  1.00  0.00     0.049 A 
ATOM     55  H   UNL A   1      46.237  28.524  27.553  1.00  0.00     0.167 HD
ATOM     56  C   UNL A   1      44.926  30.925  28.291  1.00  0.00     0.074 A 
ATOM     57  C   UNL A   1      43.892  31.850  28.706  1.00  0.00     0.031 C 
ATOM     58  C   UNL A   1      46.224  31.271  28.095  1.00  0.00     0.037 A 
BRANCH  45  59
ATOM     59  C   UNL A   1      49.858  26.560  26.426  1.00  0.00     0.058 A 
ATOM     60  C   UNL A   1      50.711  25.972  27.374  1.00  0.00     0.135 A 
ATOM     61  C   UNL A   1      50.319  26.665  25.104  1.00  0.00     0.135 A 
ATOM     62  F   UNL A   1      50.326  25.866  28.656  1.00  0.00    -0.206 F 
ATOM     63  C   UNL A   1      51.980  25.522  27.027  1.00  0.00     0.059 A 
ATOM     64  C   UNL A   1      51.576  26.200  24.730  1.00  0.00     0.059 A 
ATOM     65  F   UNL A   1      49.544  27.223  24.161  1.00  0.00    -0.206 F 
ATOM     66  C   UNL A   1      52.405  25.640  25.702  1.00  0.00     0.060 A 
BRANCH  66  67
ATOM     67  S   UNL A   1      54.051  25.043  25.264  1.00  0.00     0.124 S 
ATOM     68  O   UNL A   1      54.780  25.260  26.510  1.00  0.00    -0.237 OA
ATOM     69  O   UNL A   1      53.797  23.650  24.914  1.00  0.00    -0.237 OA
ATOM     70  O   UNL A   1      54.441  25.905  24.152  1.00  0.00    -0.744 OA
ENDBRANCH  66  67
ENDBRANCH  45  59
BRANCH  46  71
ATOM     71  C   UNL A   1      40.551  29.274  28.833  1.00  0.00     0.058 A 
ATOM     72  C   UNL A   1      40.190  29.458  30.175  1.00  0.00     0.135 A 
ATOM     73  C   UNL A   1      39.564  29.479  27.856  1.00  0.00     0.135 A 
ATOM     74  F   UNL A   1      41.095  29.262  31.145  1.00  0.00    -0.206 F 
ATOM     75  C   UNL A   1      38.896  29.818  30.538  1.00  0.00     0.059 A 
ATOM     76  C   UNL A   1      38.269  29.862  28.192  1.00  0.00     0.059 A 
ATOM     77  F   UNL A   1      39.860  29.323  26.556  1.00  0.00    -0.206 F 
ATOM     78  C   UNL A   1      37.942  30.017  29.538  1.00  0.00     0.060 A 
BRANCH  78  79
ATOM     79  S   UNL A   1      36.275  30.527  30.013  1.00  0.00     0.124 S 
ATOM     80  O   UNL A   1      35.504  30.138  28.838  1.00  0.00    -0.237 OA
ATOM     81  O   UNL A   1      36.043  29.739  31.220  1.00  0.00    -0.237 OA
ATOM     82  O   UNL A   1      36.415  31.964  30.230  1.00  0.00    -0.744 OA
ENDBRANCH  78  79
ENDBRANCH  46  71
BRANCH  58  83
ATOM     83  C   UNL A   1      46.597  32.712  28.301  1.00  0.00     0.058 A 
ATOM     84  C   UNL A   1      46.473  33.659  27.273  1.00  0.00     0.135 A 
ATOM     85  C   UNL A   1      47.029  33.162  29.559  1.00  0.00     0.135 A 
ATOM     86  F   UNL A   1      46.068  33.280  26.051  1.00  0.00    -0.206 F 
ATOM     87  C   UNL A   1      46.788  34.999  27.478  1.00  0.00     0.059 A 
ATOM     88  C   UNL A   1      47.326  34.501  29.794  1.00  0.00     0.059 A 
ATOM     89  F   UNL A   1      47.154  32.298  30.581  1.00  0.00    -0.206 F 
ATOM     90  C   UNL A   1      47.213  35.411  28.744  1.00  0.00     0.060 A 
BRANCH  90  91
ATOM     91  S   UNL A   1      47.587  37.157  29.007  1.00  0.00     0.124 S 
ATOM     92  O   UNL A   1      49.034  37.180  28.821  1.00  0.00    -0.237 OA
ATOM     93  O   UNL A   1      46.802  37.808  27.962  1.00  0.00    -0.237 OA
ATOM     94  O   UNL A   1      47.125  37.401  30.371  1.00  0.00    -0.744 OA
ENDBRANCH  90  91
ENDBRANCH  58  83
ENDBRANCH  32  33
ENDBRANCH  25  27
ENDBRANCH  24  25
ENDBRANCH  23  24
ENDBRANCH   1  23
TORSDOF 20
ENDMDL
