MODEL 1
REMARK VINA RESULT:     -10.8      0.000      0.000
REMARK SMILES O=C(Cc1cc(=O)[nH]c(=O)[nH]1)Nc1cccc(C(=O)OCCOCCOC(=O)c2ccc(-c3c4nc(c(-c5c(F)cc(S(=O)(=O)[O-])cc5F)c5ccc([nH]5)c(-c5c(F)cc(S(=O)(=O)[O-])cc5F)c5nc(c(-c6c(F)cc(S(=O)(=O)[O-])cc6F)c6ccc3[nH]6)C=C5)C=C4)cc2)c1
REMARK SMILES IDX 23 1 22 2 21 3 20 4 18 5 19 6 17 7 13 8 14 9 95 10 15 11
REMARK SMILES IDX 16 12 12 13 1 14 2 15 3 17 4 18 5 19 11 20 6 21 9 22 7 24
REMARK SMILES IDX 8 25 10 26 24 28 25 29 26 30 27 31 28 32 29 33 30 34 94 35
REMARK SMILES IDX 31 36 93 37 32 38 33 39 34 40 87 41 35 42 92 43 86 44 88 45
REMARK SMILES IDX 36 46 91 47 85 48 84 49 37 51 71 52 50 53 70 54 51 55 54 56
REMARK SMILES IDX 69 57 89 58 52 59 53 60 68 62 90 63 55 64 38 65 39 66 48 67
REMARK SMILES IDX 40 68 41 69 47 70 49 71 42 72 43 73 44 74 45 75 46 76 72 77
REMARK SMILES IDX 73 78 82 79 74 80 75 81 81 82 83 83 76 84 77 85 78 86 79 87
REMARK SMILES IDX 80 88 56 89 57 90 66 91 58 92 59 93 65 94 67 95 60 96 61 97
REMARK SMILES IDX 62 98 63 99 64 100
REMARK H PARENT 12 16 11 23 8 27 88 50 54 61
REMARK Flexibility Score: inf
ROOT
ATOM      1  O   UNL A   1      33.071  34.921  30.449  1.00  0.00    -0.374 OA
ENDROOT
BRANCH   1   2
ATOM      2  C   UNL A   1      33.296  35.506  29.165  1.00  0.00     0.202 C 
BRANCH   2   3
ATOM      3  C   UNL A   1      34.110  34.680  28.162  1.00  0.00     0.261 C 
BRANCH   3   4
ATOM      4  O   UNL A   1      33.849  33.277  28.306  1.00  0.00    -0.460 OA
BRANCH   4   5
ATOM      5  C   UNL A   1      32.777  32.803  27.626  1.00  0.00     0.338 C 
ATOM      6  O   UNL A   1      31.800  33.437  27.257  1.00  0.00    -0.246 OA
BRANCH   5   7
ATOM      7  C   UNL A   1      33.054  31.418  27.182  1.00  0.00     0.062 A 
ATOM      8  C   UNL A   1      32.506  29.429  25.915  1.00  0.00     0.042 A 
ATOM      9  C   UNL A   1      33.554  28.752  26.554  1.00  0.00     0.026 A 
ATOM     10  C   UNL A   1      32.245  30.760  26.247  1.00  0.00     0.041 A 
ATOM     11  C   UNL A   1      34.369  29.411  27.477  1.00  0.00     0.003 A 
ATOM     12  C   UNL A   1      34.125  30.745  27.784  1.00  0.00     0.016 A 
BRANCH   8  13
ATOM     13  N   UNL A   1      31.751  28.705  24.971  1.00  0.00    -0.326 N 
ATOM     14  O   UNL A   1      33.070  28.944  23.068  1.00  0.00    -0.274 OA
ATOM     15  C   UNL A   1      32.049  28.554  23.624  1.00  0.00     0.230 C 
ATOM     16  H   UNL A   1      30.934  28.266  25.298  1.00  0.00     0.169 HD
BRANCH  15  17
ATOM     17  C   UNL A   1      30.969  27.818  22.837  1.00  0.00     0.154 C 
BRANCH  17  18
ATOM     18  C   UNL A   1      29.759  28.686  22.611  1.00  0.00     0.034 A 
ATOM     19  C   UNL A   1      29.808  29.814  21.888  1.00  0.00     0.093 A 
ATOM     20  N   UNL A   1      28.561  28.277  23.149  1.00  0.00    -0.311 N 
ATOM     21  C   UNL A   1      28.588  30.628  21.730  1.00  0.00     0.253 A 
ATOM     22  C   UNL A   1      27.381  28.959  23.003  1.00  0.00     0.325 A 
ATOM     23  H   UNL A   1      28.551  27.444  23.672  1.00  0.00     0.171 HD
ATOM     24  O   UNL A   1      28.629  31.706  21.147  1.00  0.00    -0.269 OA
ATOM     25  N   UNL A   1      27.453  30.118  22.286  1.00  0.00    -0.274 N 
ATOM     26  O   UNL A   1      26.328  28.563  23.491  1.00  0.00    -0.248 OA
ATOM     27  H   UNL A   1      26.618  30.626  22.160  1.00  0.00     0.175 HD
ENDBRANCH  17  18
ENDBRANCH  15  17
ENDBRANCH   8  13
ENDBRANCH   5   7
ENDBRANCH   4   5
ENDBRANCH   3   4
ENDBRANCH   2   3
ENDBRANCH   1   2
BRANCH   1  28
ATOM     28  C   UNL A   1      33.716  35.533  31.566  1.00  0.00     0.202 C 
BRANCH  28  29
ATOM     29  C   UNL A   1      34.868  34.758  32.221  1.00  0.00     0.261 C 
BRANCH  29  30
ATOM     30  O   UNL A   1      35.622  33.980  31.277  1.00  0.00    -0.460 OA
BRANCH  30  31
ATOM     31  C   UNL A   1      35.436  32.642  31.376  1.00  0.00     0.338 C 
ATOM     32  O   UNL A   1      34.404  32.061  31.675  1.00  0.00    -0.246 OA
BRANCH  31  33
ATOM     33  C   UNL A   1      36.634  31.931  30.896  1.00  0.00     0.060 A 
ATOM     34  C   UNL A   1      37.458  31.325  31.852  1.00  0.00     0.016 A 
ATOM     35  C   UNL A   1      36.986  31.917  29.543  1.00  0.00     0.016 A 
ATOM     36  C   UNL A   1      38.664  30.744  31.467  1.00  0.00     0.010 A 
ATOM     37  C   UNL A   1      38.199  31.338  29.160  1.00  0.00     0.010 A 
ATOM     38  C   UNL A   1      39.060  30.779  30.125  1.00  0.00    -0.014 A 
BRANCH  38  39
ATOM     39  C   UNL A   1      40.428  30.347  29.747  1.00  0.00     0.031 A 
ATOM     40  C   UNL A   1      41.550  31.351  29.786  1.00  0.00     0.074 A 
ATOM     41  C   UNL A   1      40.672  29.073  29.391  1.00  0.00     0.049 A 
ATOM     42  N   UNL A   1      42.804  31.205  29.448  1.00  0.00    -0.248 NA
ATOM     43  C   UNL A   1      41.209  32.699  30.267  1.00  0.00     0.031 C 
ATOM     44  C   UNL A   1      39.674  28.004  29.349  1.00  0.00     0.029 A 
ATOM     45  N   UNL A   1      41.834  28.465  28.987  1.00  0.00    -0.354 N 
ATOM     46  C   UNL A   1      43.400  32.443  29.663  1.00  0.00     0.074 A 
ATOM     47  C   UNL A   1      42.362  33.336  30.130  1.00  0.00     0.031 C 
ATOM     48  C   UNL A   1      40.266  26.872  28.931  1.00  0.00     0.029 A 
ATOM     49  C   UNL A   1      41.672  27.145  28.641  1.00  0.00     0.049 A 
ATOM     50  H   UNL A   1      42.700  28.930  28.950  1.00  0.00     0.167 HD
ATOM     51  C   UNL A   1      44.697  32.798  29.494  1.00  0.00     0.037 A 
ATOM     52  C   UNL A   1      42.552  26.264  28.125  1.00  0.00     0.037 A 
ATOM     53  C   UNL A   1      45.724  31.900  29.033  1.00  0.00     0.049 A 
ATOM     54  C   UNL A   1      43.976  26.699  27.886  1.00  0.00     0.074 A 
ATOM     55  C   UNL A   1      47.072  32.156  28.852  1.00  0.00     0.029 A 
ATOM     56  N   UNL A   1      45.518  30.577  28.672  1.00  0.00    -0.354 N 
ATOM     57  N   UNL A   1      44.532  27.865  28.115  1.00  0.00    -0.248 NA
ATOM     58  C   UNL A   1      44.892  25.699  27.320  1.00  0.00     0.031 C 
ATOM     59  C   UNL A   1      47.669  31.006  28.327  1.00  0.00     0.029 A 
ATOM     60  C   UNL A   1      46.708  30.012  28.240  1.00  0.00     0.049 A 
ATOM     61  H   UNL A   1      44.654  30.107  28.715  1.00  0.00     0.167 HD
ATOM     62  C   UNL A   1      45.869  27.729  27.753  1.00  0.00     0.074 A 
ATOM     63  C   UNL A   1      46.039  26.365  27.297  1.00  0.00     0.031 C 
ATOM     64  C   UNL A   1      46.866  28.648  27.796  1.00  0.00     0.037 A 
BRANCH  51  65
ATOM     65  C   UNL A   1      45.076  34.226  29.781  1.00  0.00     0.058 A 
ATOM     66  C   UNL A   1      45.503  34.640  31.053  1.00  0.00     0.135 A 
ATOM     67  C   UNL A   1      45.047  35.188  28.757  1.00  0.00     0.135 A 
ATOM     68  F   UNL A   1      45.534  33.768  32.073  1.00  0.00    -0.206 F 
ATOM     69  C   UNL A   1      45.864  35.960  31.306  1.00  0.00     0.059 A 
ATOM     70  C   UNL A   1      45.432  36.507  28.980  1.00  0.00     0.059 A 
ATOM     71  F   UNL A   1      44.644  34.849  27.523  1.00  0.00    -0.206 F 
ATOM     72  C   UNL A   1      45.826  36.886  30.261  1.00  0.00     0.060 A 
BRANCH  72  73
ATOM     73  S   UNL A   1      46.304  38.593  30.604  1.00  0.00     0.124 S 
ATOM     74  O   UNL A   1      45.466  38.903  31.759  1.00  0.00    -0.237 OA
ATOM     75  O   UNL A   1      47.733  38.469  30.872  1.00  0.00    -0.237 OA
ATOM     76  O   UNL A   1      45.958  39.298  29.374  1.00  0.00    -0.744 OA
ENDBRANCH  72  73
ENDBRANCH  51  65
BRANCH  52  77
ATOM     77  C   UNL A   1      42.111  24.884  27.786  1.00  0.00     0.058 A 
ATOM     78  C   UNL A   1      41.435  24.610  26.589  1.00  0.00     0.135 A 
ATOM     79  C   UNL A   1      42.361  23.809  28.656  1.00  0.00     0.135 A 
ATOM     80  F   UNL A   1      41.162  25.604  25.731  1.00  0.00    -0.206 F 
ATOM     81  C   UNL A   1      41.008  23.325  26.270  1.00  0.00     0.059 A 
ATOM     82  C   UNL A   1      41.970  22.511  28.345  1.00  0.00     0.059 A 
ATOM     83  F   UNL A   1      43.013  24.016  29.810  1.00  0.00    -0.206 F 
ATOM     84  C   UNL A   1      41.284  22.280  27.154  1.00  0.00     0.060 A 
BRANCH  84  85
ATOM     85  S   UNL A   1      40.767  20.609  26.709  1.00  0.00     0.124 S 
ATOM     86  O   UNL A   1      40.781  19.941  28.005  1.00  0.00    -0.237 OA
ATOM     87  O   UNL A   1      39.450  20.844  26.125  1.00  0.00    -0.237 OA
ATOM     88  O   UNL A   1      41.795  20.179  25.766  1.00  0.00    -0.744 OA
ENDBRANCH  84  85
ENDBRANCH  52  77
BRANCH  64  89
ATOM     89  C   UNL A   1      48.243  28.205  27.378  1.00  0.00     0.058 A 
ATOM     90  C   UNL A   1      49.194  27.759  28.309  1.00  0.00     0.135 A 
ATOM     91  C   UNL A   1      48.594  28.171  26.017  1.00  0.00     0.135 A 
ATOM     92  F   UNL A   1      48.914  27.774  29.622  1.00  0.00    -0.206 F 
ATOM     93  C   UNL A   1      50.452  27.319  27.909  1.00  0.00     0.059 A 
ATOM     94  C   UNL A   1      49.834  27.706  25.594  1.00  0.00     0.059 A 
ATOM     95  F   UNL A   1      47.718  28.575  25.083  1.00  0.00    -0.206 F 
ATOM     96  C   UNL A   1      50.762  27.293  26.548  1.00  0.00     0.060 A 
BRANCH  96  97
ATOM     97  S   UNL A   1      52.385  26.686  26.041  1.00  0.00     0.124 S 
ATOM     98  O   UNL A   1      52.136  25.256  25.902  1.00  0.00    -0.237 OA
ATOM     99  O   UNL A   1      52.614  27.415  24.797  1.00  0.00    -0.237 OA
ATOM    100  O   UNL A   1      53.253  27.067  27.152  1.00  0.00    -0.744 OA
ENDBRANCH  96  97
ENDBRANCH  64  89
ENDBRANCH  38  39
ENDBRANCH  31  33
ENDBRANCH  30  31
ENDBRANCH  29  30
ENDBRANCH  28  29
ENDBRANCH   1  28
TORSDOF 20
ENDMDL
MODEL 2
REMARK VINA RESULT:     -10.8      2.795      4.157
REMARK SMILES O=C(Cc1cc(=O)[nH]c(=O)[nH]1)Nc1cccc(C(=O)OCCOCCOC(=O)c2ccc(-c3c4nc(c(-c5c(F)cc(S(=O)(=O)[O-])cc5F)c5ccc([nH]5)c(-c5c(F)cc(S(=O)(=O)[O-])cc5F)c5nc(c(-c6c(F)cc(S(=O)(=O)[O-])cc6F)c6ccc3[nH]6)C=C5)C=C4)cc2)c1
REMARK SMILES IDX 23 1 22 2 21 3 20 4 18 5 19 6 17 7 13 8 14 9 95 10 15 11
REMARK SMILES IDX 16 12 12 13 1 14 2 15 3 17 4 18 5 19 11 20 6 21 9 22 7 24
REMARK SMILES IDX 8 25 10 26 24 28 25 29 26 30 27 31 28 32 29 33 30 34 94 35
REMARK SMILES IDX 31 36 93 37 32 38 33 39 34 40 87 41 35 42 92 43 86 44 88 45
REMARK SMILES IDX 36 46 91 47 85 48 84 49 37 51 71 52 50 53 70 54 51 55 54 56
REMARK SMILES IDX 69 57 89 58 52 59 53 60 68 62 90 63 55 64 38 65 39 66 48 67
REMARK SMILES IDX 40 68 41 69 47 70 49 71 42 72 43 73 44 74 45 75 46 76 72 77
REMARK SMILES IDX 73 78 82 79 74 80 75 81 81 82 83 83 76 84 77 85 78 86 79 87
REMARK SMILES IDX 80 88 56 89 57 90 66 91 58 92 59 93 65 94 67 95 60 96 61 97
REMARK SMILES IDX 62 98 63 99 64 100
REMARK H PARENT 12 16 11 23 8 27 88 50 54 61
REMARK Flexibility Score: inf
ROOT
ATOM      1  O   UNL A   1      34.008  33.196  30.142  1.00  0.00    -0.374 OA
ENDROOT
BRANCH   1   2
ATOM      2  C   UNL A   1      33.982  33.029  28.723  1.00  0.00     0.202 C 
BRANCH   2   3
ATOM      3  C   UNL A   1      34.834  31.892  28.146  1.00  0.00     0.261 C 
BRANCH   3   4
ATOM      4  O   UNL A   1      34.019  30.906  27.496  1.00  0.00    -0.460 OA
BRANCH   4   5
ATOM      5  C   UNL A   1      34.641  29.748  27.169  1.00  0.00     0.338 C 
ATOM      6  O   UNL A   1      35.838  29.509  27.238  1.00  0.00    -0.246 OA
BRANCH   5   7
ATOM      7  C   UNL A   1      33.624  28.701  26.917  1.00  0.00     0.062 A 
ATOM      8  C   UNL A   1      32.813  26.748  25.739  1.00  0.00     0.042 A 
ATOM      9  C   UNL A   1      31.578  26.892  26.385  1.00  0.00     0.026 A 
ATOM     10  C   UNL A   1      33.832  27.670  25.993  1.00  0.00     0.041 A 
ATOM     11  C   UNL A   1      31.375  27.912  27.316  1.00  0.00     0.003 A 
ATOM     12  C   UNL A   1      32.400  28.811  27.589  1.00  0.00     0.016 A 
BRANCH   8  13
ATOM     13  N   UNL A   1      32.951  25.672  24.840  1.00  0.00    -0.326 N 
ATOM     14  O   UNL A   1      33.943  24.072  26.207  1.00  0.00    -0.274 OA
ATOM     15  C   UNL A   1      33.539  24.446  25.110  1.00  0.00     0.230 C 
ATOM     16  H   UNL A   1      32.595  25.804  23.931  1.00  0.00     0.169 HD
BRANCH  15  17
ATOM     17  C   UNL A   1      33.648  23.535  23.891  1.00  0.00     0.154 C 
BRANCH  17  18
ATOM     18  C   UNL A   1      33.849  22.097  24.290  1.00  0.00     0.034 A 
ATOM     19  C   UNL A   1      32.832  21.228  24.387  1.00  0.00     0.093 A 
ATOM     20  N   UNL A   1      35.133  21.666  24.532  1.00  0.00    -0.311 N 
ATOM     21  C   UNL A   1      33.101  19.841  24.809  1.00  0.00     0.253 A 
ATOM     22  C   UNL A   1      35.459  20.382  24.881  1.00  0.00     0.325 A 
ATOM     23  H   UNL A   1      35.862  22.322  24.450  1.00  0.00     0.171 HD
ATOM     24  O   UNL A   1      32.178  19.054  24.989  1.00  0.00    -0.269 OA
ATOM     25  N   UNL A   1      34.410  19.517  25.001  1.00  0.00    -0.274 N 
ATOM     26  O   UNL A   1      36.616  20.030  25.083  1.00  0.00    -0.248 OA
ATOM     27  H   UNL A   1      34.616  18.585  25.245  1.00  0.00     0.175 HD
ENDBRANCH  17  18
ENDBRANCH  15  17
ENDBRANCH   8  13
ENDBRANCH   5   7
ENDBRANCH   4   5
ENDBRANCH   3   4
ENDBRANCH   2   3
ENDBRANCH   1   2
BRANCH   1  28
ATOM     28  C   UNL A   1      34.870  34.209  30.663  1.00  0.00     0.202 C 
BRANCH  28  29
ATOM     29  C   UNL A   1      36.061  33.747  31.513  1.00  0.00     0.261 C 
BRANCH  29  30
ATOM     30  O   UNL A   1      36.962  32.893  30.789  1.00  0.00    -0.460 OA
BRANCH  30  31
ATOM     31  C   UNL A   1      36.900  31.585  31.138  1.00  0.00     0.338 C 
ATOM     32  O   UNL A   1      35.977  31.015  31.699  1.00  0.00    -0.246 OA
BRANCH  31  33
ATOM     33  C   UNL A   1      38.059  30.863  30.586  1.00  0.00     0.060 A 
ATOM     34  C   UNL A   1      38.943  30.262  31.492  1.00  0.00     0.016 A 
ATOM     35  C   UNL A   1      38.319  30.832  29.213  1.00  0.00     0.016 A 
ATOM     36  C   UNL A   1      40.117  29.670  31.033  1.00  0.00     0.010 A 
ATOM     37  C   UNL A   1      39.501  30.241  28.756  1.00  0.00     0.010 A 
ATOM     38  C   UNL A   1      40.422  29.688  29.666  1.00  0.00    -0.014 A 
BRANCH  38  39
ATOM     39  C   UNL A   1      41.760  29.244  29.202  1.00  0.00     0.031 A 
ATOM     40  C   UNL A   1      42.887  30.240  29.160  1.00  0.00     0.074 A 
ATOM     41  C   UNL A   1      41.970  27.965  28.841  1.00  0.00     0.049 A 
ATOM     42  N   UNL A   1      44.116  30.083  28.740  1.00  0.00    -0.248 NA
ATOM     43  C   UNL A   1      42.587  31.594  29.651  1.00  0.00     0.031 C 
ATOM     44  C   UNL A   1      40.965  26.903  28.873  1.00  0.00     0.029 A 
ATOM     45  N   UNL A   1      43.100  27.346  28.366  1.00  0.00    -0.354 N 
ATOM     46  C   UNL A   1      44.733  31.319  28.906  1.00  0.00     0.074 A 
ATOM     47  C   UNL A   1      43.733  32.222  29.434  1.00  0.00     0.031 C 
ATOM     48  C   UNL A   1      41.521  25.764  28.426  1.00  0.00     0.029 A 
ATOM     49  C   UNL A   1      42.906  26.025  28.041  1.00  0.00     0.049 A 
ATOM     50  H   UNL A   1      43.965  27.806  28.268  1.00  0.00     0.167 HD
ATOM     51  C   UNL A   1      46.017  31.664  28.649  1.00  0.00     0.037 A 
ATOM     52  C   UNL A   1      43.745  25.134  27.475  1.00  0.00     0.037 A 
ATOM     53  C   UNL A   1      47.006  30.755  28.128  1.00  0.00     0.049 A 
ATOM     54  C   UNL A   1      45.152  25.558  27.139  1.00  0.00     0.074 A 
ATOM     55  C   UNL A   1      48.341  31.000  27.856  1.00  0.00     0.029 A 
ATOM     56  N   UNL A   1      46.768  29.430  27.791  1.00  0.00    -0.354 N 
ATOM     57  N   UNL A   1      45.730  26.722  27.322  1.00  0.00    -0.248 NA
ATOM     58  C   UNL A   1      46.023  24.548  26.521  1.00  0.00     0.031 C 
ATOM     59  C   UNL A   1      48.894  29.842  27.301  1.00  0.00     0.029 A 
ATOM     60  C   UNL A   1      47.923  28.854  27.286  1.00  0.00     0.049 A 
ATOM     61  H   UNL A   1      45.906  28.967  27.895  1.00  0.00     0.167 HD
ATOM     62  C   UNL A   1      47.039  26.574  26.873  1.00  0.00     0.074 A 
ATOM     63  C   UNL A   1      47.170  25.205  26.418  1.00  0.00     0.031 C 
ATOM     64  C   UNL A   1      48.043  27.486  26.843  1.00  0.00     0.037 A 
BRANCH  51  65
ATOM     65  C   UNL A   1      46.423  33.091  28.899  1.00  0.00     0.058 A 
ATOM     66  C   UNL A   1      46.282  34.087  27.920  1.00  0.00     0.135 A 
ATOM     67  C   UNL A   1      46.928  33.476  30.153  1.00  0.00     0.135 A 
ATOM     68  F   UNL A   1      45.822  33.773  26.698  1.00  0.00    -0.206 F 
ATOM     69  C   UNL A   1      46.648  35.407  28.164  1.00  0.00     0.059 A 
ATOM     70  C   UNL A   1      47.272  34.795  30.430  1.00  0.00     0.059 A 
ATOM     71  F   UNL A   1      47.087  32.565  31.125  1.00  0.00    -0.206 F 
ATOM     72  C   UNL A   1      47.142  35.751  29.425  1.00  0.00     0.060 A 
BRANCH  72  73
ATOM     73  S   UNL A   1      47.607  37.469  29.729  1.00  0.00     0.124 S 
ATOM     74  O   UNL A   1      49.061  37.368  29.802  1.00  0.00    -0.237 OA
ATOM     75  O   UNL A   1      47.077  38.148  28.551  1.00  0.00    -0.237 OA
ATOM     76  O   UNL A   1      46.937  37.786  30.986  1.00  0.00    -0.744 OA
ENDBRANCH  72  73
ENDBRANCH  51  65
BRANCH  52  77
ATOM     77  C   UNL A   1      43.274  23.755  27.177  1.00  0.00     0.058 A 
ATOM     78  C   UNL A   1      43.011  23.345  25.863  1.00  0.00     0.135 A 
ATOM     79  C   UNL A   1      43.079  22.818  28.205  1.00  0.00     0.135 A 
ATOM     80  F   UNL A   1      43.170  24.206  24.847  1.00  0.00    -0.206 F 
ATOM     81  C   UNL A   1      42.558  22.061  25.576  1.00  0.00     0.059 A 
ATOM     82  C   UNL A   1      42.656  21.519  27.941  1.00  0.00     0.059 A 
ATOM     83  F   UNL A   1      43.326  23.157  29.480  1.00  0.00    -0.206 F 
ATOM     84  C   UNL A   1      42.387  21.153  26.624  1.00  0.00     0.060 A 
BRANCH  84  85
ATOM     85  S   UNL A   1      41.844  19.475  26.235  1.00  0.00     0.124 S 
ATOM     86  O   UNL A   1      42.591  19.200  25.014  1.00  0.00    -0.237 OA
ATOM     87  O   UNL A   1      42.264  18.737  27.422  1.00  0.00    -0.237 OA
ATOM     88  O   UNL A   1      40.401  19.619  26.073  1.00  0.00    -0.744 OA
ENDBRANCH  84  85
ENDBRANCH  52  77
BRANCH  64  89
ATOM     89  C   UNL A   1      49.386  27.030  26.339  1.00  0.00     0.058 A 
ATOM     90  C   UNL A   1      50.405  26.615  27.210  1.00  0.00     0.135 A 
ATOM     91  C   UNL A   1      49.635  26.953  24.957  1.00  0.00     0.135 A 
ATOM     92  F   UNL A   1      50.223  26.673  28.539  1.00  0.00    -0.206 F 
ATOM     93  C   UNL A   1      51.632  26.163  26.732  1.00  0.00     0.059 A 
ATOM     94  C   UNL A   1      50.842  26.475  24.457  1.00  0.00     0.059 A 
ATOM     95  F   UNL A   1      48.692  27.326  24.078  1.00  0.00    -0.206 F 
ATOM     96  C   UNL A   1      51.840  26.093  25.353  1.00  0.00     0.060 A 
BRANCH  96  97
ATOM     97  S   UNL A   1      53.422  25.472  24.747  1.00  0.00     0.124 S 
ATOM     98  O   UNL A   1      53.298  24.042  25.009  1.00  0.00    -0.237 OA
ATOM     99  O   UNL A   1      53.392  25.864  23.341  1.00  0.00    -0.237 OA
ATOM    100  O   UNL A   1      54.402  26.177  25.568  1.00  0.00    -0.744 OA
ENDBRANCH  96  97
ENDBRANCH  64  89
ENDBRANCH  38  39
ENDBRANCH  31  33
ENDBRANCH  30  31
ENDBRANCH  29  30
ENDBRANCH  28  29
ENDBRANCH   1  28
TORSDOF 20
ENDMDL
MODEL 3
REMARK VINA RESULT:     -10.8      2.889      9.201
REMARK SMILES O=C(Cc1cc(=O)[nH]c(=O)[nH]1)Nc1cccc(C(=O)OCCOCCOC(=O)c2ccc(-c3c4nc(c(-c5c(F)cc(S(=O)(=O)[O-])cc5F)c5ccc([nH]5)c(-c5c(F)cc(S(=O)(=O)[O-])cc5F)c5nc(c(-c6c(F)cc(S(=O)(=O)[O-])cc6F)c6ccc3[nH]6)C=C5)C=C4)cc2)c1
REMARK SMILES IDX 23 1 22 2 21 3 20 4 18 5 19 6 17 7 13 8 14 9 95 10 15 11
REMARK SMILES IDX 16 12 12 13 1 14 2 15 3 17 4 18 5 19 11 20 6 21 9 22 7 24
REMARK SMILES IDX 8 25 10 26 24 28 25 29 26 30 27 31 28 32 29 33 30 34 94 35
REMARK SMILES IDX 31 36 93 37 32 38 33 39 34 40 87 41 35 42 92 43 86 44 88 45
REMARK SMILES IDX 36 46 91 47 85 48 84 49 37 51 71 52 50 53 70 54 51 55 54 56
REMARK SMILES IDX 69 57 89 58 52 59 53 60 68 62 90 63 55 64 38 65 39 66 48 67
REMARK SMILES IDX 40 68 41 69 47 70 49 71 42 72 43 73 44 74 45 75 46 76 72 77
REMARK SMILES IDX 73 78 82 79 74 80 75 81 81 82 83 83 76 84 77 85 78 86 79 87
REMARK SMILES IDX 80 88 56 89 57 90 66 91 58 92 59 93 65 94 67 95 60 96 61 97
REMARK SMILES IDX 62 98 63 99 64 100
REMARK H PARENT 12 16 11 23 8 27 88 50 54 61
REMARK Flexibility Score: inf
ROOT
ATOM      1  O   UNL A   1      35.116  31.692  27.606  1.00  0.00    -0.374 OA
ENDROOT
BRANCH   1   2
ATOM      2  C   UNL A   1      34.395  30.478  27.386  1.00  0.00     0.202 C 
BRANCH   2   3
ATOM      3  C   UNL A   1      32.877  30.599  27.209  1.00  0.00     0.261 C 
BRANCH   3   4
ATOM      4  O   UNL A   1      32.427  29.878  26.053  1.00  0.00    -0.460 OA
BRANCH   4   5
ATOM      5  C   UNL A   1      31.861  28.671  26.293  1.00  0.00     0.338 C 
ATOM      6  O   UNL A   1      31.487  28.234  27.372  1.00  0.00    -0.246 OA
BRANCH   5   7
ATOM      7  C   UNL A   1      31.541  28.015  25.005  1.00  0.00     0.062 A 
ATOM      8  C   UNL A   1      31.564  26.109  23.513  1.00  0.00     0.042 A 
ATOM      9  C   UNL A   1      31.072  26.927  22.486  1.00  0.00     0.026 A 
ATOM     10  C   UNL A   1      31.817  26.662  24.770  1.00  0.00     0.041 A 
ATOM     11  C   UNL A   1      30.785  28.273  22.723  1.00  0.00     0.003 A 
ATOM     12  C   UNL A   1      31.011  28.814  23.984  1.00  0.00     0.016 A 
BRANCH   8  13
ATOM     13  N   UNL A   1      31.794  24.754  23.204  1.00  0.00    -0.326 N 
ATOM     14  O   UNL A   1      34.085  24.774  22.791  1.00  0.00    -0.274 OA
ATOM     15  C   UNL A   1      33.004  24.193  22.822  1.00  0.00     0.230 C 
ATOM     16  H   UNL A   1      31.022  24.147  23.263  1.00  0.00     0.169 HD
BRANCH  15  17
ATOM     17  C   UNL A   1      32.903  22.722  22.432  1.00  0.00     0.154 C 
BRANCH  17  18
ATOM     18  C   UNL A   1      33.223  21.817  23.593  1.00  0.00     0.034 A 
ATOM     19  C   UNL A   1      32.496  20.727  23.877  1.00  0.00     0.093 A 
ATOM     20  N   UNL A   1      34.322  22.119  24.363  1.00  0.00    -0.311 N 
ATOM     21  C   UNL A   1      32.854  19.901  25.046  1.00  0.00     0.253 A 
ATOM     22  C   UNL A   1      34.739  21.371  25.433  1.00  0.00     0.325 A 
ATOM     23  H   UNL A   1      34.841  22.922  24.132  1.00  0.00     0.171 HD
ATOM     24  O   UNL A   1      32.153  18.951  25.376  1.00  0.00    -0.269 OA
ATOM     25  N   UNL A   1      33.973  20.279  25.725  1.00  0.00    -0.274 N 
ATOM     26  O   UNL A   1      35.728  21.664  26.096  1.00  0.00    -0.248 OA
ATOM     27  H   UNL A   1      34.252  19.719  26.486  1.00  0.00     0.175 HD
ENDBRANCH  17  18
ENDBRANCH  15  17
ENDBRANCH   8  13
ENDBRANCH   5   7
ENDBRANCH   4   5
ENDBRANCH   3   4
ENDBRANCH   2   3
ENDBRANCH   1   2
BRANCH   1  28
ATOM     28  C   UNL A   1      34.654  32.543  28.655  1.00  0.00     0.202 C 
BRANCH  28  29
ATOM     29  C   UNL A   1      35.153  32.241  30.075  1.00  0.00     0.261 C 
BRANCH  29  30
ATOM     30  O   UNL A   1      36.534  31.846  30.106  1.00  0.00    -0.460 OA
BRANCH  30  31
ATOM     31  C   UNL A   1      36.757  30.616  30.628  1.00  0.00     0.338 C 
ATOM     32  O   UNL A   1      36.011  29.979  31.356  1.00  0.00    -0.246 OA
BRANCH  31  33
ATOM     33  C   UNL A   1      37.987  30.042  30.056  1.00  0.00     0.060 A 
ATOM     34  C   UNL A   1      38.976  29.605  30.946  1.00  0.00     0.016 A 
ATOM     35  C   UNL A   1      38.202  29.996  28.676  1.00  0.00     0.016 A 
ATOM     36  C   UNL A   1      40.206  29.165  30.461  1.00  0.00     0.010 A 
ATOM     37  C   UNL A   1      39.439  29.558  28.193  1.00  0.00     0.010 A 
ATOM     38  C   UNL A   1      40.458  29.173  29.084  1.00  0.00    -0.014 A 
BRANCH  38  39
ATOM     39  C   UNL A   1      41.829  28.903  28.583  1.00  0.00     0.031 A 
ATOM     40  C   UNL A   1      42.185  27.510  28.137  1.00  0.00     0.074 A 
ATOM     41  C   UNL A   1      42.739  29.891  28.510  1.00  0.00     0.049 A 
ATOM     42  N   UNL A   1      43.331  27.041  27.718  1.00  0.00    -0.248 NA
ATOM     43  C   UNL A   1      41.103  26.512  28.174  1.00  0.00     0.031 C 
ATOM     44  C   UNL A   1      42.502  31.286  28.880  1.00  0.00     0.029 A 
ATOM     45  N   UNL A   1      44.051  29.868  28.108  1.00  0.00    -0.354 N 
ATOM     46  C   UNL A   1      43.114  25.694  27.452  1.00  0.00     0.074 A 
ATOM     47  C   UNL A   1      41.735  25.414  27.788  1.00  0.00     0.031 C 
ATOM     48  C   UNL A   1      43.635  31.984  28.698  1.00  0.00     0.029 A 
ATOM     49  C   UNL A   1      44.686  31.081  28.236  1.00  0.00     0.049 A 
ATOM     50  H   UNL A   1      44.495  29.061  27.762  1.00  0.00     0.167 HD
ATOM     51  C   UNL A   1      43.984  24.777  26.964  1.00  0.00     0.037 A 
ATOM     52  C   UNL A   1      45.975  31.417  28.027  1.00  0.00     0.037 A 
ATOM     53  C   UNL A   1      45.354  25.068  26.628  1.00  0.00     0.049 A 
ATOM     54  C   UNL A   1      46.941  30.366  27.543  1.00  0.00     0.074 A 
ATOM     55  C   UNL A   1      46.311  24.215  26.104  1.00  0.00     0.029 A 
ATOM     56  N   UNL A   1      45.968  26.302  26.790  1.00  0.00    -0.354 N 
ATOM     57  N   UNL A   1      46.718  29.101  27.273  1.00  0.00    -0.248 NA
ATOM     58  C   UNL A   1      48.333  30.787  27.334  1.00  0.00     0.031 C 
ATOM     59  C   UNL A   1      47.516  24.917  26.004  1.00  0.00     0.029 A 
ATOM     60  C   UNL A   1      47.297  26.226  26.405  1.00  0.00     0.049 A 
ATOM     61  H   UNL A   1      45.524  27.112  27.130  1.00  0.00     0.167 HD
ATOM     62  C   UNL A   1      47.933  28.584  26.831  1.00  0.00     0.074 A 
ATOM     63  C   UNL A   1      48.884  29.676  26.863  1.00  0.00     0.031 C 
ATOM     64  C   UNL A   1      48.233  27.323  26.433  1.00  0.00     0.037 A 
BRANCH  51  65
ATOM     65  C   UNL A   1      43.492  23.366  26.790  1.00  0.00     0.058 A 
ATOM     66  C   UNL A   1      43.253  22.814  25.522  1.00  0.00     0.135 A 
ATOM     67  C   UNL A   1      43.293  22.540  27.909  1.00  0.00     0.135 A 
ATOM     68  F   UNL A   1      43.410  23.562  24.418  1.00  0.00    -0.206 F 
ATOM     69  C   UNL A   1      42.810  21.503  25.369  1.00  0.00     0.059 A 
ATOM     70  C   UNL A   1      42.880  21.218  27.779  1.00  0.00     0.059 A 
ATOM     71  F   UNL A   1      43.504  23.017  29.146  1.00  0.00    -0.206 F 
ATOM     72  C   UNL A   1      42.628  20.712  26.506  1.00  0.00     0.060 A 
BRANCH  72  73
ATOM     73  S   UNL A   1      42.059  19.012  26.291  1.00  0.00     0.124 S 
ATOM     74  O   UNL A   1      42.131  18.507  27.659  1.00  0.00    -0.237 OA
ATOM     75  O   UNL A   1      40.716  19.199  25.754  1.00  0.00    -0.237 OA
ATOM     76  O   UNL A   1      43.030  18.442  25.362  1.00  0.00    -0.744 OA
ENDBRANCH  72  73
ENDBRANCH  51  65
BRANCH  52  77
ATOM     77  C   UNL A   1      46.431  32.809  28.285  1.00  0.00     0.058 A 
ATOM     78  C   UNL A   1      46.914  33.193  29.544  1.00  0.00     0.135 A 
ATOM     79  C   UNL A   1      46.394  33.784  27.274  1.00  0.00     0.135 A 
ATOM     80  F   UNL A   1      46.958  32.303  30.546  1.00  0.00    -0.206 F 
ATOM     81  C   UNL A   1      47.332  34.496  29.798  1.00  0.00     0.059 A 
ATOM     82  C   UNL A   1      46.834  35.085  27.496  1.00  0.00     0.059 A 
ATOM     83  F   UNL A   1      45.949  33.465  26.049  1.00  0.00    -0.206 F 
ATOM     84  C   UNL A   1      47.291  35.434  28.765  1.00  0.00     0.060 A 
BRANCH  84  85
ATOM     85  S   UNL A   1      47.878  37.110  29.093  1.00  0.00     0.124 S 
ATOM     86  O   UNL A   1      49.306  36.887  29.293  1.00  0.00    -0.237 OA
ATOM     87  O   UNL A   1      47.506  37.809  27.867  1.00  0.00    -0.237 OA
ATOM     88  O   UNL A   1      47.128  37.502  30.282  1.00  0.00    -0.744 OA
ENDBRANCH  84  85
ENDBRANCH  52  77
BRANCH  64  89
ATOM     89  C   UNL A   1      49.637  27.056  25.959  1.00  0.00     0.058 A 
ATOM     90  C   UNL A   1      50.651  26.639  26.835  1.00  0.00     0.135 A 
ATOM     91  C   UNL A   1      49.956  27.163  24.594  1.00  0.00     0.135 A 
ATOM     92  F   UNL A   1      50.403  26.524  28.150  1.00  0.00    -0.206 F 
ATOM     93  C   UNL A   1      51.937  26.362  26.381  1.00  0.00     0.059 A 
ATOM     94  C   UNL A   1      51.226  26.861  24.114  1.00  0.00     0.059 A 
ATOM     95  F   UNL A   1      49.021  27.546  23.709  1.00  0.00    -0.206 F 
ATOM     96  C   UNL A   1      52.214  26.472  25.017  1.00  0.00     0.060 A 
BRANCH  96  97
ATOM     97  S   UNL A   1      53.877  26.076  24.436  1.00  0.00     0.124 S 
ATOM     98  O   UNL A   1      53.756  26.322  23.004  1.00  0.00    -0.237 OA
ATOM     99  O   UNL A   1      54.699  27.027  25.177  1.00  0.00    -0.237 OA
ATOM    100  O   UNL A   1      54.047  24.677  24.820  1.00  0.00    -0.744 OA
ENDBRANCH  96  97
ENDBRANCH  64  89
ENDBRANCH  38  39
ENDBRANCH  31  33
ENDBRANCH  30  31
ENDBRANCH  29  30
ENDBRANCH  28  29
ENDBRANCH   1  28
TORSDOF 20
ENDMDL
