MODEL 1
REMARK VINA RESULT:     -10.5      0.000      0.000
REMARK SMILES CC[C@H](CNC(=O)[C@H]1CSc2ccccc21)C(=O)OCCOCCOC(=O)c1ccc(-c2c3nc(c(-c4c(F)cc(S(=O)(=O)[O-])cc4F)c4ccc([nH]4)c(-c4c(F)cc(S(=O)(=O)[O-])cc4F)c4nc(c(-c5c(F)cc(S(=O)(=O)[O-])cc5F)c5ccc2[nH]5)C=C4)C=C3)cc1
REMARK SMILES IDX 22 1 21 2 20 3 19 4 17 5 18 6 3 7 2 8 1 9 4 10 5 11 6 12
REMARK SMILES IDX 7 14 8 15 9 16 16 17 10 18 11 19 15 20 12 21 14 22 13 23
REMARK SMILES IDX 23 24 24 25 25 26 26 27 27 28 28 29 29 30 93 31 30 32 92 33
REMARK SMILES IDX 31 34 32 35 33 36 86 37 34 38 91 39 85 40 87 41 35 42 90 43
REMARK SMILES IDX 84 44 83 45 36 47 70 48 49 49 69 50 50 51 53 52 68 53 88 54
REMARK SMILES IDX 51 55 52 56 67 58 89 59 54 60 37 61 38 62 47 63 39 64 40 65
REMARK SMILES IDX 46 66 48 67 41 68 42 69 43 70 44 71 45 72 71 73 72 74 81 75
REMARK SMILES IDX 73 76 74 77 80 78 82 79 75 80 76 81 77 82 78 83 79 84 55 85
REMARK SMILES IDX 56 86 65 87 57 88 58 89 64 90 66 91 59 92 60 93 61 94 62 95
REMARK SMILES IDX 63 96
REMARK H PARENT 5 13 87 46 53 57
REMARK Flexibility Score: inf
ROOT
ATOM      1  O   UNL A   1      37.344  22.055  24.659  1.00  0.00    -0.374 OA
ENDROOT
BRANCH   1   2
ATOM      2  C   UNL A   1      36.216  22.343  23.842  1.00  0.00     0.202 C 
BRANCH   2   3
ATOM      3  C   UNL A   1      35.373  23.569  24.215  1.00  0.00     0.261 C 
BRANCH   3   4
ATOM      4  O   UNL A   1      34.043  23.600  23.664  1.00  0.00    -0.463 OA
BRANCH   4   5
ATOM      5  C   UNL A   1      33.333  24.719  23.974  1.00  0.00     0.310 C 
ATOM      6  O   UNL A   1      33.610  25.849  23.580  1.00  0.00    -0.252 OA
BRANCH   5   7
ATOM      7  C   UNL A   1      32.218  24.494  24.977  1.00  0.00     0.118 C 
BRANCH   7   8
ATOM      8  C   UNL A   1      31.537  23.141  24.680  1.00  0.00     0.014 C 
ATOM      9  C   UNL A   1      30.901  22.462  25.892  1.00  0.00     0.005 C 
ENDBRANCH   7   8
BRANCH   7  10
ATOM     10  C   UNL A   1      31.166  25.581  25.208  1.00  0.00     0.131 C 
BRANCH  10  11
ATOM     11  N   UNL A   1      31.161  26.234  26.492  1.00  0.00    -0.355 N 
ATOM     12  C   UNL A   1      31.406  27.522  26.846  1.00  0.00     0.228 C 
ATOM     13  H   UNL A   1      30.942  25.641  27.248  1.00  0.00     0.163 HD
ATOM     14  O   UNL A   1      31.031  27.821  27.991  1.00  0.00    -0.274 OA
BRANCH  12  15
ATOM     15  C   UNL A   1      32.081  28.593  25.978  1.00  0.00     0.120 C 
ATOM     16  C   UNL A   1      31.279  29.660  25.233  1.00  0.00     0.093 C 
ATOM     17  C   UNL A   1      33.190  29.324  26.701  1.00  0.00    -0.021 A 
ATOM     18  S   UNL A   1      31.426  31.213  26.193  1.00  0.00    -0.125 SA
ATOM     19  C   UNL A   1      32.935  30.675  26.937  1.00  0.00     0.011 A 
ATOM     20  C   UNL A   1      34.402  28.762  27.095  1.00  0.00     0.006 A 
ATOM     21  C   UNL A   1      33.841  31.468  27.625  1.00  0.00     0.015 A 
ATOM     22  C   UNL A   1      35.335  29.559  27.759  1.00  0.00     0.000 A 
ATOM     23  C   UNL A   1      35.048  30.901  28.040  1.00  0.00     0.001 A 
ENDBRANCH  12  15
ENDBRANCH  10  11
ENDBRANCH   7  10
ENDBRANCH   5   7
ENDBRANCH   4   5
ENDBRANCH   3   4
ENDBRANCH   2   3
ENDBRANCH   1   2
BRANCH   1  24
ATOM     24  C   UNL A   1      37.648  22.986  25.699  1.00  0.00     0.202 C 
BRANCH  24  25
ATOM     25  C   UNL A   1      39.027  22.839  26.356  1.00  0.00     0.261 C 
BRANCH  25  26
ATOM     26  O   UNL A   1      39.774  24.073  26.306  1.00  0.00    -0.460 OA
BRANCH  26  27
ATOM     27  C   UNL A   1      40.810  24.153  27.174  1.00  0.00     0.338 C 
ATOM     28  O   UNL A   1      41.822  23.464  27.191  1.00  0.00    -0.246 OA
BRANCH  27  29
ATOM     29  C   UNL A   1      40.636  25.338  28.028  1.00  0.00     0.060 A 
ATOM     30  C   UNL A   1      39.442  25.555  28.716  1.00  0.00     0.016 A 
ATOM     31  C   UNL A   1      41.716  26.210  28.201  1.00  0.00     0.016 A 
ATOM     32  C   UNL A   1      39.315  26.672  29.547  1.00  0.00     0.010 A 
ATOM     33  C   UNL A   1      41.608  27.288  29.083  1.00  0.00     0.010 A 
ATOM     34  C   UNL A   1      40.410  27.525  29.775  1.00  0.00    -0.014 A 
BRANCH  34  35
ATOM     35  C   UNL A   1      40.353  28.553  30.852  1.00  0.00     0.031 A 
ATOM     36  C   UNL A   1      41.247  28.497  32.059  1.00  0.00     0.074 A 
ATOM     37  C   UNL A   1      39.424  29.527  30.760  1.00  0.00     0.049 A 
ATOM     38  N   UNL A   1      41.289  29.305  33.089  1.00  0.00    -0.248 NA
ATOM     39  C   UNL A   1      42.204  27.385  32.130  1.00  0.00     0.031 C 
ATOM     40  C   UNL A   1      38.460  29.666  29.666  1.00  0.00     0.029 A 
ATOM     41  N   UNL A   1      39.137  30.583  31.588  1.00  0.00    -0.354 N 
ATOM     42  C   UNL A   1      42.268  28.800  33.936  1.00  0.00     0.074 A 
ATOM     43  C   UNL A   1      42.770  27.591  33.313  1.00  0.00     0.031 C 
ATOM     44  C   UNL A   1      37.723  30.767  29.866  1.00  0.00     0.029 A 
ATOM     45  C   UNL A   1      38.118  31.383  31.129  1.00  0.00     0.049 A 
ATOM     46  H   UNL A   1      39.616  30.752  32.433  1.00  0.00     0.167 HD
ATOM     47  C   UNL A   1      42.713  29.302  35.115  1.00  0.00     0.037 A 
ATOM     48  C   UNL A   1      37.551  32.483  31.658  1.00  0.00     0.037 A 
ATOM     49  C   UNL A   1      42.213  30.507  35.730  1.00  0.00     0.049 A 
ATOM     50  C   UNL A   1      38.048  33.011  32.971  1.00  0.00     0.074 A 
ATOM     51  C   UNL A   1      42.644  31.121  36.895  1.00  0.00     0.029 A 
ATOM     52  N   UNL A   1      41.165  31.276  35.243  1.00  0.00    -0.354 N 
ATOM     53  N   UNL A   1      39.012  32.549  33.729  1.00  0.00    -0.248 NA
ATOM     54  C   UNL A   1      37.377  34.205  33.503  1.00  0.00     0.031 C 
ATOM     55  C   UNL A   1      41.826  32.230  37.137  1.00  0.00     0.029 A 
ATOM     56  C   UNL A   1      40.916  32.339  36.099  1.00  0.00     0.049 A 
ATOM     57  H   UNL A   1      40.670  31.094  34.412  1.00  0.00     0.167 HD
ATOM     58  C   UNL A   1      39.070  33.399  34.828  1.00  0.00     0.074 A 
ATOM     59  C   UNL A   1      38.055  34.413  34.625  1.00  0.00     0.031 C 
ATOM     60  C   UNL A   1      39.892  33.338  35.904  1.00  0.00     0.037 A 
BRANCH  47  61
ATOM     61  C   UNL A   1      43.798  28.541  35.830  1.00  0.00     0.058 A 
ATOM     62  C   UNL A   1      45.158  28.832  35.628  1.00  0.00     0.135 A 
ATOM     63  C   UNL A   1      43.478  27.532  36.753  1.00  0.00     0.135 A 
ATOM     64  F   UNL A   1      45.523  29.783  34.752  1.00  0.00    -0.206 F 
ATOM     65  C   UNL A   1      46.159  28.125  36.285  1.00  0.00     0.059 A 
ATOM     66  C   UNL A   1      44.463  26.828  37.441  1.00  0.00     0.059 A 
ATOM     67  F   UNL A   1      42.196  27.216  36.991  1.00  0.00    -0.206 F 
ATOM     68  C   UNL A   1      45.802  27.120  37.185  1.00  0.00     0.060 A 
BRANCH  68  69
ATOM     69  S   UNL A   1      47.117  26.191  38.004  1.00  0.00     0.124 S 
ATOM     70  O   UNL A   1      46.353  25.149  38.684  1.00  0.00    -0.237 OA
ATOM     71  O   UNL A   1      47.932  25.746  36.878  1.00  0.00    -0.237 OA
ATOM     72  O   UNL A   1      47.743  27.180  38.876  1.00  0.00    -0.744 OA
ENDBRANCH  68  69
ENDBRANCH  47  61
BRANCH  48  73
ATOM     73  C   UNL A   1      36.464  33.163  30.909  1.00  0.00     0.058 A 
ATOM     74  C   UNL A   1      35.130  33.044  31.321  1.00  0.00     0.135 A 
ATOM     75  C   UNL A   1      36.746  34.022  29.834  1.00  0.00     0.135 A 
ATOM     76  F   UNL A   1      34.813  32.229  32.339  1.00  0.00    -0.206 F 
ATOM     77  C   UNL A   1      34.112  33.765  30.706  1.00  0.00     0.059 A 
ATOM     78  C   UNL A   1      35.749  34.771  29.218  1.00  0.00     0.059 A 
ATOM     79  F   UNL A   1      38.011  34.181  29.415  1.00  0.00    -0.206 F 
ATOM     80  C   UNL A   1      34.435  34.640  29.666  1.00  0.00     0.060 A 
BRANCH  80  81
ATOM     81  S   UNL A   1      33.122  35.657  28.957  1.00  0.00     0.124 S 
ATOM     82  O   UNL A   1      32.384  34.677  28.168  1.00  0.00    -0.237 OA
ATOM     83  O   UNL A   1      32.445  36.154  30.151  1.00  0.00    -0.237 OA
ATOM     84  O   UNL A   1      33.851  36.664  28.193  1.00  0.00    -0.744 OA
ENDBRANCH  80  81
ENDBRANCH  48  73
BRANCH  60  85
ATOM     85  C   UNL A   1      39.731  34.397  36.960  1.00  0.00     0.058 A 
ATOM     86  C   UNL A   1      38.888  34.206  38.066  1.00  0.00     0.135 A 
ATOM     87  C   UNL A   1      40.471  35.588  36.898  1.00  0.00     0.135 A 
ATOM     88  F   UNL A   1      38.150  33.089  38.169  1.00  0.00    -0.206 F 
ATOM     89  C   UNL A   1      38.776  35.165  39.069  1.00  0.00     0.059 A 
ATOM     90  C   UNL A   1      40.392  36.550  37.900  1.00  0.00     0.059 A 
ATOM     91  F   UNL A   1      41.296  35.819  35.863  1.00  0.00    -0.206 F 
ATOM     92  C   UNL A   1      39.536  36.332  38.979  1.00  0.00     0.060 A 
BRANCH  92  93
ATOM     93  S   UNL A   1      39.415  37.547  40.311  1.00  0.00     0.124 S 
ATOM     94  O   UNL A   1      39.269  36.687  41.481  1.00  0.00    -0.237 OA
ATOM     95  O   UNL A   1      40.685  38.258  40.200  1.00  0.00    -0.237 OA
ATOM     96  O   UNL A   1      38.232  38.326  39.954  1.00  0.00    -0.744 OA
ENDBRANCH  92  93
ENDBRANCH  60  85
ENDBRANCH  34  35
ENDBRANCH  27  29
ENDBRANCH  26  27
ENDBRANCH  25  26
ENDBRANCH  24  25
ENDBRANCH   1  24
TORSDOF 21
ENDMDL
MODEL 2
REMARK VINA RESULT:     -10.4      6.709     12.271
REMARK SMILES CC[C@H](CNC(=O)[C@H]1CSc2ccccc21)C(=O)OCCOCCOC(=O)c1ccc(-c2c3nc(c(-c4c(F)cc(S(=O)(=O)[O-])cc4F)c4ccc([nH]4)c(-c4c(F)cc(S(=O)(=O)[O-])cc4F)c4nc(c(-c5c(F)cc(S(=O)(=O)[O-])cc5F)c5ccc2[nH]5)C=C4)C=C3)cc1
REMARK SMILES IDX 22 1 21 2 20 3 19 4 17 5 18 6 3 7 2 8 1 9 4 10 5 11 6 12
REMARK SMILES IDX 7 14 8 15 9 16 16 17 10 18 11 19 15 20 12 21 14 22 13 23
REMARK SMILES IDX 23 24 24 25 25 26 26 27 27 28 28 29 29 30 93 31 30 32 92 33
REMARK SMILES IDX 31 34 32 35 33 36 86 37 34 38 91 39 85 40 87 41 35 42 90 43
REMARK SMILES IDX 84 44 83 45 36 47 70 48 49 49 69 50 50 51 53 52 68 53 88 54
REMARK SMILES IDX 51 55 52 56 67 58 89 59 54 60 37 61 38 62 47 63 39 64 40 65
REMARK SMILES IDX 46 66 48 67 41 68 42 69 43 70 44 71 45 72 71 73 72 74 81 75
REMARK SMILES IDX 73 76 74 77 80 78 82 79 75 80 76 81 77 82 78 83 79 84 55 85
REMARK SMILES IDX 56 86 65 87 57 88 58 89 64 90 66 91 59 92 60 93 61 94 62 95
REMARK SMILES IDX 63 96
REMARK H PARENT 5 13 87 46 53 57
REMARK Flexibility Score: inf
ROOT
ATOM      1  O   UNL A   1      34.641  32.439  27.321  1.00  0.00    -0.374 OA
ENDROOT
BRANCH   1   2
ATOM      2  C   UNL A   1      34.058  31.247  27.834  1.00  0.00     0.202 C 
BRANCH   2   3
ATOM      3  C   UNL A   1      34.465  29.924  27.174  1.00  0.00     0.261 C 
BRANCH   3   4
ATOM      4  O   UNL A   1      33.628  29.487  26.086  1.00  0.00    -0.463 OA
BRANCH   4   5
ATOM      5  C   UNL A   1      33.044  28.274  26.280  1.00  0.00     0.310 C 
ATOM      6  O   UNL A   1      32.530  27.909  27.334  1.00  0.00    -0.252 OA
BRANCH   5   7
ATOM      7  C   UNL A   1      33.189  27.317  25.111  1.00  0.00     0.118 C 
BRANCH   7   8
ATOM      8  C   UNL A   1      33.690  28.099  23.878  1.00  0.00     0.014 C 
ATOM      9  C   UNL A   1      33.382  27.442  22.533  1.00  0.00     0.005 C 
ENDBRANCH   7   8
BRANCH   7  10
ATOM     10  C   UNL A   1      32.027  26.400  24.725  1.00  0.00     0.131 C 
BRANCH  10  11
ATOM     11  N   UNL A   1      31.507  25.527  25.746  1.00  0.00    -0.355 N 
ATOM     12  C   UNL A   1      32.044  24.439  26.356  1.00  0.00     0.228 C 
ATOM     13  H   UNL A   1      30.603  25.761  26.058  1.00  0.00     0.163 HD
ATOM     14  O   UNL A   1      31.462  24.093  27.397  1.00  0.00    -0.274 OA
BRANCH  12  15
ATOM     15  C   UNL A   1      33.263  23.636  25.881  1.00  0.00     0.120 C 
ATOM     16  C   UNL A   1      34.254  23.007  26.861  1.00  0.00     0.093 C 
ATOM     17  C   UNL A   1      32.906  22.555  24.886  1.00  0.00    -0.021 A 
ATOM     18  S   UNL A   1      33.869  21.218  26.940  1.00  0.00    -0.125 SA
ATOM     19  C   UNL A   1      33.108  21.254  25.347  1.00  0.00     0.011 A 
ATOM     20  C   UNL A   1      32.443  22.774  23.591  1.00  0.00     0.006 A 
ATOM     21  C   UNL A   1      32.787  20.157  24.564  1.00  0.00     0.015 A 
ATOM     22  C   UNL A   1      32.150  21.676  22.782  1.00  0.00     0.000 A 
ATOM     23  C   UNL A   1      32.303  20.373  23.272  1.00  0.00     0.001 A 
ENDBRANCH  12  15
ENDBRANCH  10  11
ENDBRANCH   7  10
ENDBRANCH   5   7
ENDBRANCH   4   5
ENDBRANCH   3   4
ENDBRANCH   2   3
ENDBRANCH   1   2
BRANCH   1  24
ATOM     24  C   UNL A   1      35.611  33.091  28.141  1.00  0.00     0.202 C 
BRANCH  24  25
ATOM     25  C   UNL A   1      35.467  32.884  29.654  1.00  0.00     0.261 C 
BRANCH  25  26
ATOM     26  O   UNL A   1      36.723  32.518  30.263  1.00  0.00    -0.460 OA
BRANCH  26  27
ATOM     27  C   UNL A   1      36.777  31.259  30.760  1.00  0.00     0.338 C 
ATOM     28  O   UNL A   1      35.908  30.670  31.392  1.00  0.00    -0.246 OA
BRANCH  27  29
ATOM     29  C   UNL A   1      38.001  30.601  30.279  1.00  0.00     0.060 A 
ATOM     30  C   UNL A   1      38.319  30.585  28.922  1.00  0.00     0.016 A 
ATOM     31  C   UNL A   1      38.884  30.053  31.215  1.00  0.00     0.016 A 
ATOM     32  C   UNL A   1      39.505  29.981  28.495  1.00  0.00     0.010 A 
ATOM     33  C   UNL A   1      40.099  29.508  30.792  1.00  0.00     0.010 A 
ATOM     34  C   UNL A   1      40.429  29.477  29.429  1.00  0.00    -0.014 A 
BRANCH  34  35
ATOM     35  C   UNL A   1      41.797  29.075  28.993  1.00  0.00     0.031 A 
ATOM     36  C   UNL A   1      42.946  30.042  28.971  1.00  0.00     0.074 A 
ATOM     37  C   UNL A   1      41.983  27.814  28.550  1.00  0.00     0.049 A 
ATOM     38  N   UNL A   1      44.183  29.841  28.590  1.00  0.00    -0.248 NA
ATOM     39  C   UNL A   1      42.672  31.415  29.417  1.00  0.00     0.031 C 
ATOM     40  C   UNL A   1      40.940  26.790  28.471  1.00  0.00     0.029 A 
ATOM     41  N   UNL A   1      43.106  27.176  28.088  1.00  0.00    -0.354 N 
ATOM     42  C   UNL A   1      44.836  31.059  28.740  1.00  0.00     0.074 A 
ATOM     43  C   UNL A   1      43.844  32.004  29.214  1.00  0.00     0.031 C 
ATOM     44  C   UNL A   1      41.479  25.643  28.036  1.00  0.00     0.029 A 
ATOM     45  C   UNL A   1      42.893  25.861  27.748  1.00  0.00     0.049 A 
ATOM     46  H   UNL A   1      43.983  27.619  28.006  1.00  0.00     0.167 HD
ATOM     47  C   UNL A   1      46.139  31.358  28.514  1.00  0.00     0.037 A 
ATOM     48  C   UNL A   1      43.730  24.929  27.253  1.00  0.00     0.037 A 
ATOM     49  C   UNL A   1      47.124  30.413  28.045  1.00  0.00     0.049 A 
ATOM     50  C   UNL A   1      45.164  25.286  26.996  1.00  0.00     0.074 A 
ATOM     51  C   UNL A   1      48.480  30.613  27.842  1.00  0.00     0.029 A 
ATOM     52  N   UNL A   1      46.862  29.097  27.692  1.00  0.00    -0.354 N 
ATOM     53  N   UNL A   1      45.774  26.429  27.196  1.00  0.00    -0.248 NA
ATOM     54  C   UNL A   1      46.021  24.231  26.440  1.00  0.00     0.031 C 
ATOM     55  C   UNL A   1      49.026  29.436  27.322  1.00  0.00     0.029 A 
ATOM     56  C   UNL A   1      48.023  28.483  27.246  1.00  0.00     0.049 A 
ATOM     57  H   UNL A   1      45.982  28.661  27.751  1.00  0.00     0.167 HD
ATOM     58  C   UNL A   1      47.090  26.231  26.797  1.00  0.00     0.074 A 
ATOM     59  C   UNL A   1      47.191  24.852  26.361  1.00  0.00     0.031 C 
ATOM     60  C   UNL A   1      48.117  27.115  26.794  1.00  0.00     0.037 A 
BRANCH  47  61
ATOM     61  C   UNL A   1      46.582  32.775  28.765  1.00  0.00     0.058 A 
ATOM     62  C   UNL A   1      47.060  33.187  30.020  1.00  0.00     0.135 A 
ATOM     63  C   UNL A   1      46.563  33.726  27.731  1.00  0.00     0.135 A 
ATOM     64  F   UNL A   1      47.095  32.322  31.047  1.00  0.00    -0.206 F 
ATOM     65  C   UNL A   1      47.463  34.497  30.252  1.00  0.00     0.059 A 
ATOM     66  C   UNL A   1      46.985  35.037  27.934  1.00  0.00     0.059 A 
ATOM     67  F   UNL A   1      46.123  33.387  26.509  1.00  0.00    -0.206 F 
ATOM     68  C   UNL A   1      47.416  35.417  29.203  1.00  0.00     0.060 A 
BRANCH  68  69
ATOM     69  S   UNL A   1      47.914  37.122  29.531  1.00  0.00     0.124 S 
ATOM     70  O   UNL A   1      46.690  37.848  29.206  1.00  0.00    -0.237 OA
ATOM     71  O   UNL A   1      48.265  37.077  30.947  1.00  0.00    -0.237 OA
ATOM     72  O   UNL A   1      49.031  37.334  28.617  1.00  0.00    -0.744 OA
ENDBRANCH  68  69
ENDBRANCH  47  61
BRANCH  48  73
ATOM     73  C   UNL A   1      43.213  23.559  27.003  1.00  0.00     0.058 A 
ATOM     74  C   UNL A   1      42.983  23.111  25.695  1.00  0.00     0.135 A 
ATOM     75  C   UNL A   1      43.037  22.643  28.053  1.00  0.00     0.135 A 
ATOM     76  F   UNL A   1      43.132  23.954  24.662  1.00  0.00    -0.206 F 
ATOM     77  C   UNL A   1      42.613  21.797  25.432  1.00  0.00     0.059 A 
ATOM     78  C   UNL A   1      42.689  21.318  27.813  1.00  0.00     0.059 A 
ATOM     79  F   UNL A   1      43.262  23.023  29.320  1.00  0.00    -0.206 F 
ATOM     80  C   UNL A   1      42.486  20.904  26.497  1.00  0.00     0.060 A 
BRANCH  80  81
ATOM     81  S   UNL A   1      42.120  19.173  26.131  1.00  0.00     0.124 S 
ATOM     82  O   UNL A   1      42.522  18.518  27.370  1.00  0.00    -0.237 OA
ATOM     83  O   UNL A   1      40.685  19.215  25.869  1.00  0.00    -0.237 OA
ATOM     84  O   UNL A   1      42.955  18.891  24.968  1.00  0.00    -0.744 OA
ENDBRANCH  80  81
ENDBRANCH  48  73
BRANCH  60  85
ATOM     85  C   UNL A   1      49.451  26.627  26.297  1.00  0.00     0.058 A 
ATOM     86  C   UNL A   1      49.821  26.750  24.949  1.00  0.00     0.135 A 
ATOM     87  C   UNL A   1      50.392  26.086  27.188  1.00  0.00     0.135 A 
ATOM     88  F   UNL A   1      48.954  27.252  24.054  1.00  0.00    -0.206 F 
ATOM     89  C   UNL A   1      51.073  26.344  24.498  1.00  0.00     0.059 A 
ATOM     90  C   UNL A   1      51.658  25.695  26.763  1.00  0.00     0.059 A 
ATOM     91  F   UNL A   1      50.091  25.951  28.490  1.00  0.00    -0.206 F 
ATOM     92  C   UNL A   1      51.987  25.821  25.415  1.00  0.00     0.060 A 
BRANCH  92  93
ATOM     93  S   UNL A   1      53.624  25.341  24.822  1.00  0.00     0.124 S 
ATOM     94  O   UNL A   1      53.517  23.885  24.810  1.00  0.00    -0.237 OA
ATOM     95  O   UNL A   1      53.683  25.984  23.514  1.00  0.00    -0.237 OA
ATOM     96  O   UNL A   1      54.526  25.895  25.829  1.00  0.00    -0.744 OA
ENDBRANCH  92  93
ENDBRANCH  60  85
ENDBRANCH  34  35
ENDBRANCH  27  29
ENDBRANCH  26  27
ENDBRANCH  25  26
ENDBRANCH  24  25
ENDBRANCH   1  24
TORSDOF 21
ENDMDL
MODEL 3
REMARK VINA RESULT:     -10.2      1.668      2.657
REMARK SMILES CC[C@H](CNC(=O)[C@H]1CSc2ccccc21)C(=O)OCCOCCOC(=O)c1ccc(-c2c3nc(c(-c4c(F)cc(S(=O)(=O)[O-])cc4F)c4ccc([nH]4)c(-c4c(F)cc(S(=O)(=O)[O-])cc4F)c4nc(c(-c5c(F)cc(S(=O)(=O)[O-])cc5F)c5ccc2[nH]5)C=C4)C=C3)cc1
REMARK SMILES IDX 22 1 21 2 20 3 19 4 17 5 18 6 3 7 2 8 1 9 4 10 5 11 6 12
REMARK SMILES IDX 7 14 8 15 9 16 16 17 10 18 11 19 15 20 12 21 14 22 13 23
REMARK SMILES IDX 23 24 24 25 25 26 26 27 27 28 28 29 29 30 93 31 30 32 92 33
REMARK SMILES IDX 31 34 32 35 33 36 86 37 34 38 91 39 85 40 87 41 35 42 90 43
REMARK SMILES IDX 84 44 83 45 36 47 70 48 49 49 69 50 50 51 53 52 68 53 88 54
REMARK SMILES IDX 51 55 52 56 67 58 89 59 54 60 37 61 38 62 47 63 39 64 40 65
REMARK SMILES IDX 46 66 48 67 41 68 42 69 43 70 44 71 45 72 71 73 72 74 81 75
REMARK SMILES IDX 73 76 74 77 80 78 82 79 75 80 76 81 77 82 78 83 79 84 55 85
REMARK SMILES IDX 56 86 65 87 57 88 58 89 64 90 66 91 59 92 60 93 61 94 62 95
REMARK SMILES IDX 63 96
REMARK H PARENT 5 13 87 46 53 57
REMARK Flexibility Score: inf
ROOT
ATOM      1  O   UNL A   1      40.038  21.704  27.306  1.00  0.00    -0.374 OA
ENDROOT
BRANCH   1   2
ATOM      2  C   UNL A   1      39.594  22.020  25.992  1.00  0.00     0.202 C 
BRANCH   2   3
ATOM      3  C   UNL A   1      38.102  21.834  25.690  1.00  0.00     0.261 C 
BRANCH   3   4
ATOM      4  O   UNL A   1      37.350  23.047  25.498  1.00  0.00    -0.463 OA
BRANCH   4   5
ATOM      5  C   UNL A   1      36.484  23.010  24.449  1.00  0.00     0.310 C 
ATOM      6  O   UNL A   1      36.817  22.862  23.277  1.00  0.00    -0.252 OA
BRANCH   5   7
ATOM      7  C   UNL A   1      35.043  23.307  24.819  1.00  0.00     0.118 C 
BRANCH   7   8
ATOM      8  C   UNL A   1      34.858  23.101  26.338  1.00  0.00     0.014 C 
ATOM      9  C   UNL A   1      33.879  21.993  26.722  1.00  0.00     0.005 C 
ENDBRANCH   7   8
BRANCH   7  10
ATOM     10  C   UNL A   1      33.902  22.638  24.048  1.00  0.00     0.131 C 
BRANCH  10  11
ATOM     11  N   UNL A   1      33.719  23.025  22.673  1.00  0.00    -0.355 N 
ATOM     12  C   UNL A   1      33.017  24.044  22.113  1.00  0.00     0.228 C 
ATOM     13  H   UNL A   1      34.185  22.450  22.024  1.00  0.00     0.163 HD
ATOM     14  O   UNL A   1      33.305  24.275  20.927  1.00  0.00    -0.274 OA
BRANCH  12  15
ATOM     15  C   UNL A   1      31.941  24.896  22.799  1.00  0.00     0.120 C 
ATOM     16  C   UNL A   1      30.696  24.277  23.434  1.00  0.00     0.093 C 
ATOM     17  C   UNL A   1      32.510  25.851  23.825  1.00  0.00    -0.021 A 
ATOM     18  S   UNL A   1      30.969  24.255  25.245  1.00  0.00    -0.125 SA
ATOM     19  C   UNL A   1      32.136  25.576  25.141  1.00  0.00     0.011 A 
ATOM     20  C   UNL A   1      33.317  26.950  23.542  1.00  0.00     0.006 A 
ATOM     21  C   UNL A   1      32.612  26.338  26.196  1.00  0.00     0.015 A 
ATOM     22  C   UNL A   1      33.773  27.744  24.595  1.00  0.00     0.000 A 
ATOM     23  C   UNL A   1      33.438  27.429  25.918  1.00  0.00     0.001 A 
ENDBRANCH  12  15
ENDBRANCH  10  11
ENDBRANCH   7  10
ENDBRANCH   5   7
ENDBRANCH   4   5
ENDBRANCH   3   4
ENDBRANCH   2   3
ENDBRANCH   1   2
BRANCH   1  24
ATOM     24  C   UNL A   1      41.445  21.554  27.498  1.00  0.00     0.202 C 
BRANCH  24  25
ATOM     25  C   UNL A   1      42.128  22.626  28.356  1.00  0.00     0.261 C 
BRANCH  25  26
ATOM     26  O   UNL A   1      43.014  23.451  27.571  1.00  0.00    -0.460 OA
BRANCH  26  27
ATOM     27  C   UNL A   1      42.409  24.437  26.866  1.00  0.00     0.338 C 
ATOM     28  O   UNL A   1      42.066  24.409  25.690  1.00  0.00    -0.246 OA
BRANCH  27  29
ATOM     29  C   UNL A   1      42.047  25.533  27.778  1.00  0.00     0.060 A 
ATOM     30  C   UNL A   1      40.835  25.520  28.467  1.00  0.00     0.016 A 
ATOM     31  C   UNL A   1      42.974  26.556  28.003  1.00  0.00     0.016 A 
ATOM     32  C   UNL A   1      40.531  26.558  29.353  1.00  0.00     0.010 A 
ATOM     33  C   UNL A   1      42.695  27.556  28.937  1.00  0.00     0.010 A 
ATOM     34  C   UNL A   1      41.476  27.562  29.632  1.00  0.00    -0.014 A 
BRANCH  34  35
ATOM     35  C   UNL A   1      41.256  28.511  30.760  1.00  0.00     0.031 A 
ATOM     36  C   UNL A   1      42.089  28.474  32.011  1.00  0.00     0.074 A 
ATOM     37  C   UNL A   1      40.235  29.388  30.670  1.00  0.00     0.049 A 
ATOM     38  N   UNL A   1      41.993  29.217  33.085  1.00  0.00    -0.248 NA
ATOM     39  C   UNL A   1      43.154  27.463  32.074  1.00  0.00     0.031 C 
ATOM     40  C   UNL A   1      39.318  29.494  29.533  1.00  0.00     0.029 A 
ATOM     41  N   UNL A   1      39.797  30.356  31.538  1.00  0.00    -0.354 N 
ATOM     42  C   UNL A   1      42.976  28.764  33.957  1.00  0.00     0.074 A 
ATOM     43  C   UNL A   1      43.635  27.654  33.297  1.00  0.00     0.031 C 
ATOM     44  C   UNL A   1      38.459  30.499  29.751  1.00  0.00     0.029 A 
ATOM     45  C   UNL A   1      38.722  31.074  31.066  1.00  0.00     0.049 A 
ATOM     46  H   UNL A   1      40.212  30.521  32.416  1.00  0.00     0.167 HD
ATOM     47  C   UNL A   1      43.306  29.236  35.185  1.00  0.00     0.037 A 
ATOM     48  C   UNL A   1      38.016  32.076  31.624  1.00  0.00     0.037 A 
ATOM     49  C   UNL A   1      42.650  30.344  35.836  1.00  0.00     0.049 A 
ATOM     50  C   UNL A   1      38.388  32.571  32.990  1.00  0.00     0.074 A 
ATOM     51  C   UNL A   1      42.954  30.926  37.056  1.00  0.00     0.029 A 
ATOM     52  N   UNL A   1      41.553  31.029  35.334  1.00  0.00    -0.354 N 
ATOM     53  N   UNL A   1      39.356  32.164  33.774  1.00  0.00    -0.248 NA
ATOM     54  C   UNL A   1      37.569  33.655  33.549  1.00  0.00     0.031 C 
ATOM     55  C   UNL A   1      42.013  31.929  37.313  1.00  0.00     0.029 A 
ATOM     56  C   UNL A   1      41.150  32.007  36.232  1.00  0.00     0.049 A 
ATOM     57  H   UNL A   1      41.123  30.849  34.468  1.00  0.00     0.167 HD
ATOM     58  C   UNL A   1      39.269  32.947  34.920  1.00  0.00     0.074 A 
ATOM     59  C   UNL A   1      38.163  33.862  34.717  1.00  0.00     0.031 C 
ATOM     60  C   UNL A   1      40.037  32.905  36.036  1.00  0.00     0.037 A 
BRANCH  47  61
ATOM     61  C   UNL A   1      44.428  28.548  35.916  1.00  0.00     0.058 A 
ATOM     62  C   UNL A   1      45.767  28.938  35.745  1.00  0.00     0.135 A 
ATOM     63  C   UNL A   1      44.162  27.512  36.826  1.00  0.00     0.135 A 
ATOM     64  F   UNL A   1      46.080  29.919  34.883  1.00  0.00    -0.206 F 
ATOM     65  C   UNL A   1      46.803  28.299  36.417  1.00  0.00     0.059 A 
ATOM     66  C   UNL A   1      45.181  26.874  37.529  1.00  0.00     0.059 A 
ATOM     67  F   UNL A   1      42.901  27.104  37.035  1.00  0.00    -0.206 F 
ATOM     68  C   UNL A   1      46.500  27.263  37.302  1.00  0.00     0.060 A 
BRANCH  68  69
ATOM     69  S   UNL A   1      47.861  26.423  38.142  1.00  0.00     0.124 S 
ATOM     70  O   UNL A   1      47.998  25.216  37.333  1.00  0.00    -0.237 OA
ATOM     71  O   UNL A   1      48.947  27.391  38.022  1.00  0.00    -0.237 OA
ATOM     72  O   UNL A   1      47.354  26.218  39.495  1.00  0.00    -0.744 OA
ENDBRANCH  68  69
ENDBRANCH  47  61
BRANCH  48  73
ATOM     73  C   UNL A   1      36.902  32.685  30.853  1.00  0.00     0.058 A 
ATOM     74  C   UNL A   1      35.576  32.305  31.094  1.00  0.00     0.135 A 
ATOM     75  C   UNL A   1      37.133  33.725  29.937  1.00  0.00     0.135 A 
ATOM     76  F   UNL A   1      35.309  31.310  31.955  1.00  0.00    -0.206 F 
ATOM     77  C   UNL A   1      34.511  32.945  30.469  1.00  0.00     0.059 A 
ATOM     78  C   UNL A   1      36.084  34.396  29.317  1.00  0.00     0.059 A 
ATOM     79  F   UNL A   1      38.386  34.134  29.687  1.00  0.00    -0.206 F 
ATOM     80  C   UNL A   1      34.775  34.002  29.595  1.00  0.00     0.060 A 
BRANCH  80  81
ATOM     81  S   UNL A   1      33.380  34.900  28.883  1.00  0.00     0.124 S 
ATOM     82  O   UNL A   1      32.551  35.137  30.058  1.00  0.00    -0.237 OA
ATOM     83  O   UNL A   1      34.034  36.075  28.316  1.00  0.00    -0.237 OA
ATOM     84  O   UNL A   1      32.838  33.961  27.906  1.00  0.00    -0.744 OA
ENDBRANCH  80  81
ENDBRANCH  48  73
BRANCH  60  85
ATOM     85  C   UNL A   1      39.711  33.875  37.139  1.00  0.00     0.058 A 
ATOM     86  C   UNL A   1      38.904  33.506  38.225  1.00  0.00     0.135 A 
ATOM     87  C   UNL A   1      40.260  35.168  37.140  1.00  0.00     0.135 A 
ATOM     88  F   UNL A   1      38.345  32.285  38.268  1.00  0.00    -0.206 F 
ATOM     89  C   UNL A   1      38.642  34.387  39.270  1.00  0.00     0.059 A 
ATOM     90  C   UNL A   1      40.031  36.057  38.185  1.00  0.00     0.059 A 
ATOM     91  F   UNL A   1      41.044  35.571  36.126  1.00  0.00    -0.206 F 
ATOM     92  C   UNL A   1      39.215  35.660  39.243  1.00  0.00     0.060 A 
BRANCH  92  93
ATOM     93  S   UNL A   1      38.903  36.776  40.628  1.00  0.00     0.124 S 
ATOM     94  O   UNL A   1      38.274  37.910  39.957  1.00  0.00    -0.237 OA
ATOM     95  O   UNL A   1      38.028  35.977  41.480  1.00  0.00    -0.237 OA
ATOM     96  O   UNL A   1      40.236  37.028  41.169  1.00  0.00    -0.744 OA
ENDBRANCH  92  93
ENDBRANCH  60  85
ENDBRANCH  34  35
ENDBRANCH  27  29
ENDBRANCH  26  27
ENDBRANCH  25  26
ENDBRANCH  24  25
ENDBRANCH   1  24
TORSDOF 21
ENDMDL
