MODEL 1
REMARK VINA RESULT:     -10.9      0.000      0.000
REMARK SMILES C[C@H](c1ccncc1)N1C[C@H](C(=O)OCCOCCOC(=O)c2ccc(-c3c4nc(c(-c5c(F)cc(S(=O)(=O)[O-])cc5F)c5ccc([nH]5)c(-c5c(F)cc(S(=O)(=O)[O-])cc5F)c5nc(c(-c6c(F)cc(S(=O)(=O)[O-])cc6F)c6ccc3[nH]6)C=C5)C=C4)cc2)CC1=O
REMARK SMILES IDX 18 1 17 2 16 3 15 4 14 5 12 6 13 7 11 8 9 9 10 10 90 11
REMARK SMILES IDX 89 12 91 13 2 14 1 15 3 16 4 17 8 18 5 19 7 20 6 21 19 22
REMARK SMILES IDX 20 23 21 24 22 25 23 26 24 27 88 28 25 29 87 30 26 31 27 32
REMARK SMILES IDX 28 33 81 34 29 35 86 36 80 37 82 38 30 39 85 40 79 41 78 42
REMARK SMILES IDX 31 44 65 45 44 46 64 47 45 48 48 49 63 50 83 51 46 52 47 53
REMARK SMILES IDX 62 55 84 56 49 57 32 58 33 59 42 60 34 61 35 62 41 63 43 64
REMARK SMILES IDX 36 65 37 66 38 67 39 68 40 69 66 70 67 71 76 72 68 73 69 74
REMARK SMILES IDX 75 75 77 76 70 77 71 78 72 79 73 80 74 81 50 82 51 83 60 84
REMARK SMILES IDX 52 85 53 86 59 87 61 88 54 89 55 90 56 91 57 92 58 93
REMARK H PARENT 82 43 48 54
REMARK Flexibility Score: inf
ROOT
ATOM      1  C   UNL A   1      39.846  21.495  26.121  1.00  0.00     0.202 C 
ENDROOT
BRANCH   1   2
ATOM      2  O   UNL A   1      38.640  22.179  26.463  1.00  0.00    -0.374 OA
BRANCH   2   3
ATOM      3  C   UNL A   1      37.691  22.365  25.412  1.00  0.00     0.202 C 
BRANCH   3   4
ATOM      4  C   UNL A   1      37.011  23.737  25.343  1.00  0.00     0.261 C 
BRANCH   4   5
ATOM      5  O   UNL A   1      35.592  23.659  25.591  1.00  0.00    -0.463 OA
BRANCH   5   6
ATOM      6  C   UNL A   1      34.816  24.531  24.895  1.00  0.00     0.311 C 
ATOM      7  O   UNL A   1      34.479  25.636  25.302  1.00  0.00    -0.252 OA
BRANCH   6   8
ATOM      8  C   UNL A   1      34.334  23.955  23.569  1.00  0.00     0.128 C 
ATOM      9  N   UNL A   1      32.959  22.093  24.030  1.00  0.00    -0.335 N 
ATOM     10  C   UNL A   1      34.316  22.433  23.645  1.00  0.00     0.136 C 
ATOM     11  C   UNL A   1      32.115  23.187  23.869  1.00  0.00     0.224 C 
ATOM     12  C   UNL A   1      32.896  24.289  23.196  1.00  0.00     0.117 C 
ATOM     13  O   UNL A   1      30.947  23.284  24.207  1.00  0.00    -0.275 OA
BRANCH   9  14
ATOM     14  C   UNL A   1      32.626  20.904  24.834  1.00  0.00     0.112 C 
ATOM     15  C   UNL A   1      33.334  20.866  26.197  1.00  0.00     0.036 C 
BRANCH  14  16
ATOM     16  C   UNL A   1      32.904  19.589  24.121  1.00  0.00    -0.023 A 
ATOM     17  C   UNL A   1      32.175  19.190  22.996  1.00  0.00     0.026 A 
ATOM     18  C   UNL A   1      33.923  18.745  24.578  1.00  0.00     0.026 A 
ATOM     19  C   UNL A   1      32.494  17.985  22.388  1.00  0.00     0.111 A 
ATOM     20  C   UNL A   1      34.167  17.560  23.900  1.00  0.00     0.111 A 
ATOM     21  N   UNL A   1      33.486  17.167  22.804  1.00  0.00    -0.265 NA
ENDBRANCH  14  16
ENDBRANCH   9  14
ENDBRANCH   6   8
ENDBRANCH   5   6
ENDBRANCH   4   5
ENDBRANCH   3   4
ENDBRANCH   2   3
ENDBRANCH   1   2
BRANCH   1  22
ATOM     22  C   UNL A   1      41.165  22.238  26.369  1.00  0.00     0.261 C 
BRANCH  22  23
ATOM     23  O   UNL A   1      40.966  23.659  26.503  1.00  0.00    -0.460 OA
BRANCH  23  24
ATOM     24  C   UNL A   1      42.033  24.333  26.993  1.00  0.00     0.338 C 
ATOM     25  O   UNL A   1      43.212  24.152  26.713  1.00  0.00    -0.246 OA
BRANCH  24  26
ATOM     26  C   UNL A   1      41.587  25.487  27.796  1.00  0.00     0.060 A 
ATOM     27  C   UNL A   1      42.509  26.522  27.991  1.00  0.00     0.016 A 
ATOM     28  C   UNL A   1      40.333  25.528  28.411  1.00  0.00     0.016 A 
ATOM     29  C   UNL A   1      42.207  27.574  28.852  1.00  0.00     0.010 A 
ATOM     30  C   UNL A   1      40.034  26.584  29.283  1.00  0.00     0.010 A 
ATOM     31  C   UNL A   1      40.986  27.588  29.538  1.00  0.00    -0.014 A 
BRANCH  31  32
ATOM     32  C   UNL A   1      40.787  28.567  30.636  1.00  0.00     0.031 A 
ATOM     33  C   UNL A   1      41.672  28.484  31.852  1.00  0.00     0.074 A 
ATOM     34  C   UNL A   1      39.872  29.546  30.528  1.00  0.00     0.049 A 
ATOM     35  N   UNL A   1      41.680  29.234  32.922  1.00  0.00    -0.248 NA
ATOM     36  C   UNL A   1      42.684  27.415  31.858  1.00  0.00     0.031 C 
ATOM     37  C   UNL A   1      38.985  29.751  29.384  1.00  0.00     0.029 A 
ATOM     38  N   UNL A   1      39.539  30.554  31.397  1.00  0.00    -0.354 N 
ATOM     39  C   UNL A   1      42.691  28.728  33.732  1.00  0.00     0.074 A 
ATOM     40  C   UNL A   1      43.254  27.589  33.041  1.00  0.00     0.031 C 
ATOM     41  C   UNL A   1      38.201  30.816  29.625  1.00  0.00     0.029 A 
ATOM     42  C   UNL A   1      38.512  31.351  30.950  1.00  0.00     0.049 A 
ATOM     43  H   UNL A   1      39.991  30.693  32.260  1.00  0.00     0.167 HD
ATOM     44  C   UNL A   1      43.118  29.179  34.935  1.00  0.00     0.037 A 
ATOM     45  C   UNL A   1      37.886  32.384  31.548  1.00  0.00     0.037 A 
ATOM     46  C   UNL A   1      42.558  30.316  35.616  1.00  0.00     0.049 A 
ATOM     47  C   UNL A   1      38.340  32.832  32.913  1.00  0.00     0.074 A 
ATOM     48  C   UNL A   1      42.931  30.862  36.832  1.00  0.00     0.029 A 
ATOM     49  N   UNL A   1      41.500  31.079  35.144  1.00  0.00    -0.354 N 
ATOM     50  N   UNL A   1      39.311  32.357  33.656  1.00  0.00    -0.248 NA
ATOM     51  C   UNL A   1      37.617  33.960  33.518  1.00  0.00     0.031 C 
ATOM     52  C   UNL A   1      42.070  31.928  37.115  1.00  0.00     0.029 A 
ATOM     53  C   UNL A   1      41.191  32.077  36.054  1.00  0.00     0.049 A 
ATOM     54  H   UNL A   1      41.036  30.933  34.288  1.00  0.00     0.167 HD
ATOM     55  C   UNL A   1      39.331  33.142  34.804  1.00  0.00     0.074 A 
ATOM     56  C   UNL A   1      38.282  34.130  34.653  1.00  0.00     0.031 C 
ATOM     57  C   UNL A   1      40.145  33.056  35.886  1.00  0.00     0.037 A 
BRANCH  44  58
ATOM     58  C   UNL A   1      44.233  28.424  35.604  1.00  0.00     0.058 A 
ATOM     59  C   UNL A   1      45.581  28.752  35.390  1.00  0.00     0.135 A 
ATOM     60  C   UNL A   1      43.948  27.375  36.494  1.00  0.00     0.135 A 
ATOM     61  F   UNL A   1      45.910  29.734  34.536  1.00  0.00    -0.206 F 
ATOM     62  C   UNL A   1      46.608  28.051  36.015  1.00  0.00     0.059 A 
ATOM     63  C   UNL A   1      44.957  26.677  37.149  1.00  0.00     0.059 A 
ATOM     64  F   UNL A   1      42.676  27.018  36.732  1.00  0.00    -0.206 F 
ATOM     65  C   UNL A   1      46.286  27.013  36.892  1.00  0.00     0.060 A 
BRANCH  65  66
ATOM     66  S   UNL A   1      47.628  26.115  37.699  1.00  0.00     0.124 S 
ATOM     67  O   UNL A   1      47.698  26.796  38.988  1.00  0.00    -0.237 OA
ATOM     68  O   UNL A   1      47.115  24.749  37.732  1.00  0.00    -0.237 OA
ATOM     69  O   UNL A   1      48.765  26.333  36.812  1.00  0.00    -0.744 OA
ENDBRANCH  65  66
ENDBRANCH  44  58
BRANCH  45  70
ATOM     70  C   UNL A   1      36.752  33.059  30.863  1.00  0.00     0.058 A 
ATOM     71  C   UNL A   1      35.426  32.849  31.271  1.00  0.00     0.135 A 
ATOM     72  C   UNL A   1      36.975  33.933  29.787  1.00  0.00     0.135 A 
ATOM     73  F   UNL A   1      35.160  32.014  32.286  1.00  0.00    -0.206 F 
ATOM     74  C   UNL A   1      34.360  33.477  30.631  1.00  0.00     0.059 A 
ATOM     75  C   UNL A   1      35.927  34.589  29.148  1.00  0.00     0.059 A 
ATOM     76  F   UNL A   1      38.225  34.174  29.366  1.00  0.00    -0.206 F 
ATOM     77  C   UNL A   1      34.622  34.347  29.572  1.00  0.00     0.060 A 
BRANCH  77  78
ATOM     78  S   UNL A   1      33.238  35.202  28.786  1.00  0.00     0.124 S 
ATOM     79  O   UNL A   1      32.459  35.626  29.944  1.00  0.00    -0.237 OA
ATOM     80  O   UNL A   1      33.915  36.263  28.047  1.00  0.00    -0.237 OA
ATOM     81  O   UNL A   1      32.630  34.164  27.960  1.00  0.00    -0.744 OA
ENDBRANCH  77  78
ENDBRANCH  45  70
BRANCH  57  82
ATOM     82  C   UNL A   1      39.959  34.071  36.979  1.00  0.00     0.058 A 
ATOM     83  C   UNL A   1      40.545  35.344  36.910  1.00  0.00     0.135 A 
ATOM     84  C   UNL A   1      39.139  33.784  38.083  1.00  0.00     0.135 A 
ATOM     85  F   UNL A   1      41.341  35.666  35.879  1.00  0.00    -0.206 F 
ATOM     86  C   UNL A   1      40.343  36.291  37.910  1.00  0.00     0.059 A 
ATOM     87  C   UNL A   1      38.902  34.725  39.080  1.00  0.00     0.059 A 
ATOM     88  F   UNL A   1      38.545  32.585  38.190  1.00  0.00    -0.206 F 
ATOM     89  C   UNL A   1      39.519  35.972  38.990  1.00  0.00     0.060 A 
BRANCH  89  90
ATOM     90  S   UNL A   1      39.239  37.219  40.265  1.00  0.00     0.124 S 
ATOM     91  O   UNL A   1      38.505  36.456  41.269  1.00  0.00    -0.237 OA
ATOM     92  O   UNL A   1      40.598  37.606  40.631  1.00  0.00    -0.237 OA
ATOM     93  O   UNL A   1      38.468  38.247  39.571  1.00  0.00    -0.744 OA
ENDBRANCH  89  90
ENDBRANCH  57  82
ENDBRANCH  31  32
ENDBRANCH  24  26
ENDBRANCH  23  24
ENDBRANCH  22  23
ENDBRANCH   1  22
TORSDOF 19
ENDMDL
MODEL 2
REMARK VINA RESULT:     -10.7      6.699     11.998
REMARK SMILES C[C@H](c1ccncc1)N1C[C@H](C(=O)OCCOCCOC(=O)c2ccc(-c3c4nc(c(-c5c(F)cc(S(=O)(=O)[O-])cc5F)c5ccc([nH]5)c(-c5c(F)cc(S(=O)(=O)[O-])cc5F)c5nc(c(-c6c(F)cc(S(=O)(=O)[O-])cc6F)c6ccc3[nH]6)C=C5)C=C4)cc2)CC1=O
REMARK SMILES IDX 18 1 17 2 16 3 15 4 14 5 12 6 13 7 11 8 9 9 10 10 90 11
REMARK SMILES IDX 89 12 91 13 2 14 1 15 3 16 4 17 8 18 5 19 7 20 6 21 19 22
REMARK SMILES IDX 20 23 21 24 22 25 23 26 24 27 88 28 25 29 87 30 26 31 27 32
REMARK SMILES IDX 28 33 81 34 29 35 86 36 80 37 82 38 30 39 85 40 79 41 78 42
REMARK SMILES IDX 31 44 65 45 44 46 64 47 45 48 48 49 63 50 83 51 46 52 47 53
REMARK SMILES IDX 62 55 84 56 49 57 32 58 33 59 42 60 34 61 35 62 41 63 43 64
REMARK SMILES IDX 36 65 37 66 38 67 39 68 40 69 66 70 67 71 76 72 68 73 69 74
REMARK SMILES IDX 75 75 77 76 70 77 71 78 72 79 73 80 74 81 50 82 51 83 60 84
REMARK SMILES IDX 52 85 53 86 59 87 61 88 54 89 55 90 56 91 57 92 58 93
REMARK H PARENT 82 43 48 54
REMARK Flexibility Score: inf
ROOT
ATOM      1  C   UNL A   1      33.749  30.818  27.495  1.00  0.00     0.202 C 
ENDROOT
BRANCH   1   2
ATOM      2  O   UNL A   1      33.130  30.328  26.304  1.00  0.00    -0.374 OA
BRANCH   2   3
ATOM      3  C   UNL A   1      31.841  29.733  26.454  1.00  0.00     0.202 C 
BRANCH   3   4
ATOM      4  C   UNL A   1      31.808  28.209  26.620  1.00  0.00     0.261 C 
BRANCH   4   5
ATOM      5  O   UNL A   1      31.174  27.549  25.504  1.00  0.00    -0.463 OA
BRANCH   5   6
ATOM      6  C   UNL A   1      31.821  26.460  25.010  1.00  0.00     0.311 C 
ATOM      7  O   UNL A   1      31.327  25.343  24.920  1.00  0.00    -0.252 OA
BRANCH   6   8
ATOM      8  C   UNL A   1      33.270  26.757  24.646  1.00  0.00     0.128 C 
ATOM      9  N   UNL A   1      34.053  25.012  23.263  1.00  0.00    -0.335 N 
ATOM     10  C   UNL A   1      34.075  25.462  24.642  1.00  0.00     0.136 C 
ATOM     11  C   UNL A   1      33.626  26.033  22.420  1.00  0.00     0.224 C 
ATOM     12  C   UNL A   1      33.493  27.294  23.238  1.00  0.00     0.117 C 
ATOM     13  O   UNL A   1      33.381  25.962  21.228  1.00  0.00    -0.275 OA
BRANCH   9  14
ATOM     14  C   UNL A   1      34.096  23.589  22.881  1.00  0.00     0.112 C 
ATOM     15  C   UNL A   1      32.719  22.909  22.889  1.00  0.00     0.036 C 
BRANCH  14  16
ATOM     16  C   UNL A   1      35.038  22.757  23.738  1.00  0.00    -0.023 A 
ATOM     17  C   UNL A   1      36.414  22.712  23.493  1.00  0.00     0.026 A 
ATOM     18  C   UNL A   1      34.537  22.017  24.817  1.00  0.00     0.026 A 
ATOM     19  C   UNL A   1      37.215  21.942  24.326  1.00  0.00     0.111 A 
ATOM     20  C   UNL A   1      35.419  21.280  25.592  1.00  0.00     0.111 A 
ATOM     21  N   UNL A   1      36.751  21.238  25.381  1.00  0.00    -0.265 NA
ENDBRANCH  14  16
ENDBRANCH   9  14
ENDBRANCH   6   8
ENDBRANCH   5   6
ENDBRANCH   4   5
ENDBRANCH   3   4
ENDBRANCH   2   3
ENDBRANCH   1   2
BRANCH   1  22
ATOM     22  C   UNL A   1      34.925  30.007  28.054  1.00  0.00     0.261 C 
BRANCH  22  23
ATOM     23  O   UNL A   1      35.792  30.811  28.877  1.00  0.00    -0.460 OA
BRANCH  23  24
ATOM     24  C   UNL A   1      36.455  30.123  29.836  1.00  0.00     0.338 C 
ATOM     25  O   UNL A   1      35.964  29.497  30.767  1.00  0.00    -0.246 OA
BRANCH  24  26
ATOM     26  C   UNL A   1      37.893  30.052  29.515  1.00  0.00     0.060 A 
ATOM     27  C   UNL A   1      38.236  29.878  28.168  1.00  0.00     0.016 A 
ATOM     28  C   UNL A   1      38.881  30.074  30.502  1.00  0.00     0.016 A 
ATOM     29  C   UNL A   1      39.564  29.661  27.808  1.00  0.00     0.010 A 
ATOM     30  C   UNL A   1      40.215  29.849  30.138  1.00  0.00     0.010 A 
ATOM     31  C   UNL A   1      40.555  29.601  28.795  1.00  0.00    -0.014 A 
BRANCH  31  32
ATOM     32  C   UNL A   1      41.909  29.118  28.428  1.00  0.00     0.031 A 
ATOM     33  C   UNL A   1      43.055  30.095  28.429  1.00  0.00     0.074 A 
ATOM     34  C   UNL A   1      42.126  27.819  28.152  1.00  0.00     0.049 A 
ATOM     35  N   UNL A   1      44.316  29.894  28.149  1.00  0.00    -0.248 NA
ATOM     36  C   UNL A   1      42.734  31.483  28.800  1.00  0.00     0.031 C 
ATOM     37  C   UNL A   1      41.105  26.773  28.156  1.00  0.00     0.029 A 
ATOM     38  N   UNL A   1      43.281  27.161  27.813  1.00  0.00    -0.354 N 
ATOM     39  C   UNL A   1      44.940  31.127  28.304  1.00  0.00     0.074 A 
ATOM     40  C   UNL A   1      43.913  32.076  28.674  1.00  0.00     0.031 C 
ATOM     41  C   UNL A   1      41.678  25.602  27.827  1.00  0.00     0.029 A 
ATOM     42  C   UNL A   1      43.100  25.822  27.563  1.00  0.00     0.049 A 
ATOM     43  H   UNL A   1      44.158  27.605  27.754  1.00  0.00     0.167 HD
ATOM     44  C   UNL A   1      46.250  31.437  28.162  1.00  0.00     0.037 A 
ATOM     45  C   UNL A   1      43.977  24.884  27.154  1.00  0.00     0.037 A 
ATOM     46  C   UNL A   1      47.269  30.488  27.798  1.00  0.00     0.049 A 
ATOM     47  C   UNL A   1      45.420  25.264  26.946  1.00  0.00     0.074 A 
ATOM     48  C   UNL A   1      48.628  30.700  27.644  1.00  0.00     0.029 A 
ATOM     49  N   UNL A   1      47.040  29.147  27.525  1.00  0.00    -0.354 N 
ATOM     50  N   UNL A   1      45.999  26.429  27.118  1.00  0.00    -0.248 NA
ATOM     51  C   UNL A   1      46.331  24.202  26.495  1.00  0.00     0.031 C 
ATOM     52  C   UNL A   1      49.214  29.497  27.235  1.00  0.00     0.029 A 
ATOM     53  C   UNL A   1      48.229  28.524  27.180  1.00  0.00     0.049 A 
ATOM     54  H   UNL A   1      46.163  28.703  27.569  1.00  0.00     0.167 HD
ATOM     55  C   UNL A   1      47.343  26.235  26.818  1.00  0.00     0.074 A 
ATOM     56  C   UNL A   1      47.495  24.837  26.466  1.00  0.00     0.031 C 
ATOM     57  C   UNL A   1      48.363  27.130  26.836  1.00  0.00     0.037 A 
BRANCH  44  58
ATOM     58  C   UNL A   1      46.652  32.869  28.378  1.00  0.00     0.058 A 
ATOM     59  C   UNL A   1      47.093  33.334  29.627  1.00  0.00     0.135 A 
ATOM     60  C   UNL A   1      46.624  33.784  27.312  1.00  0.00     0.135 A 
ATOM     61  F   UNL A   1      47.122  32.506  30.684  1.00  0.00    -0.206 F 
ATOM     62  C   UNL A   1      47.467  34.660  29.820  1.00  0.00     0.059 A 
ATOM     63  C   UNL A   1      47.018  35.109  27.475  1.00  0.00     0.059 A 
ATOM     64  F   UNL A   1      46.209  33.393  26.097  1.00  0.00    -0.206 F 
ATOM     65  C   UNL A   1      47.424  35.541  28.737  1.00  0.00     0.060 A 
BRANCH  65  66
ATOM     66  S   UNL A   1      47.916  37.258  28.999  1.00  0.00     0.124 S 
ATOM     67  O   UNL A   1      48.695  37.152  30.229  1.00  0.00    -0.237 OA
ATOM     68  O   UNL A   1      48.680  37.553  27.790  1.00  0.00    -0.237 OA
ATOM     69  O   UNL A   1      46.645  37.962  29.120  1.00  0.00    -0.744 OA
ENDBRANCH  65  66
ENDBRANCH  44  58
BRANCH  45  70
ATOM     70  C   UNL A   1      43.513  23.494  26.903  1.00  0.00     0.058 A 
ATOM     71  C   UNL A   1      43.187  22.632  27.960  1.00  0.00     0.135 A 
ATOM     72  C   UNL A   1      43.380  23.002  25.594  1.00  0.00     0.135 A 
ATOM     73  F   UNL A   1      43.309  23.051  29.229  1.00  0.00    -0.206 F 
ATOM     74  C   UNL A   1      42.754  21.329  27.731  1.00  0.00     0.059 A 
ATOM     75  C   UNL A   1      42.928  21.712  25.340  1.00  0.00     0.059 A 
ATOM     76  F   UNL A   1      43.670  23.791  24.548  1.00  0.00    -0.206 F 
ATOM     77  C   UNL A   1      42.625  20.879  26.416  1.00  0.00     0.060 A 
BRANCH  77  78
ATOM     78  S   UNL A   1      42.008  19.207  26.125  1.00  0.00     0.124 S 
ATOM     79  O   UNL A   1      42.442  18.519  27.335  1.00  0.00    -0.237 OA
ATOM     80  O   UNL A   1      40.571  19.429  25.997  1.00  0.00    -0.237 OA
ATOM     81  O   UNL A   1      42.684  18.810  24.894  1.00  0.00    -0.744 OA
ENDBRANCH  77  78
ENDBRANCH  45  70
BRANCH  57  82
ATOM     82  C   UNL A   1      49.737  26.625  26.495  1.00  0.00     0.058 A 
ATOM     83  C   UNL A   1      50.577  26.059  27.465  1.00  0.00     0.135 A 
ATOM     84  C   UNL A   1      50.198  26.661  25.167  1.00  0.00     0.135 A 
ATOM     85  F   UNL A   1      50.186  26.006  28.748  1.00  0.00    -0.206 F 
ATOM     86  C   UNL A   1      51.835  25.564  27.137  1.00  0.00     0.059 A 
ATOM     87  C   UNL A   1      51.441  26.148  24.813  1.00  0.00     0.059 A 
ATOM     88  F   UNL A   1      49.428  27.181  24.199  1.00  0.00    -0.206 F 
ATOM     89  C   UNL A   1      52.258  25.613  25.808  1.00  0.00     0.060 A 
BRANCH  89  90
ATOM     90  S   UNL A   1      53.880  24.940  25.389  1.00  0.00     0.124 S 
ATOM     91  O   UNL A   1      54.637  25.216  26.605  1.00  0.00    -0.237 OA
ATOM     92  O   UNL A   1      53.581  23.534  25.134  1.00  0.00    -0.237 OA
ATOM     93  O   UNL A   1      54.276  25.712  24.214  1.00  0.00    -0.744 OA
ENDBRANCH  89  90
ENDBRANCH  57  82
ENDBRANCH  31  32
ENDBRANCH  24  26
ENDBRANCH  23  24
ENDBRANCH  22  23
ENDBRANCH   1  22
TORSDOF 19
ENDMDL
MODEL 3
REMARK VINA RESULT:     -10.7      1.509      3.166
REMARK SMILES C[C@H](c1ccncc1)N1C[C@H](C(=O)OCCOCCOC(=O)c2ccc(-c3c4nc(c(-c5c(F)cc(S(=O)(=O)[O-])cc5F)c5ccc([nH]5)c(-c5c(F)cc(S(=O)(=O)[O-])cc5F)c5nc(c(-c6c(F)cc(S(=O)(=O)[O-])cc6F)c6ccc3[nH]6)C=C5)C=C4)cc2)CC1=O
REMARK SMILES IDX 18 1 17 2 16 3 15 4 14 5 12 6 13 7 11 8 9 9 10 10 90 11
REMARK SMILES IDX 89 12 91 13 2 14 1 15 3 16 4 17 8 18 5 19 7 20 6 21 19 22
REMARK SMILES IDX 20 23 21 24 22 25 23 26 24 27 88 28 25 29 87 30 26 31 27 32
REMARK SMILES IDX 28 33 81 34 29 35 86 36 80 37 82 38 30 39 85 40 79 41 78 42
REMARK SMILES IDX 31 44 65 45 44 46 64 47 45 48 48 49 63 50 83 51 46 52 47 53
REMARK SMILES IDX 62 55 84 56 49 57 32 58 33 59 42 60 34 61 35 62 41 63 43 64
REMARK SMILES IDX 36 65 37 66 38 67 39 68 40 69 66 70 67 71 76 72 68 73 69 74
REMARK SMILES IDX 75 75 77 76 70 77 71 78 72 79 73 80 74 81 50 82 51 83 60 84
REMARK SMILES IDX 52 85 53 86 59 87 61 88 54 89 55 90 56 91 57 92 58 93
REMARK H PARENT 82 43 48 54
REMARK Flexibility Score: inf
ROOT
ATOM      1  C   UNL A   1      37.946  22.641  25.721  1.00  0.00     0.202 C 
ENDROOT
BRANCH   1   2
ATOM      2  O   UNL A   1      36.544  22.365  25.736  1.00  0.00    -0.374 OA
BRANCH   2   3
ATOM      3  C   UNL A   1      36.030  21.615  24.635  1.00  0.00     0.202 C 
BRANCH   3   4
ATOM      4  C   UNL A   1      35.287  20.319  24.980  1.00  0.00     0.261 C 
BRANCH   4   5
ATOM      5  O   UNL A   1      33.882  20.392  24.664  1.00  0.00    -0.463 OA
BRANCH   5   6
ATOM      6  C   UNL A   1      33.156  21.291  25.379  1.00  0.00     0.311 C 
ATOM      7  O   UNL A   1      33.276  21.478  26.584  1.00  0.00    -0.252 OA
BRANCH   6   8
ATOM      8  C   UNL A   1      32.106  22.001  24.533  1.00  0.00     0.128 C 
ATOM      9  N   UNL A   1      33.009  24.059  23.813  1.00  0.00    -0.335 N 
ATOM     10  C   UNL A   1      32.135  23.497  24.824  1.00  0.00     0.136 C 
ATOM     11  C   UNL A   1      33.226  23.144  22.788  1.00  0.00     0.224 C 
ATOM     12  C   UNL A   1      32.337  21.949  23.028  1.00  0.00     0.117 C 
ATOM     13  O   UNL A   1      33.998  23.245  21.849  1.00  0.00    -0.275 OA
BRANCH   9  14
ATOM     14  C   UNL A   1      33.841  25.254  24.043  1.00  0.00     0.112 C 
ATOM     15  C   UNL A   1      34.325  25.394  25.494  1.00  0.00     0.036 C 
BRANCH  14  16
ATOM     16  C   UNL A   1      33.162  26.555  23.645  1.00  0.00    -0.023 A 
ATOM     17  C   UNL A   1      31.977  26.573  22.902  1.00  0.00     0.026 A 
ATOM     18  C   UNL A   1      33.712  27.783  24.035  1.00  0.00     0.026 A 
ATOM     19  C   UNL A   1      31.405  27.797  22.588  1.00  0.00     0.111 A 
ATOM     20  C   UNL A   1      33.064  28.954  23.673  1.00  0.00     0.111 A 
ATOM     21  N   UNL A   1      31.912  28.989  22.971  1.00  0.00    -0.265 NA
ENDBRANCH  14  16
ENDBRANCH   9  14
ENDBRANCH   6   8
ENDBRANCH   5   6
ENDBRANCH   4   5
ENDBRANCH   3   4
ENDBRANCH   2   3
ENDBRANCH   1   2
BRANCH   1  22
ATOM     22  C   UNL A   1      38.380  24.068  26.081  1.00  0.00     0.261 C 
BRANCH  22  23
ATOM     23  O   UNL A   1      39.698  24.101  26.662  1.00  0.00    -0.460 OA
BRANCH  23  24
ATOM     24  C   UNL A   1      40.397  25.232  26.406  1.00  0.00     0.338 C 
ATOM     25  O   UNL A   1      40.732  25.660  25.309  1.00  0.00    -0.246 OA
BRANCH  24  26
ATOM     26  C   UNL A   1      40.558  26.025  27.640  1.00  0.00     0.060 A 
ATOM     27  C   UNL A   1      39.591  25.851  28.639  1.00  0.00     0.016 A 
ATOM     28  C   UNL A   1      41.574  26.970  27.792  1.00  0.00     0.016 A 
ATOM     29  C   UNL A   1      39.600  26.666  29.768  1.00  0.00     0.010 A 
ATOM     30  C   UNL A   1      41.577  27.795  28.926  1.00  0.00     0.010 A 
ATOM     31  C   UNL A   1      40.565  27.673  29.897  1.00  0.00    -0.014 A 
BRANCH  31  32
ATOM     32  C   UNL A   1      40.407  28.690  30.966  1.00  0.00     0.031 A 
ATOM     33  C   UNL A   1      41.295  28.613  32.179  1.00  0.00     0.074 A 
ATOM     34  C   UNL A   1      39.526  29.697  30.833  1.00  0.00     0.049 A 
ATOM     35  N   UNL A   1      41.337  29.394  33.227  1.00  0.00    -0.248 NA
ATOM     36  C   UNL A   1      42.269  27.509  32.212  1.00  0.00     0.031 C 
ATOM     37  C   UNL A   1      38.640  29.899  29.688  1.00  0.00     0.029 A 
ATOM     38  N   UNL A   1      39.233  30.741  31.674  1.00  0.00    -0.354 N 
ATOM     39  C   UNL A   1      42.334  28.877  34.046  1.00  0.00     0.074 A 
ATOM     40  C   UNL A   1      42.853  27.698  33.387  1.00  0.00     0.031 C 
ATOM     41  C   UNL A   1      37.895  30.998  29.901  1.00  0.00     0.029 A 
ATOM     42  C   UNL A   1      38.233  31.561  31.208  1.00  0.00     0.049 A 
ATOM     43  H   UNL A   1      39.696  30.890  32.530  1.00  0.00     0.167 HD
ATOM     44  C   UNL A   1      42.784  29.347  35.233  1.00  0.00     0.037 A 
ATOM     45  C   UNL A   1      37.646  32.632  31.778  1.00  0.00     0.037 A 
ATOM     46  C   UNL A   1      42.268  30.523  35.883  1.00  0.00     0.049 A 
ATOM     47  C   UNL A   1      38.124  33.105  33.126  1.00  0.00     0.074 A 
ATOM     48  C   UNL A   1      42.668  31.092  37.080  1.00  0.00     0.029 A 
ATOM     49  N   UNL A   1      41.235  31.309  35.393  1.00  0.00    -0.354 N 
ATOM     50  N   UNL A   1      39.083  32.618  33.879  1.00  0.00    -0.248 NA
ATOM     51  C   UNL A   1      37.445  34.275  33.701  1.00  0.00     0.031 C 
ATOM     52  C   UNL A   1      41.846  32.196  37.335  1.00  0.00     0.029 A 
ATOM     53  C   UNL A   1      40.967  32.343  36.275  1.00  0.00     0.049 A 
ATOM     54  H   UNL A   1      40.760  31.154  34.544  1.00  0.00     0.167 HD
ATOM     55  C   UNL A   1      39.137  33.435  35.003  1.00  0.00     0.074 A 
ATOM     56  C   UNL A   1      38.122  34.455  34.827  1.00  0.00     0.031 C 
ATOM     57  C   UNL A   1      39.955  33.353  36.082  1.00  0.00     0.037 A 
BRANCH  44  58
ATOM     58  C   UNL A   1      43.876  28.574  35.918  1.00  0.00     0.058 A 
ATOM     59  C   UNL A   1      45.230  28.906  35.759  1.00  0.00     0.135 A 
ATOM     60  C   UNL A   1      43.561  27.502  36.770  1.00  0.00     0.135 A 
ATOM     61  F   UNL A   1      45.588  29.910  34.942  1.00  0.00    -0.206 F 
ATOM     62  C   UNL A   1      46.236  28.188  36.398  1.00  0.00     0.059 A 
ATOM     63  C   UNL A   1      44.548  26.786  37.440  1.00  0.00     0.059 A 
ATOM     64  F   UNL A   1      42.282  27.140  36.957  1.00  0.00    -0.206 F 
ATOM     65  C   UNL A   1      45.885  27.128  37.236  1.00  0.00     0.060 A 
BRANCH  65  66
ATOM     66  S   UNL A   1      47.199  26.207  38.064  1.00  0.00     0.124 S 
ATOM     67  O   UNL A   1      48.338  26.483  37.194  1.00  0.00    -0.237 OA
ATOM     68  O   UNL A   1      47.241  26.837  39.380  1.00  0.00    -0.237 OA
ATOM     69  O   UNL A   1      46.713  24.832  38.046  1.00  0.00    -0.744 OA
ENDBRANCH  65  66
ENDBRANCH  44  58
BRANCH  45  70
ATOM     70  C   UNL A   1      36.533  33.326  31.079  1.00  0.00     0.058 A 
ATOM     71  C   UNL A   1      35.210  33.222  31.534  1.00  0.00     0.135 A 
ATOM     72  C   UNL A   1      36.773  34.113  29.941  1.00  0.00     0.135 A 
ATOM     73  F   UNL A   1      34.928  32.473  32.610  1.00  0.00    -0.206 F 
ATOM     74  C   UNL A   1      34.163  33.868  30.882  1.00  0.00     0.059 A 
ATOM     75  C   UNL A   1      35.746  34.785  29.287  1.00  0.00     0.059 A 
ATOM     76  F   UNL A   1      38.022  34.252  29.471  1.00  0.00    -0.206 F 
ATOM     77  C   UNL A   1      34.441  34.649  29.760  1.00  0.00     0.060 A 
BRANCH  77  78
ATOM     78  S   UNL A   1      33.086  35.530  28.954  1.00  0.00     0.124 S 
ATOM     79  O   UNL A   1      33.807  36.541  28.189  1.00  0.00    -0.237 OA
ATOM     80  O   UNL A   1      32.452  34.470  28.176  1.00  0.00    -0.237 OA
ATOM     81  O   UNL A   1      32.297  36.029  30.076  1.00  0.00    -0.744 OA
ENDBRANCH  77  78
ENDBRANCH  45  70
BRANCH  57  82
ATOM     82  C   UNL A   1      39.811  34.406  37.145  1.00  0.00     0.058 A 
ATOM     83  C   UNL A   1      39.039  34.191  38.298  1.00  0.00     0.135 A 
ATOM     84  C   UNL A   1      40.497  35.627  37.034  1.00  0.00     0.135 A 
ATOM     85  F   UNL A   1      38.359  33.043  38.450  1.00  0.00    -0.206 F 
ATOM     86  C   UNL A   1      38.935  35.157  39.293  1.00  0.00     0.059 A 
ATOM     87  C   UNL A   1      40.428  36.597  38.029  1.00  0.00     0.059 A 
ATOM     88  F   UNL A   1      41.258  35.878  35.957  1.00  0.00    -0.206 F 
ATOM     89  C   UNL A   1      39.635  36.357  39.150  1.00  0.00     0.060 A 
BRANCH  89  90
ATOM     90  S   UNL A   1      39.517  37.591  40.462  1.00  0.00     0.124 S 
ATOM     91  O   UNL A   1      40.916  37.960  40.646  1.00  0.00    -0.237 OA
ATOM     92  O   UNL A   1      38.666  38.612  39.858  1.00  0.00    -0.237 OA
ATOM     93  O   UNL A   1      38.911  36.854  41.568  1.00  0.00    -0.744 OA
ENDBRANCH  89  90
ENDBRANCH  57  82
ENDBRANCH  31  32
ENDBRANCH  24  26
ENDBRANCH  23  24
ENDBRANCH  22  23
ENDBRANCH   1  22
TORSDOF 19
ENDMDL
