MODEL 1
REMARK VINA RESULT:     -12.6      0.000      0.000
REMARK SMILES Cc1ccccc1C(=O)Nc1ccc(N2CCCCC2)cc1C(=O)OCCOCCOC(=O)c1ccc(-c2c3nc(c(-c4c(F)cc(S(=O)(=O)[O-])cc4F)c4ccc([nH]4)c(-c4c(F)cc(S(=O)(=O)[O-])cc4F)c4nc(c(-c5c(F)cc(S(=O)(=O)[O-])cc5F)c5ccc2[nH]5)C=C4)C=C3)cc1
REMARK SMILES IDX 29 1 28 2 27 3 26 4 25 5 23 6 24 7 22 8 11 9 12 10 13 11
REMARK SMILES IDX 21 12 14 13 10 14 8 15 9 16 7 18 1 19 2 20 3 21 4 22 6 23
REMARK SMILES IDX 5 24 15 25 16 26 20 27 17 28 19 29 18 30 30 31 31 32 32 33
REMARK SMILES IDX 33 34 34 35 35 36 99 37 36 38 98 39 37 40 38 41 39 42 92 43
REMARK SMILES IDX 40 44 97 45 91 46 93 47 41 48 96 49 90 50 89 51 42 53 76 54
REMARK SMILES IDX 55 55 75 56 56 57 59 58 74 59 94 60 57 61 58 62 73 64 95 65
REMARK SMILES IDX 60 66 43 67 44 68 53 69 45 70 46 71 52 72 54 73 47 74 48 75
REMARK SMILES IDX 49 76 50 77 51 78 77 79 78 80 87 81 79 82 80 83 86 84 88 85
REMARK SMILES IDX 81 86 82 87 83 88 84 89 85 90 61 91 62 92 71 93 63 94 64 95
REMARK SMILES IDX 70 96 72 97 65 98 66 99 67 100 68 101 69 102
REMARK H PARENT 10 17 93 52 59 63
REMARK Flexibility Score: inf
ROOT
ATOM      1  C   UNL A   1      35.910  21.417  25.810  1.00  0.00     0.202 C 
ENDROOT
BRANCH   1   2
ATOM      2  O   UNL A   1      34.706  21.337  26.540  1.00  0.00    -0.374 OA
BRANCH   2   3
ATOM      3  C   UNL A   1      34.555  22.348  27.516  1.00  0.00     0.202 C 
BRANCH   3   4
ATOM      4  C   UNL A   1      33.187  22.200  28.136  1.00  0.00     0.261 C 
BRANCH   4   5
ATOM      5  O   UNL A   1      32.235  23.243  27.805  1.00  0.00    -0.460 OA
BRANCH   5   6
ATOM      6  C   UNL A   1      31.093  23.149  27.068  1.00  0.00     0.340 C 
ATOM      7  O   UNL A   1      29.940  23.223  27.400  1.00  0.00    -0.246 OA
BRANCH   6   8
ATOM      8  C   UNL A   1      31.570  23.063  25.665  1.00  0.00     0.085 A 
ATOM      9  C   UNL A   1      32.406  24.069  25.168  1.00  0.00     0.056 A 
ATOM     10  C   UNL A   1      33.180  23.820  24.030  1.00  0.00     0.029 A 
ATOM     11  C   UNL A   1      33.204  22.526  23.491  1.00  0.00     0.028 A 
ATOM     12  C   UNL A   1      31.514  21.812  25.039  1.00  0.00     0.043 A 
ATOM     13  C   UNL A   1      32.418  21.492  24.027  1.00  0.00     0.038 A 
BRANCH   9  14
ATOM     14  N   UNL A   1      32.513  25.290  25.828  1.00  0.00    -0.321 N 
ATOM     15  C   UNL A   1      31.605  26.303  26.022  1.00  0.00     0.255 C 
ATOM     16  O   UNL A   1      31.671  26.867  27.123  1.00  0.00    -0.269 OA
ATOM     17  H   UNL A   1      33.398  25.458  26.226  1.00  0.00     0.170 HD
BRANCH  15  18
ATOM     18  C   UNL A   1      30.756  26.963  24.936  1.00  0.00     0.043 A 
ATOM     19  C   UNL A   1      31.945  29.201  24.209  1.00  0.00     0.045 C 
ATOM     20  C   UNL A   1      30.844  28.191  24.240  1.00  0.00    -0.038 A 
ATOM     21  C   UNL A   1      29.776  28.586  23.383  1.00  0.00     0.004 A 
ATOM     22  C   UNL A   1      28.638  27.816  23.192  1.00  0.00     0.000 A 
ATOM     23  C   UNL A   1      29.587  26.186  24.676  1.00  0.00     0.014 A 
ATOM     24  C   UNL A   1      28.548  26.599  23.832  1.00  0.00     0.001 A 
ENDBRANCH  15  18
ENDBRANCH   9  14
BRANCH  13  25
ATOM     25  N   UNL A   1      32.667  20.166  23.669  1.00  0.00    -0.372 N 
ATOM     26  C   UNL A   1      32.739  19.244  24.816  1.00  0.00     0.116 C 
ATOM     27  C   UNL A   1      31.967  19.600  22.507  1.00  0.00     0.116 C 
ATOM     28  C   UNL A   1      33.530  18.007  24.406  1.00  0.00     0.021 C 
ATOM     29  C   UNL A   1      32.753  18.384  22.024  1.00  0.00     0.021 C 
ATOM     30  C   UNL A   1      32.960  17.361  23.143  1.00  0.00     0.004 C 
ENDBRANCH  13  25
ENDBRANCH   6   8
ENDBRANCH   5   6
ENDBRANCH   4   5
ENDBRANCH   3   4
ENDBRANCH   2   3
ENDBRANCH   1   2
BRANCH   1  31
ATOM     31  C   UNL A   1      36.526  22.815  25.764  1.00  0.00     0.261 C 
BRANCH  31  32
ATOM     32  O   UNL A   1      37.877  22.907  25.262  1.00  0.00    -0.460 OA
BRANCH  32  33
ATOM     33  C   UNL A   1      38.919  22.923  26.131  1.00  0.00     0.338 C 
ATOM     34  O   UNL A   1      39.469  21.927  26.573  1.00  0.00    -0.246 OA
BRANCH  33  35
ATOM     35  C   UNL A   1      39.243  24.285  26.578  1.00  0.00     0.060 A 
ATOM     36  C   UNL A   1      40.165  25.076  25.883  1.00  0.00     0.016 A 
ATOM     37  C   UNL A   1      38.753  24.671  27.818  1.00  0.00     0.016 A 
ATOM     38  C   UNL A   1      40.685  26.225  26.495  1.00  0.00     0.010 A 
ATOM     39  C   UNL A   1      39.376  25.726  28.463  1.00  0.00     0.010 A 
ATOM     40  C   UNL A   1      40.340  26.522  27.816  1.00  0.00    -0.014 A 
BRANCH  40  41
ATOM     41  C   UNL A   1      40.976  27.555  28.650  1.00  0.00     0.031 A 
ATOM     42  C   UNL A   1      40.243  28.799  28.990  1.00  0.00     0.074 A 
ATOM     43  C   UNL A   1      42.150  27.333  29.285  1.00  0.00     0.049 A 
ATOM     44  N   UNL A   1      40.768  29.774  29.648  1.00  0.00    -0.248 NA
ATOM     45  C   UNL A   1      38.872  29.090  28.575  1.00  0.00     0.031 C 
ATOM     46  C   UNL A   1      42.670  27.976  30.494  1.00  0.00     0.029 A 
ATOM     47  N   UNL A   1      43.151  26.421  28.956  1.00  0.00    -0.354 N 
ATOM     48  C   UNL A   1      39.761  30.617  30.040  1.00  0.00     0.074 A 
ATOM     49  C   UNL A   1      38.632  30.227  29.236  1.00  0.00     0.031 C 
ATOM     50  C   UNL A   1      43.955  27.635  30.665  1.00  0.00     0.029 A 
ATOM     51  C   UNL A   1      44.367  26.878  29.501  1.00  0.00     0.049 A 
ATOM     52  H   UNL A   1      43.029  25.597  28.432  1.00  0.00     0.167 HD
ATOM     53  C   UNL A   1      40.000  31.464  31.080  1.00  0.00     0.037 A 
ATOM     54  C   UNL A   1      45.401  27.199  28.669  1.00  0.00     0.037 A 
ATOM     55  C   UNL A   1      41.446  31.573  31.344  1.00  0.00     0.049 A 
ATOM     56  C   UNL A   1      45.603  28.697  28.571  1.00  0.00     0.074 A 
ATOM     57  C   UNL A   1      42.318  31.214  32.358  1.00  0.00     0.029 A 
ATOM     58  N   UNL A   1      42.260  31.946  30.280  1.00  0.00    -0.354 N 
ATOM     59  N   UNL A   1      45.104  29.554  29.422  1.00  0.00    -0.248 NA
ATOM     60  C   UNL A   1      46.314  29.365  27.479  1.00  0.00     0.031 C 
ATOM     61  C   UNL A   1      43.655  31.265  31.831  1.00  0.00     0.029 A 
ATOM     62  C   UNL A   1      43.599  31.695  30.516  1.00  0.00     0.049 A 
ATOM     63  H   UNL A   1      41.918  32.345  29.448  1.00  0.00     0.167 HD
ATOM     64  C   UNL A   1      45.212  30.815  28.914  1.00  0.00     0.074 A 
ATOM     65  C   UNL A   1      46.056  30.661  27.739  1.00  0.00     0.031 C 
ATOM     66  C   UNL A   1      44.543  31.892  29.419  1.00  0.00     0.037 A 
BRANCH  53  67
ATOM     67  C   UNL A   1      38.919  32.141  31.904  1.00  0.00     0.058 A 
ATOM     68  C   UNL A   1      38.061  31.378  32.726  1.00  0.00     0.135 A 
ATOM     69  C   UNL A   1      38.610  33.523  31.872  1.00  0.00     0.135 A 
ATOM     70  F   UNL A   1      38.185  30.046  32.807  1.00  0.00    -0.206 F 
ATOM     71  C   UNL A   1      37.019  31.941  33.475  1.00  0.00     0.059 A 
ATOM     72  C   UNL A   1      37.614  34.114  32.654  1.00  0.00     0.059 A 
ATOM     73  F   UNL A   1      39.204  34.373  31.028  1.00  0.00    -0.206 F 
ATOM     74  C   UNL A   1      36.813  33.314  33.447  1.00  0.00     0.060 A 
BRANCH  74  75
ATOM     75  S   UNL A   1      35.481  34.040  34.421  1.00  0.00     0.124 S 
ATOM     76  O   UNL A   1      34.333  33.242  34.002  1.00  0.00    -0.237 OA
ATOM     77  O   UNL A   1      35.944  33.824  35.788  1.00  0.00    -0.237 OA
ATOM     78  O   UNL A   1      35.462  35.434  33.986  1.00  0.00    -0.744 OA
ENDBRANCH  74  75
ENDBRANCH  53  67
BRANCH  54  79
ATOM     79  C   UNL A   1      45.601  26.152  27.621  1.00  0.00     0.058 A 
ATOM     80  C   UNL A   1      46.126  24.916  28.061  1.00  0.00     0.135 A 
ATOM     81  C   UNL A   1      44.870  26.142  26.424  1.00  0.00     0.135 A 
ATOM     82  F   UNL A   1      46.832  24.859  29.203  1.00  0.00    -0.206 F 
ATOM     83  C   UNL A   1      45.808  23.712  27.437  1.00  0.00     0.059 A 
ATOM     84  C   UNL A   1      44.525  24.941  25.792  1.00  0.00     0.059 A 
ATOM     85  F   UNL A   1      44.346  27.280  25.947  1.00  0.00    -0.206 F 
ATOM     86  C   UNL A   1      44.952  23.728  26.338  1.00  0.00     0.060 A 
BRANCH  86  87
ATOM     87  S   UNL A   1      44.187  22.167  25.808  1.00  0.00     0.124 S 
ATOM     88  O   UNL A   1      45.348  21.306  25.630  1.00  0.00    -0.237 OA
ATOM     89  O   UNL A   1      43.324  21.834  26.940  1.00  0.00    -0.237 OA
ATOM     90  O   UNL A   1      43.475  22.549  24.594  1.00  0.00    -0.744 OA
ENDBRANCH  86  87
ENDBRANCH  54  79
BRANCH  66  91
ATOM     91  C   UNL A   1      44.738  33.252  28.828  1.00  0.00     0.058 A 
ATOM     92  C   UNL A   1      45.365  34.266  29.568  1.00  0.00     0.135 A 
ATOM     93  C   UNL A   1      44.211  33.610  27.573  1.00  0.00     0.135 A 
ATOM     94  F   UNL A   1      45.883  34.004  30.779  1.00  0.00    -0.206 F 
ATOM     95  C   UNL A   1      45.477  35.565  29.083  1.00  0.00     0.059 A 
ATOM     96  C   UNL A   1      44.269  34.912  27.089  1.00  0.00     0.059 A 
ATOM     97  F   UNL A   1      43.646  32.693  26.771  1.00  0.00    -0.206 F 
ATOM     98  C   UNL A   1      44.924  35.879  27.842  1.00  0.00     0.060 A 
BRANCH  98  99
ATOM     99  S   UNL A   1      45.053  37.563  27.215  1.00  0.00     0.124 S 
ATOM    100  O   UNL A   1      43.720  37.811  26.674  1.00  0.00    -0.237 OA
ATOM    101  O   UNL A   1      45.385  38.297  28.431  1.00  0.00    -0.237 OA
ATOM    102  O   UNL A   1      46.118  37.469  26.223  1.00  0.00    -0.744 OA
ENDBRANCH  98  99
ENDBRANCH  66  91
ENDBRANCH  40  41
ENDBRANCH  33  35
ENDBRANCH  32  33
ENDBRANCH  31  32
ENDBRANCH   1  31
TORSDOF 20
ENDMDL
MODEL 2
REMARK VINA RESULT:     -12.4      3.531      9.916
REMARK SMILES Cc1ccccc1C(=O)Nc1ccc(N2CCCCC2)cc1C(=O)OCCOCCOC(=O)c1ccc(-c2c3nc(c(-c4c(F)cc(S(=O)(=O)[O-])cc4F)c4ccc([nH]4)c(-c4c(F)cc(S(=O)(=O)[O-])cc4F)c4nc(c(-c5c(F)cc(S(=O)(=O)[O-])cc5F)c5ccc2[nH]5)C=C4)C=C3)cc1
REMARK SMILES IDX 29 1 28 2 27 3 26 4 25 5 23 6 24 7 22 8 11 9 12 10 13 11
REMARK SMILES IDX 21 12 14 13 10 14 8 15 9 16 7 18 1 19 2 20 3 21 4 22 6 23
REMARK SMILES IDX 5 24 15 25 16 26 20 27 17 28 19 29 18 30 30 31 31 32 32 33
REMARK SMILES IDX 33 34 34 35 35 36 99 37 36 38 98 39 37 40 38 41 39 42 92 43
REMARK SMILES IDX 40 44 97 45 91 46 93 47 41 48 96 49 90 50 89 51 42 53 76 54
REMARK SMILES IDX 55 55 75 56 56 57 59 58 74 59 94 60 57 61 58 62 73 64 95 65
REMARK SMILES IDX 60 66 43 67 44 68 53 69 45 70 46 71 52 72 54 73 47 74 48 75
REMARK SMILES IDX 49 76 50 77 51 78 77 79 78 80 87 81 79 82 80 83 86 84 88 85
REMARK SMILES IDX 81 86 82 87 83 88 84 89 85 90 61 91 62 92 71 93 63 94 64 95
REMARK SMILES IDX 70 96 72 97 65 98 66 99 67 100 68 101 69 102
REMARK H PARENT 10 17 93 52 59 63
REMARK Flexibility Score: inf
ROOT
ATOM      1  C   UNL A   1      32.048  28.087  26.010  1.00  0.00     0.202 C 
ENDROOT
BRANCH   1   2
ATOM      2  O   UNL A   1      32.712  27.213  25.127  1.00  0.00    -0.374 OA
BRANCH   2   3
ATOM      3  C   UNL A   1      33.573  27.861  24.212  1.00  0.00     0.202 C 
BRANCH   3   4
ATOM      4  C   UNL A   1      34.054  26.836  23.215  1.00  0.00     0.261 C 
BRANCH   4   5
ATOM      5  O   UNL A   1      33.554  26.995  21.863  1.00  0.00    -0.460 OA
BRANCH   5   6
ATOM      6  C   UNL A   1      32.851  26.107  21.107  1.00  0.00     0.340 C 
ATOM      7  O   UNL A   1      33.195  25.425  20.178  1.00  0.00    -0.246 OA
BRANCH   6   8
ATOM      8  C   UNL A   1      31.525  26.032  21.769  1.00  0.00     0.085 A 
ATOM      9  C   UNL A   1      31.242  24.948  22.608  1.00  0.00     0.056 A 
ATOM     10  C   UNL A   1      30.203  25.050  23.538  1.00  0.00     0.029 A 
ATOM     11  C   UNL A   1      29.555  26.281  23.706  1.00  0.00     0.028 A 
ATOM     12  C   UNL A   1      30.783  27.217  21.867  1.00  0.00     0.043 A 
ATOM     13  C   UNL A   1      29.881  27.396  22.913  1.00  0.00     0.038 A 
BRANCH   9  14
ATOM     14  N   UNL A   1      32.021  23.795  22.558  1.00  0.00    -0.321 N 
ATOM     15  C   UNL A   1      32.245  22.806  23.486  1.00  0.00     0.255 C 
ATOM     16  O   UNL A   1      32.347  21.662  23.024  1.00  0.00    -0.269 OA
ATOM     17  H   UNL A   1      32.497  23.664  21.706  1.00  0.00     0.170 HD
BRANCH  15  18
ATOM     18  C   UNL A   1      32.657  23.023  24.942  1.00  0.00     0.043 A 
ATOM     19  C   UNL A   1      35.164  23.834  24.976  1.00  0.00     0.045 C 
ATOM     20  C   UNL A   1      33.875  23.369  25.571  1.00  0.00    -0.038 A 
ATOM     21  C   UNL A   1      33.963  23.332  26.993  1.00  0.00     0.004 A 
ATOM     22  C   UNL A   1      32.898  22.970  27.805  1.00  0.00     0.000 A 
ATOM     23  C   UNL A   1      31.577  22.699  25.819  1.00  0.00     0.014 A 
ATOM     24  C   UNL A   1      31.691  22.665  27.214  1.00  0.00     0.001 A 
ENDBRANCH  15  18
ENDBRANCH   9  14
BRANCH  13  25
ATOM     25  N   UNL A   1      29.439  28.668  23.281  1.00  0.00    -0.372 N 
ATOM     26  C   UNL A   1      30.518  29.665  23.385  1.00  0.00     0.116 C 
ATOM     27  C   UNL A   1      28.211  29.198  22.672  1.00  0.00     0.116 C 
ATOM     28  C   UNL A   1      30.055  30.802  24.288  1.00  0.00     0.021 C 
ATOM     29  C   UNL A   1      27.675  30.310  23.570  1.00  0.00     0.021 C 
ATOM     30  C   UNL A   1      28.725  31.394  23.818  1.00  0.00     0.004 C 
ENDBRANCH  13  25
ENDBRANCH   6   8
ENDBRANCH   5   6
ENDBRANCH   4   5
ENDBRANCH   3   4
ENDBRANCH   2   3
ENDBRANCH   1   2
BRANCH   1  31
ATOM     31  C   UNL A   1      32.948  28.704  27.081  1.00  0.00     0.261 C 
BRANCH  31  32
ATOM     32  O   UNL A   1      33.510  30.001  26.781  1.00  0.00    -0.460 OA
BRANCH  32  33
ATOM     33  C   UNL A   1      34.151  30.698  27.751  1.00  0.00     0.338 C 
ATOM     34  O   UNL A   1      33.811  31.798  28.156  1.00  0.00    -0.246 OA
BRANCH  33  35
ATOM     35  C   UNL A   1      35.385  30.028  28.188  1.00  0.00     0.060 A 
ATOM     36  C   UNL A   1      35.605  29.721  29.536  1.00  0.00     0.016 A 
ATOM     37  C   UNL A   1      36.395  29.899  27.245  1.00  0.00     0.016 A 
ATOM     38  C   UNL A   1      36.896  29.379  29.961  1.00  0.00     0.010 A 
ATOM     39  C   UNL A   1      37.687  29.697  27.701  1.00  0.00     0.010 A 
ATOM     40  C   UNL A   1      37.958  29.427  29.056  1.00  0.00    -0.014 A 
BRANCH  40  41
ATOM     41  C   UNL A   1      39.383  29.315  29.409  1.00  0.00     0.031 A 
ATOM     42  C   UNL A   1      40.146  28.090  29.066  1.00  0.00     0.074 A 
ATOM     43  C   UNL A   1      40.086  30.374  29.874  1.00  0.00     0.049 A 
ATOM     44  N   UNL A   1      41.371  27.897  29.414  1.00  0.00    -0.248 NA
ATOM     45  C   UNL A   1      39.590  26.944  28.350  1.00  0.00     0.031 C 
ATOM     46  C   UNL A   1      41.528  30.616  29.801  1.00  0.00     0.029 A 
ATOM     47  N   UNL A   1      39.607  31.511  30.522  1.00  0.00    -0.354 N 
ATOM     48  C   UNL A   1      41.855  26.830  28.703  1.00  0.00     0.074 A 
ATOM     49  C   UNL A   1      40.681  26.192  28.167  1.00  0.00     0.031 C 
ATOM     50  C   UNL A   1      41.846  31.665  30.571  1.00  0.00     0.029 A 
ATOM     51  C   UNL A   1      40.652  32.059  31.291  1.00  0.00     0.049 A 
ATOM     52  H   UNL A   1      38.693  31.870  30.455  1.00  0.00     0.167 HD
ATOM     53  C   UNL A   1      43.205  26.700  28.577  1.00  0.00     0.037 A 
ATOM     54  C   UNL A   1      40.528  32.125  32.650  1.00  0.00     0.037 A 
ATOM     55  C   UNL A   1      43.906  27.541  29.565  1.00  0.00     0.049 A 
ATOM     56  C   UNL A   1      41.394  31.096  33.347  1.00  0.00     0.074 A 
ATOM     57  C   UNL A   1      44.721  28.659  29.544  1.00  0.00     0.029 A 
ATOM     58  N   UNL A   1      43.570  27.362  30.903  1.00  0.00    -0.354 N 
ATOM     59  N   UNL A   1      42.384  30.469  32.768  1.00  0.00    -0.248 NA
ATOM     60  C   UNL A   1      41.180  30.628  34.718  1.00  0.00     0.031 C 
ATOM     61  C   UNL A   1      44.760  29.206  30.873  1.00  0.00     0.029 A 
ATOM     62  C   UNL A   1      44.006  28.398  31.708  1.00  0.00     0.049 A 
ATOM     63  H   UNL A   1      43.076  26.580  31.240  1.00  0.00     0.167 HD
ATOM     64  C   UNL A   1      42.775  29.420  33.547  1.00  0.00     0.074 A 
ATOM     65  C   UNL A   1      42.057  29.610  34.798  1.00  0.00     0.031 C 
ATOM     66  C   UNL A   1      43.583  28.413  33.106  1.00  0.00     0.037 A 
BRANCH  53  67
ATOM     67  C   UNL A   1      43.895  25.864  27.513  1.00  0.00     0.058 A 
ATOM     68  C   UNL A   1      43.979  24.462  27.648  1.00  0.00     0.135 A 
ATOM     69  C   UNL A   1      44.570  26.377  26.379  1.00  0.00     0.135 A 
ATOM     70  F   UNL A   1      43.447  23.835  28.708  1.00  0.00    -0.206 F 
ATOM     71  C   UNL A   1      44.639  23.642  26.723  1.00  0.00     0.059 A 
ATOM     72  C   UNL A   1      45.185  25.575  25.414  1.00  0.00     0.059 A 
ATOM     73  F   UNL A   1      44.739  27.687  26.174  1.00  0.00    -0.206 F 
ATOM     74  C   UNL A   1      45.225  24.206  25.598  1.00  0.00     0.060 A 
BRANCH  74  75
ATOM     75  S   UNL A   1      46.063  23.151  24.400  1.00  0.00     0.124 S 
ATOM     76  O   UNL A   1      46.509  22.042  25.237  1.00  0.00    -0.237 OA
ATOM     77  O   UNL A   1      44.994  22.847  23.454  1.00  0.00    -0.237 OA
ATOM     78  O   UNL A   1      47.127  24.004  23.879  1.00  0.00    -0.744 OA
ENDBRANCH  74  75
ENDBRANCH  53  67
BRANCH  54  79
ATOM     79  C   UNL A   1      39.187  32.652  33.048  1.00  0.00     0.058 A 
ATOM     80  C   UNL A   1      38.945  34.018  32.779  1.00  0.00     0.135 A 
ATOM     81  C   UNL A   1      38.065  31.821  33.179  1.00  0.00     0.135 A 
ATOM     82  F   UNL A   1      39.979  34.865  32.638  1.00  0.00    -0.206 F 
ATOM     83  C   UNL A   1      37.670  34.502  32.494  1.00  0.00     0.059 A 
ATOM     84  C   UNL A   1      36.778  32.284  32.879  1.00  0.00     0.059 A 
ATOM     85  F   UNL A   1      38.223  30.515  33.437  1.00  0.00    -0.206 F 
ATOM     86  C   UNL A   1      36.598  33.612  32.484  1.00  0.00     0.060 A 
BRANCH  86  87
ATOM     87  S   UNL A   1      35.047  34.128  31.691  1.00  0.00     0.124 S 
ATOM     88  O   UNL A   1      35.432  34.193  30.288  1.00  0.00    -0.237 OA
ATOM     89  O   UNL A   1      34.132  33.043  32.042  1.00  0.00    -0.237 OA
ATOM     90  O   UNL A   1      34.756  35.401  32.340  1.00  0.00    -0.744 OA
ENDBRANCH  86  87
ENDBRANCH  54  79
BRANCH  66  91
ATOM     91  C   UNL A   1      43.995  27.310  34.029  1.00  0.00     0.058 A 
ATOM     92  C   UNL A   1      45.330  27.190  34.441  1.00  0.00     0.135 A 
ATOM     93  C   UNL A   1      43.109  26.292  34.429  1.00  0.00     0.135 A 
ATOM     94  F   UNL A   1      46.238  28.116  34.091  1.00  0.00    -0.206 F 
ATOM     95  C   UNL A   1      45.764  26.123  35.223  1.00  0.00     0.059 A 
ATOM     96  C   UNL A   1      43.529  25.193  35.169  1.00  0.00     0.059 A 
ATOM     97  F   UNL A   1      41.801  26.355  34.130  1.00  0.00    -0.206 F 
ATOM     98  C   UNL A   1      44.855  25.128  35.580  1.00  0.00     0.060 A 
BRANCH  98  99
ATOM     99  S   UNL A   1      45.412  23.737  36.580  1.00  0.00     0.124 S 
ATOM    100  O   UNL A   1      44.984  24.110  37.924  1.00  0.00    -0.237 OA
ATOM    101  O   UNL A   1      44.679  22.634  35.969  1.00  0.00    -0.237 OA
ATOM    102  O   UNL A   1      46.856  23.730  36.367  1.00  0.00    -0.744 OA
ENDBRANCH  98  99
ENDBRANCH  66  91
ENDBRANCH  40  41
ENDBRANCH  33  35
ENDBRANCH  32  33
ENDBRANCH  31  32
ENDBRANCH   1  31
TORSDOF 20
ENDMDL
MODEL 3
REMARK VINA RESULT:     -12.1      3.338      9.983
REMARK SMILES Cc1ccccc1C(=O)Nc1ccc(N2CCCCC2)cc1C(=O)OCCOCCOC(=O)c1ccc(-c2c3nc(c(-c4c(F)cc(S(=O)(=O)[O-])cc4F)c4ccc([nH]4)c(-c4c(F)cc(S(=O)(=O)[O-])cc4F)c4nc(c(-c5c(F)cc(S(=O)(=O)[O-])cc5F)c5ccc2[nH]5)C=C4)C=C3)cc1
REMARK SMILES IDX 29 1 28 2 27 3 26 4 25 5 23 6 24 7 22 8 11 9 12 10 13 11
REMARK SMILES IDX 21 12 14 13 10 14 8 15 9 16 7 18 1 19 2 20 3 21 4 22 6 23
REMARK SMILES IDX 5 24 15 25 16 26 20 27 17 28 19 29 18 30 30 31 31 32 32 33
REMARK SMILES IDX 33 34 34 35 35 36 99 37 36 38 98 39 37 40 38 41 39 42 92 43
REMARK SMILES IDX 40 44 97 45 91 46 93 47 41 48 96 49 90 50 89 51 42 53 76 54
REMARK SMILES IDX 55 55 75 56 56 57 59 58 74 59 94 60 57 61 58 62 73 64 95 65
REMARK SMILES IDX 60 66 43 67 44 68 53 69 45 70 46 71 52 72 54 73 47 74 48 75
REMARK SMILES IDX 49 76 50 77 51 78 77 79 78 80 87 81 79 82 80 83 86 84 88 85
REMARK SMILES IDX 81 86 82 87 83 88 84 89 85 90 61 91 62 92 71 93 63 94 64 95
REMARK SMILES IDX 70 96 72 97 65 98 66 99 67 100 68 101 69 102
REMARK H PARENT 10 17 93 52 59 63
REMARK Flexibility Score: inf
ROOT
ATOM      1  C   UNL A   1      32.853  29.239  25.369  1.00  0.00     0.202 C 
ENDROOT
BRANCH   1   2
ATOM      2  O   UNL A   1      33.680  28.575  24.441  1.00  0.00    -0.374 OA
BRANCH   2   3
ATOM      3  C   UNL A   1      33.504  28.999  23.104  1.00  0.00     0.202 C 
BRANCH   3   4
ATOM      4  C   UNL A   1      34.181  27.997  22.201  1.00  0.00     0.261 C 
BRANCH   4   5
ATOM      5  O   UNL A   1      33.334  26.927  21.708  1.00  0.00    -0.460 OA
BRANCH   5   6
ATOM      6  C   UNL A   1      33.280  25.629  22.116  1.00  0.00     0.340 C 
ATOM      7  O   UNL A   1      33.962  24.685  21.816  1.00  0.00    -0.246 OA
BRANCH   6   8
ATOM      8  C   UNL A   1      32.239  25.622  23.173  1.00  0.00     0.085 A 
ATOM      9  C   UNL A   1      32.614  25.366  24.497  1.00  0.00     0.056 A 
ATOM     10  C   UNL A   1      31.761  25.745  25.539  1.00  0.00     0.029 A 
ATOM     11  C   UNL A   1      30.614  26.494  25.244  1.00  0.00     0.028 A 
ATOM     12  C   UNL A   1      31.026  26.263  22.890  1.00  0.00     0.043 A 
ATOM     13  C   UNL A   1      30.266  26.814  23.920  1.00  0.00     0.038 A 
BRANCH   9  14
ATOM     14  N   UNL A   1      33.848  24.790  24.783  1.00  0.00    -0.321 N 
ATOM     15  C   UNL A   1      34.354  23.541  24.515  1.00  0.00     0.255 C 
ATOM     16  O   UNL A   1      35.558  23.510  24.227  1.00  0.00    -0.269 OA
ATOM     17  H   UNL A   1      34.470  25.382  25.265  1.00  0.00     0.170 HD
BRANCH  15  18
ATOM     18  C   UNL A   1      33.662  22.211  24.816  1.00  0.00     0.043 A 
ATOM     19  C   UNL A   1      34.088  21.619  27.349  1.00  0.00     0.045 C 
ATOM     20  C   UNL A   1      33.611  21.374  25.954  1.00  0.00    -0.038 A 
ATOM     21  C   UNL A   1      32.993  20.094  25.853  1.00  0.00     0.004 A 
ATOM     22  C   UNL A   1      32.428  19.621  24.678  1.00  0.00     0.000 A 
ATOM     23  C   UNL A   1      33.031  21.700  23.642  1.00  0.00     0.014 A 
ATOM     24  C   UNL A   1      32.435  20.435  23.566  1.00  0.00     0.001 A 
ENDBRANCH  15  18
ENDBRANCH   9  14
BRANCH  13  25
ATOM     25  N   UNL A   1      29.297  27.787  23.667  1.00  0.00    -0.372 N 
ATOM     26  C   UNL A   1      29.756  28.863  22.773  1.00  0.00     0.116 C 
ATOM     27  C   UNL A   1      27.914  27.363  23.409  1.00  0.00     0.116 C 
ATOM     28  C   UNL A   1      28.887  30.096  22.997  1.00  0.00     0.021 C 
ATOM     29  C   UNL A   1      26.994  28.552  23.672  1.00  0.00     0.021 C 
ATOM     30  C   UNL A   1      27.399  29.776  22.848  1.00  0.00     0.004 C 
ENDBRANCH  13  25
ENDBRANCH   6   8
ENDBRANCH   5   6
ENDBRANCH   4   5
ENDBRANCH   3   4
ENDBRANCH   2   3
ENDBRANCH   1   2
BRANCH   1  31
ATOM     31  C   UNL A   1      33.478  29.418  26.752  1.00  0.00     0.261 C 
BRANCH  31  32
ATOM     32  O   UNL A   1      34.246  30.623  26.961  1.00  0.00    -0.460 OA
BRANCH  32  33
ATOM     33  C   UNL A   1      34.686  30.935  28.206  1.00  0.00     0.338 C 
ATOM     34  O   UNL A   1      34.206  31.807  28.912  1.00  0.00    -0.246 OA
BRANCH  33  35
ATOM     35  C   UNL A   1      35.892  30.178  28.571  1.00  0.00     0.060 A 
ATOM     36  C   UNL A   1      36.120  29.771  29.890  1.00  0.00     0.016 A 
ATOM     37  C   UNL A   1      36.877  30.063  27.600  1.00  0.00     0.016 A 
ATOM     38  C   UNL A   1      37.400  29.338  30.265  1.00  0.00     0.010 A 
ATOM     39  C   UNL A   1      38.165  29.769  28.014  1.00  0.00     0.010 A 
ATOM     40  C   UNL A   1      38.447  29.396  29.342  1.00  0.00    -0.014 A 
BRANCH  40  41
ATOM     41  C   UNL A   1      39.871  29.190  29.656  1.00  0.00     0.031 A 
ATOM     42  C   UNL A   1      40.531  27.902  29.335  1.00  0.00     0.074 A 
ATOM     43  C   UNL A   1      40.663  30.210  30.061  1.00  0.00     0.049 A 
ATOM     44  N   UNL A   1      41.749  27.630  29.654  1.00  0.00    -0.248 NA
ATOM     45  C   UNL A   1      39.870  26.776  28.678  1.00  0.00     0.031 C 
ATOM     46  C   UNL A   1      42.116  30.342  29.937  1.00  0.00     0.029 A 
ATOM     47  N   UNL A   1      40.289  31.400  30.683  1.00  0.00    -0.354 N 
ATOM     48  C   UNL A   1      42.131  26.507  28.968  1.00  0.00     0.074 A 
ATOM     49  C   UNL A   1      40.897  25.940  28.491  1.00  0.00     0.031 C 
ATOM     50  C   UNL A   1      42.534  31.390  30.659  1.00  0.00     0.029 A 
ATOM     51  C   UNL A   1      41.396  31.895  31.400  1.00  0.00     0.049 A 
ATOM     52  H   UNL A   1      39.403  31.824  30.629  1.00  0.00     0.167 HD
ATOM     53  C   UNL A   1      43.463  26.274  28.807  1.00  0.00     0.037 A 
ATOM     54  C   UNL A   1      41.321  32.016  32.758  1.00  0.00     0.037 A 
ATOM     55  C   UNL A   1      44.254  27.093  29.743  1.00  0.00     0.049 A 
ATOM     56  C   UNL A   1      42.132  30.950  33.466  1.00  0.00     0.074 A 
ATOM     57  C   UNL A   1      45.148  28.147  29.657  1.00  0.00     0.029 A 
ATOM     58  N   UNL A   1      43.950  26.985  31.096  1.00  0.00    -0.354 N 
ATOM     59  N   UNL A   1      43.055  30.233  32.881  1.00  0.00    -0.248 NA
ATOM     60  C   UNL A   1      41.928  30.547  34.859  1.00  0.00     0.031 C 
ATOM     61  C   UNL A   1      45.269  28.734  30.964  1.00  0.00     0.029 A 
ATOM     62  C   UNL A   1      44.486  28.012  31.849  1.00  0.00     0.049 A 
ATOM     63  H   UNL A   1      43.411  26.254  31.475  1.00  0.00     0.167 HD
ATOM     64  C   UNL A   1      43.392  29.185  33.686  1.00  0.00     0.074 A 
ATOM     65  C   UNL A   1      42.731  29.470  34.949  1.00  0.00     0.031 C 
ATOM     66  C   UNL A   1      44.110  28.106  33.258  1.00  0.00     0.037 A 
BRANCH  53  67
ATOM     67  C   UNL A   1      44.055  25.353  27.754  1.00  0.00     0.058 A 
ATOM     68  C   UNL A   1      44.224  25.799  26.426  1.00  0.00     0.135 A 
ATOM     69  C   UNL A   1      44.399  23.994  27.955  1.00  0.00     0.135 A 
ATOM     70  F   UNL A   1      43.878  27.044  26.064  1.00  0.00    -0.206 F 
ATOM     71  C   UNL A   1      44.723  24.984  25.402  1.00  0.00     0.059 A 
ATOM     72  C   UNL A   1      44.952  23.179  26.964  1.00  0.00     0.059 A 
ATOM     73  F   UNL A   1      44.152  23.352  29.102  1.00  0.00    -0.206 F 
ATOM     74  C   UNL A   1      45.102  23.678  25.684  1.00  0.00     0.060 A 
BRANCH  74  75
ATOM     75  S   UNL A   1      45.758  22.632  24.370  1.00  0.00     0.124 S 
ATOM     76  O   UNL A   1      46.319  21.517  25.125  1.00  0.00    -0.237 OA
ATOM     77  O   UNL A   1      44.563  22.335  23.586  1.00  0.00    -0.237 OA
ATOM     78  O   UNL A   1      46.737  23.490  23.707  1.00  0.00    -0.744 OA
ENDBRANCH  74  75
ENDBRANCH  53  67
BRANCH  54  79
ATOM     79  C   UNL A   1      40.035  32.654  33.176  1.00  0.00     0.058 A 
ATOM     80  C   UNL A   1      39.816  33.976  32.728  1.00  0.00     0.135 A 
ATOM     81  C   UNL A   1      38.902  31.902  33.515  1.00  0.00     0.135 A 
ATOM     82  F   UNL A   1      40.862  34.748  32.384  1.00  0.00    -0.206 F 
ATOM     83  C   UNL A   1      38.539  34.471  32.474  1.00  0.00     0.059 A 
ATOM     84  C   UNL A   1      37.610  32.373  33.250  1.00  0.00     0.059 A 
ATOM     85  F   UNL A   1      39.037  30.641  33.950  1.00  0.00    -0.206 F 
ATOM     86  C   UNL A   1      37.441  33.637  32.678  1.00  0.00     0.060 A 
BRANCH  86  87
ATOM     87  S   UNL A   1      35.847  34.100  31.940  1.00  0.00     0.124 S 
ATOM     88  O   UNL A   1      34.985  33.009  32.371  1.00  0.00    -0.237 OA
ATOM     89  O   UNL A   1      35.575  35.398  32.555  1.00  0.00    -0.237 OA
ATOM     90  O   UNL A   1      36.151  34.156  30.515  1.00  0.00    -0.744 OA
ENDBRANCH  86  87
ENDBRANCH  54  79
BRANCH  66  91
ATOM     91  C   UNL A   1      44.471  27.008  34.208  1.00  0.00     0.058 A 
ATOM     92  C   UNL A   1      45.799  26.836  34.624  1.00  0.00     0.135 A 
ATOM     93  C   UNL A   1      43.538  26.043  34.632  1.00  0.00     0.135 A 
ATOM     94  F   UNL A   1      46.748  27.710  34.252  1.00  0.00    -0.206 F 
ATOM     95  C   UNL A   1      46.182  25.769  35.432  1.00  0.00     0.059 A 
ATOM     96  C   UNL A   1      43.906  24.944  35.398  1.00  0.00     0.059 A 
ATOM     97  F   UNL A   1      42.235  26.159  34.329  1.00  0.00    -0.206 F 
ATOM     98  C   UNL A   1      45.227  24.827  35.812  1.00  0.00     0.060 A 
BRANCH  98  99
ATOM     99  S   UNL A   1      45.719  23.435  36.845  1.00  0.00     0.124 S 
ATOM    100  O   UNL A   1      45.039  22.307  36.217  1.00  0.00    -0.237 OA
ATOM    101  O   UNL A   1      47.170  23.462  36.690  1.00  0.00    -0.237 OA
ATOM    102  O   UNL A   1      45.218  23.806  38.165  1.00  0.00    -0.744 OA
ENDBRANCH  98  99
ENDBRANCH  66  91
ENDBRANCH  40  41
ENDBRANCH  33  35
ENDBRANCH  32  33
ENDBRANCH  31  32
ENDBRANCH   1  31
TORSDOF 20
ENDMDL
