MODEL 1
REMARK VINA RESULT:     -10.0      0.000      0.000
REMARK SMILES COc1cccc(CC(=O)N[C@@](C)(C(=O)OCCOCCOC(=O)c2ccc(-c3c4nc(c(-c5c(F)cc(S(=O)(=O)[O-])cc5F)c5ccc([nH]5)c(-c5c(F)cc(S(=O)(=O)[O-])cc5F)c5nc(c(-c6c(F)cc(S(=O)(=O)[O-])cc6F)c6ccc3[nH]6)C=C5)C=C4)cc2)C(F)(F)F)c1
REMARK SMILES IDX 18 1 17 2 16 3 14 4 15 5 12 6 13 7 11 8 9 9 10 10 8 12 7 13
REMARK SMILES IDX 3 14 4 15 95 16 5 17 6 18 2 19 1 20 91 21 92 22 93 23 94 24
REMARK SMILES IDX 19 25 20 26 21 27 22 28 23 29 24 30 25 31 26 32 90 33 27 34
REMARK SMILES IDX 89 35 28 36 29 37 30 38 83 39 31 40 88 41 82 42 84 43 32 44
REMARK SMILES IDX 87 45 81 46 80 47 33 49 67 50 46 51 66 52 47 53 50 54 65 55
REMARK SMILES IDX 85 56 48 57 49 58 64 60 86 61 51 62 34 63 35 64 44 65 36 66
REMARK SMILES IDX 37 67 43 68 45 69 38 70 39 71 40 72 41 73 42 74 68 75 69 76
REMARK SMILES IDX 78 77 70 78 71 79 77 80 79 81 72 82 73 83 74 84 75 85 76 86
REMARK SMILES IDX 52 87 53 88 62 89 54 90 55 91 61 92 63 93 56 94 57 95 58 96
REMARK SMILES IDX 59 97 60 98
REMARK H PARENT 11 11 84 48 50 59
REMARK Flexibility Score: inf
ROOT
ATOM      1  C   UNL A   1      38.069  23.731  26.286  1.00  0.00     0.202 C 
ENDROOT
BRANCH   1   2
ATOM      2  C   UNL A   1      36.545  23.706  26.106  1.00  0.00     0.261 C 
BRANCH   2   3
ATOM      3  O   UNL A   1      36.050  22.408  25.735  1.00  0.00    -0.461 OA
BRANCH   3   4
ATOM      4  C   UNL A   1      34.869  22.051  26.312  1.00  0.00     0.341 C 
ATOM      5  O   UNL A   1      34.793  21.432  27.367  1.00  0.00    -0.249 OA
BRANCH   4   6
ATOM      6  C   UNL A   1      33.643  22.510  25.501  1.00  0.00     0.231 C 
ATOM      7  C   UNL A   1      32.852  21.231  25.189  1.00  0.00     0.058 C 
BRANCH   6   8
ATOM      8  N   UNL A   1      34.061  23.107  24.170  1.00  0.00    -0.333 N 
ATOM      9  C   UNL A   1      33.482  23.416  22.982  1.00  0.00     0.225 C 
ATOM     10  O   UNL A   1      34.252  23.484  22.015  1.00  0.00    -0.275 OA
ATOM     11  H   UNL A   1      35.019  23.332  24.167  1.00  0.00     0.164 HD
BRANCH   9  12
ATOM     12  C   UNL A   1      32.036  23.841  22.798  1.00  0.00     0.135 C 
BRANCH  12  13
ATOM     13  C   UNL A   1      31.603  25.125  23.449  1.00  0.00    -0.035 A 
ATOM     14  C   UNL A   1      32.252  27.249  24.440  1.00  0.00     0.119 A 
ATOM     15  C   UNL A   1      30.943  27.438  24.877  1.00  0.00     0.046 A 
ATOM     16  C   UNL A   1      32.558  26.138  23.654  1.00  0.00     0.050 A 
ATOM     17  C   UNL A   1      29.956  26.498  24.571  1.00  0.00     0.004 A 
ATOM     18  C   UNL A   1      30.285  25.339  23.866  1.00  0.00     0.004 A 
BRANCH  14  19
ATOM     19  O   UNL A   1      33.172  28.170  24.863  1.00  0.00    -0.497 OA
ATOM     20  C   UNL A   1      32.737  29.531  24.801  1.00  0.00     0.278 C 
ENDBRANCH  14  19
ENDBRANCH  12  13
ENDBRANCH   9  12
ENDBRANCH   6   8
BRANCH   6  21
ATOM     21  C   UNL A   1      32.869  23.382  26.497  1.00  0.00     0.422 C 
ATOM     22  F   UNL A   1      33.082  22.994  27.778  1.00  0.00    -0.168 F 
ATOM     23  F   UNL A   1      33.253  24.672  26.380  1.00  0.00    -0.168 F 
ATOM     24  F   UNL A   1      31.531  23.410  26.326  1.00  0.00    -0.168 F 
ENDBRANCH   6  21
ENDBRANCH   4   6
ENDBRANCH   3   4
ENDBRANCH   2   3
ENDBRANCH   1   2
BRANCH   1  25
ATOM     25  O   UNL A   1      38.762  22.490  26.222  1.00  0.00    -0.374 OA
BRANCH  25  26
ATOM     26  C   UNL A   1      40.054  22.404  26.826  1.00  0.00     0.202 C 
BRANCH  26  27
ATOM     27  C   UNL A   1      41.293  22.737  25.984  1.00  0.00     0.261 C 
BRANCH  27  28
ATOM     28  O   UNL A   1      42.102  23.794  26.546  1.00  0.00    -0.460 OA
BRANCH  28  29
ATOM     29  C   UNL A   1      41.608  25.040  26.362  1.00  0.00     0.338 C 
ATOM     30  O   UNL A   1      41.078  25.482  25.346  1.00  0.00    -0.246 OA
BRANCH  29  31
ATOM     31  C   UNL A   1      41.606  25.791  27.625  1.00  0.00     0.060 A 
ATOM     32  C   UNL A   1      40.452  25.741  28.420  1.00  0.00     0.016 A 
ATOM     33  C   UNL A   1      42.663  26.643  27.958  1.00  0.00     0.016 A 
ATOM     34  C   UNL A   1      40.336  26.573  29.532  1.00  0.00     0.010 A 
ATOM     35  C   UNL A   1      42.535  27.485  29.068  1.00  0.00     0.010 A 
ATOM     36  C   UNL A   1      41.358  27.478  29.840  1.00  0.00    -0.014 A 
BRANCH  36  37
ATOM     37  C   UNL A   1      41.131  28.513  30.878  1.00  0.00     0.031 A 
ATOM     38  C   UNL A   1      41.989  28.511  32.114  1.00  0.00     0.074 A 
ATOM     39  C   UNL A   1      40.192  29.461  30.707  1.00  0.00     0.049 A 
ATOM     40  N   UNL A   1      41.949  29.304  33.153  1.00  0.00    -0.248 NA
ATOM     41  C   UNL A   1      43.035  27.477  32.188  1.00  0.00     0.031 C 
ATOM     42  C   UNL A   1      39.326  29.587  29.536  1.00  0.00     0.029 A 
ATOM     43  N   UNL A   1      39.808  30.493  31.524  1.00  0.00    -0.354 N 
ATOM     44  C   UNL A   1      42.954  28.864  34.006  1.00  0.00     0.074 A 
ATOM     45  C   UNL A   1      43.573  27.718  33.374  1.00  0.00     0.031 C 
ATOM     46  C   UNL A   1      38.498  30.631  29.717  1.00  0.00     0.029 A 
ATOM     47  C   UNL A   1      38.758  31.228  31.027  1.00  0.00     0.049 A 
ATOM     48  H   UNL A   1      40.243  30.689  32.386  1.00  0.00     0.167 HD
ATOM     49  C   UNL A   1      43.331  29.372  35.204  1.00  0.00     0.037 A 
ATOM     50  C   UNL A   1      38.073  32.251  31.574  1.00  0.00     0.037 A 
ATOM     51  C   UNL A   1      42.711  30.512  35.829  1.00  0.00     0.049 A 
ATOM     52  C   UNL A   1      38.472  32.764  32.933  1.00  0.00     0.074 A 
ATOM     53  C   UNL A   1      43.033  31.115  37.032  1.00  0.00     0.029 A 
ATOM     54  N   UNL A   1      41.637  31.214  35.304  1.00  0.00    -0.354 N 
ATOM     55  N   UNL A   1      39.440  32.354  33.717  1.00  0.00    -0.248 NA
ATOM     56  C   UNL A   1      37.689  33.881  33.481  1.00  0.00     0.031 C 
ATOM     57  C   UNL A   1      42.126  32.157  37.255  1.00  0.00     0.029 A 
ATOM     58  C   UNL A   1      41.267  32.230  36.170  1.00  0.00     0.049 A 
ATOM     59  H   UNL A   1      41.200  31.019  34.444  1.00  0.00     0.167 HD
ATOM     60  C   UNL A   1      39.399  33.175  34.839  1.00  0.00     0.074 A 
ATOM     61  C   UNL A   1      38.314  34.113  34.628  1.00  0.00     0.031 C 
ATOM     62  C   UNL A   1      40.187  33.158  35.942  1.00  0.00     0.037 A 
BRANCH  49  63
ATOM     63  C   UNL A   1      44.450  28.680  35.930  1.00  0.00     0.058 A 
ATOM     64  C   UNL A   1      45.790  29.065  35.762  1.00  0.00     0.135 A 
ATOM     65  C   UNL A   1      44.177  27.634  36.827  1.00  0.00     0.135 A 
ATOM     66  F   UNL A   1      46.108  30.047  34.904  1.00  0.00    -0.206 F 
ATOM     67  C   UNL A   1      46.822  28.420  36.436  1.00  0.00     0.059 A 
ATOM     68  C   UNL A   1      45.191  26.991  37.529  1.00  0.00     0.059 A 
ATOM     69  F   UNL A   1      42.914  27.226  37.023  1.00  0.00    -0.206 F 
ATOM     70  C   UNL A   1      46.513  27.381  37.315  1.00  0.00     0.060 A 
BRANCH  70  71
ATOM     71  S   UNL A   1      47.862  26.550  38.182  1.00  0.00     0.124 S 
ATOM     72  O   UNL A   1      48.373  25.665  37.141  1.00  0.00    -0.237 OA
ATOM     73  O   UNL A   1      48.730  27.663  38.550  1.00  0.00    -0.237 OA
ATOM     74  O   UNL A   1      47.192  25.886  39.296  1.00  0.00    -0.744 OA
ENDBRANCH  70  71
ENDBRANCH  49  63
BRANCH  50  75
ATOM     75  C   UNL A   1      36.926  32.848  30.841  1.00  0.00     0.058 A 
ATOM     76  C   UNL A   1      35.605  32.480  31.133  1.00  0.00     0.135 A 
ATOM     77  C   UNL A   1      37.131  33.810  29.838  1.00  0.00     0.135 A 
ATOM     78  F   UNL A   1      35.359  31.557  32.075  1.00  0.00    -0.206 F 
ATOM     79  C   UNL A   1      34.526  33.036  30.454  1.00  0.00     0.059 A 
ATOM     80  C   UNL A   1      36.068  34.398  29.162  1.00  0.00     0.059 A 
ATOM     81  F   UNL A   1      38.376  34.203  29.528  1.00  0.00    -0.206 F 
ATOM     82  C   UNL A   1      34.769  33.999  29.471  1.00  0.00     0.060 A 
BRANCH  82  83
ATOM     83  S   UNL A   1      33.360  34.763  28.637  1.00  0.00     0.124 S 
ATOM     84  O   UNL A   1      32.468  35.035  29.758  1.00  0.00    -0.237 OA
ATOM     85  O   UNL A   1      33.971  35.930  28.009  1.00  0.00    -0.237 OA
ATOM     86  O   UNL A   1      32.916  33.724  27.713  1.00  0.00    -0.744 OA
ENDBRANCH  82  83
ENDBRANCH  50  75
BRANCH  62  87
ATOM     87  C   UNL A   1      39.930  34.199  36.996  1.00  0.00     0.058 A 
ATOM     88  C   UNL A   1      39.167  33.918  38.139  1.00  0.00     0.135 A 
ATOM     89  C   UNL A   1      40.500  35.478  36.886  1.00  0.00     0.135 A 
ATOM     90  F   UNL A   1      38.593  32.713  38.289  1.00  0.00    -0.206 F 
ATOM     91  C   UNL A   1      38.961  34.875  39.129  1.00  0.00     0.059 A 
ATOM     92  C   UNL A   1      40.329  36.442  37.874  1.00  0.00     0.059 A 
ATOM     93  F   UNL A   1      41.247  35.795  35.817  1.00  0.00    -0.206 F 
ATOM     94  C   UNL A   1      39.548  36.134  38.988  1.00  0.00     0.060 A 
BRANCH  94  95
ATOM     95  S   UNL A   1      39.304  37.356  40.295  1.00  0.00     0.124 S 
ATOM     96  O   UNL A   1      38.517  38.371  39.604  1.00  0.00    -0.237 OA
ATOM     97  O   UNL A   1      38.595  36.588  41.314  1.00  0.00    -0.237 OA
ATOM     98  O   UNL A   1      40.666  37.748  40.650  1.00  0.00    -0.744 OA
ENDBRANCH  94  95
ENDBRANCH  62  87
ENDBRANCH  36  37
ENDBRANCH  29  31
ENDBRANCH  28  29
ENDBRANCH  27  28
ENDBRANCH  26  27
ENDBRANCH  25  26
ENDBRANCH   1  25
TORSDOF 22
ENDMDL
MODEL 2
REMARK VINA RESULT:     -10.0      1.174      2.030
REMARK SMILES COc1cccc(CC(=O)N[C@@](C)(C(=O)OCCOCCOC(=O)c2ccc(-c3c4nc(c(-c5c(F)cc(S(=O)(=O)[O-])cc5F)c5ccc([nH]5)c(-c5c(F)cc(S(=O)(=O)[O-])cc5F)c5nc(c(-c6c(F)cc(S(=O)(=O)[O-])cc6F)c6ccc3[nH]6)C=C5)C=C4)cc2)C(F)(F)F)c1
REMARK SMILES IDX 18 1 17 2 16 3 14 4 15 5 12 6 13 7 11 8 9 9 10 10 8 12 7 13
REMARK SMILES IDX 3 14 4 15 95 16 5 17 6 18 2 19 1 20 91 21 92 22 93 23 94 24
REMARK SMILES IDX 19 25 20 26 21 27 22 28 23 29 24 30 25 31 26 32 90 33 27 34
REMARK SMILES IDX 89 35 28 36 29 37 30 38 83 39 31 40 88 41 82 42 84 43 32 44
REMARK SMILES IDX 87 45 81 46 80 47 33 49 67 50 46 51 66 52 47 53 50 54 65 55
REMARK SMILES IDX 85 56 48 57 49 58 64 60 86 61 51 62 34 63 35 64 44 65 36 66
REMARK SMILES IDX 37 67 43 68 45 69 38 70 39 71 40 72 41 73 42 74 68 75 69 76
REMARK SMILES IDX 78 77 70 78 71 79 77 80 79 81 72 82 73 83 74 84 75 85 76 86
REMARK SMILES IDX 52 87 53 88 62 89 54 90 55 91 61 92 63 93 56 94 57 95 58 96
REMARK SMILES IDX 59 97 60 98
REMARK H PARENT 11 11 84 48 50 59
REMARK Flexibility Score: inf
ROOT
ATOM      1  C   UNL A   1      37.852  23.413  26.020  1.00  0.00     0.202 C 
ENDROOT
BRANCH   1   2
ATOM      2  C   UNL A   1      37.037  23.366  24.719  1.00  0.00     0.261 C 
BRANCH   2   3
ATOM      3  O   UNL A   1      35.623  23.486  24.944  1.00  0.00    -0.461 OA
BRANCH   3   4
ATOM      4  C   UNL A   1      34.838  23.204  23.867  1.00  0.00     0.341 C 
ATOM      5  O   UNL A   1      35.225  23.292  22.707  1.00  0.00    -0.249 OA
BRANCH   4   6
ATOM      6  C   UNL A   1      33.417  22.761  24.261  1.00  0.00     0.231 C 
ATOM      7  C   UNL A   1      32.600  22.791  22.960  1.00  0.00     0.058 C 
BRANCH   6   8
ATOM      8  N   UNL A   1      32.776  23.758  25.208  1.00  0.00    -0.333 N 
ATOM      9  C   UNL A   1      32.625  25.104  25.298  1.00  0.00     0.225 C 
ATOM     10  O   UNL A   1      32.418  25.543  26.437  1.00  0.00    -0.275 OA
ATOM     11  H   UNL A   1      32.353  23.302  25.970  1.00  0.00     0.164 HD
BRANCH   9  12
ATOM     12  C   UNL A   1      32.522  26.053  24.117  1.00  0.00     0.135 C 
BRANCH  12  13
ATOM     13  C   UNL A   1      31.169  26.631  23.809  1.00  0.00    -0.035 A 
ATOM     14  C   UNL A   1      29.851  28.601  23.263  1.00  0.00     0.119 A 
ATOM     15  C   UNL A   1      28.683  27.865  23.455  1.00  0.00     0.046 A 
ATOM     16  C   UNL A   1      31.087  27.961  23.355  1.00  0.00     0.050 A 
ATOM     17  C   UNL A   1      28.752  26.509  23.783  1.00  0.00     0.004 A 
ATOM     18  C   UNL A   1      29.991  25.894  23.968  1.00  0.00     0.004 A 
BRANCH  14  19
ATOM     19  O   UNL A   1      29.692  29.942  23.037  1.00  0.00    -0.497 OA
ATOM     20  C   UNL A   1      29.405  30.296  21.682  1.00  0.00     0.278 C 
ENDBRANCH  14  19
ENDBRANCH  12  13
ENDBRANCH   9  12
ENDBRANCH   6   8
BRANCH   6  21
ATOM     21  C   UNL A   1      33.617  21.314  24.728  1.00  0.00     0.422 C 
ATOM     22  F   UNL A   1      33.527  21.203  26.076  1.00  0.00    -0.168 F 
ATOM     23  F   UNL A   1      32.678  20.515  24.178  1.00  0.00    -0.168 F 
ATOM     24  F   UNL A   1      34.791  20.749  24.378  1.00  0.00    -0.168 F 
ENDBRANCH   6  21
ENDBRANCH   4   6
ENDBRANCH   3   4
ENDBRANCH   2   3
ENDBRANCH   1   2
BRANCH   1  25
ATOM     25  O   UNL A   1      38.757  22.344  26.269  1.00  0.00    -0.374 OA
BRANCH  25  26
ATOM     26  C   UNL A   1      39.993  22.642  26.920  1.00  0.00     0.202 C 
BRANCH  26  27
ATOM     27  C   UNL A   1      41.233  22.937  26.064  1.00  0.00     0.261 C 
BRANCH  27  28
ATOM     28  O   UNL A   1      42.003  24.063  26.539  1.00  0.00    -0.460 OA
BRANCH  28  29
ATOM     29  C   UNL A   1      41.390  25.261  26.407  1.00  0.00     0.338 C 
ATOM     30  O   UNL A   1      40.764  25.667  25.432  1.00  0.00    -0.246 OA
BRANCH  29  31
ATOM     31  C   UNL A   1      41.395  25.992  27.682  1.00  0.00     0.060 A 
ATOM     32  C   UNL A   1      40.230  25.963  28.463  1.00  0.00     0.016 A 
ATOM     33  C   UNL A   1      42.473  26.807  28.041  1.00  0.00     0.016 A 
ATOM     34  C   UNL A   1      40.126  26.780  29.587  1.00  0.00     0.010 A 
ATOM     35  C   UNL A   1      42.356  27.634  29.163  1.00  0.00     0.010 A 
ATOM     36  C   UNL A   1      41.171  27.650  29.922  1.00  0.00    -0.014 A 
BRANCH  36  37
ATOM     37  C   UNL A   1      40.961  28.674  30.974  1.00  0.00     0.031 A 
ATOM     38  C   UNL A   1      41.814  28.635  32.213  1.00  0.00     0.074 A 
ATOM     39  C   UNL A   1      40.045  29.645  30.812  1.00  0.00     0.049 A 
ATOM     40  N   UNL A   1      41.786  29.414  33.264  1.00  0.00    -0.248 NA
ATOM     41  C   UNL A   1      42.835  27.577  32.276  1.00  0.00     0.031 C 
ATOM     42  C   UNL A   1      39.188  29.808  29.639  1.00  0.00     0.029 A 
ATOM     43  N   UNL A   1      39.680  30.674  31.643  1.00  0.00    -0.354 N 
ATOM     44  C   UNL A   1      42.777  28.939  34.114  1.00  0.00     0.074 A 
ATOM     45  C   UNL A   1      43.373  27.789  33.468  1.00  0.00     0.031 C 
ATOM     46  C   UNL A   1      38.383  30.867  29.832  1.00  0.00     0.029 A 
ATOM     47  C   UNL A   1      38.649  31.439  31.152  1.00  0.00     0.049 A 
ATOM     48  H   UNL A   1      40.115  30.847  32.509  1.00  0.00     0.167 HD
ATOM     49  C   UNL A   1      43.159  29.420  35.321  1.00  0.00     0.037 A 
ATOM     50  C   UNL A   1      37.984  32.469  31.711  1.00  0.00     0.037 A 
ATOM     51  C   UNL A   1      42.562  30.564  35.961  1.00  0.00     0.049 A 
ATOM     52  C   UNL A   1      38.389  32.953  33.079  1.00  0.00     0.074 A 
ATOM     53  C   UNL A   1      42.892  31.143  37.174  1.00  0.00     0.029 A 
ATOM     54  N   UNL A   1      41.506  31.299  35.441  1.00  0.00    -0.354 N 
ATOM     55  N   UNL A   1      39.344  32.510  33.861  1.00  0.00    -0.248 NA
ATOM     56  C   UNL A   1      37.627  34.079  33.640  1.00  0.00     0.031 C 
ATOM     57  C   UNL A   1      42.007  32.201  37.408  1.00  0.00     0.029 A 
ATOM     58  C   UNL A   1      41.155  32.310  36.320  1.00  0.00     0.049 A 
ATOM     59  H   UNL A   1      41.070  31.126  34.576  1.00  0.00     0.167 HD
ATOM     60  C   UNL A   1      39.315  33.316  34.995  1.00  0.00     0.074 A 
ATOM     61  C   UNL A   1      38.253  34.281  34.793  1.00  0.00     0.031 C 
ATOM     62  C   UNL A   1      40.097  33.265  36.101  1.00  0.00     0.037 A 
BRANCH  49  63
ATOM     63  C   UNL A   1      44.259  28.693  36.042  1.00  0.00     0.058 A 
ATOM     64  C   UNL A   1      43.995  27.602  36.886  1.00  0.00     0.135 A 
ATOM     65  C   UNL A   1      45.599  29.076  35.869  1.00  0.00     0.135 A 
ATOM     66  F   UNL A   1      42.730  27.204  37.101  1.00  0.00    -0.206 F 
ATOM     67  C   UNL A   1      45.017  26.933  37.552  1.00  0.00     0.059 A 
ATOM     68  C   UNL A   1      46.639  28.408  36.506  1.00  0.00     0.059 A 
ATOM     69  F   UNL A   1      45.907  30.114  35.075  1.00  0.00    -0.206 F 
ATOM     70  C   UNL A   1      46.336  27.346  37.359  1.00  0.00     0.060 A 
BRANCH  70  71
ATOM     71  S   UNL A   1      47.654  26.472  38.232  1.00  0.00     0.124 S 
ATOM     72  O   UNL A   1      46.888  25.661  39.173  1.00  0.00    -0.237 OA
ATOM     73  O   UNL A   1      48.312  25.741  37.154  1.00  0.00    -0.237 OA
ATOM     74  O   UNL A   1      48.439  27.548  38.826  1.00  0.00    -0.744 OA
ENDBRANCH  70  71
ENDBRANCH  49  63
BRANCH  50  75
ATOM     75  C   UNL A   1      36.854  33.102  30.981  1.00  0.00     0.058 A 
ATOM     76  C   UNL A   1      37.081  34.012  29.939  1.00  0.00     0.135 A 
ATOM     77  C   UNL A   1      35.523  32.799  31.308  1.00  0.00     0.135 A 
ATOM     78  F   UNL A   1      38.336  34.342  29.598  1.00  0.00    -0.206 F 
ATOM     79  C   UNL A   1      36.030  34.607  29.249  1.00  0.00     0.059 A 
ATOM     80  C   UNL A   1      34.455  33.362  30.617  1.00  0.00     0.059 A 
ATOM     81  F   UNL A   1      35.253  31.928  32.291  1.00  0.00    -0.206 F 
ATOM     82  C   UNL A   1      34.718  34.271  29.594  1.00  0.00     0.060 A 
BRANCH  82  83
ATOM     83  S   UNL A   1      33.359  34.998  28.652  1.00  0.00     0.124 S 
ATOM     84  O   UNL A   1      32.527  35.548  29.716  1.00  0.00    -0.237 OA
ATOM     85  O   UNL A   1      34.052  35.972  27.815  1.00  0.00    -0.237 OA
ATOM     86  O   UNL A   1      32.799  33.855  27.938  1.00  0.00    -0.744 OA
ENDBRANCH  82  83
ENDBRANCH  50  75
BRANCH  62  87
ATOM     87  C   UNL A   1      39.858  34.296  37.169  1.00  0.00     0.058 A 
ATOM     88  C   UNL A   1      39.016  34.043  38.262  1.00  0.00     0.135 A 
ATOM     89  C   UNL A   1      40.524  35.533  37.125  1.00  0.00     0.135 A 
ATOM     90  F   UNL A   1      38.351  32.879  38.349  1.00  0.00    -0.206 F 
ATOM     91  C   UNL A   1      38.826  34.988  39.267  1.00  0.00     0.059 A 
ATOM     92  C   UNL A   1      40.368  36.482  38.130  1.00  0.00     0.059 A 
ATOM     93  F   UNL A   1      41.348  35.820  36.106  1.00  0.00    -0.206 F 
ATOM     94  C   UNL A   1      39.508  36.204  39.192  1.00  0.00     0.060 A 
BRANCH  94  95
ATOM     95  S   UNL A   1      39.282  37.409  40.518  1.00  0.00     0.124 S 
ATOM     96  O   UNL A   1      40.603  38.024  40.584  1.00  0.00    -0.237 OA
ATOM     97  O   UNL A   1      38.213  38.254  39.995  1.00  0.00    -0.237 OA
ATOM     98  O   UNL A   1      38.914  36.584  41.666  1.00  0.00    -0.744 OA
ENDBRANCH  94  95
ENDBRANCH  62  87
ENDBRANCH  36  37
ENDBRANCH  29  31
ENDBRANCH  28  29
ENDBRANCH  27  28
ENDBRANCH  26  27
ENDBRANCH  25  26
ENDBRANCH   1  25
TORSDOF 22
ENDMDL
MODEL 3
REMARK VINA RESULT:     -10.0      1.522      8.288
REMARK SMILES COc1cccc(CC(=O)N[C@@](C)(C(=O)OCCOCCOC(=O)c2ccc(-c3c4nc(c(-c5c(F)cc(S(=O)(=O)[O-])cc5F)c5ccc([nH]5)c(-c5c(F)cc(S(=O)(=O)[O-])cc5F)c5nc(c(-c6c(F)cc(S(=O)(=O)[O-])cc6F)c6ccc3[nH]6)C=C5)C=C4)cc2)C(F)(F)F)c1
REMARK SMILES IDX 18 1 17 2 16 3 14 4 15 5 12 6 13 7 11 8 9 9 10 10 8 12 7 13
REMARK SMILES IDX 3 14 4 15 95 16 5 17 6 18 2 19 1 20 91 21 92 22 93 23 94 24
REMARK SMILES IDX 19 25 20 26 21 27 22 28 23 29 24 30 25 31 26 32 90 33 27 34
REMARK SMILES IDX 89 35 28 36 29 37 30 38 83 39 31 40 88 41 82 42 84 43 32 44
REMARK SMILES IDX 87 45 81 46 80 47 33 49 67 50 46 51 66 52 47 53 50 54 65 55
REMARK SMILES IDX 85 56 48 57 49 58 64 60 86 61 51 62 34 63 35 64 44 65 36 66
REMARK SMILES IDX 37 67 43 68 45 69 38 70 39 71 40 72 41 73 42 74 68 75 69 76
REMARK SMILES IDX 78 77 70 78 71 79 77 80 79 81 72 82 73 83 74 84 75 85 76 86
REMARK SMILES IDX 52 87 53 88 62 89 54 90 55 91 61 92 63 93 56 94 57 95 58 96
REMARK SMILES IDX 59 97 60 98
REMARK H PARENT 11 11 84 48 50 59
REMARK Flexibility Score: inf
ROOT
ATOM      1  C   UNL A   1      37.785  21.723  25.012  1.00  0.00     0.202 C 
ENDROOT
BRANCH   1   2
ATOM      2  C   UNL A   1      36.301  21.426  25.270  1.00  0.00     0.261 C 
BRANCH   2   3
ATOM      3  O   UNL A   1      35.544  22.606  25.590  1.00  0.00    -0.461 OA
BRANCH   3   4
ATOM      4  C   UNL A   1      34.221  22.397  25.836  1.00  0.00     0.341 C 
ATOM      5  O   UNL A   1      33.802  21.506  26.565  1.00  0.00    -0.249 OA
BRANCH   4   6
ATOM      6  C   UNL A   1      33.311  23.402  25.104  1.00  0.00     0.231 C 
ATOM      7  C   UNL A   1      34.058  24.743  25.149  1.00  0.00     0.058 C 
BRANCH   6   8
ATOM      8  N   UNL A   1      32.004  23.598  25.849  1.00  0.00    -0.333 N 
ATOM      9  C   UNL A   1      30.917  24.409  25.775  1.00  0.00     0.225 C 
ATOM     10  O   UNL A   1      30.273  24.533  26.824  1.00  0.00    -0.275 OA
ATOM     11  H   UNL A   1      31.921  22.960  26.594  1.00  0.00     0.164 HD
BRANCH   9  12
ATOM     12  C   UNL A   1      30.361  25.010  24.497  1.00  0.00     0.135 C 
BRANCH  12  13
ATOM     13  C   UNL A   1      30.456  26.501  24.334  1.00  0.00    -0.035 A 
ATOM     14  C   UNL A   1      29.996  28.453  22.957  1.00  0.00     0.119 A 
ATOM     15  C   UNL A   1      30.782  29.229  23.806  1.00  0.00     0.046 A 
ATOM     16  C   UNL A   1      29.765  27.113  23.271  1.00  0.00     0.050 A 
ATOM     17  C   UNL A   1      31.371  28.659  24.937  1.00  0.00     0.004 A 
ATOM     18  C   UNL A   1      31.216  27.296  25.198  1.00  0.00     0.004 A 
BRANCH  14  19
ATOM     19  O   UNL A   1      29.535  29.069  21.825  1.00  0.00    -0.497 OA
ATOM     20  C   UNL A   1      28.409  29.928  22.020  1.00  0.00     0.278 C 
ENDBRANCH  14  19
ENDBRANCH  12  13
ENDBRANCH   9  12
ENDBRANCH   6   8
BRANCH   6  21
ATOM     21  C   UNL A   1      33.275  22.862  23.669  1.00  0.00     0.422 C 
ATOM     22  F   UNL A   1      34.300  23.343  22.925  1.00  0.00    -0.168 F 
ATOM     23  F   UNL A   1      33.358  21.515  23.678  1.00  0.00    -0.168 F 
ATOM     24  F   UNL A   1      32.147  23.127  22.978  1.00  0.00    -0.168 F 
ENDBRANCH   6  21
ENDBRANCH   4   6
ENDBRANCH   3   4
ENDBRANCH   2   3
ENDBRANCH   1   2
BRANCH   1  25
ATOM     25  O   UNL A   1      38.744  21.012  25.786  1.00  0.00    -0.374 OA
BRANCH  25  26
ATOM     26  C   UNL A   1      39.667  21.764  26.575  1.00  0.00     0.202 C 
BRANCH  26  27
ATOM     27  C   UNL A   1      39.620  23.297  26.519  1.00  0.00     0.261 C 
BRANCH  27  28
ATOM     28  O   UNL A   1      40.797  23.928  27.070  1.00  0.00    -0.460 OA
BRANCH  28  29
ATOM     29  C   UNL A   1      41.055  25.163  26.582  1.00  0.00     0.338 C 
ATOM     30  O   UNL A   1      41.389  25.450  25.436  1.00  0.00    -0.246 OA
BRANCH  29  31
ATOM     31  C   UNL A   1      40.700  26.196  27.566  1.00  0.00     0.060 A 
ATOM     32  C   UNL A   1      41.501  27.346  27.633  1.00  0.00     0.016 A 
ATOM     33  C   UNL A   1      39.686  25.979  28.503  1.00  0.00     0.016 A 
ATOM     34  C   UNL A   1      41.312  28.266  28.662  1.00  0.00     0.010 A 
ATOM     35  C   UNL A   1      39.510  26.901  29.541  1.00  0.00     0.010 A 
ATOM     36  C   UNL A   1      40.344  28.030  29.645  1.00  0.00    -0.014 A 
BRANCH  36  37
ATOM     37  C   UNL A   1      40.305  28.888  30.854  1.00  0.00     0.031 A 
ATOM     38  C   UNL A   1      39.302  30.007  30.926  1.00  0.00     0.074 A 
ATOM     39  C   UNL A   1      41.133  28.652  31.888  1.00  0.00     0.049 A 
ATOM     40  N   UNL A   1      39.110  30.889  31.874  1.00  0.00    -0.248 NA
ATOM     41  C   UNL A   1      38.393  30.151  29.778  1.00  0.00     0.031 C 
ATOM     42  C   UNL A   1      42.120  27.576  31.949  1.00  0.00     0.029 A 
ATOM     43  N   UNL A   1      41.277  29.311  33.083  1.00  0.00    -0.354 N 
ATOM     44  C   UNL A   1      38.066  31.695  31.435  1.00  0.00     0.074 A 
ATOM     45  C   UNL A   1      37.681  31.212  30.126  1.00  0.00     0.031 C 
ATOM     46  C   UNL A   1      42.781  27.657  33.117  1.00  0.00     0.029 A 
ATOM     47  C   UNL A   1      42.283  28.806  33.872  1.00  0.00     0.049 A 
ATOM     48  H   UNL A   1      40.715  30.074  33.349  1.00  0.00     0.167 HD
ATOM     49  C   UNL A   1      37.478  32.738  32.068  1.00  0.00     0.037 A 
ATOM     50  C   UNL A   1      42.759  29.234  35.058  1.00  0.00     0.037 A 
ATOM     51  C   UNL A   1      37.865  33.214  33.371  1.00  0.00     0.049 A 
ATOM     52  C   UNL A   1      42.128  30.431  35.719  1.00  0.00     0.074 A 
ATOM     53  C   UNL A   1      37.318  34.251  34.106  1.00  0.00     0.029 A 
ATOM     54  N   UNL A   1      38.902  32.690  34.128  1.00  0.00    -0.354 N 
ATOM     55  N   UNL A   1      41.125  31.168  35.304  1.00  0.00    -0.248 NA
ATOM     56  C   UNL A   1      42.689  30.853  37.010  1.00  0.00     0.031 C 
ATOM     57  C   UNL A   1      38.053  34.382  35.290  1.00  0.00     0.029 A 
ATOM     58  C   UNL A   1      39.028  33.398  35.312  1.00  0.00     0.049 A 
ATOM     59  H   UNL A   1      39.467  31.929  33.863  1.00  0.00     0.167 HD
ATOM     60  C   UNL A   1      40.920  32.126  36.292  1.00  0.00     0.074 A 
ATOM     61  C   UNL A   1      41.898  31.868  37.330  1.00  0.00     0.031 C 
ATOM     62  C   UNL A   1      40.005  33.125  36.338  1.00  0.00     0.037 A 
BRANCH  49  63
ATOM     63  C   UNL A   1      36.369  33.452  31.347  1.00  0.00     0.058 A 
ATOM     64  C   UNL A   1      35.052  33.450  31.831  1.00  0.00     0.135 A 
ATOM     65  C   UNL A   1      36.633  34.170  30.170  1.00  0.00     0.135 A 
ATOM     66  F   UNL A   1      34.740  32.765  32.944  1.00  0.00    -0.206 F 
ATOM     67  C   UNL A   1      34.028  34.113  31.159  1.00  0.00     0.059 A 
ATOM     68  C   UNL A   1      35.631  34.860  29.494  1.00  0.00     0.059 A 
ATOM     69  F   UNL A   1      37.876  34.203  29.663  1.00  0.00    -0.206 F 
ATOM     70  C   UNL A   1      34.328  34.812  29.989  1.00  0.00     0.060 A 
BRANCH  70  71
ATOM     71  S   UNL A   1      32.992  35.665  29.124  1.00  0.00     0.124 S 
ATOM     72  O   UNL A   1      32.476  34.602  28.267  1.00  0.00    -0.237 OA
ATOM     73  O   UNL A   1      32.120  36.074  30.221  1.00  0.00    -0.237 OA
ATOM     74  O   UNL A   1      33.675  36.752  28.431  1.00  0.00    -0.744 OA
ENDBRANCH  70  71
ENDBRANCH  49  63
BRANCH  50  75
ATOM     75  C   UNL A   1      43.908  28.532  35.689  1.00  0.00     0.058 A 
ATOM     76  C   UNL A   1      43.709  27.469  36.582  1.00  0.00     0.135 A 
ATOM     77  C   UNL A   1      45.230  28.905  35.400  1.00  0.00     0.135 A 
ATOM     78  F   UNL A   1      42.463  27.084  36.898  1.00  0.00    -0.206 F 
ATOM     79  C   UNL A   1      44.778  26.805  37.174  1.00  0.00     0.059 A 
ATOM     80  C   UNL A   1      46.316  28.242  35.961  1.00  0.00     0.059 A 
ATOM     81  F   UNL A   1      45.474  29.909  34.545  1.00  0.00    -0.206 F 
ATOM     82  C   UNL A   1      46.079  27.197  36.853  1.00  0.00     0.060 A 
BRANCH  82  83
ATOM     83  S   UNL A   1      47.463  26.289  37.577  1.00  0.00     0.124 S 
ATOM     84  O   UNL A   1      47.032  24.908  37.400  1.00  0.00    -0.237 OA
ATOM     85  O   UNL A   1      48.583  26.721  36.747  1.00  0.00    -0.237 OA
ATOM     86  O   UNL A   1      47.493  26.770  38.956  1.00  0.00    -0.744 OA
ENDBRANCH  82  83
ENDBRANCH  50  75
BRANCH  62  87
ATOM     87  C   UNL A   1      39.993  34.000  37.561  1.00  0.00     0.058 A 
ATOM     88  C   UNL A   1      39.250  33.662  38.702  1.00  0.00     0.135 A 
ATOM     89  C   UNL A   1      40.779  35.164  37.610  1.00  0.00     0.135 A 
ATOM     90  F   UNL A   1      38.477  32.563  38.704  1.00  0.00    -0.206 F 
ATOM     91  C   UNL A   1      39.271  34.456  39.845  1.00  0.00     0.059 A 
ATOM     92  C   UNL A   1      40.835  35.960  38.750  1.00  0.00     0.059 A 
ATOM     93  F   UNL A   1      41.516  35.527  36.549  1.00  0.00    -0.206 F 
ATOM     94  C   UNL A   1      40.068  35.602  39.859  1.00  0.00     0.060 A 
BRANCH  94  95
ATOM     95  S   UNL A   1      40.115  36.607  41.359  1.00  0.00     0.124 S 
ATOM     96  O   UNL A   1      41.533  36.942  41.443  1.00  0.00    -0.237 OA
ATOM     97  O   UNL A   1      39.222  37.713  41.024  1.00  0.00    -0.237 OA
ATOM     98  O   UNL A   1      39.620  35.700  42.390  1.00  0.00    -0.744 OA
ENDBRANCH  94  95
ENDBRANCH  62  87
ENDBRANCH  36  37
ENDBRANCH  29  31
ENDBRANCH  28  29
ENDBRANCH  27  28
ENDBRANCH  26  27
ENDBRANCH  25  26
ENDBRANCH   1  25
TORSDOF 22
ENDMDL
