MODEL 1
REMARK VINA RESULT:     -10.9      0.000      0.000
REMARK SMILES CCc1ccc(C(=O)NCc2ccc(C(=O)OCCOCCOC(=O)c3ccc(-c4c5nc(c(-c6c(F)cc(S(=O)(=O)[O-])cc6F)c6ccc([nH]6)c(-c6c(F)cc(S(=O)(=O)[O-])cc6F)c6nc(c(-c7c(F)cc(S(=O)(=O)[O-])cc7F)c7ccc4[nH]7)C=C6)C=C5)cc3)cc2)cc1
REMARK SMILES IDX 19 1 18 2 17 3 15 4 16 5 14 6 11 7 12 8 93 9 13 10 92 11
REMARK SMILES IDX 10 12 9 13 7 14 8 15 6 17 3 18 4 19 95 20 5 21 94 22 2 23
REMARK SMILES IDX 1 24 20 25 21 26 22 27 23 28 24 29 25 30 26 31 27 32 91 33
REMARK SMILES IDX 28 34 90 35 29 36 30 37 31 38 84 39 32 40 89 41 83 42 85 43
REMARK SMILES IDX 33 44 88 45 82 46 81 47 34 49 68 50 47 51 67 52 48 53 51 54
REMARK SMILES IDX 66 55 86 56 49 57 50 58 65 60 87 61 52 62 35 63 36 64 45 65
REMARK SMILES IDX 37 66 38 67 44 68 46 69 39 70 40 71 41 72 42 73 43 74 69 75
REMARK SMILES IDX 70 76 79 77 71 78 72 79 78 80 80 81 73 82 74 83 75 84 76 85
REMARK SMILES IDX 77 86 53 87 54 88 63 89 55 90 56 91 62 92 64 93 57 94 58 95
REMARK SMILES IDX 59 96 60 97 61 98
REMARK H PARENT 9 16 85 48 51 59
REMARK Flexibility Score: inf
ROOT
ATOM      1  C   UNL A   1      41.021  21.262  27.553  1.00  0.00     0.202 C 
ENDROOT
BRANCH   1   2
ATOM      2  C   UNL A   1      40.319  20.988  26.219  1.00  0.00     0.261 C 
BRANCH   2   3
ATOM      3  O   UNL A   1      39.124  21.775  26.087  1.00  0.00    -0.460 OA
BRANCH   3   4
ATOM      4  C   UNL A   1      38.160  21.218  25.317  1.00  0.00     0.338 C 
ATOM      5  O   UNL A   1      38.035  20.032  25.041  1.00  0.00    -0.246 OA
BRANCH   4   6
ATOM      6  C   UNL A   1      37.143  22.226  24.939  1.00  0.00     0.060 A 
ATOM      7  C   UNL A   1      35.138  24.135  24.408  1.00  0.00    -0.029 A 
ATOM      8  C   UNL A   1      35.800  24.119  25.643  1.00  0.00     0.006 A 
ATOM      9  C   UNL A   1      35.553  23.228  23.418  1.00  0.00     0.006 A 
ATOM     10  C   UNL A   1      36.792  23.174  25.906  1.00  0.00     0.016 A 
ATOM     11  C   UNL A   1      36.541  22.271  23.679  1.00  0.00     0.016 A 
BRANCH   7  12
ATOM     12  C   UNL A   1      33.977  25.080  24.201  1.00  0.00     0.152 C 
BRANCH  12  13
ATOM     13  N   UNL A   1      32.943  24.911  25.193  1.00  0.00    -0.348 N 
ATOM     14  C   UNL A   1      32.410  23.821  25.825  1.00  0.00     0.251 C 
ATOM     15  O   UNL A   1      31.733  24.052  26.831  1.00  0.00    -0.269 OA
ATOM     16  H   UNL A   1      32.536  25.761  25.475  1.00  0.00     0.164 HD
BRANCH  14  17
ATOM     17  C   UNL A   1      32.576  22.403  25.381  1.00  0.00     0.039 A 
ATOM     18  C   UNL A   1      32.963  19.817  24.274  1.00  0.00    -0.048 A 
ATOM     19  C   UNL A   1      32.295  20.806  23.548  1.00  0.00     0.004 A 
ATOM     20  C   UNL A   1      33.438  20.133  25.550  1.00  0.00     0.004 A 
ATOM     21  C   UNL A   1      32.104  22.081  24.097  1.00  0.00     0.014 A 
ATOM     22  C   UNL A   1      33.249  21.409  26.091  1.00  0.00     0.014 A 
BRANCH  18  23
ATOM     23  C   UNL A   1      33.213  18.453  23.683  1.00  0.00     0.032 C 
ATOM     24  C   UNL A   1      32.332  18.166  22.474  1.00  0.00     0.009 C 
ENDBRANCH  18  23
ENDBRANCH  14  17
ENDBRANCH  12  13
ENDBRANCH   7  12
ENDBRANCH   4   6
ENDBRANCH   3   4
ENDBRANCH   2   3
ENDBRANCH   1   2
BRANCH   1  25
ATOM     25  O   UNL A   1      42.335  21.817  27.468  1.00  0.00    -0.374 OA
BRANCH  25  26
ATOM     26  C   UNL A   1      42.806  22.158  26.162  1.00  0.00     0.202 C 
BRANCH  26  27
ATOM     27  C   UNL A   1      42.890  23.655  25.838  1.00  0.00     0.261 C 
BRANCH  27  28
ATOM     28  O   UNL A   1      41.680  24.347  26.199  1.00  0.00    -0.460 OA
BRANCH  28  29
ATOM     29  C   UNL A   1      41.718  25.689  26.034  1.00  0.00     0.338 C 
ATOM     30  O   UNL A   1      41.587  26.308  24.984  1.00  0.00    -0.246 OA
BRANCH  29  31
ATOM     31  C   UNL A   1      41.754  26.357  27.348  1.00  0.00     0.060 A 
ATOM     32  C   UNL A   1      40.752  26.025  28.270  1.00  0.00     0.016 A 
ATOM     33  C   UNL A   1      42.709  27.329  27.659  1.00  0.00     0.016 A 
ATOM     34  C   UNL A   1      40.669  26.700  29.485  1.00  0.00     0.010 A 
ATOM     35  C   UNL A   1      42.619  28.011  28.877  1.00  0.00     0.010 A 
ATOM     36  C   UNL A   1      41.578  27.724  29.779  1.00  0.00    -0.014 A 
BRANCH  36  37
ATOM     37  C   UNL A   1      41.348  28.589  30.962  1.00  0.00     0.031 A 
ATOM     38  C   UNL A   1      40.222  29.588  30.928  1.00  0.00     0.074 A 
ATOM     39  C   UNL A   1      42.111  28.468  32.062  1.00  0.00     0.049 A 
ATOM     40  N   UNL A   1      39.854  30.454  31.834  1.00  0.00    -0.248 NA
ATOM     41  C   UNL A   1      39.405  29.611  29.704  1.00  0.00     0.031 C 
ATOM     42  C   UNL A   1      43.206  27.514  32.228  1.00  0.00     0.029 A 
ATOM     43  N   UNL A   1      42.082  29.157  33.248  1.00  0.00    -0.354 N 
ATOM     44  C   UNL A   1      38.768  31.132  31.290  1.00  0.00     0.074 A 
ATOM     45  C   UNL A   1      38.556  30.595  29.963  1.00  0.00     0.031 C 
ATOM     46  C   UNL A   1      43.751  27.683  33.445  1.00  0.00     0.029 A 
ATOM     47  C   UNL A   1      43.064  28.777  34.130  1.00  0.00     0.049 A 
ATOM     48  H   UNL A   1      41.422  29.860  33.447  1.00  0.00     0.167 HD
ATOM     49  C   UNL A   1      38.012  32.107  31.850  1.00  0.00     0.037 A 
ATOM     50  C   UNL A   1      43.381  29.267  35.345  1.00  0.00     0.037 A 
ATOM     51  C   UNL A   1      38.228  32.636  33.172  1.00  0.00     0.049 A 
ATOM     52  C   UNL A   1      42.566  30.394  35.924  1.00  0.00     0.074 A 
ATOM     53  C   UNL A   1      37.502  33.608  33.839  1.00  0.00     0.029 A 
ATOM     54  N   UNL A   1      39.251  32.248  34.023  1.00  0.00    -0.354 N 
ATOM     55  N   UNL A   1      41.527  31.007  35.411  1.00  0.00    -0.248 NA
ATOM     56  C   UNL A   1      42.966  30.893  37.247  1.00  0.00     0.031 C 
ATOM     57  C   UNL A   1      38.117  33.840  35.074  1.00  0.00     0.029 A 
ATOM     58  C   UNL A   1      39.195  32.978  35.198  1.00  0.00     0.049 A 
ATOM     59  H   UNL A   1      39.921  31.554  33.821  1.00  0.00     0.167 HD
ATOM     60  C   UNL A   1      41.132  31.947  36.357  1.00  0.00     0.074 A 
ATOM     61  C   UNL A   1      42.041  31.815  37.478  1.00  0.00     0.031 C 
ATOM     62  C   UNL A   1      40.108  32.836  36.306  1.00  0.00     0.037 A 
BRANCH  49  63
ATOM     63  C   UNL A   1      36.900  32.682  31.017  1.00  0.00     0.058 A 
ATOM     64  C   UNL A   1      35.569  32.262  31.168  1.00  0.00     0.135 A 
ATOM     65  C   UNL A   1      37.170  33.673  30.060  1.00  0.00     0.135 A 
ATOM     66  F   UNL A   1      35.257  31.305  32.056  1.00  0.00    -0.206 F 
ATOM     67  C   UNL A   1      34.550  32.779  30.373  1.00  0.00     0.059 A 
ATOM     68  C   UNL A   1      36.162  34.224  29.273  1.00  0.00     0.059 A 
ATOM     69  F   UNL A   1      38.425  34.110  29.874  1.00  0.00    -0.206 F 
ATOM     70  C   UNL A   1      34.858  33.756  29.425  1.00  0.00     0.060 A 
BRANCH  70  71
ATOM     71  S   UNL A   1      33.529  34.405  28.389  1.00  0.00     0.124 S 
ATOM     72  O   UNL A   1      32.588  34.889  29.395  1.00  0.00    -0.237 OA
ATOM     73  O   UNL A   1      34.212  35.435  27.612  1.00  0.00    -0.237 OA
ATOM     74  O   UNL A   1      33.091  33.238  27.628  1.00  0.00    -0.744 OA
ENDBRANCH  70  71
ENDBRANCH  49  63
BRANCH  50  75
ATOM     75  C   UNL A   1      44.530  28.692  36.095  1.00  0.00     0.058 A 
ATOM     76  C   UNL A   1      44.356  27.605  36.964  1.00  0.00     0.135 A 
ATOM     77  C   UNL A   1      45.827  29.203  35.939  1.00  0.00     0.135 A 
ATOM     78  F   UNL A   1      43.132  27.089  37.156  1.00  0.00    -0.206 F 
ATOM     79  C   UNL A   1      45.426  27.046  37.654  1.00  0.00     0.059 A 
ATOM     80  C   UNL A   1      46.917  28.648  36.600  1.00  0.00     0.059 A 
ATOM     81  F   UNL A   1      46.047  30.237  35.111  1.00  0.00    -0.206 F 
ATOM     82  C   UNL A   1      46.705  27.571  37.461  1.00  0.00     0.060 A 
BRANCH  82  83
ATOM     83  S   UNL A   1      48.099  26.794  38.307  1.00  0.00     0.124 S 
ATOM     84  O   UNL A   1      48.134  25.482  37.673  1.00  0.00    -0.237 OA
ATOM     85  O   UNL A   1      49.199  27.695  37.973  1.00  0.00    -0.237 OA
ATOM     86  O   UNL A   1      47.691  26.810  39.708  1.00  0.00    -0.744 OA
ENDBRANCH  82  83
ENDBRANCH  50  75
BRANCH  62  87
ATOM     87  C   UNL A   1      39.893  33.718  37.505  1.00  0.00     0.058 A 
ATOM     88  C   UNL A   1      40.572  34.938  37.656  1.00  0.00     0.135 A 
ATOM     89  C   UNL A   1      38.956  33.364  38.489  1.00  0.00     0.135 A 
ATOM     90  F   UNL A   1      41.485  35.319  36.747  1.00  0.00    -0.206 F 
ATOM     91  C   UNL A   1      40.344  35.765  38.750  1.00  0.00     0.059 A 
ATOM     92  C   UNL A   1      38.693  34.189  39.578  1.00  0.00     0.059 A 
ATOM     93  F   UNL A   1      38.271  32.214  38.388  1.00  0.00    -0.206 F 
ATOM     94  C   UNL A   1      39.401  35.383  39.707  1.00  0.00     0.060 A 
BRANCH  94  95
ATOM     95  S   UNL A   1      39.089  36.482  41.105  1.00  0.00     0.124 S 
ATOM     96  O   UNL A   1      38.620  37.689  40.431  1.00  0.00    -0.237 OA
ATOM     97  O   UNL A   1      38.081  35.747  41.862  1.00  0.00    -0.237 OA
ATOM     98  O   UNL A   1      40.393  36.590  41.751  1.00  0.00    -0.744 OA
ENDBRANCH  94  95
ENDBRANCH  62  87
ENDBRANCH  36  37
ENDBRANCH  29  31
ENDBRANCH  28  29
ENDBRANCH  27  28
ENDBRANCH  26  27
ENDBRANCH  25  26
ENDBRANCH   1  25
TORSDOF 21
ENDMDL
MODEL 2
REMARK VINA RESULT:     -10.8      6.451     11.982
REMARK SMILES CCc1ccc(C(=O)NCc2ccc(C(=O)OCCOCCOC(=O)c3ccc(-c4c5nc(c(-c6c(F)cc(S(=O)(=O)[O-])cc6F)c6ccc([nH]6)c(-c6c(F)cc(S(=O)(=O)[O-])cc6F)c6nc(c(-c7c(F)cc(S(=O)(=O)[O-])cc7F)c7ccc4[nH]7)C=C6)C=C5)cc3)cc2)cc1
REMARK SMILES IDX 19 1 18 2 17 3 15 4 16 5 14 6 11 7 12 8 93 9 13 10 92 11
REMARK SMILES IDX 10 12 9 13 7 14 8 15 6 17 3 18 4 19 95 20 5 21 94 22 2 23
REMARK SMILES IDX 1 24 20 25 21 26 22 27 23 28 24 29 25 30 26 31 27 32 91 33
REMARK SMILES IDX 28 34 90 35 29 36 30 37 31 38 84 39 32 40 89 41 83 42 85 43
REMARK SMILES IDX 33 44 88 45 82 46 81 47 34 49 68 50 47 51 67 52 48 53 51 54
REMARK SMILES IDX 66 55 86 56 49 57 50 58 65 60 87 61 52 62 35 63 36 64 45 65
REMARK SMILES IDX 37 66 38 67 44 68 46 69 39 70 40 71 41 72 42 73 43 74 69 75
REMARK SMILES IDX 70 76 79 77 71 78 72 79 78 80 80 81 73 82 74 83 75 84 76 85
REMARK SMILES IDX 77 86 53 87 54 88 63 89 55 90 56 91 62 92 64 93 57 94 58 95
REMARK SMILES IDX 59 96 60 97 61 98
REMARK H PARENT 9 16 85 48 51 59
REMARK Flexibility Score: inf
ROOT
ATOM      1  C   UNL A   1      34.877  33.107  27.842  1.00  0.00     0.202 C 
ENDROOT
BRANCH   1   2
ATOM      2  C   UNL A   1      34.315  31.802  28.416  1.00  0.00     0.261 C 
BRANCH   2   3
ATOM      3  O   UNL A   1      33.789  30.960  27.378  1.00  0.00    -0.460 OA
BRANCH   3   4
ATOM      4  C   UNL A   1      34.502  29.832  27.146  1.00  0.00     0.338 C 
ATOM      5  O   UNL A   1      35.712  29.691  27.270  1.00  0.00    -0.246 OA
BRANCH   4   6
ATOM      6  C   UNL A   1      33.602  28.694  26.849  1.00  0.00     0.060 A 
ATOM      7  C   UNL A   1      31.801  26.560  26.462  1.00  0.00    -0.029 A 
ATOM      8  C   UNL A   1      31.387  27.738  27.098  1.00  0.00     0.006 A 
ATOM      9  C   UNL A   1      33.111  26.502  25.954  1.00  0.00     0.006 A 
ATOM     10  C   UNL A   1      32.278  28.793  27.291  1.00  0.00     0.016 A 
ATOM     11  C   UNL A   1      34.013  27.555  26.153  1.00  0.00     0.016 A 
BRANCH   7  12
ATOM     12  C   UNL A   1      30.855  25.384  26.388  1.00  0.00     0.152 C 
BRANCH  12  13
ATOM     13  N   UNL A   1      30.798  24.803  25.069  1.00  0.00    -0.348 N 
ATOM     14  C   UNL A   1      30.461  25.292  23.836  1.00  0.00     0.251 C 
ATOM     15  O   UNL A   1      30.793  24.603  22.867  1.00  0.00    -0.269 OA
ATOM     16  H   UNL A   1      31.057  23.854  25.052  1.00  0.00     0.164 HD
BRANCH  14  17
ATOM     17  C   UNL A   1      29.721  26.568  23.590  1.00  0.00     0.039 A 
ATOM     18  C   UNL A   1      28.442  28.995  22.859  1.00  0.00    -0.048 A 
ATOM     19  C   UNL A   1      29.791  28.787  22.562  1.00  0.00     0.004 A 
ATOM     20  C   UNL A   1      27.740  27.980  23.517  1.00  0.00     0.004 A 
ATOM     21  C   UNL A   1      30.420  27.589  22.925  1.00  0.00     0.014 A 
ATOM     22  C   UNL A   1      28.373  26.785  23.872  1.00  0.00     0.014 A 
BRANCH  18  23
ATOM     23  C   UNL A   1      27.738  30.261  22.440  1.00  0.00     0.032 C 
ATOM     24  C   UNL A   1      27.681  31.297  23.554  1.00  0.00     0.009 C 
ENDBRANCH  18  23
ENDBRANCH  14  17
ENDBRANCH  12  13
ENDBRANCH   7  12
ENDBRANCH   4   6
ENDBRANCH   3   4
ENDBRANCH   2   3
ENDBRANCH   1   2
BRANCH   1  25
ATOM     25  O   UNL A   1      35.455  34.010  28.786  1.00  0.00    -0.374 OA
BRANCH  25  26
ATOM     26  C   UNL A   1      34.812  34.108  30.059  1.00  0.00     0.202 C 
BRANCH  26  27
ATOM     27  C   UNL A   1      35.604  33.589  31.265  1.00  0.00     0.261 C 
BRANCH  27  28
ATOM     28  O   UNL A   1      36.770  32.849  30.857  1.00  0.00    -0.460 OA
BRANCH  28  29
ATOM     29  C   UNL A   1      36.791  31.555  31.251  1.00  0.00     0.338 C 
ATOM     30  O   UNL A   1      35.925  30.961  31.882  1.00  0.00    -0.246 OA
BRANCH  29  31
ATOM     31  C   UNL A   1      37.945  30.863  30.647  1.00  0.00     0.060 A 
ATOM     32  C   UNL A   1      38.847  30.231  31.514  1.00  0.00     0.016 A 
ATOM     33  C   UNL A   1      38.178  30.875  29.269  1.00  0.00     0.016 A 
ATOM     34  C   UNL A   1      40.011  29.654  31.013  1.00  0.00     0.010 A 
ATOM     35  C   UNL A   1      39.352  30.302  28.769  1.00  0.00     0.010 A 
ATOM     36  C   UNL A   1      40.289  29.722  29.642  1.00  0.00    -0.014 A 
BRANCH  36  37
ATOM     37  C   UNL A   1      41.628  29.314  29.147  1.00  0.00     0.031 A 
ATOM     38  C   UNL A   1      42.728  30.339  29.092  1.00  0.00     0.074 A 
ATOM     39  C   UNL A   1      41.867  28.044  28.779  1.00  0.00     0.049 A 
ATOM     40  N   UNL A   1      43.961  30.211  28.677  1.00  0.00    -0.248 NA
ATOM     41  C   UNL A   1      42.389  31.690  29.567  1.00  0.00     0.031 C 
ATOM     42  C   UNL A   1      40.893  26.955  28.822  1.00  0.00     0.029 A 
ATOM     43  N   UNL A   1      43.007  27.456  28.291  1.00  0.00    -0.354 N 
ATOM     44  C   UNL A   1      44.544  31.463  28.834  1.00  0.00     0.074 A 
ATOM     45  C   UNL A   1      43.521  32.345  29.354  1.00  0.00     0.031 C 
ATOM     46  C   UNL A   1      41.476  25.831  28.371  1.00  0.00     0.029 A 
ATOM     47  C   UNL A   1      42.852  26.128  27.979  1.00  0.00     0.049 A 
ATOM     48  H   UNL A   1      43.855  27.942  28.174  1.00  0.00     0.167 HD
ATOM     49  C   UNL A   1      45.819  31.842  28.575  1.00  0.00     0.037 A 
ATOM     50  C   UNL A   1      43.719  25.256  27.425  1.00  0.00     0.037 A 
ATOM     51  C   UNL A   1      46.833  30.960  28.058  1.00  0.00     0.049 A 
ATOM     52  C   UNL A   1      45.113  25.713  27.087  1.00  0.00     0.074 A 
ATOM     53  C   UNL A   1      48.160  31.241  27.784  1.00  0.00     0.029 A 
ATOM     54  N   UNL A   1      46.630  29.629  27.725  1.00  0.00    -0.354 N 
ATOM     55  N   UNL A   1      45.660  26.893  27.264  1.00  0.00    -0.248 NA
ATOM     56  C   UNL A   1      46.009  24.722  26.476  1.00  0.00     0.031 C 
ATOM     57  C   UNL A   1      48.746  30.092  27.240  1.00  0.00     0.029 A 
ATOM     58  C   UNL A   1      47.798  29.081  27.222  1.00  0.00     0.049 A 
ATOM     59  H   UNL A   1      45.779  29.144  27.829  1.00  0.00     0.167 HD
ATOM     60  C   UNL A   1      46.970  26.779  26.810  1.00  0.00     0.074 A 
ATOM     61  C   UNL A   1      47.136  25.412  26.358  1.00  0.00     0.031 C 
ATOM     62  C   UNL A   1      47.948  27.718  26.775  1.00  0.00     0.037 A 
BRANCH  49  63
ATOM     63  C   UNL A   1      46.175  33.282  28.820  1.00  0.00     0.058 A 
ATOM     64  C   UNL A   1      46.659  33.724  30.062  1.00  0.00     0.135 A 
ATOM     65  C   UNL A   1      46.037  34.232  27.796  1.00  0.00     0.135 A 
ATOM     66  F   UNL A   1      46.794  32.861  31.082  1.00  0.00    -0.206 F 
ATOM     67  C   UNL A   1      46.960  35.063  30.290  1.00  0.00     0.059 A 
ATOM     68  C   UNL A   1      46.358  35.572  27.993  1.00  0.00     0.059 A 
ATOM     69  F   UNL A   1      45.578  33.864  26.589  1.00  0.00    -0.206 F 
ATOM     70  C   UNL A   1      46.800  35.981  29.250  1.00  0.00     0.060 A 
BRANCH  70  71
ATOM     71  S   UNL A   1      47.177  37.719  29.565  1.00  0.00     0.124 S 
ATOM     72  O   UNL A   1      46.934  38.310  28.253  1.00  0.00    -0.237 OA
ATOM     73  O   UNL A   1      46.214  38.065  30.605  1.00  0.00    -0.237 OA
ATOM     74  O   UNL A   1      48.573  37.691  29.992  1.00  0.00    -0.744 OA
ENDBRANCH  70  71
ENDBRANCH  49  63
BRANCH  50  75
ATOM     75  C   UNL A   1      43.286  23.859  27.155  1.00  0.00     0.058 A 
ATOM     76  C   UNL A   1      43.092  22.945  28.201  1.00  0.00     0.135 A 
ATOM     77  C   UNL A   1      43.037  23.418  25.846  1.00  0.00     0.135 A 
ATOM     78  F   UNL A   1      43.330  23.317  29.468  1.00  0.00    -0.206 F 
ATOM     79  C   UNL A   1      42.669  21.642  27.961  1.00  0.00     0.059 A 
ATOM     80  C   UNL A   1      42.591  22.127  25.582  1.00  0.00     0.059 A 
ATOM     81  F   UNL A   1      43.199  24.257  24.811  1.00  0.00    -0.206 F 
ATOM     82  C   UNL A   1      42.414  21.245  26.647  1.00  0.00     0.060 A 
BRANCH  82  83
ATOM     83  S   UNL A   1      41.796  19.573  26.351  1.00  0.00     0.124 S 
ATOM     84  O   UNL A   1      42.304  18.860  27.517  1.00  0.00    -0.237 OA
ATOM     85  O   UNL A   1      40.352  19.784  26.309  1.00  0.00    -0.237 OA
ATOM     86  O   UNL A   1      42.406  19.213  25.074  1.00  0.00    -0.744 OA
ENDBRANCH  82  83
ENDBRANCH  50  75
BRANCH  62  87
ATOM     87  C   UNL A   1      49.296  27.297  26.257  1.00  0.00     0.058 A 
ATOM     88  C   UNL A   1      50.310  26.848  27.118  1.00  0.00     0.135 A 
ATOM     89  C   UNL A   1      49.558  27.291  24.878  1.00  0.00     0.135 A 
ATOM     90  F   UNL A   1      50.113  26.841  28.447  1.00  0.00    -0.206 F 
ATOM     91  C   UNL A   1      51.543  26.428  26.632  1.00  0.00     0.059 A 
ATOM     92  C   UNL A   1      50.775  26.850  24.367  1.00  0.00     0.059 A 
ATOM     93  F   UNL A   1      48.620  27.700  24.010  1.00  0.00    -0.206 F 
ATOM     94  C   UNL A   1      51.767  26.431  25.253  1.00  0.00     0.060 A 
BRANCH  94  95
ATOM     95  S   UNL A   1      53.359  25.851  24.631  1.00  0.00     0.124 S 
ATOM     96  O   UNL A   1      54.286  26.748  25.316  1.00  0.00    -0.237 OA
ATOM     97  O   UNL A   1      53.381  24.460  25.072  1.00  0.00    -0.237 OA
ATOM     98  O   UNL A   1      53.251  26.043  23.188  1.00  0.00    -0.744 OA
ENDBRANCH  94  95
ENDBRANCH  62  87
ENDBRANCH  36  37
ENDBRANCH  29  31
ENDBRANCH  28  29
ENDBRANCH  27  28
ENDBRANCH  26  27
ENDBRANCH  25  26
ENDBRANCH   1  25
TORSDOF 21
ENDMDL
MODEL 3
REMARK VINA RESULT:     -10.8      0.967      8.154
REMARK SMILES CCc1ccc(C(=O)NCc2ccc(C(=O)OCCOCCOC(=O)c3ccc(-c4c5nc(c(-c6c(F)cc(S(=O)(=O)[O-])cc6F)c6ccc([nH]6)c(-c6c(F)cc(S(=O)(=O)[O-])cc6F)c6nc(c(-c7c(F)cc(S(=O)(=O)[O-])cc7F)c7ccc4[nH]7)C=C6)C=C5)cc3)cc2)cc1
REMARK SMILES IDX 19 1 18 2 17 3 15 4 16 5 14 6 11 7 12 8 93 9 13 10 92 11
REMARK SMILES IDX 10 12 9 13 7 14 8 15 6 17 3 18 4 19 95 20 5 21 94 22 2 23
REMARK SMILES IDX 1 24 20 25 21 26 22 27 23 28 24 29 25 30 26 31 27 32 91 33
REMARK SMILES IDX 28 34 90 35 29 36 30 37 31 38 84 39 32 40 89 41 83 42 85 43
REMARK SMILES IDX 33 44 88 45 82 46 81 47 34 49 68 50 47 51 67 52 48 53 51 54
REMARK SMILES IDX 66 55 86 56 49 57 50 58 65 60 87 61 52 62 35 63 36 64 45 65
REMARK SMILES IDX 37 66 38 67 44 68 46 69 39 70 40 71 41 72 42 73 43 74 69 75
REMARK SMILES IDX 70 76 79 77 71 78 72 79 78 80 80 81 73 82 74 83 75 84 76 85
REMARK SMILES IDX 77 86 53 87 54 88 63 89 55 90 56 91 62 92 64 93 57 94 58 95
REMARK SMILES IDX 59 96 60 97 61 98
REMARK H PARENT 9 16 85 48 51 59
REMARK Flexibility Score: inf
ROOT
ATOM      1  C   UNL A   1      40.509  21.173  27.197  1.00  0.00     0.202 C 
ENDROOT
BRANCH   1   2
ATOM      2  C   UNL A   1      39.772  21.431  25.879  1.00  0.00     0.261 C 
BRANCH   2   3
ATOM      3  O   UNL A   1      38.405  21.806  26.109  1.00  0.00    -0.460 OA
BRANCH   3   4
ATOM      4  C   UNL A   1      38.158  23.135  26.021  1.00  0.00     0.338 C 
ATOM      5  O   UNL A   1      38.828  24.038  26.505  1.00  0.00    -0.246 OA
BRANCH   4   6
ATOM      6  C   UNL A   1      37.015  23.398  25.118  1.00  0.00     0.060 A 
ATOM      7  C   UNL A   1      34.720  23.897  23.559  1.00  0.00    -0.029 A 
ATOM      8  C   UNL A   1      34.863  24.477  24.826  1.00  0.00     0.006 A 
ATOM      9  C   UNL A   1      35.783  23.126  23.055  1.00  0.00     0.006 A 
ATOM     10  C   UNL A   1      35.998  24.229  25.598  1.00  0.00     0.016 A 
ATOM     11  C   UNL A   1      36.921  22.867  23.829  1.00  0.00     0.016 A 
BRANCH   7  12
ATOM     12  C   UNL A   1      33.423  24.072  22.804  1.00  0.00     0.152 C 
BRANCH  12  13
ATOM     13  N   UNL A   1      32.270  23.721  23.598  1.00  0.00    -0.348 N 
ATOM     14  C   UNL A   1      31.933  22.621  24.337  1.00  0.00     0.251 C 
ATOM     15  O   UNL A   1      30.993  22.760  25.125  1.00  0.00    -0.269 OA
ATOM     16  H   UNL A   1      31.580  24.423  23.609  1.00  0.00     0.164 HD
BRANCH  14  17
ATOM     17  C   UNL A   1      32.601  21.286  24.246  1.00  0.00     0.039 A 
ATOM     18  C   UNL A   1      33.878  18.753  24.365  1.00  0.00    -0.048 A 
ATOM     19  C   UNL A   1      34.291  19.794  25.199  1.00  0.00     0.004 A 
ATOM     20  C   UNL A   1      32.822  18.986  23.480  1.00  0.00     0.004 A 
ATOM     21  C   UNL A   1      33.661  21.044  25.137  1.00  0.00     0.014 A 
ATOM     22  C   UNL A   1      32.193  20.234  23.426  1.00  0.00     0.014 A 
BRANCH  18  23
ATOM     23  C   UNL A   1      34.518  17.390  24.447  1.00  0.00     0.032 C 
ATOM     24  C   UNL A   1      34.132  16.489  23.281  1.00  0.00     0.009 C 
ENDBRANCH  18  23
ENDBRANCH  14  17
ENDBRANCH  12  13
ENDBRANCH   7  12
ENDBRANCH   4   6
ENDBRANCH   3   4
ENDBRANCH   2   3
ENDBRANCH   1   2
BRANCH   1  25
ATOM     25  O   UNL A   1      41.905  20.891  27.092  1.00  0.00    -0.374 OA
BRANCH  25  26
ATOM     26  C   UNL A   1      42.623  21.577  26.063  1.00  0.00     0.202 C 
BRANCH  26  27
ATOM     27  C   UNL A   1      43.157  22.971  26.418  1.00  0.00     0.261 C 
BRANCH  27  28
ATOM     28  O   UNL A   1      42.165  23.992  26.202  1.00  0.00    -0.460 OA
BRANCH  28  29
ATOM     29  C   UNL A   1      42.659  25.236  26.009  1.00  0.00     0.338 C 
ATOM     30  O   UNL A   1      43.335  25.624  25.063  1.00  0.00    -0.246 OA
BRANCH  29  31
ATOM     31  C   UNL A   1      42.110  26.159  27.021  1.00  0.00     0.060 A 
ATOM     32  C   UNL A   1      42.582  27.478  27.016  1.00  0.00     0.016 A 
ATOM     33  C   UNL A   1      41.197  25.736  27.991  1.00  0.00     0.016 A 
ATOM     34  C   UNL A   1      42.184  28.366  28.012  1.00  0.00     0.010 A 
ATOM     35  C   UNL A   1      40.805  26.627  28.994  1.00  0.00     0.010 A 
ATOM     36  C   UNL A   1      41.324  27.934  29.030  1.00  0.00    -0.014 A 
BRANCH  36  37
ATOM     37  C   UNL A   1      41.087  28.807  30.206  1.00  0.00     0.031 A 
ATOM     38  C   UNL A   1      41.976  28.663  31.412  1.00  0.00     0.074 A 
ATOM     39  C   UNL A   1      40.113  29.734  30.190  1.00  0.00     0.049 A 
ATOM     40  N   UNL A   1      41.938  29.301  32.552  1.00  0.00    -0.248 NA
ATOM     41  C   UNL A   1      43.049  27.660  31.318  1.00  0.00     0.031 C 
ATOM     42  C   UNL A   1      39.213  29.993  29.068  1.00  0.00     0.029 A 
ATOM     43  N   UNL A   1      39.718  30.628  31.152  1.00  0.00    -0.354 N 
ATOM     44  C   UNL A   1      42.975  28.776  33.314  1.00  0.00     0.074 A 
ATOM     45  C   UNL A   1      43.605  27.745  32.518  1.00  0.00     0.031 C 
ATOM     46  C   UNL A   1      38.363  30.976  29.409  1.00  0.00     0.029 A 
ATOM     47  C   UNL A   1      38.640  31.395  30.782  1.00  0.00     0.049 A 
ATOM     48  H   UNL A   1      40.163  30.711  32.027  1.00  0.00     0.167 HD
ATOM     49  C   UNL A   1      43.370  29.127  34.562  1.00  0.00     0.037 A 
ATOM     50  C   UNL A   1      37.945  32.317  31.479  1.00  0.00     0.037 A 
ATOM     51  C   UNL A   1      42.739  30.154  35.349  1.00  0.00     0.049 A 
ATOM     52  C   UNL A   1      38.363  32.648  32.888  1.00  0.00     0.074 A 
ATOM     53  C   UNL A   1      43.080  30.600  36.614  1.00  0.00     0.029 A 
ATOM     54  N   UNL A   1      41.630  30.886  34.952  1.00  0.00    -0.354 N 
ATOM     55  N   UNL A   1      39.361  32.162  33.587  1.00  0.00    -0.248 NA
ATOM     56  C   UNL A   1      37.563  33.653  33.601  1.00  0.00     0.031 C 
ATOM     57  C   UNL A   1      42.147  31.569  37.001  1.00  0.00     0.029 A 
ATOM     58  C   UNL A   1      41.255  31.762  35.957  1.00  0.00     0.049 A 
ATOM     59  H   UNL A   1      41.175  30.796  34.083  1.00  0.00     0.167 HD
ATOM     60  C   UNL A   1      39.324  32.820  34.812  1.00  0.00     0.074 A 
ATOM     61  C   UNL A   1      38.210  33.744  34.755  1.00  0.00     0.031 C 
ATOM     62  C   UNL A   1      40.141  32.676  35.886  1.00  0.00     0.037 A 
BRANCH  49  63
ATOM     63  C   UNL A   1      44.523  28.369  35.159  1.00  0.00     0.058 A 
ATOM     64  C   UNL A   1      45.835  28.868  35.126  1.00  0.00     0.135 A 
ATOM     65  C   UNL A   1      44.310  27.127  35.780  1.00  0.00     0.135 A 
ATOM     66  F   UNL A   1      46.097  30.042  34.530  1.00  0.00    -0.206 F 
ATOM     67  C   UNL A   1      46.901  28.147  35.657  1.00  0.00     0.059 A 
ATOM     68  C   UNL A   1      45.358  26.401  36.342  1.00  0.00     0.059 A 
ATOM     69  F   UNL A   1      43.076  26.603  35.839  1.00  0.00    -0.206 F 
ATOM     70  C   UNL A   1      46.652  26.912  36.257  1.00  0.00     0.060 A 
BRANCH  70  71
ATOM     71  S   UNL A   1      48.047  25.979  36.926  1.00  0.00     0.124 S 
ATOM     72  O   UNL A   1      49.123  26.384  36.027  1.00  0.00    -0.237 OA
ATOM     73  O   UNL A   1      48.136  26.485  38.292  1.00  0.00    -0.237 OA
ATOM     74  O   UNL A   1      47.615  24.590  36.803  1.00  0.00    -0.744 OA
ENDBRANCH  70  71
ENDBRANCH  49  63
BRANCH  50  75
ATOM     75  C   UNL A   1      36.778  32.991  30.850  1.00  0.00     0.058 A 
ATOM     76  C   UNL A   1      35.467  32.668  31.227  1.00  0.00     0.135 A 
ATOM     77  C   UNL A   1      36.954  33.985  29.875  1.00  0.00     0.135 A 
ATOM     78  F   UNL A   1      35.248  31.715  32.145  1.00  0.00    -0.206 F 
ATOM     79  C   UNL A   1      34.368  33.307  30.660  1.00  0.00     0.059 A 
ATOM     80  C   UNL A   1      35.873  34.653  29.310  1.00  0.00     0.059 A 
ATOM     81  F   UNL A   1      38.190  34.336  29.487  1.00  0.00    -0.206 F 
ATOM     82  C   UNL A   1      34.583  34.303  29.706  1.00  0.00     0.060 A 
BRANCH  82  83
ATOM     83  S   UNL A   1      33.154  35.175  29.027  1.00  0.00     0.124 S 
ATOM     84  O   UNL A   1      32.322  35.345  30.212  1.00  0.00    -0.237 OA
ATOM     85  O   UNL A   1      33.763  36.390  28.493  1.00  0.00    -0.237 OA
ATOM     86  O   UNL A   1      32.642  34.247  28.022  1.00  0.00    -0.744 OA
ENDBRANCH  82  83
ENDBRANCH  50  75
BRANCH  62  87
ATOM     87  C   UNL A   1      39.883  33.556  37.078  1.00  0.00     0.058 A 
ATOM     88  C   UNL A   1      40.545  34.782  37.248  1.00  0.00     0.135 A 
ATOM     89  C   UNL A   1      38.920  33.194  38.034  1.00  0.00     0.135 A 
ATOM     90  F   UNL A   1      41.480  35.172  36.367  1.00  0.00    -0.206 F 
ATOM     91  C   UNL A   1      40.277  35.608  38.335  1.00  0.00     0.059 A 
ATOM     92  C   UNL A   1      38.617  34.016  39.115  1.00  0.00     0.059 A 
ATOM     93  F   UNL A   1      38.249  32.038  37.913  1.00  0.00    -0.206 F 
ATOM     94  C   UNL A   1      39.310  35.217  39.263  1.00  0.00     0.060 A 
BRANCH  94  95
ATOM     95  S   UNL A   1      38.946  36.313  40.651  1.00  0.00     0.124 S 
ATOM     96  O   UNL A   1      38.569  37.544  39.962  1.00  0.00    -0.237 OA
ATOM     97  O   UNL A   1      37.862  35.610  41.330  1.00  0.00    -0.237 OA
ATOM     98  O   UNL A   1      40.207  36.365  41.384  1.00  0.00    -0.744 OA
ENDBRANCH  94  95
ENDBRANCH  62  87
ENDBRANCH  36  37
ENDBRANCH  29  31
ENDBRANCH  28  29
ENDBRANCH  27  28
ENDBRANCH  26  27
ENDBRANCH  25  26
ENDBRANCH   1  25
TORSDOF 21
ENDMDL
