MODEL 1
REMARK VINA RESULT:     -11.0      0.000      0.000
REMARK SMILES O=C(OCCOCCOC(=O)c1cc(NC(=S)NC(=O)c2ccccc2F)ccc1Cl)c1ccc(-c2c3nc(c(-c4c(F)cc(S(=O)(=O)[O-])cc4F)c4ccc([nH]4)c(-c4c(F)cc(S(=O)(=O)[O-])cc4F)c4nc(c(-c5c(F)cc(S(=O)(=O)[O-])cc5F)c5ccc2[nH]5)C=C4)C=C3)cc1
REMARK SMILES IDX 7 1 6 2 5 3 4 4 3 5 2 6 1 7 32 8 33 9 97 10 34 11 96 12
REMARK SMILES IDX 35 13 36 14 37 15 90 16 38 17 95 18 89 19 91 20 39 21 94 22
REMARK SMILES IDX 88 23 87 24 40 26 74 27 53 28 73 29 54 30 57 31 72 32 92 33
REMARK SMILES IDX 55 34 56 35 71 37 93 38 58 39 41 40 42 41 51 42 43 43 44 44
REMARK SMILES IDX 50 45 52 46 45 47 46 48 47 49 48 50 49 51 75 52 76 53 85 54
REMARK SMILES IDX 77 55 78 56 84 57 86 58 79 59 80 60 81 61 82 62 83 63 59 64
REMARK SMILES IDX 60 65 69 66 61 67 62 68 68 69 70 70 63 71 64 72 65 73 66 74
REMARK SMILES IDX 67 75 8 76 9 77 10 78 11 79 12 80 13 81 30 82 14 83 29 84
REMARK SMILES IDX 31 85 28 86 15 87 16 89 17 90 18 91 19 92 20 94 21 95 22 96
REMARK SMILES IDX 26 97 23 98 25 99 27 100 24 101
REMARK H PARENT 91 25 57 36 15 88 18 93
REMARK Flexibility Score: inf
ROOT
ATOM      1  C   UNL A   1      33.926  34.690  32.577  1.00  0.00     0.202 C 
ENDROOT
BRANCH   1   2
ATOM      2  O   UNL A   1      35.165  34.480  33.240  1.00  0.00    -0.374 OA
BRANCH   2   3
ATOM      3  C   UNL A   1      35.589  33.127  33.375  1.00  0.00     0.202 C 
BRANCH   3   4
ATOM      4  C   UNL A   1      36.949  32.803  32.761  1.00  0.00     0.261 C 
BRANCH   4   5
ATOM      5  O   UNL A   1      36.796  31.778  31.772  1.00  0.00    -0.460 OA
BRANCH   5   6
ATOM      6  C   UNL A   1      37.330  30.535  31.873  1.00  0.00     0.338 C 
ATOM      7  O   UNL A   1      36.693  29.646  32.436  1.00  0.00    -0.246 OA
BRANCH   6   8
ATOM      8  C   UNL A   1      38.610  30.187  31.196  1.00  0.00     0.060 A 
ATOM      9  C   UNL A   1      39.708  29.610  31.834  1.00  0.00     0.016 A 
ATOM     10  C   UNL A   1      38.689  30.416  29.816  1.00  0.00     0.016 A 
ATOM     11  C   UNL A   1      40.862  29.301  31.169  1.00  0.00     0.010 A 
ATOM     12  C   UNL A   1      39.840  30.063  29.114  1.00  0.00     0.010 A 
ATOM     13  C   UNL A   1      40.918  29.496  29.803  1.00  0.00    -0.014 A 
BRANCH  13  14
ATOM     14  C   UNL A   1      42.208  29.194  29.193  1.00  0.00     0.031 A 
ATOM     15  C   UNL A   1      42.379  27.838  28.606  1.00  0.00     0.074 A 
ATOM     16  C   UNL A   1      43.073  30.203  28.992  1.00  0.00     0.049 A 
ATOM     17  N   UNL A   1      43.450  27.289  28.118  1.00  0.00    -0.248 NA
ATOM     18  C   UNL A   1      41.176  26.984  28.552  1.00  0.00     0.031 C 
ATOM     19  C   UNL A   1      42.828  31.611  29.345  1.00  0.00     0.029 A 
ATOM     20  N   UNL A   1      44.299  30.225  28.396  1.00  0.00    -0.354 N 
ATOM     21  C   UNL A   1      43.070  26.005  27.755  1.00  0.00     0.074 A 
ATOM     22  C   UNL A   1      41.667  25.857  28.061  1.00  0.00     0.031 C 
ATOM     23  C   UNL A   1      43.862  32.356  28.930  1.00  0.00     0.029 A 
ATOM     24  C   UNL A   1      44.881  31.468  28.394  1.00  0.00     0.049 A 
ATOM     25  H   UNL A   1      44.723  29.427  28.004  1.00  0.00     0.167 HD
ATOM     26  C   UNL A   1      43.860  25.046  27.232  1.00  0.00     0.037 A 
ATOM     27  C   UNL A   1      46.133  31.819  28.051  1.00  0.00     0.037 A 
ATOM     28  C   UNL A   1      45.248  25.284  26.943  1.00  0.00     0.049 A 
ATOM     29  C   UNL A   1      47.035  30.706  27.599  1.00  0.00     0.074 A 
ATOM     30  C   UNL A   1      46.210  24.396  26.513  1.00  0.00     0.029 A 
ATOM     31  N   UNL A   1      45.861  26.530  27.056  1.00  0.00    -0.354 N 
ATOM     32  N   UNL A   1      46.736  29.440  27.401  1.00  0.00    -0.248 NA
ATOM     33  C   UNL A   1      48.439  31.043  27.358  1.00  0.00     0.031 C 
ATOM     34  C   UNL A   1      47.417  25.097  26.411  1.00  0.00     0.029 A 
ATOM     35  C   UNL A   1      47.196  26.434  26.720  1.00  0.00     0.049 A 
ATOM     36  H   UNL A   1      45.409  27.358  27.336  1.00  0.00     0.167 HD
ATOM     37  C   UNL A   1      47.913  28.825  27.006  1.00  0.00     0.074 A 
ATOM     38  C   UNL A   1      48.925  29.868  26.974  1.00  0.00     0.031 C 
ATOM     39  C   UNL A   1      48.147  27.523  26.702  1.00  0.00     0.037 A 
BRANCH  26  40
ATOM     40  C   UNL A   1      43.262  23.683  27.055  1.00  0.00     0.058 A 
ATOM     41  C   UNL A   1      42.875  23.251  25.777  1.00  0.00     0.135 A 
ATOM     42  C   UNL A   1      43.117  22.781  28.121  1.00  0.00     0.135 A 
ATOM     43  F   UNL A   1      43.023  24.059  24.716  1.00  0.00    -0.206 F 
ATOM     44  C   UNL A   1      42.355  21.979  25.563  1.00  0.00     0.059 A 
ATOM     45  C   UNL A   1      42.623  21.492  27.925  1.00  0.00     0.059 A 
ATOM     46  F   UNL A   1      43.520  23.123  29.356  1.00  0.00    -0.206 F 
ATOM     47  C   UNL A   1      42.234  21.105  26.643  1.00  0.00     0.060 A 
BRANCH  47  48
ATOM     48  S   UNL A   1      41.603  19.442  26.336  1.00  0.00     0.124 S 
ATOM     49  O   UNL A   1      42.396  19.029  25.184  1.00  0.00    -0.237 OA
ATOM     50  O   UNL A   1      41.904  18.762  27.593  1.00  0.00    -0.237 OA
ATOM     51  O   UNL A   1      40.183  19.660  26.077  1.00  0.00    -0.744 OA
ENDBRANCH  47  48
ENDBRANCH  26  40
BRANCH  27  52
ATOM     52  C   UNL A   1      46.589  33.227  28.204  1.00  0.00     0.058 A 
ATOM     53  C   UNL A   1      47.084  33.708  29.430  1.00  0.00     0.135 A 
ATOM     54  C   UNL A   1      46.496  34.141  27.145  1.00  0.00     0.135 A 
ATOM     55  F   UNL A   1      47.193  32.883  30.483  1.00  0.00    -0.206 F 
ATOM     56  C   UNL A   1      47.435  35.042  29.610  1.00  0.00     0.059 A 
ATOM     57  C   UNL A   1      46.869  35.476  27.292  1.00  0.00     0.059 A 
ATOM     58  F   UNL A   1      46.040  33.736  25.950  1.00  0.00    -0.206 F 
ATOM     59  C   UNL A   1      47.323  35.920  28.533  1.00  0.00     0.060 A 
BRANCH  59  60
ATOM     60  S   UNL A   1      47.786  37.647  28.788  1.00  0.00     0.124 S 
ATOM     61  O   UNL A   1      48.753  37.538  29.875  1.00  0.00    -0.237 OA
ATOM     62  O   UNL A   1      48.337  38.010  27.485  1.00  0.00    -0.237 OA
ATOM     63  O   UNL A   1      46.523  38.290  29.132  1.00  0.00    -0.744 OA
ENDBRANCH  59  60
ENDBRANCH  27  52
BRANCH  39  64
ATOM     64  C   UNL A   1      49.540  27.171  26.285  1.00  0.00     0.058 A 
ATOM     65  C   UNL A   1      49.889  27.195  24.927  1.00  0.00     0.135 A 
ATOM     66  C   UNL A   1      50.485  26.706  27.210  1.00  0.00     0.135 A 
ATOM     67  F   UNL A   1      49.011  27.627  24.007  1.00  0.00    -0.206 F 
ATOM     68  C   UNL A   1      51.122  26.732  24.494  1.00  0.00     0.059 A 
ATOM     69  C   UNL A   1      51.738  26.268  26.802  1.00  0.00     0.059 A 
ATOM     70  F   UNL A   1      50.192  26.681  28.521  1.00  0.00    -0.206 F 
ATOM     71  C   UNL A   1      52.037  26.264  25.440  1.00  0.00     0.060 A 
BRANCH  71  72
ATOM     72  S   UNL A   1      53.626  25.650  24.854  1.00  0.00     0.124 S 
ATOM     73  O   UNL A   1      53.518  24.223  25.138  1.00  0.00    -0.237 OA
ATOM     74  O   UNL A   1      53.597  26.020  23.442  1.00  0.00    -0.237 OA
ATOM     75  O   UNL A   1      54.592  26.382  25.669  1.00  0.00    -0.744 OA
ENDBRANCH  71  72
ENDBRANCH  39  64
ENDBRANCH  13  14
ENDBRANCH   6   8
ENDBRANCH   5   6
ENDBRANCH   4   5
ENDBRANCH   3   4
ENDBRANCH   2   3
ENDBRANCH   1   2
BRANCH   1  76
ATOM     76  C   UNL A   1      34.153  34.930  31.091  1.00  0.00     0.261 C 
BRANCH  76  77
ATOM     77  O   UNL A   1      33.944  33.705  30.357  1.00  0.00    -0.460 OA
BRANCH  77  78
ATOM     78  C   UNL A   1      34.096  33.839  29.013  1.00  0.00     0.339 C 
ATOM     79  O   UNL A   1      33.924  34.859  28.363  1.00  0.00    -0.246 OA
BRANCH  78  80
ATOM     80  C   UNL A   1      34.439  32.468  28.342  1.00  0.00     0.080 A 
ATOM     81  C   UNL A   1      33.763  30.687  27.727  1.00  0.00     0.043 A 
ATOM     82  C   UNL A   1      35.449  32.013  28.212  1.00  0.00     0.055 A 
ATOM     83  C   UNL A   1      33.765  29.301  27.378  1.00  0.00     0.041 A 
ATOM     84  C   UNL A   1      35.646  30.122  27.558  1.00  0.00     0.023 A 
ATOM     85  Cl  UNL A   1      36.876  33.456  28.805  1.00  0.00    -0.083 Cl
ATOM     86  C   UNL A   1      34.978  28.948  27.179  1.00  0.00     0.028 A 
BRANCH  83  87
ATOM     87  N   UNL A   1      32.635  28.499  27.534  1.00  0.00    -0.332 N 
ATOM     88  H   UNL A   1      32.375  28.326  28.467  1.00  0.00     0.169 HD
BRANCH  87  89
ATOM     89  C   UNL A   1      31.829  27.916  26.596  1.00  0.00     0.177 C 
ATOM     90  S   UNL A   1      31.700  28.694  25.115  1.00  0.00    -0.040 S 
BRANCH  89  91
ATOM     91  N   UNL A   1      31.134  26.713  26.748  1.00  0.00    -0.299 N 
ATOM     92  C   UNL A   1      31.045  25.333  26.383  1.00  0.00     0.260 C 
ATOM     93  H   UNL A   1      30.391  26.891  27.369  1.00  0.00     0.172 HD
ATOM     94  O   UNL A   1      30.148  24.640  26.852  1.00  0.00    -0.269 OA
BRANCH  92  95
ATOM     95  C   UNL A   1      32.073  24.691  25.510  1.00  0.00     0.075 A 
ATOM     96  C   UNL A   1      33.998  25.237  25.666  1.00  0.00     0.017 A 
ATOM     97  C   UNL A   1      31.876  22.735  24.965  1.00  0.00     0.135 A 
ATOM     98  C   UNL A   1      35.702  24.273  25.237  1.00  0.00     0.001 A 
ATOM     99  C   UNL A   1      33.569  21.720  24.695  1.00  0.00     0.040 A 
ATOM    100  F   UNL A   1      30.723  22.073  25.167  1.00  0.00    -0.206 F 
ATOM    101  C   UNL A   1      35.480  22.316  24.678  1.00  0.00     0.003 A 
ENDBRANCH  92  95
ENDBRANCH  89  91
ENDBRANCH  87  89
ENDBRANCH  83  87
ENDBRANCH  78  80
ENDBRANCH  77  78
ENDBRANCH  76  77
ENDBRANCH   1  76
TORSDOF 21
ENDMDL
MODEL 2
REMARK VINA RESULT:     -10.5      6.338     12.398
REMARK SMILES O=C(OCCOCCOC(=O)c1cc(NC(=S)NC(=O)c2ccccc2F)ccc1Cl)c1ccc(-c2c3nc(c(-c4c(F)cc(S(=O)(=O)[O-])cc4F)c4ccc([nH]4)c(-c4c(F)cc(S(=O)(=O)[O-])cc4F)c4nc(c(-c5c(F)cc(S(=O)(=O)[O-])cc5F)c5ccc2[nH]5)C=C4)C=C3)cc1
REMARK SMILES IDX 7 1 6 2 5 3 4 4 3 5 2 6 1 7 32 8 33 9 97 10 34 11 96 12
REMARK SMILES IDX 35 13 36 14 37 15 90 16 38 17 95 18 89 19 91 20 39 21 94 22
REMARK SMILES IDX 88 23 87 24 40 26 74 27 53 28 73 29 54 30 57 31 72 32 92 33
REMARK SMILES IDX 55 34 56 35 71 37 93 38 58 39 41 40 42 41 51 42 43 43 44 44
REMARK SMILES IDX 50 45 52 46 45 47 46 48 47 49 48 50 49 51 75 52 76 53 85 54
REMARK SMILES IDX 77 55 78 56 84 57 86 58 79 59 80 60 81 61 82 62 83 63 59 64
REMARK SMILES IDX 60 65 69 66 61 67 62 68 68 69 70 70 63 71 64 72 65 73 66 74
REMARK SMILES IDX 67 75 8 76 9 77 10 78 11 79 12 80 13 81 30 82 14 83 29 84
REMARK SMILES IDX 31 85 28 86 15 87 16 89 17 90 18 91 19 92 20 94 21 95 22 96
REMARK SMILES IDX 26 97 23 98 25 99 27 100 24 101
REMARK H PARENT 91 25 57 36 15 88 18 93
REMARK Flexibility Score: inf
ROOT
ATOM      1  C   UNL A   1      40.046  21.765  26.766  1.00  0.00     0.202 C 
ENDROOT
BRANCH   1   2
ATOM      2  O   UNL A   1      41.126  21.794  25.844  1.00  0.00    -0.374 OA
BRANCH   2   3
ATOM      3  C   UNL A   1      42.418  22.048  26.389  1.00  0.00     0.202 C 
BRANCH   3   4
ATOM      4  C   UNL A   1      42.985  23.436  26.106  1.00  0.00     0.261 C 
BRANCH   4   5
ATOM      5  O   UNL A   1      41.921  24.395  26.086  1.00  0.00    -0.460 OA
BRANCH   5   6
ATOM      6  C   UNL A   1      42.104  25.738  26.064  1.00  0.00     0.338 C 
ATOM      7  O   UNL A   1      42.327  26.302  24.994  1.00  0.00    -0.246 OA
BRANCH   6   8
ATOM      8  C   UNL A   1      41.903  26.565  27.286  1.00  0.00     0.060 A 
ATOM      9  C   UNL A   1      41.001  26.258  28.306  1.00  0.00     0.016 A 
ATOM     10  C   UNL A   1      42.712  27.699  27.435  1.00  0.00     0.016 A 
ATOM     11  C   UNL A   1      40.856  27.044  29.415  1.00  0.00     0.010 A 
ATOM     12  C   UNL A   1      42.610  28.485  28.581  1.00  0.00     0.010 A 
ATOM     13  C   UNL A   1      41.682  28.140  29.571  1.00  0.00    -0.014 A 
BRANCH  13  14
ATOM     14  C   UNL A   1      41.411  28.949  30.754  1.00  0.00     0.031 A 
ATOM     15  C   UNL A   1      40.224  29.843  30.706  1.00  0.00     0.074 A 
ATOM     16  C   UNL A   1      42.096  28.684  31.880  1.00  0.00     0.049 A 
ATOM     17  N   UNL A   1      39.840  30.737  31.566  1.00  0.00    -0.248 NA
ATOM     18  C   UNL A   1      39.339  29.707  29.532  1.00  0.00     0.031 C 
ATOM     19  C   UNL A   1      43.115  27.632  32.023  1.00  0.00     0.029 A 
ATOM     20  N   UNL A   1      42.007  29.225  33.128  1.00  0.00    -0.354 N 
ATOM     21  C   UNL A   1      38.706  31.313  31.014  1.00  0.00     0.074 A 
ATOM     22  C   UNL A   1      38.450  30.661  29.752  1.00  0.00     0.031 C 
ATOM     23  C   UNL A   1      43.531  27.592  33.297  1.00  0.00     0.029 A 
ATOM     24  C   UNL A   1      42.897  28.683  34.022  1.00  0.00     0.049 A 
ATOM     25  H   UNL A   1      41.365  29.934  33.365  1.00  0.00     0.167 HD
ATOM     26  C   UNL A   1      37.976  32.320  31.535  1.00  0.00     0.037 A 
ATOM     27  C   UNL A   1      43.201  29.084  35.268  1.00  0.00     0.037 A 
ATOM     28  C   UNL A   1      38.293  32.903  32.809  1.00  0.00     0.049 A 
ATOM     29  C   UNL A   1      42.466  30.293  35.775  1.00  0.00     0.074 A 
ATOM     30  C   UNL A   1      37.724  33.993  33.431  1.00  0.00     0.029 A 
ATOM     31  N   UNL A   1      39.282  32.415  33.661  1.00  0.00    -0.354 N 
ATOM     32  N   UNL A   1      41.492  30.960  35.194  1.00  0.00    -0.248 NA
ATOM     33  C   UNL A   1      42.882  30.830  37.071  1.00  0.00     0.031 C 
ATOM     34  C   UNL A   1      38.401  34.192  34.639  1.00  0.00     0.029 A 
ATOM     35  C   UNL A   1      39.353  33.191  34.799  1.00  0.00     0.049 A 
ATOM     36  H   UNL A   1      39.847  31.631  33.478  1.00  0.00     0.167 HD
ATOM     37  C   UNL A   1      41.170  31.996  36.057  1.00  0.00     0.074 A 
ATOM     38  C   UNL A   1      42.044  31.852  37.209  1.00  0.00     0.031 C 
ATOM     39  C   UNL A   1      40.246  32.981  35.916  1.00  0.00     0.037 A 
BRANCH  26  40
ATOM     40  C   UNL A   1      36.875  32.881  30.686  1.00  0.00     0.058 A 
ATOM     41  C   UNL A   1      35.548  32.481  30.910  1.00  0.00     0.135 A 
ATOM     42  C   UNL A   1      37.107  33.847  29.694  1.00  0.00     0.135 A 
ATOM     43  F   UNL A   1      35.263  31.588  31.869  1.00  0.00    -0.206 F 
ATOM     44  C   UNL A   1      34.492  33.009  30.174  1.00  0.00     0.059 A 
ATOM     45  C   UNL A   1      36.062  34.408  28.962  1.00  0.00     0.059 A 
ATOM     46  F   UNL A   1      38.351  34.304  29.473  1.00  0.00    -0.206 F 
ATOM     47  C   UNL A   1      34.759  33.973  29.202  1.00  0.00     0.060 A 
BRANCH  47  48
ATOM     48  S   UNL A   1      33.371  34.682  28.291  1.00  0.00     0.124 S 
ATOM     49  O   UNL A   1      34.045  35.612  27.393  1.00  0.00    -0.237 OA
ATOM     50  O   UNL A   1      32.782  33.503  27.663  1.00  0.00    -0.237 OA
ATOM     51  O   UNL A   1      32.556  35.295  29.336  1.00  0.00    -0.744 OA
ENDBRANCH  47  48
ENDBRANCH  26  40
BRANCH  27  52
ATOM     52  C   UNL A   1      44.269  28.395  36.042  1.00  0.00     0.058 A 
ATOM     53  C   UNL A   1      43.971  27.337  36.920  1.00  0.00     0.135 A 
ATOM     54  C   UNL A   1      45.605  28.810  35.964  1.00  0.00     0.135 A 
ATOM     55  F   UNL A   1      42.708  26.897  37.042  1.00  0.00    -0.206 F 
ATOM     56  C   UNL A   1      44.946  26.740  37.711  1.00  0.00     0.059 A 
ATOM     57  C   UNL A   1      46.607  28.208  36.725  1.00  0.00     0.059 A 
ATOM     58  F   UNL A   1      45.949  29.809  35.137  1.00  0.00    -0.206 F 
ATOM     59  C   UNL A   1      46.264  27.185  37.608  1.00  0.00     0.060 A 
BRANCH  59  60
ATOM     60  S   UNL A   1      47.516  26.395  38.644  1.00  0.00     0.124 S 
ATOM     61  O   UNL A   1      48.540  27.431  38.714  1.00  0.00    -0.237 OA
ATOM     62  O   UNL A   1      46.778  26.149  39.879  1.00  0.00    -0.237 OA
ATOM     63  O   UNL A   1      47.879  25.202  37.886  1.00  0.00    -0.744 OA
ENDBRANCH  59  60
ENDBRANCH  27  52
BRANCH  39  64
ATOM     64  C   UNL A   1      40.124  33.952  37.048  1.00  0.00     0.058 A 
ATOM     65  C   UNL A   1      39.182  33.726  38.062  1.00  0.00     0.135 A 
ATOM     66  C   UNL A   1      40.852  35.150  37.066  1.00  0.00     0.135 A 
ATOM     67  F   UNL A   1      38.458  32.594  38.078  1.00  0.00    -0.206 F 
ATOM     68  C   UNL A   1      38.938  34.677  39.041  1.00  0.00     0.059 A 
ATOM     69  C   UNL A   1      40.647  36.102  38.055  1.00  0.00     0.059 A 
ATOM     70  F   UNL A   1      41.772  35.396  36.119  1.00  0.00    -0.206 F 
ATOM     71  C   UNL A   1      39.672  35.865  39.024  1.00  0.00     0.060 A 
BRANCH  71  72
ATOM     72  S   UNL A   1      39.327  37.095  40.295  1.00  0.00     0.124 S 
ATOM     73  O   UNL A   1      38.572  38.094  39.546  1.00  0.00    -0.237 OA
ATOM     74  O   UNL A   1      38.565  36.323  41.271  1.00  0.00    -0.237 OA
ATOM     75  O   UNL A   1      40.657  37.510  40.733  1.00  0.00    -0.744 OA
ENDBRANCH  71  72
ENDBRANCH  39  64
ENDBRANCH  13  14
ENDBRANCH   6   8
ENDBRANCH   5   6
ENDBRANCH   4   5
ENDBRANCH   3   4
ENDBRANCH   2   3
ENDBRANCH   1   2
BRANCH   1  76
ATOM     76  C   UNL A   1      38.997  22.802  26.390  1.00  0.00     0.261 C 
BRANCH  76  77
ATOM     77  O   UNL A   1      37.704  22.172  26.267  1.00  0.00    -0.460 OA
BRANCH  77  78
ATOM     78  C   UNL A   1      37.081  22.427  25.087  1.00  0.00     0.339 C 
ATOM     79  O   UNL A   1      37.382  23.295  24.282  1.00  0.00    -0.246 OA
BRANCH  78  80
ATOM     80  C   UNL A   1      35.823  21.515  24.903  1.00  0.00     0.080 A 
ATOM     81  C   UNL A   1      33.836  21.345  25.069  1.00  0.00     0.043 A 
ATOM     82  C   UNL A   1      35.804  20.405  24.790  1.00  0.00     0.055 A 
ATOM     83  C   UNL A   1      32.553  20.739  25.239  1.00  0.00     0.041 A 
ATOM     84  C   UNL A   1      34.063  19.400  24.827  1.00  0.00     0.023 A 
ATOM     85  Cl  UNL A   1      37.806  19.751  24.607  1.00  0.00    -0.083 Cl
ATOM     86  C   UNL A   1      32.673  19.489  24.995  1.00  0.00     0.028 A 
BRANCH  83  87
ATOM     87  N   UNL A   1      31.491  21.415  25.839  1.00  0.00    -0.332 N 
ATOM     88  H   UNL A   1      31.047  20.925  26.568  1.00  0.00     0.169 HD
BRANCH  87  89
ATOM     89  C   UNL A   1      30.968  22.650  25.576  1.00  0.00     0.177 C 
ATOM     90  S   UNL A   1      30.056  23.364  26.789  1.00  0.00    -0.040 S 
BRANCH  89  91
ATOM     91  N   UNL A   1      31.156  23.386  24.402  1.00  0.00    -0.299 N 
ATOM     92  C   UNL A   1      31.329  24.682  23.821  1.00  0.00     0.260 C 
ATOM     93  H   UNL A   1      31.180  22.737  23.661  1.00  0.00     0.172 HD
ATOM     94  O   UNL A   1      31.470  24.786  22.608  1.00  0.00    -0.269 OA
BRANCH  92  95
ATOM     95  C   UNL A   1      31.430  25.907  24.670  1.00  0.00     0.075 A 
ATOM     96  C   UNL A   1      33.147  26.328  25.618  1.00  0.00     0.017 A 
ATOM     97  C   UNL A   1      30.410  27.596  24.151  1.00  0.00     0.135 A 
ATOM     98  C   UNL A   1      33.930  28.055  26.266  1.00  0.00     0.001 A 
ATOM     99  C   UNL A   1      31.262  29.328  24.648  1.00  0.00     0.040 A 
ATOM    100  F   UNL A   1      29.457  27.567  23.203  1.00  0.00    -0.206 F 
ATOM    101  C   UNL A   1      32.883  29.736  25.748  1.00  0.00     0.003 A 
ENDBRANCH  92  95
ENDBRANCH  89  91
ENDBRANCH  87  89
ENDBRANCH  83  87
ENDBRANCH  78  80
ENDBRANCH  77  78
ENDBRANCH  76  77
ENDBRANCH   1  76
TORSDOF 21
ENDMDL
MODEL 3
REMARK VINA RESULT:     -10.3      5.973     12.635
REMARK SMILES O=C(OCCOCCOC(=O)c1cc(NC(=S)NC(=O)c2ccccc2F)ccc1Cl)c1ccc(-c2c3nc(c(-c4c(F)cc(S(=O)(=O)[O-])cc4F)c4ccc([nH]4)c(-c4c(F)cc(S(=O)(=O)[O-])cc4F)c4nc(c(-c5c(F)cc(S(=O)(=O)[O-])cc5F)c5ccc2[nH]5)C=C4)C=C3)cc1
REMARK SMILES IDX 7 1 6 2 5 3 4 4 3 5 2 6 1 7 32 8 33 9 97 10 34 11 96 12
REMARK SMILES IDX 35 13 36 14 37 15 90 16 38 17 95 18 89 19 91 20 39 21 94 22
REMARK SMILES IDX 88 23 87 24 40 26 74 27 53 28 73 29 54 30 57 31 72 32 92 33
REMARK SMILES IDX 55 34 56 35 71 37 93 38 58 39 41 40 42 41 51 42 43 43 44 44
REMARK SMILES IDX 50 45 52 46 45 47 46 48 47 49 48 50 49 51 75 52 76 53 85 54
REMARK SMILES IDX 77 55 78 56 84 57 86 58 79 59 80 60 81 61 82 62 83 63 59 64
REMARK SMILES IDX 60 65 69 66 61 67 62 68 68 69 70 70 63 71 64 72 65 73 66 74
REMARK SMILES IDX 67 75 8 76 9 77 10 78 11 79 12 80 13 81 30 82 14 83 29 84
REMARK SMILES IDX 31 85 28 86 15 87 16 89 17 90 18 91 19 92 20 94 21 95 22 96
REMARK SMILES IDX 26 97 23 98 25 99 27 100 24 101
REMARK H PARENT 91 25 57 36 15 88 18 93
REMARK Flexibility Score: inf
ROOT
ATOM      1  C   UNL A   1      43.776  21.844  25.350  1.00  0.00     0.202 C 
ENDROOT
BRANCH   1   2
ATOM      2  O   UNL A   1      45.025  22.356  25.793  1.00  0.00    -0.374 OA
BRANCH   2   3
ATOM      3  C   UNL A   1      45.375  23.657  25.331  1.00  0.00     0.202 C 
BRANCH   3   4
ATOM      4  C   UNL A   1      44.199  24.559  24.965  1.00  0.00     0.261 C 
BRANCH   4   5
ATOM      5  O   UNL A   1      43.804  25.321  26.112  1.00  0.00    -0.460 OA
BRANCH   5   6
ATOM      6  C   UNL A   1      42.604  25.941  26.240  1.00  0.00     0.338 C 
ATOM      7  O   UNL A   1      41.727  25.743  25.402  1.00  0.00    -0.246 OA
BRANCH   6   8
ATOM      8  C   UNL A   1      42.277  26.746  27.449  1.00  0.00     0.060 A 
ATOM      9  C   UNL A   1      42.843  27.986  27.747  1.00  0.00     0.016 A 
ATOM     10  C   UNL A   1      41.299  26.238  28.314  1.00  0.00     0.016 A 
ATOM     11  C   UNL A   1      42.506  28.694  28.868  1.00  0.00     0.010 A 
ATOM     12  C   UNL A   1      40.910  26.968  29.436  1.00  0.00     0.010 A 
ATOM     13  C   UNL A   1      41.516  28.203  29.696  1.00  0.00    -0.014 A 
BRANCH  13  14
ATOM     14  C   UNL A   1      41.269  28.997  30.894  1.00  0.00     0.031 A 
ATOM     15  C   UNL A   1      40.090  29.902  30.876  1.00  0.00     0.074 A 
ATOM     16  C   UNL A   1      41.965  28.708  32.008  1.00  0.00     0.049 A 
ATOM     17  N   UNL A   1      39.725  30.786  31.755  1.00  0.00    -0.248 NA
ATOM     18  C   UNL A   1      39.189  29.793  29.712  1.00  0.00     0.031 C 
ATOM     19  C   UNL A   1      42.975  27.644  32.122  1.00  0.00     0.029 A 
ATOM     20  N   UNL A   1      41.897  29.230  33.265  1.00  0.00    -0.354 N 
ATOM     21  C   UNL A   1      38.591  31.382  31.226  1.00  0.00     0.074 A 
ATOM     22  C   UNL A   1      38.312  30.752  29.957  1.00  0.00     0.031 C 
ATOM     23  C   UNL A   1      43.407  27.580  33.389  1.00  0.00     0.029 A 
ATOM     24  C   UNL A   1      42.794  28.665  34.138  1.00  0.00     0.049 A 
ATOM     25  H   UNL A   1      41.266  29.941  33.521  1.00  0.00     0.167 HD
ATOM     26  C   UNL A   1      37.877  32.388  31.772  1.00  0.00     0.037 A 
ATOM     27  C   UNL A   1      43.117  29.044  35.387  1.00  0.00     0.037 A 
ATOM     28  C   UNL A   1      38.216  32.948  33.050  1.00  0.00     0.049 A 
ATOM     29  C   UNL A   1      42.401  30.252  35.921  1.00  0.00     0.074 A 
ATOM     30  C   UNL A   1      37.666  34.034  33.696  1.00  0.00     0.029 A 
ATOM     31  N   UNL A   1      39.211  32.437  33.882  1.00  0.00    -0.354 N 
ATOM     32  N   UNL A   1      41.426  30.938  35.364  1.00  0.00    -0.248 NA
ATOM     33  C   UNL A   1      42.838  30.765  37.220  1.00  0.00     0.031 C 
ATOM     34  C   UNL A   1      38.361  34.208  34.899  1.00  0.00     0.029 A 
ATOM     35  C   UNL A   1      39.304  33.196  35.031  1.00  0.00     0.049 A 
ATOM     36  H   UNL A   1      39.766  31.651  33.680  1.00  0.00     0.167 HD
ATOM     37  C   UNL A   1      41.125  31.963  36.247  1.00  0.00     0.074 A 
ATOM     38  C   UNL A   1      42.013  31.793  37.385  1.00  0.00     0.031 C 
ATOM     39  C   UNL A   1      40.210  32.959  36.133  1.00  0.00     0.037 A 
BRANCH  26  40
ATOM     40  C   UNL A   1      36.771  32.972  30.946  1.00  0.00     0.058 A 
ATOM     41  C   UNL A   1      35.434  32.770  31.325  1.00  0.00     0.135 A 
ATOM     42  C   UNL A   1      37.015  33.774  29.819  1.00  0.00     0.135 A 
ATOM     43  F   UNL A   1      35.143  32.042  32.413  1.00  0.00    -0.206 F 
ATOM     44  C   UNL A   1      34.380  33.330  30.611  1.00  0.00     0.059 A 
ATOM     45  C   UNL A   1      35.976  34.367  29.105  1.00  0.00     0.059 A 
ATOM     46  F   UNL A   1      38.276  34.044  29.443  1.00  0.00    -0.206 F 
ATOM     47  C   UNL A   1      34.660  34.128  29.503  1.00  0.00     0.060 A 
BRANCH  47  48
ATOM     48  S   UNL A   1      33.280  34.886  28.619  1.00  0.00     0.124 S 
ATOM     49  O   UNL A   1      32.347  35.165  29.705  1.00  0.00    -0.237 OA
ATOM     50  O   UNL A   1      33.911  36.051  28.005  1.00  0.00    -0.237 OA
ATOM     51  O   UNL A   1      32.864  33.846  27.684  1.00  0.00    -0.744 OA
ENDBRANCH  47  48
ENDBRANCH  26  40
BRANCH  27  52
ATOM     52  C   UNL A   1      44.188  28.333  36.137  1.00  0.00     0.058 A 
ATOM     53  C   UNL A   1      45.537  28.715  36.024  1.00  0.00     0.135 A 
ATOM     54  C   UNL A   1      43.898  27.225  36.944  1.00  0.00     0.135 A 
ATOM     55  F   UNL A   1      45.879  29.766  35.262  1.00  0.00    -0.206 F 
ATOM     56  C   UNL A   1      46.557  28.008  36.652  1.00  0.00     0.059 A 
ATOM     57  C   UNL A   1      44.899  26.518  37.608  1.00  0.00     0.059 A 
ATOM     58  F   UNL A   1      42.627  26.822  37.096  1.00  0.00    -0.206 F 
ATOM     59  C   UNL A   1      46.227  26.908  37.443  1.00  0.00     0.060 A 
BRANCH  59  60
ATOM     60  S   UNL A   1      47.567  26.006  38.252  1.00  0.00     0.124 S 
ATOM     61  O   UNL A   1      47.998  25.101  37.192  1.00  0.00    -0.237 OA
ATOM     62  O   UNL A   1      48.498  27.079  38.587  1.00  0.00    -0.237 OA
ATOM     63  O   UNL A   1      46.909  25.372  39.390  1.00  0.00    -0.744 OA
ENDBRANCH  59  60
ENDBRANCH  27  52
BRANCH  39  64
ATOM     64  C   UNL A   1      40.111  33.914  37.281  1.00  0.00     0.058 A 
ATOM     65  C   UNL A   1      39.148  33.707  38.280  1.00  0.00     0.135 A 
ATOM     66  C   UNL A   1      40.886  35.081  37.330  1.00  0.00     0.135 A 
ATOM     67  F   UNL A   1      38.380  32.605  38.265  1.00  0.00    -0.206 F 
ATOM     68  C   UNL A   1      38.930  34.650  39.273  1.00  0.00     0.059 A 
ATOM     69  C   UNL A   1      40.706  36.023  38.334  1.00  0.00     0.059 A 
ATOM     70  F   UNL A   1      41.827  35.307  36.399  1.00  0.00    -0.206 F 
ATOM     71  C   UNL A   1      39.710  35.807  39.287  1.00  0.00     0.060 A 
BRANCH  71  72
ATOM     72  S   UNL A   1      39.399  37.027  40.576  1.00  0.00     0.124 S 
ATOM     73  O   UNL A   1      38.872  36.196  41.652  1.00  0.00    -0.237 OA
ATOM     74  O   UNL A   1      40.729  37.586  40.798  1.00  0.00    -0.237 OA
ATOM     75  O   UNL A   1      38.439  37.937  39.955  1.00  0.00    -0.744 OA
ENDBRANCH  71  72
ENDBRANCH  39  64
ENDBRANCH  13  14
ENDBRANCH   6   8
ENDBRANCH   5   6
ENDBRANCH   4   5
ENDBRANCH   3   4
ENDBRANCH   2   3
ENDBRANCH   1   2
BRANCH   1  76
ATOM     76  C   UNL A   1      42.778  21.810  26.499  1.00  0.00     0.261 C 
BRANCH  76  77
ATOM     77  O   UNL A   1      41.534  22.417  26.088  1.00  0.00    -0.460 OA
BRANCH  77  78
ATOM     78  C   UNL A   1      40.493  22.150  26.919  1.00  0.00     0.339 C 
ATOM     79  O   UNL A   1      40.559  21.959  28.124  1.00  0.00    -0.246 OA
BRANCH  78  80
ATOM     80  C   UNL A   1      39.153  22.014  26.123  1.00  0.00     0.080 A 
ATOM     81  C   UNL A   1      37.425  22.872  25.589  1.00  0.00     0.043 A 
ATOM     82  C   UNL A   1      38.682  21.075  25.747  1.00  0.00     0.055 A 
ATOM     83  C   UNL A   1      36.061  22.997  25.182  1.00  0.00     0.041 A 
ATOM     84  C   UNL A   1      36.826  21.096  24.975  1.00  0.00     0.023 A 
ATOM     85  Cl  UNL A   1      40.056  19.502  26.073  1.00  0.00    -0.083 Cl
ATOM     86  C   UNL A   1      35.691  21.872  24.698  1.00  0.00     0.028 A 
BRANCH  83  87
ATOM     87  N   UNL A   1      35.279  24.092  25.549  1.00  0.00    -0.332 N 
ATOM     88  H   UNL A   1      35.632  24.621  26.299  1.00  0.00     0.169 HD
BRANCH  87  89
ATOM     89  C   UNL A   1      34.099  24.547  25.031  1.00  0.00     0.177 C 
ATOM     90  S   UNL A   1      34.028  24.756  23.368  1.00  0.00    -0.040 S 
BRANCH  89  91
ATOM     91  N   UNL A   1      32.937  24.820  25.758  1.00  0.00    -0.299 N 
ATOM     92  C   UNL A   1      31.869  25.740  25.999  1.00  0.00     0.260 C 
ATOM     93  H   UNL A   1      32.792  24.054  26.360  1.00  0.00     0.172 HD
ATOM     94  O   UNL A   1      31.013  25.468  26.834  1.00  0.00    -0.269 OA
BRANCH  92  95
ATOM     95  C   UNL A   1      31.722  26.990  25.194  1.00  0.00     0.075 A 
ATOM     96  C   UNL A   1      30.268  27.128  23.818  1.00  0.00     0.017 A 
ATOM     97  C   UNL A   1      32.160  28.800  26.026  1.00  0.00     0.135 A 
ATOM     98  C   UNL A   1      29.315  28.705  23.030  1.00  0.00     0.001 A 
ATOM     99  C   UNL A   1      31.102  30.354  25.365  1.00  0.00     0.040 A 
ATOM    100  F   UNL A   1      32.809  28.884  27.201  1.00  0.00    -0.206 F 
ATOM    101  C   UNL A   1      29.781  30.513  23.870  1.00  0.00     0.003 A 
ENDBRANCH  92  95
ENDBRANCH  89  91
ENDBRANCH  87  89
ENDBRANCH  83  87
ENDBRANCH  78  80
ENDBRANCH  77  78
ENDBRANCH  76  77
ENDBRANCH   1  76
TORSDOF 21
ENDMDL
