MODEL 1
REMARK VINA RESULT:     -11.1      0.000      0.000
REMARK SMILES Cn1cc(C(=O)N2CC[NH+](C)CC2)c(C(=O)OCCOCCOC(=O)c2ccc(-c3c4nc(c(-c5c(F)cc(S(=O)(=O)[O-])cc5F)c5ccc([nH]5)c(-c5c(F)cc(S(=O)(=O)[O-])cc5F)c5nc(c(-c6c(F)cc(S(=O)(=O)[O-])cc6F)c6ccc3[nH]6)C=C5)C=C4)cc2)n1
REMARK SMILES IDX 21 1 20 2 19 3 18 4 17 5 15 6 16 7 14 8 4 9 3 10 2 11 92 12
REMARK SMILES IDX 1 13 5 14 11 15 10 16 9 17 12 18 8 20 13 21 7 22 6 23 22 24
REMARK SMILES IDX 23 25 24 26 25 27 26 28 27 29 91 30 28 31 90 32 29 33 30 34
REMARK SMILES IDX 31 35 84 36 32 37 89 38 83 39 85 40 33 41 88 42 82 43 81 44
REMARK SMILES IDX 34 46 68 47 47 48 67 49 48 50 51 51 66 52 86 53 49 54 50 55
REMARK SMILES IDX 65 57 87 58 52 59 35 60 36 61 45 62 37 63 38 64 44 65 46 66
REMARK SMILES IDX 39 67 40 68 41 69 42 70 43 71 69 72 70 73 79 74 71 75 72 76
REMARK SMILES IDX 78 77 80 78 73 79 74 80 75 81 76 82 77 83 53 84 54 85 63 86
REMARK SMILES IDX 55 87 56 88 62 89 64 90 57 91 58 92 59 93 60 94 61 95
REMARK H PARENT 10 19 85 45 51 56
REMARK Flexibility Score: inf
ROOT
ATOM      1  C   UNL A   1      39.814  22.150  26.757  1.00  0.00     0.202 C 
ENDROOT
BRANCH   1   2
ATOM      2  O   UNL A   1      38.828  22.391  25.755  1.00  0.00    -0.374 OA
BRANCH   2   3
ATOM      3  C   UNL A   1      37.938  21.329  25.416  1.00  0.00     0.202 C 
BRANCH   3   4
ATOM      4  C   UNL A   1      36.988  21.555  24.236  1.00  0.00     0.261 C 
BRANCH   4   5
ATOM      5  O   UNL A   1      35.728  22.079  24.678  1.00  0.00    -0.458 OA
BRANCH   5   6
ATOM      6  C   UNL A   1      35.052  21.307  25.580  1.00  0.00     0.359 C 
ATOM      7  O   UNL A   1      35.000  21.547  26.784  1.00  0.00    -0.244 OA
BRANCH   6   8
ATOM      8  C   UNL A   1      34.244  20.256  24.935  1.00  0.00     0.183 A 
ATOM      9  C   UNL A   1      32.859  20.267  24.563  1.00  0.00     0.092 A 
ATOM     10  C   UNL A   1      32.662  19.038  23.958  1.00  0.00     0.123 A 
ATOM     11  N   UNL A   1      33.818  18.341  24.114  1.00  0.00    -0.274 N 
ATOM     12  N   UNL A   1      34.794  19.047  24.686  1.00  0.00    -0.165 NA
ATOM     13  C   UNL A   1      34.059  16.962  23.768  1.00  0.00     0.173 C 
BRANCH   9  14
ATOM     14  C   UNL A   1      31.928  21.384  24.661  1.00  0.00     0.258 C 
ATOM     15  C   UNL A   1      32.986  25.945  21.679  1.00  0.00     0.332 C 
ATOM     16  N   UNL A   1      32.297  24.698  22.007  1.00  0.00    -0.334 N 
ATOM     17  C   UNL A   1      31.671  24.786  23.347  1.00  0.00     0.283 C 
ATOM     18  C   UNL A   1      33.216  23.547  21.951  1.00  0.00     0.283 C 
ATOM     19  H   UNL A   1      31.567  24.556  21.309  1.00  0.00     0.347 HD
ATOM     20  C   UNL A   1      30.975  23.474  23.767  1.00  0.00     0.181 C 
ATOM     21  C   UNL A   1      32.486  22.233  22.299  1.00  0.00     0.181 C 
ATOM     22  N   UNL A   1      31.869  22.319  23.627  1.00  0.00    -0.327 N 
ATOM     23  O   UNL A   1      31.226  21.486  25.664  1.00  0.00    -0.269 OA
ENDBRANCH   9  14
ENDBRANCH   6   8
ENDBRANCH   5   6
ENDBRANCH   4   5
ENDBRANCH   3   4
ENDBRANCH   2   3
ENDBRANCH   1   2
BRANCH   1  24
ATOM     24  C   UNL A   1      41.291  22.247  26.351  1.00  0.00     0.261 C 
BRANCH  24  25
ATOM     25  O   UNL A   1      42.031  23.216  27.113  1.00  0.00    -0.460 OA
BRANCH  25  26
ATOM     26  C   UNL A   1      42.239  24.394  26.473  1.00  0.00     0.338 C 
ATOM     27  O   UNL A   1      42.601  24.551  25.317  1.00  0.00    -0.246 OA
BRANCH  26  28
ATOM     28  C   UNL A   1      41.799  25.516  27.322  1.00  0.00     0.060 A 
ATOM     29  C   UNL A   1      42.542  26.704  27.276  1.00  0.00     0.016 A 
ATOM     30  C   UNL A   1      40.736  25.376  28.214  1.00  0.00     0.016 A 
ATOM     31  C   UNL A   1      42.252  27.743  28.158  1.00  0.00     0.010 A 
ATOM     32  C   UNL A   1      40.453  26.418  29.104  1.00  0.00     0.010 A 
ATOM     33  C   UNL A   1      41.231  27.590  29.104  1.00  0.00    -0.014 A 
BRANCH  33  34
ATOM     34  C   UNL A   1      41.070  28.587  30.194  1.00  0.00     0.031 A 
ATOM     35  C   UNL A   1      41.980  28.505  31.389  1.00  0.00     0.074 A 
ATOM     36  C   UNL A   1      40.136  29.552  30.114  1.00  0.00     0.049 A 
ATOM     37  N   UNL A   1      41.952  29.191  32.502  1.00  0.00    -0.248 NA
ATOM     38  C   UNL A   1      43.066  27.511  31.324  1.00  0.00     0.031 C 
ATOM     39  C   UNL A   1      39.230  29.763  28.986  1.00  0.00     0.029 A 
ATOM     40  N   UNL A   1      39.786  30.529  31.014  1.00  0.00    -0.354 N 
ATOM     41  C   UNL A   1      43.005  28.710  33.271  1.00  0.00     0.074 A 
ATOM     42  C   UNL A   1      43.634  27.650  32.513  1.00  0.00     0.031 C 
ATOM     43  C   UNL A   1      38.411  30.792  29.270  1.00  0.00     0.029 A 
ATOM     44  C   UNL A   1      38.708  31.285  30.614  1.00  0.00     0.049 A 
ATOM     45  H   UNL A   1      40.260  30.674  31.864  1.00  0.00     0.167 HD
ATOM     46  C   UNL A   1      43.416  29.122  34.494  1.00  0.00     0.037 A 
ATOM     47  C   UNL A   1      38.021  32.240  31.272  1.00  0.00     0.037 A 
ATOM     48  C   UNL A   1      42.789  30.183  35.238  1.00  0.00     0.049 A 
ATOM     49  C   UNL A   1      38.451  32.628  32.666  1.00  0.00     0.074 A 
ATOM     50  C   UNL A   1      43.128  30.674  36.487  1.00  0.00     0.029 A 
ATOM     51  N   UNL A   1      41.696  30.918  34.803  1.00  0.00    -0.354 N 
ATOM     52  N   UNL A   1      39.449  32.165  33.382  1.00  0.00    -0.248 NA
ATOM     53  C   UNL A   1      37.664  33.671  33.341  1.00  0.00     0.031 C 
ATOM     54  C   UNL A   1      42.211  31.674  36.827  1.00  0.00     0.029 A 
ATOM     55  C   UNL A   1      41.340  31.849  35.765  1.00  0.00     0.049 A 
ATOM     56  H   UNL A   1      41.241  30.797  33.939  1.00  0.00     0.167 HD
ATOM     57  C   UNL A   1      39.436  32.893  34.570  1.00  0.00     0.074 A 
ATOM     58  C   UNL A   1      38.334  33.826  34.475  1.00  0.00     0.031 C 
ATOM     59  C   UNL A   1      40.262  32.797  35.641  1.00  0.00     0.037 A 
BRANCH  46  60
ATOM     60  C   UNL A   1      44.595  28.427  35.116  1.00  0.00     0.058 A 
ATOM     61  C   UNL A   1      44.440  27.286  35.918  1.00  0.00     0.135 A 
ATOM     62  C   UNL A   1      45.904  28.863  34.844  1.00  0.00     0.135 A 
ATOM     63  F   UNL A   1      43.212  26.838  36.226  1.00  0.00    -0.206 F 
ATOM     64  C   UNL A   1      45.537  26.605  36.436  1.00  0.00     0.059 A 
ATOM     65  C   UNL A   1      47.016  28.180  35.328  1.00  0.00     0.059 A 
ATOM     66  F   UNL A   1      46.110  29.952  34.088  1.00  0.00    -0.206 F 
ATOM     67  C   UNL A   1      46.822  27.055  36.128  1.00  0.00     0.060 A 
BRANCH  67  68
ATOM     68  S   UNL A   1      48.235  26.134  36.771  1.00  0.00     0.124 S 
ATOM     69  O   UNL A   1      49.055  27.207  37.326  1.00  0.00    -0.237 OA
ATOM     70  O   UNL A   1      47.609  25.247  37.746  1.00  0.00    -0.237 OA
ATOM     71  O   UNL A   1      48.781  25.476  35.588  1.00  0.00    -0.744 OA
ENDBRANCH  67  68
ENDBRANCH  46  60
BRANCH  47  72
ATOM     72  C   UNL A   1      36.833  32.883  30.645  1.00  0.00     0.058 A 
ATOM     73  C   UNL A   1      36.976  33.891  29.678  1.00  0.00     0.135 A 
ATOM     74  C   UNL A   1      35.529  32.537  31.035  1.00  0.00     0.135 A 
ATOM     75  F   UNL A   1      38.199  34.265  29.276  1.00  0.00    -0.206 F 
ATOM     76  C   UNL A   1      35.874  34.559  29.153  1.00  0.00     0.059 A 
ATOM     77  C   UNL A   1      34.411  33.168  30.500  1.00  0.00     0.059 A 
ATOM     78  F   UNL A   1      35.334  31.571  31.948  1.00  0.00    -0.206 F 
ATOM     79  C   UNL A   1      34.595  34.193  29.574  1.00  0.00     0.060 A 
BRANCH  79  80
ATOM     80  S   UNL A   1      33.172  35.072  28.893  1.00  0.00     0.124 S 
ATOM     81  O   UNL A   1      32.369  35.299  30.089  1.00  0.00    -0.237 OA
ATOM     82  O   UNL A   1      33.794  36.254  28.306  1.00  0.00    -0.237 OA
ATOM     83  O   UNL A   1      32.619  34.121  27.933  1.00  0.00    -0.744 OA
ENDBRANCH  79  80
ENDBRANCH  47  72
BRANCH  59  84
ATOM     84  C   UNL A   1      40.063  33.772  36.771  1.00  0.00     0.058 A 
ATOM     85  C   UNL A   1      40.728  35.006  36.818  1.00  0.00     0.135 A 
ATOM     86  C   UNL A   1      39.133  33.490  37.787  1.00  0.00     0.135 A 
ATOM     87  F   UNL A   1      41.629  35.325  35.876  1.00  0.00    -0.206 F 
ATOM     88  C   UNL A   1      40.492  35.919  37.842  1.00  0.00     0.059 A 
ATOM     89  C   UNL A   1      38.860  34.401  38.802  1.00  0.00     0.059 A 
ATOM     90  F   UNL A   1      38.460  32.328  37.784  1.00  0.00    -0.206 F 
ATOM     91  C   UNL A   1      39.552  35.610  38.826  1.00  0.00     0.060 A 
BRANCH  91  92
ATOM     92  S   UNL A   1      39.223  36.824  40.121  1.00  0.00     0.124 S 
ATOM     93  O   UNL A   1      38.324  36.082  40.999  1.00  0.00    -0.237 OA
ATOM     94  O   UNL A   1      40.557  37.085  40.651  1.00  0.00    -0.237 OA
ATOM     95  O   UNL A   1      38.614  37.938  39.397  1.00  0.00    -0.744 OA
ENDBRANCH  91  92
ENDBRANCH  59  84
ENDBRANCH  33  34
ENDBRANCH  26  28
ENDBRANCH  25  26
ENDBRANCH  24  25
ENDBRANCH   1  24
TORSDOF 18
ENDMDL
MODEL 2
REMARK VINA RESULT:     -11.0      6.141     11.869
REMARK SMILES Cn1cc(C(=O)N2CC[NH+](C)CC2)c(C(=O)OCCOCCOC(=O)c2ccc(-c3c4nc(c(-c5c(F)cc(S(=O)(=O)[O-])cc5F)c5ccc([nH]5)c(-c5c(F)cc(S(=O)(=O)[O-])cc5F)c5nc(c(-c6c(F)cc(S(=O)(=O)[O-])cc6F)c6ccc3[nH]6)C=C5)C=C4)cc2)n1
REMARK SMILES IDX 21 1 20 2 19 3 18 4 17 5 15 6 16 7 14 8 4 9 3 10 2 11 92 12
REMARK SMILES IDX 1 13 5 14 11 15 10 16 9 17 12 18 8 20 13 21 7 22 6 23 22 24
REMARK SMILES IDX 23 25 24 26 25 27 26 28 27 29 91 30 28 31 90 32 29 33 30 34
REMARK SMILES IDX 31 35 84 36 32 37 89 38 83 39 85 40 33 41 88 42 82 43 81 44
REMARK SMILES IDX 34 46 68 47 47 48 67 49 48 50 51 51 66 52 86 53 49 54 50 55
REMARK SMILES IDX 65 57 87 58 52 59 35 60 36 61 45 62 37 63 38 64 44 65 46 66
REMARK SMILES IDX 39 67 40 68 41 69 42 70 43 71 69 72 70 73 79 74 71 75 72 76
REMARK SMILES IDX 78 77 80 78 73 79 74 80 75 81 76 82 77 83 53 84 54 85 63 86
REMARK SMILES IDX 55 87 56 88 62 89 64 90 57 91 58 92 59 93 60 94 61 95
REMARK H PARENT 10 19 85 45 51 56
REMARK Flexibility Score: inf
ROOT
ATOM      1  C   UNL A   1      34.636  31.633  27.655  1.00  0.00     0.202 C 
ENDROOT
BRANCH   1   2
ATOM      2  O   UNL A   1      33.341  31.194  27.249  1.00  0.00    -0.374 OA
BRANCH   2   3
ATOM      3  C   UNL A   1      33.060  29.796  27.294  1.00  0.00     0.202 C 
BRANCH   3   4
ATOM      4  C   UNL A   1      34.172  28.840  26.852  1.00  0.00     0.261 C 
BRANCH   4   5
ATOM      5  O   UNL A   1      33.992  28.429  25.489  1.00  0.00    -0.458 OA
BRANCH   5   6
ATOM      6  C   UNL A   1      33.108  27.406  25.293  1.00  0.00     0.359 C 
ATOM      7  O   UNL A   1      33.039  26.412  26.012  1.00  0.00    -0.244 OA
BRANCH   6   8
ATOM      8  C   UNL A   1      32.127  27.699  24.232  1.00  0.00     0.183 A 
ATOM      9  C   UNL A   1      31.947  27.072  22.955  1.00  0.00     0.092 A 
ATOM     10  C   UNL A   1      30.855  27.723  22.409  1.00  0.00     0.123 A 
ATOM     11  N   UNL A   1      30.542  28.734  23.261  1.00  0.00    -0.274 N 
ATOM     12  N   UNL A   1      31.279  28.742  24.373  1.00  0.00    -0.165 NA
ATOM     13  C   UNL A   1      29.561  29.772  23.063  1.00  0.00     0.173 C 
BRANCH   9  14
ATOM     14  C   UNL A   1      32.658  25.911  22.434  1.00  0.00     0.258 C 
ATOM     15  C   UNL A   1      32.260  21.128  25.224  1.00  0.00     0.332 C 
ATOM     16  N   UNL A   1      31.978  22.063  24.136  1.00  0.00    -0.334 N 
ATOM     17  C   UNL A   1      33.230  22.442  23.439  1.00  0.00     0.283 C 
ATOM     18  C   UNL A   1      31.288  23.269  24.630  1.00  0.00     0.283 C 
ATOM     19  H   UNL A   1      31.361  21.591  23.475  1.00  0.00     0.347 HD
ATOM     20  C   UNL A   1      32.996  23.472  22.312  1.00  0.00     0.181 C 
ATOM     21  C   UNL A   1      30.994  24.253  23.479  1.00  0.00     0.181 C 
ATOM     22  N   UNL A   1      32.232  24.631  22.790  1.00  0.00    -0.327 N 
ATOM     23  O   UNL A   1      33.631  26.088  21.705  1.00  0.00    -0.269 OA
ENDBRANCH   9  14
ENDBRANCH   6   8
ENDBRANCH   5   6
ENDBRANCH   4   5
ENDBRANCH   3   4
ENDBRANCH   2   3
ENDBRANCH   1   2
BRANCH   1  24
ATOM     24  C   UNL A   1      34.813  32.110  29.103  1.00  0.00     0.261 C 
BRANCH  24  25
ATOM     25  O   UNL A   1      35.533  31.179  29.929  1.00  0.00    -0.460 OA
BRANCH  25  26
ATOM     26  C   UNL A   1      36.660  31.682  30.491  1.00  0.00     0.338 C 
ATOM     27  O   UNL A   1      36.735  32.579  31.318  1.00  0.00    -0.246 OA
BRANCH  26  28
ATOM     28  C   UNL A   1      37.828  30.875  30.094  1.00  0.00     0.060 A 
ATOM     29  C   UNL A   1      38.714  30.465  31.100  1.00  0.00     0.016 A 
ATOM     30  C   UNL A   1      38.099  30.604  28.753  1.00  0.00     0.016 A 
ATOM     31  C   UNL A   1      39.902  29.820  30.762  1.00  0.00     0.010 A 
ATOM     32  C   UNL A   1      39.298  29.965  28.417  1.00  0.00     0.010 A 
ATOM     33  C   UNL A   1      40.220  29.602  29.415  1.00  0.00    -0.014 A 
BRANCH  33  34
ATOM     34  C   UNL A   1      41.577  29.134  29.037  1.00  0.00     0.031 A 
ATOM     35  C   UNL A   1      42.705  30.130  29.013  1.00  0.00     0.074 A 
ATOM     36  C   UNL A   1      41.802  27.844  28.727  1.00  0.00     0.049 A 
ATOM     37  N   UNL A   1      43.940  29.976  28.609  1.00  0.00    -0.248 NA
ATOM     38  C   UNL A   1      42.400  31.484  29.506  1.00  0.00     0.031 C 
ATOM     39  C   UNL A   1      40.800  26.778  28.762  1.00  0.00     0.029 A 
ATOM     40  N   UNL A   1      42.948  27.214  28.307  1.00  0.00    -0.354 N 
ATOM     41  C   UNL A   1      44.555  31.209  28.791  1.00  0.00     0.074 A 
ATOM     42  C   UNL A   1      43.551  32.111  29.310  1.00  0.00     0.031 C 
ATOM     43  C   UNL A   1      41.372  25.630  28.357  1.00  0.00     0.029 A 
ATOM     44  C   UNL A   1      42.765  25.887  27.997  1.00  0.00     0.049 A 
ATOM     45  H   UNL A   1      43.817  27.671  28.233  1.00  0.00     0.167 HD
ATOM     46  C   UNL A   1      45.843  31.553  28.555  1.00  0.00     0.037 A 
ATOM     47  C   UNL A   1      43.616  24.993  27.454  1.00  0.00     0.037 A 
ATOM     48  C   UNL A   1      46.838  30.647  28.045  1.00  0.00     0.049 A 
ATOM     49  C   UNL A   1      45.026  25.423  27.128  1.00  0.00     0.074 A 
ATOM     50  C   UNL A   1      48.171  30.899  27.770  1.00  0.00     0.029 A 
ATOM     51  N   UNL A   1      46.612  29.313  27.737  1.00  0.00    -0.354 N 
ATOM     52  N   UNL A   1      45.594  26.592  27.304  1.00  0.00    -0.248 NA
ATOM     53  C   UNL A   1      45.911  24.412  26.531  1.00  0.00     0.031 C 
ATOM     54  C   UNL A   1      48.739  29.732  27.250  1.00  0.00     0.029 A 
ATOM     55  C   UNL A   1      47.778  28.735  27.261  1.00  0.00     0.049 A 
ATOM     56  H   UNL A   1      45.752  28.847  27.840  1.00  0.00     0.167 HD
ATOM     57  C   UNL A   1      46.914  26.442  26.884  1.00  0.00     0.074 A 
ATOM     58  C   UNL A   1      47.059  25.070  26.447  1.00  0.00     0.031 C 
ATOM     59  C   UNL A   1      47.915  27.357  26.863  1.00  0.00     0.037 A 
BRANCH  46  60
ATOM     60  C   UNL A   1      46.259  32.970  28.838  1.00  0.00     0.058 A 
ATOM     61  C   UNL A   1      46.809  33.346  30.074  1.00  0.00     0.135 A 
ATOM     62  C   UNL A   1      46.178  33.950  27.833  1.00  0.00     0.135 A 
ATOM     63  F   UNL A   1      46.891  32.454  31.075  1.00  0.00    -0.206 F 
ATOM     64  C   UNL A   1      47.256  34.642  30.308  1.00  0.00     0.059 A 
ATOM     65  C   UNL A   1      46.645  35.245  28.037  1.00  0.00     0.059 A 
ATOM     66  F   UNL A   1      45.656  33.647  26.634  1.00  0.00    -0.206 F 
ATOM     67  C   UNL A   1      47.177  35.583  29.280  1.00  0.00     0.060 A 
BRANCH  67  68
ATOM     68  S   UNL A   1      47.803  37.248  29.588  1.00  0.00     0.124 S 
ATOM     69  O   UNL A   1      47.858  37.793  28.234  1.00  0.00    -0.237 OA
ATOM     70  O   UNL A   1      46.775  37.811  30.456  1.00  0.00    -0.237 OA
ATOM     71  O   UNL A   1      49.098  37.015  30.221  1.00  0.00    -0.744 OA
ENDBRANCH  67  68
ENDBRANCH  46  60
BRANCH  47  72
ATOM     72  C   UNL A   1      43.162  23.607  27.149  1.00  0.00     0.058 A 
ATOM     73  C   UNL A   1      43.175  22.605  28.131  1.00  0.00     0.135 A 
ATOM     74  C   UNL A   1      42.754  23.245  25.856  1.00  0.00     0.135 A 
ATOM     75  F   UNL A   1      43.565  22.896  29.381  1.00  0.00    -0.206 F 
ATOM     76  C   UNL A   1      42.838  21.288  27.834  1.00  0.00     0.059 A 
ATOM     77  C   UNL A   1      42.382  21.942  25.542  1.00  0.00     0.059 A 
ATOM     78  F   UNL A   1      42.712  24.167  24.880  1.00  0.00    -0.206 F 
ATOM     79  C   UNL A   1      42.448  20.965  26.534  1.00  0.00     0.060 A 
BRANCH  79  80
ATOM     80  S   UNL A   1      42.021  19.252  26.155  1.00  0.00     0.124 S 
ATOM     81  O   UNL A   1      42.898  18.976  25.023  1.00  0.00    -0.237 OA
ATOM     82  O   UNL A   1      42.353  18.571  27.402  1.00  0.00    -0.237 OA
ATOM     83  O   UNL A   1      40.596  19.321  25.848  1.00  0.00    -0.744 OA
ENDBRANCH  79  80
ENDBRANCH  47  72
BRANCH  59  84
ATOM     84  C   UNL A   1      49.280  26.895  26.425  1.00  0.00     0.058 A 
ATOM     85  C   UNL A   1      50.135  26.181  27.277  1.00  0.00     0.135 A 
ATOM     86  C   UNL A   1      49.704  27.112  25.102  1.00  0.00     0.135 A 
ATOM     87  F   UNL A   1      49.783  25.949  28.551  1.00  0.00    -0.206 F 
ATOM     88  C   UNL A   1      51.372  25.715  26.840  1.00  0.00     0.059 A 
ATOM     89  C   UNL A   1      50.922  26.629  24.636  1.00  0.00     0.059 A 
ATOM     90  F   UNL A   1      48.919  27.780  24.242  1.00  0.00    -0.206 F 
ATOM     91  C   UNL A   1      51.754  25.939  25.515  1.00  0.00     0.060 A 
BRANCH  91  92
ATOM     92  S   UNL A   1      53.339  25.286  24.950  1.00  0.00     0.124 S 
ATOM     93  O   UNL A   1      53.255  25.514  23.511  1.00  0.00    -0.237 OA
ATOM     94  O   UNL A   1      54.295  26.121  25.670  1.00  0.00    -0.237 OA
ATOM     95  O   UNL A   1      53.300  23.887  25.366  1.00  0.00    -0.744 OA
ENDBRANCH  91  92
ENDBRANCH  59  84
ENDBRANCH  33  34
ENDBRANCH  26  28
ENDBRANCH  25  26
ENDBRANCH  24  25
ENDBRANCH   1  24
TORSDOF 18
ENDMDL
MODEL 3
REMARK VINA RESULT:     -10.7      6.328     11.936
REMARK SMILES Cn1cc(C(=O)N2CC[NH+](C)CC2)c(C(=O)OCCOCCOC(=O)c2ccc(-c3c4nc(c(-c5c(F)cc(S(=O)(=O)[O-])cc5F)c5ccc([nH]5)c(-c5c(F)cc(S(=O)(=O)[O-])cc5F)c5nc(c(-c6c(F)cc(S(=O)(=O)[O-])cc6F)c6ccc3[nH]6)C=C5)C=C4)cc2)n1
REMARK SMILES IDX 21 1 20 2 19 3 18 4 17 5 15 6 16 7 14 8 4 9 3 10 2 11 92 12
REMARK SMILES IDX 1 13 5 14 11 15 10 16 9 17 12 18 8 20 13 21 7 22 6 23 22 24
REMARK SMILES IDX 23 25 24 26 25 27 26 28 27 29 91 30 28 31 90 32 29 33 30 34
REMARK SMILES IDX 31 35 84 36 32 37 89 38 83 39 85 40 33 41 88 42 82 43 81 44
REMARK SMILES IDX 34 46 68 47 47 48 67 49 48 50 51 51 66 52 86 53 49 54 50 55
REMARK SMILES IDX 65 57 87 58 52 59 35 60 36 61 45 62 37 63 38 64 44 65 46 66
REMARK SMILES IDX 39 67 40 68 41 69 42 70 43 71 69 72 70 73 79 74 71 75 72 76
REMARK SMILES IDX 78 77 80 78 73 79 74 80 75 81 76 82 77 83 53 84 54 85 63 86
REMARK SMILES IDX 55 87 56 88 62 89 64 90 57 91 58 92 59 93 60 94 61 95
REMARK H PARENT 10 19 85 45 51 56
REMARK Flexibility Score: inf
ROOT
ATOM      1  C   UNL A   1      34.211  31.166  27.580  1.00  0.00     0.202 C 
ENDROOT
BRANCH   1   2
ATOM      2  O   UNL A   1      32.989  31.823  27.250  1.00  0.00    -0.374 OA
BRANCH   2   3
ATOM      3  C   UNL A   1      31.948  31.049  26.656  1.00  0.00     0.202 C 
BRANCH   3   4
ATOM      4  C   UNL A   1      31.927  29.547  26.958  1.00  0.00     0.261 C 
BRANCH   4   5
ATOM      5  O   UNL A   1      31.566  28.789  25.796  1.00  0.00    -0.458 OA
BRANCH   5   6
ATOM      6  C   UNL A   1      31.348  27.455  26.005  1.00  0.00     0.359 C 
ATOM      7  O   UNL A   1      30.952  26.984  27.067  1.00  0.00    -0.244 OA
BRANCH   6   8
ATOM      8  C   UNL A   1      31.470  26.660  24.769  1.00  0.00     0.183 A 
ATOM      9  C   UNL A   1      30.498  26.409  23.745  1.00  0.00     0.092 A 
ATOM     10  C   UNL A   1      31.179  25.646  22.813  1.00  0.00     0.123 A 
ATOM     11  N   UNL A   1      32.397  25.374  23.351  1.00  0.00    -0.274 N 
ATOM     12  N   UNL A   1      32.610  25.978  24.521  1.00  0.00    -0.165 NA
ATOM     13  C   UNL A   1      33.413  24.503  22.816  1.00  0.00     0.173 C 
BRANCH   9  14
ATOM     14  C   UNL A   1      29.156  26.968  23.646  1.00  0.00     0.258 C 
ATOM     15  C   UNL A   1      28.652  32.429  22.778  1.00  0.00     0.332 C 
ATOM     16  N   UNL A   1      28.626  31.014  22.412  1.00  0.00    -0.334 N 
ATOM     17  C   UNL A   1      27.651  30.277  23.251  1.00  0.00     0.283 C 
ATOM     18  C   UNL A   1      29.962  30.402  22.533  1.00  0.00     0.283 C 
ATOM     19  H   UNL A   1      28.335  30.952  21.436  1.00  0.00     0.347 HD
ATOM     20  C   UNL A   1      27.621  28.765  22.943  1.00  0.00     0.181 C 
ATOM     21  C   UNL A   1      29.929  28.909  22.147  1.00  0.00     0.181 C 
ATOM     22  N   UNL A   1      28.967  28.179  22.980  1.00  0.00    -0.327 N 
ATOM     23  O   UNL A   1      28.221  26.367  24.169  1.00  0.00    -0.269 OA
ENDBRANCH   9  14
ENDBRANCH   6   8
ENDBRANCH   5   6
ENDBRANCH   4   5
ENDBRANCH   3   4
ENDBRANCH   2   3
ENDBRANCH   1   2
BRANCH   1  24
ATOM     24  C   UNL A   1      34.740  31.308  29.014  1.00  0.00     0.261 C 
BRANCH  24  25
ATOM     25  O   UNL A   1      35.979  32.031  29.099  1.00  0.00    -0.460 OA
BRANCH  25  26
ATOM     26  C   UNL A   1      36.710  31.767  30.211  1.00  0.00     0.338 C 
ATOM     27  O   UNL A   1      36.411  32.026  31.367  1.00  0.00    -0.246 OA
BRANCH  26  28
ATOM     28  C   UNL A   1      37.883  30.947  29.863  1.00  0.00     0.060 A 
ATOM     29  C   UNL A   1      38.772  30.604  30.892  1.00  0.00     0.016 A 
ATOM     30  C   UNL A   1      38.159  30.600  28.541  1.00  0.00     0.016 A 
ATOM     31  C   UNL A   1      39.965  29.949  30.594  1.00  0.00     0.010 A 
ATOM     32  C   UNL A   1      39.363  29.951  28.244  1.00  0.00     0.010 A 
ATOM     33  C   UNL A   1      40.286  29.654  29.263  1.00  0.00    -0.014 A 
BRANCH  33  34
ATOM     34  C   UNL A   1      41.648  29.175  28.914  1.00  0.00     0.031 A 
ATOM     35  C   UNL A   1      42.783  30.162  28.910  1.00  0.00     0.074 A 
ATOM     36  C   UNL A   1      41.869  27.882  28.614  1.00  0.00     0.049 A 
ATOM     37  N   UNL A   1      44.025  29.998  28.532  1.00  0.00    -0.248 NA
ATOM     38  C   UNL A   1      42.477  31.521  29.392  1.00  0.00     0.031 C 
ATOM     39  C   UNL A   1      40.859  26.824  28.632  1.00  0.00     0.029 A 
ATOM     40  N   UNL A   1      43.019  27.243  28.220  1.00  0.00    -0.354 N 
ATOM     41  C   UNL A   1      44.645  31.227  28.722  1.00  0.00     0.074 A 
ATOM     42  C   UNL A   1      43.637  32.139  29.218  1.00  0.00     0.031 C 
ATOM     43  C   UNL A   1      41.431  25.670  28.243  1.00  0.00     0.029 A 
ATOM     44  C   UNL A   1      42.833  25.916  27.911  1.00  0.00     0.049 A 
ATOM     45  H   UNL A   1      43.893  27.693  28.162  1.00  0.00     0.167 HD
ATOM     46  C   UNL A   1      45.940  31.562  28.512  1.00  0.00     0.037 A 
ATOM     47  C   UNL A   1      43.688  25.014  27.388  1.00  0.00     0.037 A 
ATOM     48  C   UNL A   1      46.939  30.646  28.026  1.00  0.00     0.049 A 
ATOM     49  C   UNL A   1      45.107  25.432  27.089  1.00  0.00     0.074 A 
ATOM     50  C   UNL A   1      48.279  30.887  27.777  1.00  0.00     0.029 A 
ATOM     51  N   UNL A   1      46.710  29.313  27.717  1.00  0.00    -0.354 N 
ATOM     52  N   UNL A   1      45.681  26.598  27.273  1.00  0.00    -0.248 NA
ATOM     53  C   UNL A   1      45.997  24.413  26.515  1.00  0.00     0.031 C 
ATOM     54  C   UNL A   1      48.848  29.714  27.273  1.00  0.00     0.029 A 
ATOM     55  C   UNL A   1      47.880  28.725  27.267  1.00  0.00     0.049 A 
ATOM     56  H   UNL A   1      45.844  28.853  27.805  1.00  0.00     0.167 HD
ATOM     57  C   UNL A   1      47.008  26.437  26.881  1.00  0.00     0.074 A 
ATOM     58  C   UNL A   1      47.152  25.062  26.452  1.00  0.00     0.031 C 
ATOM     59  C   UNL A   1      48.016  27.344  26.878  1.00  0.00     0.037 A 
BRANCH  46  60
ATOM     60  C   UNL A   1      46.361  32.976  28.798  1.00  0.00     0.058 A 
ATOM     61  C   UNL A   1      46.286  33.981  27.820  1.00  0.00     0.135 A 
ATOM     62  C   UNL A   1      46.773  33.350  30.088  1.00  0.00     0.135 A 
ATOM     63  F   UNL A   1      45.917  33.675  26.565  1.00  0.00    -0.206 F 
ATOM     64  C   UNL A   1      46.611  35.302  28.107  1.00  0.00     0.059 A 
ATOM     65  C   UNL A   1      47.076  34.671  30.405  1.00  0.00     0.059 A 
ATOM     66  F   UNL A   1      46.869  32.429  31.060  1.00  0.00    -0.206 F 
ATOM     67  C   UNL A   1      46.997  35.639  29.405  1.00  0.00     0.060 A 
BRANCH  67  68
ATOM     68  S   UNL A   1      47.372  37.367  29.771  1.00  0.00     0.124 S 
ATOM     69  O   UNL A   1      46.447  38.060  28.879  1.00  0.00    -0.237 OA
ATOM     70  O   UNL A   1      47.067  37.457  31.194  1.00  0.00    -0.237 OA
ATOM     71  O   UNL A   1      48.785  37.491  29.425  1.00  0.00    -0.744 OA
ENDBRANCH  67  68
ENDBRANCH  46  60
BRANCH  47  72
ATOM     72  C   UNL A   1      43.231  23.630  27.079  1.00  0.00     0.058 A 
ATOM     73  C   UNL A   1      43.083  22.669  28.091  1.00  0.00     0.135 A 
ATOM     74  C   UNL A   1      42.980  23.227  25.758  1.00  0.00     0.135 A 
ATOM     75  F   UNL A   1      43.319  23.001  29.369  1.00  0.00    -0.206 F 
ATOM     76  C   UNL A   1      42.743  21.351  27.802  1.00  0.00     0.059 A 
ATOM     77  C   UNL A   1      42.607  21.923  25.447  1.00  0.00     0.059 A 
ATOM     78  F   UNL A   1      43.095  24.108  24.751  1.00  0.00    -0.206 F 
ATOM     79  C   UNL A   1      42.512  20.987  26.475  1.00  0.00     0.060 A 
BRANCH  79  80
ATOM     80  S   UNL A   1      42.080  19.272  26.108  1.00  0.00     0.124 S 
ATOM     81  O   UNL A   1      42.479  18.600  27.339  1.00  0.00    -0.237 OA
ATOM     82  O   UNL A   1      40.643  19.364  25.867  1.00  0.00    -0.237 OA
ATOM     83  O   UNL A   1      42.887  18.966  24.932  1.00  0.00    -0.744 OA
ENDBRANCH  79  80
ENDBRANCH  47  72
BRANCH  59  84
ATOM     84  C   UNL A   1      49.386  26.871  26.469  1.00  0.00     0.058 A 
ATOM     85  C   UNL A   1      50.300  26.345  27.394  1.00  0.00     0.135 A 
ATOM     86  C   UNL A   1      49.757  26.880  25.114  1.00  0.00     0.135 A 
ATOM     87  F   UNL A   1      49.999  26.315  28.701  1.00  0.00    -0.206 F 
ATOM     88  C   UNL A   1      51.542  25.862  26.992  1.00  0.00     0.059 A 
ATOM     89  C   UNL A   1      50.981  26.375  24.686  1.00  0.00     0.059 A 
ATOM     90  F   UNL A   1      48.915  27.362  24.185  1.00  0.00    -0.206 F 
ATOM     91  C   UNL A   1      51.871  25.877  25.635  1.00  0.00     0.060 A 
BRANCH  91  92
ATOM     92  S   UNL A   1      53.466  25.202  25.124  1.00  0.00     0.124 S 
ATOM     93  O   UNL A   1      53.555  25.669  23.745  1.00  0.00    -0.237 OA
ATOM     94  O   UNL A   1      54.386  25.830  26.066  1.00  0.00    -0.237 OA
ATOM     95  O   UNL A   1      53.297  23.761  25.289  1.00  0.00    -0.744 OA
ENDBRANCH  91  92
ENDBRANCH  59  84
ENDBRANCH  33  34
ENDBRANCH  26  28
ENDBRANCH  25  26
ENDBRANCH  24  25
ENDBRANCH   1  24
TORSDOF 18
ENDMDL
