MODEL 1
REMARK VINA RESULT:     -11.0      0.000      0.000
REMARK SMILES Cc1nn(Cc2ccc(C(=O)OCCOCCOC(=O)c3ccc(-c4c5nc(c(-c6c(F)cc(S(=O)(=O)[O-])cc6F)c6ccc([nH]6)c(-c6c(F)cc(S(=O)(=O)[O-])cc6F)c6nc(c(-c7c(F)cc(S(=O)(=O)[O-])cc7F)c7ccc4[nH]7)C=C6)C=C5)cc3)o2)c(C)c1C
REMARK SMILES IDX 16 1 15 2 14 3 13 4 12 5 10 6 11 7 9 8 6 9 7 10 87 11 8 12
REMARK SMILES IDX 5 13 4 14 1 15 2 16 3 17 90 18 88 19 91 20 89 21 17 22 18 23
REMARK SMILES IDX 19 24 20 25 21 26 22 27 86 28 23 29 85 30 24 31 25 32 26 33
REMARK SMILES IDX 79 34 27 35 84 36 78 37 80 38 28 39 83 40 77 41 76 42 29 44
REMARK SMILES IDX 63 45 42 46 62 47 43 48 46 49 61 50 81 51 44 52 45 53 60 55
REMARK SMILES IDX 82 56 47 57 30 58 31 59 40 60 32 61 33 62 39 63 41 64 34 65
REMARK SMILES IDX 35 66 36 67 37 68 38 69 64 70 65 71 74 72 66 73 67 74 73 75
REMARK SMILES IDX 75 76 68 77 69 78 70 79 71 80 72 81 48 82 49 83 58 84 50 85
REMARK SMILES IDX 51 86 57 87 59 88 52 89 53 90 54 91 55 92 56 93
REMARK H PARENT 80 43 46 54
REMARK Flexibility Score: inf
ROOT
ATOM      1  C   UNL A   1      37.538  21.512  24.879  1.00  0.00     0.202 C 
ENDROOT
BRANCH   1   2
ATOM      2  O   UNL A   1      36.435  22.374  25.143  1.00  0.00    -0.374 OA
BRANCH   2   3
ATOM      3  C   UNL A   1      35.939  23.247  24.131  1.00  0.00     0.202 C 
BRANCH   3   4
ATOM      4  C   UNL A   1      34.577  22.957  23.489  1.00  0.00     0.261 C 
BRANCH   4   5
ATOM      5  O   UNL A   1      33.617  24.010  23.666  1.00  0.00    -0.457 OA
BRANCH   5   6
ATOM      6  C   UNL A   1      33.461  24.820  22.576  1.00  0.00     0.374 C 
ATOM      7  O   UNL A   1      33.440  24.431  21.415  1.00  0.00    -0.242 OA
BRANCH   6   8
ATOM      8  C   UNL A   1      33.117  26.165  22.981  1.00  0.00     0.211 A 
ATOM      9  C   UNL A   1      32.404  27.790  24.289  1.00  0.00     0.126 A 
ATOM     10  C   UNL A   1      32.907  28.391  23.153  1.00  0.00     0.048 A 
ATOM     11  O   UNL A   1      32.487  26.424  24.169  1.00  0.00    -0.452 OA
ATOM     12  C   UNL A   1      33.388  27.354  22.330  1.00  0.00     0.058 A 
BRANCH   9  13
ATOM     13  C   UNL A   1      31.949  28.333  25.598  1.00  0.00     0.219 C 
BRANCH  13  14
ATOM     14  N   UNL A   1      32.929  29.190  26.264  1.00  0.00    -0.262 N 
ATOM     15  C   UNL A   1      35.977  29.448  28.073  1.00  0.00     0.069 C 
ATOM     16  C   UNL A   1      34.665  29.651  27.408  1.00  0.00     0.063 A 
ATOM     17  N   UNL A   1      34.074  28.648  26.746  1.00  0.00    -0.177 NA
ATOM     18  C   UNL A   1      33.875  30.830  27.400  1.00  0.00    -0.007 A 
ATOM     19  C   UNL A   1      32.746  30.491  26.674  1.00  0.00     0.039 A 
ATOM     20  C   UNL A   1      34.173  32.132  28.054  1.00  0.00     0.048 C 
ATOM     21  C   UNL A   1      31.529  31.285  26.371  1.00  0.00     0.066 C 
ENDBRANCH  13  14
ENDBRANCH   9  13
ENDBRANCH   6   8
ENDBRANCH   5   6
ENDBRANCH   4   5
ENDBRANCH   3   4
ENDBRANCH   2   3
ENDBRANCH   1   2
BRANCH   1  22
ATOM     22  C   UNL A   1      38.751  21.531  25.800  1.00  0.00     0.261 C 
BRANCH  22  23
ATOM     23  O   UNL A   1      38.920  22.791  26.417  1.00  0.00    -0.460 OA
BRANCH  23  24
ATOM     24  C   UNL A   1      40.044  22.889  27.166  1.00  0.00     0.338 C 
ATOM     25  O   UNL A   1      40.501  22.058  27.924  1.00  0.00    -0.246 OA
BRANCH  24  26
ATOM     26  C   UNL A   1      40.576  24.247  27.003  1.00  0.00     0.060 A 
ATOM     27  C   UNL A   1      41.831  24.468  27.574  1.00  0.00     0.016 A 
ATOM     28  C   UNL A   1      39.687  25.290  26.705  1.00  0.00     0.016 A 
ATOM     29  C   UNL A   1      42.049  25.689  28.163  1.00  0.00     0.010 A 
ATOM     30  C   UNL A   1      39.897  26.496  27.312  1.00  0.00     0.010 A 
ATOM     31  C   UNL A   1      41.015  26.628  28.130  1.00  0.00    -0.014 A 
BRANCH  31  32
ATOM     32  C   UNL A   1      41.145  27.820  28.930  1.00  0.00     0.031 A 
ATOM     33  C   UNL A   1      42.259  28.663  28.457  1.00  0.00     0.074 A 
ATOM     34  C   UNL A   1      40.255  28.127  29.893  1.00  0.00     0.049 A 
ATOM     35  N   UNL A   1      43.417  28.819  29.006  1.00  0.00    -0.248 NA
ATOM     36  C   UNL A   1      42.177  29.174  27.076  1.00  0.00     0.031 C 
ATOM     37  C   UNL A   1      38.989  27.465  30.224  1.00  0.00     0.029 A 
ATOM     38  N   UNL A   1      40.266  29.193  30.735  1.00  0.00    -0.354 N 
ATOM     39  C   UNL A   1      44.105  29.668  28.151  1.00  0.00     0.074 A 
ATOM     40  C   UNL A   1      43.422  29.610  26.889  1.00  0.00     0.031 C 
ATOM     41  C   UNL A   1      38.255  28.274  31.025  1.00  0.00     0.029 A 
ATOM     42  C   UNL A   1      39.047  29.440  31.368  1.00  0.00     0.049 A 
ATOM     43  H   UNL A   1      41.066  29.746  30.886  1.00  0.00     0.167 HD
ATOM     44  C   UNL A   1      44.983  30.588  28.631  1.00  0.00     0.037 A 
ATOM     45  C   UNL A   1      38.737  30.590  32.028  1.00  0.00     0.037 A 
ATOM     46  C   UNL A   1      45.371  30.273  29.983  1.00  0.00     0.049 A 
ATOM     47  C   UNL A   1      40.037  31.247  32.359  1.00  0.00     0.074 A 
ATOM     48  C   UNL A   1      46.011  29.200  30.574  1.00  0.00     0.029 A 
ATOM     49  N   UNL A   1      44.719  30.932  31.000  1.00  0.00    -0.354 N 
ATOM     50  N   UNL A   1      40.915  30.729  33.180  1.00  0.00    -0.248 NA
ATOM     51  C   UNL A   1      40.578  32.184  31.383  1.00  0.00     0.031 C 
ATOM     52  C   UNL A   1      45.333  28.999  31.810  1.00  0.00     0.029 A 
ATOM     53  C   UNL A   1      44.374  30.003  31.951  1.00  0.00     0.049 A 
ATOM     54  H   UNL A   1      44.535  31.897  31.040  1.00  0.00     0.167 HD
ATOM     55  C   UNL A   1      42.147  30.941  32.573  1.00  0.00     0.074 A 
ATOM     56  C   UNL A   1      41.877  31.882  31.486  1.00  0.00     0.031 C 
ATOM     57  C   UNL A   1      43.212  30.116  32.809  1.00  0.00     0.037 A 
BRANCH  44  58
ATOM     58  C   UNL A   1      45.175  31.955  28.017  1.00  0.00     0.058 A 
ATOM     59  C   UNL A   1      46.453  32.321  27.555  1.00  0.00     0.135 A 
ATOM     60  C   UNL A   1      44.232  33.007  28.092  1.00  0.00     0.135 A 
ATOM     61  F   UNL A   1      47.431  31.408  27.452  1.00  0.00    -0.206 F 
ATOM     62  C   UNL A   1      46.784  33.641  27.250  1.00  0.00     0.059 A 
ATOM     63  C   UNL A   1      44.522  34.315  27.736  1.00  0.00     0.059 A 
ATOM     64  F   UNL A   1      43.007  32.850  28.605  1.00  0.00    -0.206 F 
ATOM     65  C   UNL A   1      45.812  34.633  27.355  1.00  0.00     0.060 A 
BRANCH  65  66
ATOM     66  S   UNL A   1      46.255  36.350  27.054  1.00  0.00     0.124 S 
ATOM     67  O   UNL A   1      46.812  36.275  25.709  1.00  0.00    -0.237 OA
ATOM     68  O   UNL A   1      44.963  37.017  27.178  1.00  0.00    -0.237 OA
ATOM     69  O   UNL A   1      47.211  36.643  28.118  1.00  0.00    -0.744 OA
ENDBRANCH  65  66
ENDBRANCH  44  58
BRANCH  45  70
ATOM     70  C   UNL A   1      37.448  31.338  31.986  1.00  0.00     0.058 A 
ATOM     71  C   UNL A   1      36.762  31.701  33.160  1.00  0.00     0.135 A 
ATOM     72  C   UNL A   1      37.006  31.962  30.800  1.00  0.00     0.135 A 
ATOM     73  F   UNL A   1      37.130  31.180  34.341  1.00  0.00    -0.206 F 
ATOM     74  C   UNL A   1      35.729  32.652  33.165  1.00  0.00     0.059 A 
ATOM     75  C   UNL A   1      35.978  32.904  30.779  1.00  0.00     0.059 A 
ATOM     76  F   UNL A   1      37.625  31.744  29.631  1.00  0.00    -0.206 F 
ATOM     77  C   UNL A   1      35.358  33.263  31.968  1.00  0.00     0.060 A 
BRANCH  77  78
ATOM     78  S   UNL A   1      34.147  34.610  31.980  1.00  0.00     0.124 S 
ATOM     79  O   UNL A   1      34.943  35.730  32.471  1.00  0.00    -0.237 OA
ATOM     80  O   UNL A   1      33.746  34.678  30.579  1.00  0.00    -0.237 OA
ATOM     81  O   UNL A   1      33.116  34.131  32.897  1.00  0.00    -0.744 OA
ENDBRANCH  77  78
ENDBRANCH  45  70
BRANCH  57  82
ATOM     82  C   UNL A   1      43.100  29.105  33.927  1.00  0.00     0.058 A 
ATOM     83  C   UNL A   1      43.330  29.386  35.287  1.00  0.00     0.135 A 
ATOM     84  C   UNL A   1      42.568  27.845  33.620  1.00  0.00     0.135 A 
ATOM     85  F   UNL A   1      43.740  30.602  35.677  1.00  0.00    -0.206 F 
ATOM     86  C   UNL A   1      43.077  28.446  36.289  1.00  0.00     0.059 A 
ATOM     87  C   UNL A   1      42.279  26.902  34.603  1.00  0.00     0.059 A 
ATOM     88  F   UNL A   1      42.266  27.536  32.348  1.00  0.00    -0.206 F 
ATOM     89  C   UNL A   1      42.549  27.204  35.936  1.00  0.00     0.060 A 
BRANCH  89  90
ATOM     90  S   UNL A   1      42.158  26.004  37.230  1.00  0.00     0.124 S 
ATOM     91  O   UNL A   1      40.749  26.282  37.489  1.00  0.00    -0.237 OA
ATOM     92  O   UNL A   1      42.444  24.729  36.578  1.00  0.00    -0.237 OA
ATOM     93  O   UNL A   1      43.072  26.359  38.312  1.00  0.00    -0.744 OA
ENDBRANCH  89  90
ENDBRANCH  57  82
ENDBRANCH  31  32
ENDBRANCH  24  26
ENDBRANCH  23  24
ENDBRANCH  22  23
ENDBRANCH   1  22
TORSDOF 19
ENDMDL
MODEL 2
REMARK VINA RESULT:     -11.0      2.792      4.840
REMARK SMILES Cc1nn(Cc2ccc(C(=O)OCCOCCOC(=O)c3ccc(-c4c5nc(c(-c6c(F)cc(S(=O)(=O)[O-])cc6F)c6ccc([nH]6)c(-c6c(F)cc(S(=O)(=O)[O-])cc6F)c6nc(c(-c7c(F)cc(S(=O)(=O)[O-])cc7F)c7ccc4[nH]7)C=C6)C=C5)cc3)o2)c(C)c1C
REMARK SMILES IDX 16 1 15 2 14 3 13 4 12 5 10 6 11 7 9 8 6 9 7 10 87 11 8 12
REMARK SMILES IDX 5 13 4 14 1 15 2 16 3 17 90 18 88 19 91 20 89 21 17 22 18 23
REMARK SMILES IDX 19 24 20 25 21 26 22 27 86 28 23 29 85 30 24 31 25 32 26 33
REMARK SMILES IDX 79 34 27 35 84 36 78 37 80 38 28 39 83 40 77 41 76 42 29 44
REMARK SMILES IDX 63 45 42 46 62 47 43 48 46 49 61 50 81 51 44 52 45 53 60 55
REMARK SMILES IDX 82 56 47 57 30 58 31 59 40 60 32 61 33 62 39 63 41 64 34 65
REMARK SMILES IDX 35 66 36 67 37 68 38 69 64 70 65 71 74 72 66 73 67 74 73 75
REMARK SMILES IDX 75 76 68 77 69 78 70 79 71 80 72 81 48 82 49 83 58 84 50 85
REMARK SMILES IDX 51 86 57 87 59 88 52 89 53 90 54 91 55 92 56 93
REMARK H PARENT 80 43 46 54
REMARK Flexibility Score: inf
ROOT
ATOM      1  C   UNL A   1      44.394  19.339  25.140  1.00  0.00     0.202 C 
ENDROOT
BRANCH   1   2
ATOM      2  O   UNL A   1      42.982  19.524  25.108  1.00  0.00    -0.374 OA
BRANCH   2   3
ATOM      3  C   UNL A   1      42.163  19.041  26.171  1.00  0.00     0.202 C 
BRANCH   3   4
ATOM      4  C   UNL A   1      40.814  19.716  26.447  1.00  0.00     0.261 C 
BRANCH   4   5
ATOM      5  O   UNL A   1      40.706  21.041  25.903  1.00  0.00    -0.457 OA
BRANCH   5   6
ATOM      6  C   UNL A   1      40.179  21.963  26.765  1.00  0.00     0.374 C 
ATOM      7  O   UNL A   1      40.776  22.450  27.716  1.00  0.00    -0.242 OA
BRANCH   6   8
ATOM      8  C   UNL A   1      38.900  22.440  26.287  1.00  0.00     0.211 A 
ATOM      9  C   UNL A   1      36.854  22.345  25.473  1.00  0.00     0.126 A 
ATOM     10  C   UNL A   1      37.080  23.663  25.815  1.00  0.00     0.048 A 
ATOM     11  O   UNL A   1      37.981  21.599  25.717  1.00  0.00    -0.452 OA
ATOM     12  C   UNL A   1      38.378  23.718  26.360  1.00  0.00     0.058 A 
BRANCH   9  13
ATOM     13  C   UNL A   1      35.629  21.612  25.050  1.00  0.00     0.219 C 
BRANCH  13  14
ATOM     14  N   UNL A   1      34.395  22.385  25.174  1.00  0.00    -0.262 N 
ATOM     15  C   UNL A   1      31.476  23.130  27.058  1.00  0.00     0.069 C 
ATOM     16  C   UNL A   1      32.544  22.988  26.036  1.00  0.00     0.063 A 
ATOM     17  N   UNL A   1      33.652  22.286  26.303  1.00  0.00    -0.177 NA
ATOM     18  C   UNL A   1      32.545  23.499  24.712  1.00  0.00    -0.007 A 
ATOM     19  C   UNL A   1      33.744  23.069  24.171  1.00  0.00     0.039 A 
ATOM     20  C   UNL A   1      31.481  24.290  24.039  1.00  0.00     0.048 C 
ATOM     21  C   UNL A   1      34.291  23.236  22.801  1.00  0.00     0.066 C 
ENDBRANCH  13  14
ENDBRANCH   9  13
ENDBRANCH   6   8
ENDBRANCH   5   6
ENDBRANCH   4   5
ENDBRANCH   3   4
ENDBRANCH   2   3
ENDBRANCH   1   2
BRANCH   1  22
ATOM     22  C   UNL A   1      45.279  20.105  24.168  1.00  0.00     0.261 C 
BRANCH  22  23
ATOM     23  O   UNL A   1      44.641  21.269  23.684  1.00  0.00    -0.460 OA
BRANCH  23  24
ATOM     24  C   UNL A   1      45.173  22.423  24.153  1.00  0.00     0.338 C 
ATOM     25  O   UNL A   1      46.205  22.957  23.799  1.00  0.00    -0.246 OA
BRANCH  24  26
ATOM     26  C   UNL A   1      44.344  22.877  25.275  1.00  0.00     0.060 A 
ATOM     27  C   UNL A   1      43.185  23.568  24.918  1.00  0.00     0.016 A 
ATOM     28  C   UNL A   1      44.928  22.986  26.545  1.00  0.00     0.016 A 
ATOM     29  C   UNL A   1      42.812  24.625  25.709  1.00  0.00     0.010 A 
ATOM     30  C   UNL A   1      44.569  24.054  27.319  1.00  0.00     0.010 A 
ATOM     31  C   UNL A   1      43.601  24.922  26.823  1.00  0.00    -0.014 A 
BRANCH  31  32
ATOM     32  C   UNL A   1      43.355  26.153  27.531  1.00  0.00     0.031 A 
ATOM     33  C   UNL A   1      44.407  27.149  27.254  1.00  0.00     0.074 A 
ATOM     34  C   UNL A   1      42.227  26.350  28.240  1.00  0.00     0.049 A 
ATOM     35  N   UNL A   1      45.365  27.520  28.036  1.00  0.00    -0.248 NA
ATOM     36  C   UNL A   1      44.577  27.577  25.853  1.00  0.00     0.031 C 
ATOM     37  C   UNL A   1      41.035  25.500  28.330  1.00  0.00     0.029 A 
ATOM     38  N   UNL A   1      41.876  27.439  28.972  1.00  0.00    -0.354 N 
ATOM     39  C   UNL A   1      46.099  28.433  27.291  1.00  0.00     0.074 A 
ATOM     40  C   UNL A   1      45.750  28.206  25.917  1.00  0.00     0.031 C 
ATOM     41  C   UNL A   1      40.018  26.210  28.875  1.00  0.00     0.029 A 
ATOM     42  C   UNL A   1      40.519  27.507  29.291  1.00  0.00     0.049 A 
ATOM     43  H   UNL A   1      42.525  28.124  29.254  1.00  0.00     0.167 HD
ATOM     44  C   UNL A   1      46.687  29.508  27.879  1.00  0.00     0.037 A 
ATOM     45  C   UNL A   1      39.891  28.617  29.767  1.00  0.00     0.037 A 
ATOM     46  C   UNL A   1      46.789  29.323  29.305  1.00  0.00     0.049 A 
ATOM     47  C   UNL A   1      40.960  29.496  30.328  1.00  0.00     0.074 A 
ATOM     48  C   UNL A   1      47.427  28.400  30.111  1.00  0.00     0.029 A 
ATOM     49  N   UNL A   1      45.823  29.908  30.091  1.00  0.00    -0.354 N 
ATOM     50  N   UNL A   1      41.688  29.169  31.365  1.00  0.00    -0.248 NA
ATOM     51  C   UNL A   1      41.568  30.466  29.426  1.00  0.00     0.031 C 
ATOM     52  C   UNL A   1      46.515  28.143  31.175  1.00  0.00     0.029 A 
ATOM     53  C   UNL A   1      45.408  28.978  31.013  1.00  0.00     0.049 A 
ATOM     54  H   UNL A   1      45.489  30.830  30.008  1.00  0.00     0.167 HD
ATOM     55  C   UNL A   1      42.982  29.557  31.037  1.00  0.00     0.074 A 
ATOM     56  C   UNL A   1      42.835  30.390  29.844  1.00  0.00     0.031 C 
ATOM     57  C   UNL A   1      44.073  28.933  31.574  1.00  0.00     0.037 A 
BRANCH  44  58
ATOM     58  C   UNL A   1      46.809  30.859  27.214  1.00  0.00     0.058 A 
ATOM     59  C   UNL A   1      48.075  31.467  27.131  1.00  0.00     0.135 A 
ATOM     60  C   UNL A   1      45.713  31.691  26.884  1.00  0.00     0.135 A 
ATOM     61  F   UNL A   1      49.186  30.777  27.432  1.00  0.00    -0.206 F 
ATOM     62  C   UNL A   1      48.234  32.814  26.806  1.00  0.00     0.059 A 
ATOM     63  C   UNL A   1      45.853  33.016  26.499  1.00  0.00     0.059 A 
ATOM     64  F   UNL A   1      44.440  31.301  27.009  1.00  0.00    -0.206 F 
ATOM     65  C   UNL A   1      47.114  33.582  26.502  1.00  0.00     0.060 A 
BRANCH  65  66
ATOM     66  S   UNL A   1      47.301  35.340  26.173  1.00  0.00     0.124 S 
ATOM     67  O   UNL A   1      45.923  35.733  25.902  1.00  0.00    -0.237 OA
ATOM     68  O   UNL A   1      47.870  35.820  27.428  1.00  0.00    -0.237 OA
ATOM     69  O   UNL A   1      48.204  35.374  25.027  1.00  0.00    -0.744 OA
ENDBRANCH  65  66
ENDBRANCH  44  58
BRANCH  45  70
ATOM     70  C   UNL A   1      38.550  29.136  29.374  1.00  0.00     0.058 A 
ATOM     71  C   UNL A   1      37.572  29.464  30.332  1.00  0.00     0.135 A 
ATOM     72  C   UNL A   1      38.301  29.591  28.062  1.00  0.00     0.135 A 
ATOM     73  F   UNL A   1      37.735  29.097  31.612  1.00  0.00    -0.206 F 
ATOM     74  C   UNL A   1      36.437  30.228  30.017  1.00  0.00     0.059 A 
ATOM     75  C   UNL A   1      37.178  30.346  27.724  1.00  0.00     0.059 A 
ATOM     76  F   UNL A   1      39.193  29.395  27.081  1.00  0.00    -0.206 F 
ATOM     77  C   UNL A   1      36.260  30.682  28.710  1.00  0.00     0.060 A 
BRANCH  77  78
ATOM     78  S   UNL A   1      34.895  31.808  28.322  1.00  0.00     0.124 S 
ATOM     79  O   UNL A   1      34.454  32.220  29.649  1.00  0.00    -0.237 OA
ATOM     80  O   UNL A   1      35.557  32.833  27.522  1.00  0.00    -0.237 OA
ATOM     81  O   UNL A   1      33.956  30.962  27.590  1.00  0.00    -0.744 OA
ENDBRANCH  77  78
ENDBRANCH  45  70
BRANCH  57  82
ATOM     82  C   UNL A   1      43.856  27.969  32.717  1.00  0.00     0.058 A 
ATOM     83  C   UNL A   1      43.748  26.571  32.576  1.00  0.00     0.135 A 
ATOM     84  C   UNL A   1      43.936  28.470  34.023  1.00  0.00     0.135 A 
ATOM     85  F   UNL A   1      43.769  26.000  31.363  1.00  0.00    -0.206 F 
ATOM     86  C   UNL A   1      43.687  25.720  33.682  1.00  0.00     0.059 A 
ATOM     87  C   UNL A   1      43.908  27.640  35.140  1.00  0.00     0.059 A 
ATOM     88  F   UNL A   1      44.104  29.787  34.226  1.00  0.00    -0.206 F 
ATOM     89  C   UNL A   1      43.768  26.265  34.964  1.00  0.00     0.060 A 
BRANCH  89  90
ATOM     90  S   UNL A   1      43.754  25.168  36.399  1.00  0.00     0.124 S 
ATOM     91  O   UNL A   1      43.561  23.859  35.782  1.00  0.00    -0.237 OA
ATOM     92  O   UNL A   1      45.068  25.402  36.992  1.00  0.00    -0.237 OA
ATOM     93  O   UNL A   1      42.628  25.655  37.191  1.00  0.00    -0.744 OA
ENDBRANCH  89  90
ENDBRANCH  57  82
ENDBRANCH  31  32
ENDBRANCH  24  26
ENDBRANCH  23  24
ENDBRANCH  22  23
ENDBRANCH   1  22
TORSDOF 19
ENDMDL
MODEL 3
REMARK VINA RESULT:     -11.0      3.143      6.002
REMARK SMILES Cc1nn(Cc2ccc(C(=O)OCCOCCOC(=O)c3ccc(-c4c5nc(c(-c6c(F)cc(S(=O)(=O)[O-])cc6F)c6ccc([nH]6)c(-c6c(F)cc(S(=O)(=O)[O-])cc6F)c6nc(c(-c7c(F)cc(S(=O)(=O)[O-])cc7F)c7ccc4[nH]7)C=C6)C=C5)cc3)o2)c(C)c1C
REMARK SMILES IDX 16 1 15 2 14 3 13 4 12 5 10 6 11 7 9 8 6 9 7 10 87 11 8 12
REMARK SMILES IDX 5 13 4 14 1 15 2 16 3 17 90 18 88 19 91 20 89 21 17 22 18 23
REMARK SMILES IDX 19 24 20 25 21 26 22 27 86 28 23 29 85 30 24 31 25 32 26 33
REMARK SMILES IDX 79 34 27 35 84 36 78 37 80 38 28 39 83 40 77 41 76 42 29 44
REMARK SMILES IDX 63 45 42 46 62 47 43 48 46 49 61 50 81 51 44 52 45 53 60 55
REMARK SMILES IDX 82 56 47 57 30 58 31 59 40 60 32 61 33 62 39 63 41 64 34 65
REMARK SMILES IDX 35 66 36 67 37 68 38 69 64 70 65 71 74 72 66 73 67 74 73 75
REMARK SMILES IDX 75 76 68 77 69 78 70 79 71 80 72 81 48 82 49 83 58 84 50 85
REMARK SMILES IDX 51 86 57 87 59 88 52 89 53 90 54 91 55 92 56 93
REMARK H PARENT 80 43 46 54
REMARK Flexibility Score: inf
ROOT
ATOM      1  C   UNL A   1      41.066  20.874  27.579  1.00  0.00     0.202 C 
ENDROOT
BRANCH   1   2
ATOM      2  O   UNL A   1      41.670  19.584  27.556  1.00  0.00    -0.374 OA
BRANCH   2   3
ATOM      3  C   UNL A   1      41.971  18.946  26.316  1.00  0.00     0.202 C 
BRANCH   3   4
ATOM      4  C   UNL A   1      43.252  18.114  26.191  1.00  0.00     0.261 C 
BRANCH   4   5
ATOM      5  O   UNL A   1      43.964  18.327  24.961  1.00  0.00    -0.457 OA
BRANCH   5   6
ATOM      6  C   UNL A   1      45.242  18.787  25.122  1.00  0.00     0.374 C 
ATOM      7  O   UNL A   1      46.224  18.075  25.284  1.00  0.00    -0.242 OA
BRANCH   6   8
ATOM      8  C   UNL A   1      45.311  20.209  24.868  1.00  0.00     0.211 A 
ATOM      9  C   UNL A   1      44.647  22.310  24.793  1.00  0.00     0.126 A 
ATOM     10  C   UNL A   1      45.984  22.307  24.450  1.00  0.00     0.048 A 
ATOM     11  O   UNL A   1      44.217  21.023  25.005  1.00  0.00    -0.452 OA
ATOM     12  C   UNL A   1      46.414  20.968  24.525  1.00  0.00     0.058 A 
BRANCH   9  13
ATOM     13  C   UNL A   1      43.688  23.408  25.096  1.00  0.00     0.219 C 
BRANCH  13  14
ATOM     14  N   UNL A   1      44.308  24.606  25.659  1.00  0.00    -0.262 N 
ATOM     15  C   UNL A   1      45.817  27.773  25.095  1.00  0.00     0.069 C 
ATOM     16  C   UNL A   1      45.301  26.489  25.634  1.00  0.00     0.063 A 
ATOM     17  N   UNL A   1      44.637  25.637  24.843  1.00  0.00    -0.177 NA
ATOM     18  C   UNL A   1      45.449  25.985  26.952  1.00  0.00    -0.007 A 
ATOM     19  C   UNL A   1      44.819  24.752  26.930  1.00  0.00     0.039 A 
ATOM     20  C   UNL A   1      46.155  26.618  28.098  1.00  0.00     0.048 C 
ATOM     21  C   UNL A   1      44.692  23.722  27.991  1.00  0.00     0.066 C 
ENDBRANCH  13  14
ENDBRANCH   9  13
ENDBRANCH   6   8
ENDBRANCH   5   6
ENDBRANCH   4   5
ENDBRANCH   3   4
ENDBRANCH   2   3
ENDBRANCH   1   2
BRANCH   1  22
ATOM     22  C   UNL A   1      40.039  21.247  26.520  1.00  0.00     0.261 C 
BRANCH  22  23
ATOM     23  O   UNL A   1      40.297  22.521  25.966  1.00  0.00    -0.460 OA
BRANCH  23  24
ATOM     24  C   UNL A   1      39.639  23.532  26.583  1.00  0.00     0.338 C 
ATOM     25  O   UNL A   1      38.448  23.610  26.804  1.00  0.00    -0.246 OA
BRANCH  24  26
ATOM     26  C   UNL A   1      40.606  24.605  26.843  1.00  0.00     0.060 A 
ATOM     27  C   UNL A   1      41.343  24.471  28.021  1.00  0.00     0.016 A 
ATOM     28  C   UNL A   1      40.440  25.835  26.190  1.00  0.00     0.016 A 
ATOM     29  C   UNL A   1      41.618  25.616  28.726  1.00  0.00     0.010 A 
ATOM     30  C   UNL A   1      40.695  26.972  26.905  1.00  0.00     0.010 A 
ATOM     31  C   UNL A   1      41.163  26.831  28.208  1.00  0.00    -0.014 A 
BRANCH  31  32
ATOM     32  C   UNL A   1      41.247  28.006  29.039  1.00  0.00     0.031 A 
ATOM     33  C   UNL A   1      42.371  28.871  28.632  1.00  0.00     0.074 A 
ATOM     34  C   UNL A   1      40.315  28.283  29.970  1.00  0.00     0.049 A 
ATOM     35  N   UNL A   1      43.503  29.025  29.232  1.00  0.00    -0.248 NA
ATOM     36  C   UNL A   1      42.341  29.412  27.260  1.00  0.00     0.031 C 
ATOM     37  C   UNL A   1      39.044  27.601  30.234  1.00  0.00     0.029 A 
ATOM     38  N   UNL A   1      40.280  29.330  30.835  1.00  0.00    -0.354 N 
ATOM     39  C   UNL A   1      44.218  29.900  28.425  1.00  0.00     0.074 A 
ATOM     40  C   UNL A   1      43.588  29.863  27.135  1.00  0.00     0.031 C 
ATOM     41  C   UNL A   1      38.268  28.385  31.021  1.00  0.00     0.029 A 
ATOM     42  C   UNL A   1      39.033  29.551  31.422  1.00  0.00     0.049 A 
ATOM     43  H   UNL A   1      41.068  29.886  31.032  1.00  0.00     0.167 HD
ATOM     44  C   UNL A   1      45.065  30.817  28.961  1.00  0.00     0.037 A 
ATOM     45  C   UNL A   1      38.684  30.682  32.094  1.00  0.00     0.037 A 
ATOM     46  C   UNL A   1      45.400  30.475  30.321  1.00  0.00     0.049 A 
ATOM     47  C   UNL A   1      39.962  31.344  32.494  1.00  0.00     0.074 A 
ATOM     48  C   UNL A   1      46.027  29.396  30.914  1.00  0.00     0.029 A 
ATOM     49  N   UNL A   1      44.700  31.105  31.325  1.00  0.00    -0.354 N 
ATOM     50  N   UNL A   1      40.810  30.816  33.339  1.00  0.00    -0.248 NA
ATOM     51  C   UNL A   1      40.533  32.308  31.562  1.00  0.00     0.031 C 
ATOM     52  C   UNL A   1      45.300  29.160  32.117  1.00  0.00     0.029 A 
ATOM     53  C   UNL A   1      44.325  30.151  32.240  1.00  0.00     0.049 A 
ATOM     54  H   UNL A   1      44.503  32.067  31.378  1.00  0.00     0.167 HD
ATOM     55  C   UNL A   1      42.065  31.053  32.789  1.00  0.00     0.074 A 
ATOM     56  C   UNL A   1      41.830  32.016  31.713  1.00  0.00     0.031 C 
ATOM     57  C   UNL A   1      43.127  30.234  33.051  1.00  0.00     0.037 A 
BRANCH  44  58
ATOM     58  C   UNL A   1      45.268  32.199  28.387  1.00  0.00     0.058 A 
ATOM     59  C   UNL A   1      46.570  32.611  28.045  1.00  0.00     0.135 A 
ATOM     60  C   UNL A   1      44.289  33.221  28.392  1.00  0.00     0.135 A 
ATOM     61  F   UNL A   1      47.581  31.729  28.017  1.00  0.00    -0.206 F 
ATOM     62  C   UNL A   1      46.885  33.946  27.789  1.00  0.00     0.059 A 
ATOM     63  C   UNL A   1      44.569  34.544  28.082  1.00  0.00     0.059 A 
ATOM     64  F   UNL A   1      43.029  33.020  28.792  1.00  0.00    -0.206 F 
ATOM     65  C   UNL A   1      45.877  34.905  27.821  1.00  0.00     0.060 A 
BRANCH  65  66
ATOM     66  S   UNL A   1      46.291  36.640  27.585  1.00  0.00     0.124 S 
ATOM     67  O   UNL A   1      45.223  37.297  28.329  1.00  0.00    -0.237 OA
ATOM     68  O   UNL A   1      47.624  36.712  28.176  1.00  0.00    -0.237 OA
ATOM     69  O   UNL A   1      46.243  36.803  26.135  1.00  0.00    -0.744 OA
ENDBRANCH  65  66
ENDBRANCH  44  58
BRANCH  45  70
ATOM     70  C   UNL A   1      37.390  31.419  32.015  1.00  0.00     0.058 A 
ATOM     71  C   UNL A   1      36.712  31.853  33.170  1.00  0.00     0.135 A 
ATOM     72  C   UNL A   1      36.934  31.961  30.795  1.00  0.00     0.135 A 
ATOM     73  F   UNL A   1      37.093  31.412  34.379  1.00  0.00    -0.206 F 
ATOM     74  C   UNL A   1      35.673  32.796  33.122  1.00  0.00     0.059 A 
ATOM     75  C   UNL A   1      35.900  32.894  30.722  1.00  0.00     0.059 A 
ATOM     76  F   UNL A   1      37.545  31.671  29.638  1.00  0.00    -0.206 F 
ATOM     77  C   UNL A   1      35.288  33.326  31.891  1.00  0.00     0.060 A 
BRANCH  77  78
ATOM     78  S   UNL A   1      34.069  34.665  31.827  1.00  0.00     0.124 S 
ATOM     79  O   UNL A   1      34.859  35.816  32.247  1.00  0.00    -0.237 OA
ATOM     80  O   UNL A   1      33.663  34.646  30.424  1.00  0.00    -0.237 OA
ATOM     81  O   UNL A   1      33.043  34.234  32.773  1.00  0.00    -0.744 OA
ENDBRANCH  77  78
ENDBRANCH  45  70
BRANCH  57  82
ATOM     82  C   UNL A   1      42.980  29.197  34.140  1.00  0.00     0.058 A 
ATOM     83  C   UNL A   1      42.531  27.878  33.934  1.00  0.00     0.135 A 
ATOM     84  C   UNL A   1      43.480  29.505  35.412  1.00  0.00     0.135 A 
ATOM     85  F   UNL A   1      42.132  27.470  32.721  1.00  0.00    -0.206 F 
ATOM     86  C   UNL A   1      42.547  26.924  34.956  1.00  0.00     0.059 A 
ATOM     87  C   UNL A   1      43.535  28.565  36.436  1.00  0.00     0.059 A 
ATOM     88  F   UNL A   1      43.982  30.727  35.656  1.00  0.00    -0.206 F 
ATOM     89  C   UNL A   1      43.053  27.278  36.206  1.00  0.00     0.060 A 
BRANCH  89  90
ATOM     90  S   UNL A   1      43.138  26.035  37.515  1.00  0.00     0.124 S 
ATOM     91  O   UNL A   1      43.877  26.738  38.558  1.00  0.00    -0.237 OA
ATOM     92  O   UNL A   1      41.729  25.776  37.800  1.00  0.00    -0.237 OA
ATOM     93  O   UNL A   1      43.851  24.925  36.886  1.00  0.00    -0.744 OA
ENDBRANCH  89  90
ENDBRANCH  57  82
ENDBRANCH  31  32
ENDBRANCH  24  26
ENDBRANCH  23  24
ENDBRANCH  22  23
ENDBRANCH   1  22
TORSDOF 19
ENDMDL
