MODEL 1
REMARK VINA RESULT:     -10.5      0.000      0.000
REMARK SMILES O=C(Cc1cccn(C(F)F)c1=O)OCCOCCOC(=O)c1ccc(-c2c3nc(c(-c4c(F)cc(S(=O)(=O)[O-])cc4F)c4ccc([nH]4)c(-c4c(F)cc(S(=O)(=O)[O-])cc4F)c4nc(c(-c5c(F)cc(S(=O)(=O)[O-])cc5F)c5ccc2[nH]5)C=C4)C=C3)cc1
REMARK SMILES IDX 18 1 17 2 16 3 15 4 14 5 2 6 1 7 3 8 4 9 5 10 12 11 6 12
REMARK SMILES IDX 8 13 13 14 7 15 9 16 10 17 11 18 19 19 20 20 21 21 22 22
REMARK SMILES IDX 23 23 24 24 88 25 25 26 87 27 26 28 27 29 28 30 81 31 29 32
REMARK SMILES IDX 86 33 80 34 82 35 30 36 85 37 79 38 78 39 31 41 65 42 44 43
REMARK SMILES IDX 64 44 45 45 48 46 63 47 83 48 46 49 47 50 62 52 84 53 49 54
REMARK SMILES IDX 32 55 33 56 42 57 34 58 35 59 41 60 43 61 36 62 37 63 38 64
REMARK SMILES IDX 39 65 40 66 66 67 67 68 76 69 68 70 69 71 75 72 77 73 70 74
REMARK SMILES IDX 71 75 72 76 73 77 74 78 50 79 51 80 60 81 52 82 53 83 59 84
REMARK SMILES IDX 61 85 54 86 55 87 56 88 57 89 58 90
REMARK H PARENT 82 40 48 51
REMARK Flexibility Score: inf
ROOT
ATOM      1  C   UNL A   1      44.212  25.338  25.530  1.00  0.00     0.202 C 
ENDROOT
BRANCH   1   2
ATOM      2  O   UNL A   1      45.231  24.846  24.653  1.00  0.00    -0.374 OA
BRANCH   2   3
ATOM      3  C   UNL A   1      46.073  23.852  25.235  1.00  0.00     0.202 C 
BRANCH   3   4
ATOM      4  C   UNL A   1      46.171  22.584  24.399  1.00  0.00     0.261 C 
BRANCH   4   5
ATOM      5  O   UNL A   1      46.577  21.443  25.176  1.00  0.00    -0.463 OA
BRANCH   5   6
ATOM      6  C   UNL A   1      46.226  20.159  24.939  1.00  0.00     0.310 C 
ATOM      7  O   UNL A   1      47.009  19.257  25.245  1.00  0.00    -0.252 OA
BRANCH   6   8
ATOM      8  C   UNL A   1      44.889  19.816  24.305  1.00  0.00     0.164 C 
BRANCH   8   9
ATOM      9  C   UNL A   1      43.789  19.634  25.305  1.00  0.00     0.029 A 
ATOM     10  C   UNL A   1      43.555  18.491  25.973  1.00  0.00     0.011 A 
ATOM     11  C   UNL A   1      42.946  20.837  25.619  1.00  0.00     0.258 A 
ATOM     12  C   UNL A   1      42.588  18.444  27.041  1.00  0.00     0.019 A 
ATOM     13  N   UNL A   1      42.193  20.758  26.773  1.00  0.00    -0.258 N 
ATOM     14  O   UNL A   1      43.016  21.845  24.922  1.00  0.00    -0.269 OA
ATOM     15  C   UNL A   1      41.983  19.568  27.440  1.00  0.00     0.095 A 
BRANCH  13  16
ATOM     16  C   UNL A   1      41.581  21.974  27.244  1.00  0.00     0.451 C 
ATOM     17  F   UNL A   1      40.320  22.073  26.750  1.00  0.00    -0.185 F 
ATOM     18  F   UNL A   1      41.459  21.931  28.598  1.00  0.00    -0.185 F 
ENDBRANCH  13  16
ENDBRANCH   8   9
ENDBRANCH   6   8
ENDBRANCH   5   6
ENDBRANCH   4   5
ENDBRANCH   3   4
ENDBRANCH   2   3
ENDBRANCH   1   2
BRANCH   1  19
ATOM     19  C   UNL A   1      42.800  25.011  25.034  1.00  0.00     0.261 C 
BRANCH  19  20
ATOM     20  O   UNL A   1      41.912  26.104  25.320  1.00  0.00    -0.460 OA
BRANCH  20  21
ATOM     21  C   UNL A   1      40.805  25.793  26.041  1.00  0.00     0.338 C 
ATOM     22  O   UNL A   1      39.996  24.913  25.798  1.00  0.00    -0.246 OA
BRANCH  21  23
ATOM     23  C   UNL A   1      40.834  26.559  27.312  1.00  0.00     0.060 A 
ATOM     24  C   UNL A   1      41.777  27.563  27.547  1.00  0.00     0.016 A 
ATOM     25  C   UNL A   1      39.914  26.212  28.310  1.00  0.00     0.016 A 
ATOM     26  C   UNL A   1      41.776  28.241  28.768  1.00  0.00     0.010 A 
ATOM     27  C   UNL A   1      39.908  26.893  29.529  1.00  0.00     0.010 A 
ATOM     28  C   UNL A   1      40.823  27.931  29.753  1.00  0.00    -0.014 A 
BRANCH  28  29
ATOM     29  C   UNL A   1      40.657  28.832  30.918  1.00  0.00     0.031 A 
ATOM     30  C   UNL A   1      41.510  28.723  32.142  1.00  0.00     0.074 A 
ATOM     31  C   UNL A   1      39.688  29.765  30.837  1.00  0.00     0.049 A 
ATOM     32  N   UNL A   1      41.529  29.500  33.195  1.00  0.00    -0.248 NA
ATOM     33  C   UNL A   1      42.458  27.602  32.203  1.00  0.00     0.031 C 
ATOM     34  C   UNL A   1      38.774  29.924  29.703  1.00  0.00     0.029 A 
ATOM     35  N   UNL A   1      39.314  30.753  31.708  1.00  0.00    -0.354 N 
ATOM     36  C   UNL A   1      42.501  28.979  34.038  1.00  0.00     0.074 A 
ATOM     37  C   UNL A   1      43.023  27.792  33.390  1.00  0.00     0.031 C 
ATOM     38  C   UNL A   1      37.962  30.965  29.936  1.00  0.00     0.029 A 
ATOM     39  C   UNL A   1      38.283  31.533  31.241  1.00  0.00     0.049 A 
ATOM     40  H   UNL A   1      39.742  30.893  32.584  1.00  0.00     0.167 HD
ATOM     41  C   UNL A   1      42.924  29.462  35.232  1.00  0.00     0.037 A 
ATOM     42  C   UNL A   1      37.667  32.593  31.798  1.00  0.00     0.037 A 
ATOM     43  C   UNL A   1      42.381  30.638  35.867  1.00  0.00     0.049 A 
ATOM     44  C   UNL A   1      38.141  33.091  33.131  1.00  0.00     0.074 A 
ATOM     45  C   UNL A   1      42.775  31.234  37.054  1.00  0.00     0.029 A 
ATOM     46  N   UNL A   1      41.319  31.389  35.380  1.00  0.00    -0.354 N 
ATOM     47  N   UNL A   1      39.120  32.636  33.876  1.00  0.00    -0.248 NA
ATOM     48  C   UNL A   1      37.437  34.250  33.695  1.00  0.00     0.031 C 
ATOM     49  C   UNL A   1      41.923  32.316  37.307  1.00  0.00     0.029 A 
ATOM     50  C   UNL A   1      41.027  32.423  36.255  1.00  0.00     0.049 A 
ATOM     51  H   UNL A   1      40.843  31.213  34.537  1.00  0.00     0.167 HD
ATOM     52  C   UNL A   1      39.156  33.460  34.995  1.00  0.00     0.074 A 
ATOM     53  C   UNL A   1      38.114  34.452  34.818  1.00  0.00     0.031 C 
ATOM     54  C   UNL A   1      39.979  33.397  36.071  1.00  0.00     0.037 A 
BRANCH  41  55
ATOM     55  C   UNL A   1      44.038  28.736  35.935  1.00  0.00     0.058 A 
ATOM     56  C   UNL A   1      43.780  27.632  36.762  1.00  0.00     0.135 A 
ATOM     57  C   UNL A   1      45.379  29.087  35.711  1.00  0.00     0.135 A 
ATOM     58  F   UNL A   1      42.516  27.258  37.017  1.00  0.00    -0.206 F 
ATOM     59  C   UNL A   1      44.812  26.908  37.351  1.00  0.00     0.059 A 
ATOM     60  C   UNL A   1      46.428  28.364  36.275  1.00  0.00     0.059 A 
ATOM     61  F   UNL A   1      45.682  30.134  34.928  1.00  0.00    -0.206 F 
ATOM     62  C   UNL A   1      46.134  27.279  37.099  1.00  0.00     0.060 A 
BRANCH  62  63
ATOM     63  S   UNL A   1      47.458  26.312  37.856  1.00  0.00     0.124 S 
ATOM     64  O   UNL A   1      47.269  25.013  37.218  1.00  0.00    -0.237 OA
ATOM     65  O   UNL A   1      48.651  27.049  37.451  1.00  0.00    -0.237 OA
ATOM     66  O   UNL A   1      47.146  26.361  39.280  1.00  0.00    -0.744 OA
ENDBRANCH  62  63
ENDBRANCH  41  55
BRANCH  42  67
ATOM     67  C   UNL A   1      36.562  33.260  31.067  1.00  0.00     0.058 A 
ATOM     68  C   UNL A   1      35.234  33.130  31.495  1.00  0.00     0.135 A 
ATOM     69  C   UNL A   1      36.816  34.083  29.959  1.00  0.00     0.135 A 
ATOM     70  F   UNL A   1      34.942  32.353  32.550  1.00  0.00    -0.206 F 
ATOM     71  C   UNL A   1      34.193  33.786  30.847  1.00  0.00     0.059 A 
ATOM     72  C   UNL A   1      35.796  34.768  29.308  1.00  0.00     0.059 A 
ATOM     73  F   UNL A   1      38.076  34.257  29.525  1.00  0.00    -0.206 F 
ATOM     74  C   UNL A   1      34.486  34.607  29.756  1.00  0.00     0.060 A 
BRANCH  74  75
ATOM     75  S   UNL A   1      33.134  35.500  28.961  1.00  0.00     0.124 S 
ATOM     76  O   UNL A   1      33.858  36.517  28.206  1.00  0.00    -0.237 OA
ATOM     77  O   UNL A   1      32.497  34.452  28.172  1.00  0.00    -0.237 OA
ATOM     78  O   UNL A   1      32.346  35.991  30.088  1.00  0.00    -0.744 OA
ENDBRANCH  74  75
ENDBRANCH  42  67
BRANCH  54  79
ATOM     79  C   UNL A   1      39.785  34.429  37.146  1.00  0.00     0.058 A 
ATOM     80  C   UNL A   1      38.973  34.175  38.262  1.00  0.00     0.135 A 
ATOM     81  C   UNL A   1      40.465  35.655  37.091  1.00  0.00     0.135 A 
ATOM     82  F   UNL A   1      38.293  33.022  38.356  1.00  0.00    -0.206 F 
ATOM     83  C   UNL A   1      38.832  35.109  39.283  1.00  0.00     0.059 A 
ATOM     84  C   UNL A   1      40.358  36.594  38.113  1.00  0.00     0.059 A 
ATOM     85  F   UNL A   1      41.259  35.943  36.048  1.00  0.00    -0.206 F 
ATOM     86  C   UNL A   1      39.533  36.314  39.202  1.00  0.00     0.060 A 
BRANCH  86  87
ATOM     87  S   UNL A   1      39.378  37.494  40.560  1.00  0.00     0.124 S 
ATOM     88  O   UNL A   1      38.297  38.350  40.084  1.00  0.00    -0.237 OA
ATOM     89  O   UNL A   1      39.052  36.629  41.689  1.00  0.00    -0.237 OA
ATOM     90  O   UNL A   1      40.696  38.121  40.618  1.00  0.00    -0.744 OA
ENDBRANCH  86  87
ENDBRANCH  54  79
ENDBRANCH  28  29
ENDBRANCH  21  23
ENDBRANCH  20  21
ENDBRANCH  19  20
ENDBRANCH   1  19
TORSDOF 19
ENDMDL
MODEL 2
REMARK VINA RESULT:     -10.1      1.212      2.231
REMARK SMILES O=C(Cc1cccn(C(F)F)c1=O)OCCOCCOC(=O)c1ccc(-c2c3nc(c(-c4c(F)cc(S(=O)(=O)[O-])cc4F)c4ccc([nH]4)c(-c4c(F)cc(S(=O)(=O)[O-])cc4F)c4nc(c(-c5c(F)cc(S(=O)(=O)[O-])cc5F)c5ccc2[nH]5)C=C4)C=C3)cc1
REMARK SMILES IDX 18 1 17 2 16 3 15 4 14 5 2 6 1 7 3 8 4 9 5 10 12 11 6 12
REMARK SMILES IDX 8 13 13 14 7 15 9 16 10 17 11 18 19 19 20 20 21 21 22 22
REMARK SMILES IDX 23 23 24 24 88 25 25 26 87 27 26 28 27 29 28 30 81 31 29 32
REMARK SMILES IDX 86 33 80 34 82 35 30 36 85 37 79 38 78 39 31 41 65 42 44 43
REMARK SMILES IDX 64 44 45 45 48 46 63 47 83 48 46 49 47 50 62 52 84 53 49 54
REMARK SMILES IDX 32 55 33 56 42 57 34 58 35 59 41 60 43 61 36 62 37 63 38 64
REMARK SMILES IDX 39 65 40 66 66 67 67 68 76 69 68 70 69 71 75 72 77 73 70 74
REMARK SMILES IDX 71 75 72 76 73 77 74 78 50 79 51 80 60 81 52 82 53 83 59 84
REMARK SMILES IDX 61 85 54 86 55 87 56 88 57 89 58 90
REMARK H PARENT 82 40 48 51
REMARK Flexibility Score: inf
ROOT
ATOM      1  C   UNL A   1      39.870  21.928  26.146  1.00  0.00     0.202 C 
ENDROOT
BRANCH   1   2
ATOM      2  O   UNL A   1      40.303  20.689  26.716  1.00  0.00    -0.374 OA
BRANCH   2   3
ATOM      3  C   UNL A   1      41.719  20.560  26.828  1.00  0.00     0.202 C 
BRANCH   3   4
ATOM      4  C   UNL A   1      42.243  19.229  26.309  1.00  0.00     0.261 C 
BRANCH   4   5
ATOM      5  O   UNL A   1      42.803  19.336  24.988  1.00  0.00    -0.463 OA
BRANCH   5   6
ATOM      6  C   UNL A   1      44.114  19.232  24.673  1.00  0.00     0.310 C 
ATOM      7  O   UNL A   1      44.741  18.236  25.040  1.00  0.00    -0.252 OA
BRANCH   6   8
ATOM      8  C   UNL A   1      44.820  20.318  23.880  1.00  0.00     0.164 C 
BRANCH   8   9
ATOM      9  C   UNL A   1      44.639  21.687  24.461  1.00  0.00     0.029 A 
ATOM     10  C   UNL A   1      43.756  22.592  24.003  1.00  0.00     0.011 A 
ATOM     11  C   UNL A   1      45.457  22.028  25.673  1.00  0.00     0.258 A 
ATOM     12  C   UNL A   1      43.521  23.822  24.718  1.00  0.00     0.019 A 
ATOM     13  N   UNL A   1      45.031  23.124  26.396  1.00  0.00    -0.258 N 
ATOM     14  O   UNL A   1      46.384  21.303  26.023  1.00  0.00    -0.269 OA
ATOM     15  C   UNL A   1      44.114  24.027  25.900  1.00  0.00     0.095 A 
BRANCH  13  16
ATOM     16  C   UNL A   1      45.621  23.326  27.695  1.00  0.00     0.451 C 
ATOM     17  F   UNL A   1      46.749  24.073  27.574  1.00  0.00    -0.185 F 
ATOM     18  F   UNL A   1      44.771  24.041  28.479  1.00  0.00    -0.185 F 
ENDBRANCH  13  16
ENDBRANCH   8   9
ENDBRANCH   6   8
ENDBRANCH   5   6
ENDBRANCH   4   5
ENDBRANCH   3   4
ENDBRANCH   2   3
ENDBRANCH   1   2
BRANCH   1  19
ATOM     19  C   UNL A   1      40.541  23.142  26.796  1.00  0.00     0.261 C 
BRANCH  19  20
ATOM     20  O   UNL A   1      39.764  24.325  26.551  1.00  0.00    -0.460 OA
BRANCH  20  21
ATOM     21  C   UNL A   1      40.472  25.460  26.318  1.00  0.00     0.338 C 
ATOM     22  O   UNL A   1      40.861  25.872  25.239  1.00  0.00    -0.246 OA
BRANCH  21  23
ATOM     23  C   UNL A   1      40.525  26.253  27.572  1.00  0.00     0.060 A 
ATOM     24  C   UNL A   1      41.553  27.165  27.825  1.00  0.00     0.016 A 
ATOM     25  C   UNL A   1      39.534  26.025  28.536  1.00  0.00     0.016 A 
ATOM     26  C   UNL A   1      41.568  27.873  29.029  1.00  0.00     0.010 A 
ATOM     27  C   UNL A   1      39.545  26.737  29.738  1.00  0.00     0.010 A 
ATOM     28  C   UNL A   1      40.549  27.685  29.979  1.00  0.00    -0.014 A 
BRANCH  28  29
ATOM     29  C   UNL A   1      40.425  28.629  31.114  1.00  0.00     0.031 A 
ATOM     30  C   UNL A   1      41.283  28.528  32.336  1.00  0.00     0.074 A 
ATOM     31  C   UNL A   1      39.492  29.595  31.008  1.00  0.00     0.049 A 
ATOM     32  N   UNL A   1      41.338  29.337  33.363  1.00  0.00    -0.248 NA
ATOM     33  C   UNL A   1      42.187  27.374  32.428  1.00  0.00     0.031 C 
ATOM     34  C   UNL A   1      38.577  29.753  29.875  1.00  0.00     0.029 A 
ATOM     35  N   UNL A   1      39.162  30.625  31.849  1.00  0.00    -0.354 N 
ATOM     36  C   UNL A   1      42.296  28.807  34.217  1.00  0.00     0.074 A 
ATOM     37  C   UNL A   1      42.768  27.580  33.605  1.00  0.00     0.031 C 
ATOM     38  C   UNL A   1      37.807  30.831  30.078  1.00  0.00     0.029 A 
ATOM     39  C   UNL A   1      38.158  31.428  31.362  1.00  0.00     0.049 A 
ATOM     40  H   UNL A   1      39.601  30.776  32.717  1.00  0.00     0.167 HD
ATOM     41  C   UNL A   1      42.745  29.312  35.392  1.00  0.00     0.037 A 
ATOM     42  C   UNL A   1      37.587  32.528  31.887  1.00  0.00     0.037 A 
ATOM     43  C   UNL A   1      42.251  30.528  35.992  1.00  0.00     0.049 A 
ATOM     44  C   UNL A   1      38.089  33.051  33.200  1.00  0.00     0.074 A 
ATOM     45  C   UNL A   1      42.676  31.147  37.156  1.00  0.00     0.029 A 
ATOM     46  N   UNL A   1      41.215  31.303  35.486  1.00  0.00    -0.354 N 
ATOM     47  N   UNL A   1      39.055  32.583  33.955  1.00  0.00    -0.248 NA
ATOM     48  C   UNL A   1      37.433  34.253  33.731  1.00  0.00     0.031 C 
ATOM     49  C   UNL A   1      41.868  32.268  37.378  1.00  0.00     0.029 A 
ATOM     50  C   UNL A   1      40.969  32.375  36.329  1.00  0.00     0.049 A 
ATOM     51  H   UNL A   1      40.728  31.117  34.652  1.00  0.00     0.167 HD
ATOM     52  C   UNL A   1      39.130  33.441  35.046  1.00  0.00     0.074 A 
ATOM     53  C   UNL A   1      38.125  34.466  34.842  1.00  0.00     0.031 C 
ATOM     54  C   UNL A   1      39.957  33.382  36.118  1.00  0.00     0.037 A 
BRANCH  41  55
ATOM     55  C   UNL A   1      43.835  28.567  36.112  1.00  0.00     0.058 A 
ATOM     56  C   UNL A   1      43.549  27.449  36.910  1.00  0.00     0.135 A 
ATOM     57  C   UNL A   1      45.184  28.915  35.933  1.00  0.00     0.135 A 
ATOM     58  F   UNL A   1      42.277  27.078  37.123  1.00  0.00    -0.206 F 
ATOM     59  C   UNL A   1      44.561  26.709  37.515  1.00  0.00     0.059 A 
ATOM     60  C   UNL A   1      46.213  28.176  36.511  1.00  0.00     0.059 A 
ATOM     61  F   UNL A   1      45.513  29.975  35.177  1.00  0.00    -0.206 F 
ATOM     62  C   UNL A   1      45.891  27.078  37.307  1.00  0.00     0.060 A 
BRANCH  62  63
ATOM     63  S   UNL A   1      47.189  26.090  38.082  1.00  0.00     0.124 S 
ATOM     64  O   UNL A   1      48.292  27.045  38.128  1.00  0.00    -0.237 OA
ATOM     65  O   UNL A   1      46.593  25.748  39.369  1.00  0.00    -0.237 OA
ATOM     66  O   UNL A   1      47.366  24.974  37.158  1.00  0.00    -0.744 OA
ENDBRANCH  62  63
ENDBRANCH  41  55
BRANCH  42  67
ATOM     67  C   UNL A   1      36.502  33.213  31.141  1.00  0.00     0.058 A 
ATOM     68  C   UNL A   1      35.175  33.152  31.584  1.00  0.00     0.135 A 
ATOM     69  C   UNL A   1      36.779  33.985  30.002  1.00  0.00     0.135 A 
ATOM     70  F   UNL A   1      34.862  32.426  32.669  1.00  0.00    -0.206 F 
ATOM     71  C   UNL A   1      34.155  33.825  30.920  1.00  0.00     0.059 A 
ATOM     72  C   UNL A   1      35.782  34.687  29.335  1.00  0.00     0.059 A 
ATOM     73  F   UNL A   1      38.041  34.092  29.553  1.00  0.00    -0.206 F 
ATOM     74  C   UNL A   1      34.470  34.595  29.799  1.00  0.00     0.060 A 
BRANCH  74  75
ATOM     75  S   UNL A   1      33.148  35.513  28.982  1.00  0.00     0.124 S 
ATOM     76  O   UNL A   1      33.904  36.514  28.237  1.00  0.00    -0.237 OA
ATOM     77  O   UNL A   1      32.502  34.476  28.185  1.00  0.00    -0.237 OA
ATOM     78  O   UNL A   1      32.354  36.021  30.097  1.00  0.00    -0.744 OA
ENDBRANCH  74  75
ENDBRANCH  42  67
BRANCH  54  79
ATOM     79  C   UNL A   1      39.810  34.455  37.160  1.00  0.00     0.058 A 
ATOM     80  C   UNL A   1      39.008  34.263  38.296  1.00  0.00     0.135 A 
ATOM     81  C   UNL A   1      40.525  35.658  37.053  1.00  0.00     0.135 A 
ATOM     82  F   UNL A   1      38.297  33.134  38.439  1.00  0.00    -0.206 F 
ATOM     83  C   UNL A   1      38.911  35.235  39.286  1.00  0.00     0.059 A 
ATOM     84  C   UNL A   1      40.461  36.634  38.044  1.00  0.00     0.059 A 
ATOM     85  F   UNL A   1      41.310  35.886  35.990  1.00  0.00    -0.206 F 
ATOM     86  C   UNL A   1      39.645  36.415  39.154  1.00  0.00     0.060 A 
BRANCH  86  87
ATOM     87  S   UNL A   1      39.546  37.645  40.472  1.00  0.00     0.124 S 
ATOM     88  O   UNL A   1      38.911  36.880  41.541  1.00  0.00    -0.237 OA
ATOM     89  O   UNL A   1      40.949  37.987  40.686  1.00  0.00    -0.237 OA
ATOM     90  O   UNL A   1      38.730  38.705  39.889  1.00  0.00    -0.744 OA
ENDBRANCH  86  87
ENDBRANCH  54  79
ENDBRANCH  28  29
ENDBRANCH  21  23
ENDBRANCH  20  21
ENDBRANCH  19  20
ENDBRANCH   1  19
TORSDOF 19
ENDMDL
MODEL 3
REMARK VINA RESULT:     -10.0      3.330      4.625
REMARK SMILES O=C(Cc1cccn(C(F)F)c1=O)OCCOCCOC(=O)c1ccc(-c2c3nc(c(-c4c(F)cc(S(=O)(=O)[O-])cc4F)c4ccc([nH]4)c(-c4c(F)cc(S(=O)(=O)[O-])cc4F)c4nc(c(-c5c(F)cc(S(=O)(=O)[O-])cc5F)c5ccc2[nH]5)C=C4)C=C3)cc1
REMARK SMILES IDX 18 1 17 2 16 3 15 4 14 5 2 6 1 7 3 8 4 9 5 10 12 11 6 12
REMARK SMILES IDX 8 13 13 14 7 15 9 16 10 17 11 18 19 19 20 20 21 21 22 22
REMARK SMILES IDX 23 23 24 24 88 25 25 26 87 27 26 28 27 29 28 30 81 31 29 32
REMARK SMILES IDX 86 33 80 34 82 35 30 36 85 37 79 38 78 39 31 41 65 42 44 43
REMARK SMILES IDX 64 44 45 45 48 46 63 47 83 48 46 49 47 50 62 52 84 53 49 54
REMARK SMILES IDX 32 55 33 56 42 57 34 58 35 59 41 60 43 61 36 62 37 63 38 64
REMARK SMILES IDX 39 65 40 66 66 67 67 68 76 69 68 70 69 71 75 72 77 73 70 74
REMARK SMILES IDX 71 75 72 76 73 77 74 78 50 79 51 80 60 81 52 82 53 83 59 84
REMARK SMILES IDX 61 85 54 86 55 87 56 88 57 89 58 90
REMARK H PARENT 82 40 48 51
REMARK Flexibility Score: inf
ROOT
ATOM      1  C   UNL A   1      40.437  22.444  27.623  1.00  0.00     0.202 C 
ENDROOT
BRANCH   1   2
ATOM      2  O   UNL A   1      39.890  21.240  27.075  1.00  0.00    -0.374 OA
BRANCH   2   3
ATOM      3  C   UNL A   1      39.391  21.376  25.746  1.00  0.00     0.202 C 
BRANCH   3   4
ATOM      4  C   UNL A   1      37.892  21.629  25.691  1.00  0.00     0.261 C 
BRANCH   4   5
ATOM      5  O   UNL A   1      37.383  21.631  24.345  1.00  0.00    -0.463 OA
BRANCH   5   6
ATOM      6  C   UNL A   1      36.597  22.586  23.798  1.00  0.00     0.310 C 
ATOM      7  O   UNL A   1      36.931  23.098  22.727  1.00  0.00    -0.252 OA
BRANCH   6   8
ATOM      8  C   UNL A   1      35.315  23.032  24.480  1.00  0.00     0.164 C 
BRANCH   8   9
ATOM      9  C   UNL A   1      34.116  22.237  24.066  1.00  0.00     0.029 A 
ATOM     10  C   UNL A   1      33.258  22.610  23.100  1.00  0.00     0.011 A 
ATOM     11  C   UNL A   1      33.912  20.908  24.736  1.00  0.00     0.258 A 
ATOM     12  C   UNL A   1      32.226  21.713  22.642  1.00  0.00     0.019 A 
ATOM     13  N   UNL A   1      33.036  20.046  24.108  1.00  0.00    -0.258 N 
ATOM     14  O   UNL A   1      34.569  20.604  25.728  1.00  0.00    -0.269 OA
ATOM     15  C   UNL A   1      32.177  20.461  23.111  1.00  0.00     0.095 A 
BRANCH  13  16
ATOM     16  C   UNL A   1      33.013  18.681  24.567  1.00  0.00     0.451 C 
ATOM     17  F   UNL A   1      32.380  18.612  25.767  1.00  0.00    -0.185 F 
ATOM     18  F   UNL A   1      32.284  17.920  23.706  1.00  0.00    -0.185 F 
ENDBRANCH  13  16
ENDBRANCH   8   9
ENDBRANCH   6   8
ENDBRANCH   5   6
ENDBRANCH   4   5
ENDBRANCH   3   4
ENDBRANCH   2   3
ENDBRANCH   1   2
BRANCH   1  19
ATOM     19  C   UNL A   1      41.107  23.322  26.562  1.00  0.00     0.261 C 
BRANCH  19  20
ATOM     20  O   UNL A   1      40.305  24.487  26.307  1.00  0.00    -0.460 OA
BRANCH  20  21
ATOM     21  C   UNL A   1      40.987  25.643  26.113  1.00  0.00     0.338 C 
ATOM     22  O   UNL A   1      41.377  26.094  25.049  1.00  0.00    -0.246 OA
BRANCH  21  23
ATOM     23  C   UNL A   1      41.010  26.403  27.387  1.00  0.00     0.060 A 
ATOM     24  C   UNL A   1      42.022  27.320  27.683  1.00  0.00     0.016 A 
ATOM     25  C   UNL A   1      40.005  26.138  28.329  1.00  0.00     0.016 A 
ATOM     26  C   UNL A   1      42.009  27.995  28.905  1.00  0.00     0.010 A 
ATOM     27  C   UNL A   1      39.988  26.817  29.549  1.00  0.00     0.010 A 
ATOM     28  C   UNL A   1      40.977  27.770  29.832  1.00  0.00    -0.014 A 
BRANCH  28  29
ATOM     29  C   UNL A   1      40.823  28.682  30.990  1.00  0.00     0.031 A 
ATOM     30  C   UNL A   1      41.681  28.577  32.211  1.00  0.00     0.074 A 
ATOM     31  C   UNL A   1      39.860  29.621  30.906  1.00  0.00     0.049 A 
ATOM     32  N   UNL A   1      41.710  29.362  33.257  1.00  0.00    -0.248 NA
ATOM     33  C   UNL A   1      42.621  27.450  32.276  1.00  0.00     0.031 C 
ATOM     34  C   UNL A   1      38.941  29.777  29.776  1.00  0.00     0.029 A 
ATOM     35  N   UNL A   1      39.497  30.618  31.771  1.00  0.00    -0.354 N 
ATOM     36  C   UNL A   1      42.683  28.842  34.100  1.00  0.00     0.074 A 
ATOM     37  C   UNL A   1      43.194  27.645  33.459  1.00  0.00     0.031 C 
ATOM     38  C   UNL A   1      38.138  30.826  30.004  1.00  0.00     0.029 A 
ATOM     39  C   UNL A   1      38.469  31.402  31.303  1.00  0.00     0.049 A 
ATOM     40  H   UNL A   1      39.931  30.762  32.643  1.00  0.00     0.167 HD
ATOM     41  C   UNL A   1      43.116  29.331  35.288  1.00  0.00     0.037 A 
ATOM     42  C   UNL A   1      37.863  32.470  31.853  1.00  0.00     0.037 A 
ATOM     43  C   UNL A   1      42.584  30.516  35.916  1.00  0.00     0.049 A 
ATOM     44  C   UNL A   1      38.348  32.976  33.180  1.00  0.00     0.074 A 
ATOM     45  C   UNL A   1      42.988  31.119  37.096  1.00  0.00     0.029 A 
ATOM     46  N   UNL A   1      41.525  31.270  35.428  1.00  0.00    -0.354 N 
ATOM     47  N   UNL A   1      39.327  32.521  33.925  1.00  0.00    -0.248 NA
ATOM     48  C   UNL A   1      37.655  34.145  33.738  1.00  0.00     0.031 C 
ATOM     49  C   UNL A   1      42.145  32.209  37.343  1.00  0.00     0.029 A 
ATOM     50  C   UNL A   1      41.244  32.314  36.296  1.00  0.00     0.049 A 
ATOM     51  H   UNL A   1      41.044  31.091  34.588  1.00  0.00     0.167 HD
ATOM     52  C   UNL A   1      39.374  33.353  35.036  1.00  0.00     0.074 A 
ATOM     53  C   UNL A   1      38.339  34.351  34.856  1.00  0.00     0.031 C 
ATOM     54  C   UNL A   1      40.202  33.293  36.108  1.00  0.00     0.037 A 
BRANCH  41  55
ATOM     55  C   UNL A   1      44.227  28.603  35.991  1.00  0.00     0.058 A 
ATOM     56  C   UNL A   1      45.567  28.991  35.832  1.00  0.00     0.135 A 
ATOM     57  C   UNL A   1      43.949  27.569  36.899  1.00  0.00     0.135 A 
ATOM     58  F   UNL A   1      45.890  29.968  34.970  1.00  0.00    -0.206 F 
ATOM     59  C   UNL A   1      46.592  28.373  36.541  1.00  0.00     0.059 A 
ATOM     60  C   UNL A   1      44.958  26.949  37.634  1.00  0.00     0.059 A 
ATOM     61  F   UNL A   1      42.685  27.159  37.090  1.00  0.00    -0.206 F 
ATOM     62  C   UNL A   1      46.278  27.354  37.443  1.00  0.00     0.060 A 
BRANCH  62  63
ATOM     63  S   UNL A   1      47.621  26.581  38.369  1.00  0.00     0.124 S 
ATOM     64  O   UNL A   1      47.150  25.203  38.468  1.00  0.00    -0.237 OA
ATOM     65  O   UNL A   1      48.768  26.797  37.493  1.00  0.00    -0.237 OA
ATOM     66  O   UNL A   1      47.644  27.325  39.624  1.00  0.00    -0.744 OA
ENDBRANCH  62  63
ENDBRANCH  41  55
BRANCH  42  67
ATOM     67  C   UNL A   1      36.759  33.140  31.123  1.00  0.00     0.058 A 
ATOM     68  C   UNL A   1      37.017  33.925  29.991  1.00  0.00     0.135 A 
ATOM     69  C   UNL A   1      35.421  32.966  31.510  1.00  0.00     0.135 A 
ATOM     70  F   UNL A   1      38.281  34.119  29.583  1.00  0.00    -0.206 F 
ATOM     71  C   UNL A   1      35.989  34.522  29.270  1.00  0.00     0.059 A 
ATOM     72  C   UNL A   1      34.374  33.533  30.793  1.00  0.00     0.059 A 
ATOM     73  F   UNL A   1      35.123  32.205  32.575  1.00  0.00    -0.206 F 
ATOM     74  C   UNL A   1      34.669  34.315  29.677  1.00  0.00     0.060 A 
BRANCH  74  75
ATOM     75  S   UNL A   1      33.340  35.046  28.698  1.00  0.00     0.124 S 
ATOM     76  O   UNL A   1      32.883  33.898  27.922  1.00  0.00    -0.237 OA
ATOM     77  O   UNL A   1      32.427  35.523  29.731  1.00  0.00    -0.237 OA
ATOM     78  O   UNL A   1      34.017  36.093  27.939  1.00  0.00    -0.744 OA
ENDBRANCH  74  75
ENDBRANCH  42  67
BRANCH  54  79
ATOM     79  C   UNL A   1      40.021  34.335  37.176  1.00  0.00     0.058 A 
ATOM     80  C   UNL A   1      40.653  35.585  37.090  1.00  0.00     0.135 A 
ATOM     81  C   UNL A   1      39.159  34.106  38.260  1.00  0.00     0.135 A 
ATOM     82  F   UNL A   1      41.494  35.849  36.079  1.00  0.00    -0.206 F 
ATOM     83  C   UNL A   1      40.447  36.569  38.051  1.00  0.00     0.059 A 
ATOM     84  C   UNL A   1      38.919  35.085  39.220  1.00  0.00     0.059 A 
ATOM     85  F   UNL A   1      38.525  32.930  38.384  1.00  0.00    -0.206 F 
ATOM     86  C   UNL A   1      39.573  36.312  39.110  1.00  0.00     0.060 A 
BRANCH  86  87
ATOM     87  S   UNL A   1      39.278  37.618  40.321  1.00  0.00     0.124 S 
ATOM     88  O   UNL A   1      38.273  38.429  39.640  1.00  0.00    -0.237 OA
ATOM     89  O   UNL A   1      38.806  36.867  41.480  1.00  0.00    -0.237 OA
ATOM     90  O   UNL A   1      40.589  38.242  40.476  1.00  0.00    -0.744 OA
ENDBRANCH  86  87
ENDBRANCH  54  79
ENDBRANCH  28  29
ENDBRANCH  21  23
ENDBRANCH  20  21
ENDBRANCH  19  20
ENDBRANCH   1  19
TORSDOF 19
ENDMDL
