MODEL 1
REMARK VINA RESULT:     -10.3      0.000      0.000
REMARK SMILES CC[C@H](C)[C@@H](C)NC(=O)c1ccncc1/C=C/C(=O)OCCOCCOC(=O)c1ccc(-c2c3nc(c(-c4c(F)cc(S(=O)(=O)[O-])cc4F)c4ccc([nH]4)c(-c4c(F)cc(S(=O)(=O)[O-])cc4F)c4nc(c(-c5c(F)cc(S(=O)(=O)[O-])cc5F)c5ccc2[nH]5)C=C4)C=C3)cc1
REMARK SMILES IDX 22 1 21 2 20 3 18 4 19 5 17 6 16 7 15 8 10 9 11 10 12 11
REMARK SMILES IDX 14 12 13 13 8 14 7 15 9 17 5 18 6 19 3 20 4 21 2 22 1 23
REMARK SMILES IDX 23 24 24 25 25 26 26 27 27 28 28 29 29 30 30 31 94 32 31 33
REMARK SMILES IDX 93 34 32 35 33 36 34 37 87 38 35 39 92 40 86 41 88 42 36 43
REMARK SMILES IDX 91 44 85 45 84 46 37 48 71 49 50 50 70 51 51 52 54 53 69 54
REMARK SMILES IDX 89 55 52 56 53 57 68 59 90 60 55 61 38 62 39 63 48 64 40 65
REMARK SMILES IDX 41 66 47 67 49 68 42 69 43 70 44 71 45 72 46 73 72 74 73 75
REMARK SMILES IDX 82 76 74 77 75 78 81 79 83 80 76 81 77 82 78 83 79 84 80 85
REMARK SMILES IDX 56 86 57 87 66 88 58 89 59 90 65 91 67 92 60 93 61 94 62 95
REMARK SMILES IDX 63 96 64 97
REMARK H PARENT 7 16 88 47 54 58
REMARK Flexibility Score: inf
ROOT
ATOM      1  C   UNL A   1      33.922  33.348  28.038  1.00  0.00     0.202 C 
ENDROOT
BRANCH   1   2
ATOM      2  C   UNL A   1      33.141  32.128  27.545  1.00  0.00     0.261 C 
BRANCH   2   3
ATOM      3  O   UNL A   1      33.696  30.904  28.061  1.00  0.00    -0.460 OA
BRANCH   3   4
ATOM      4  C   UNL A   1      34.146  30.042  27.124  1.00  0.00     0.330 C 
ATOM      5  O   UNL A   1      35.249  29.514  27.087  1.00  0.00    -0.247 OA
BRANCH   4   6
ATOM      6  C   UNL A   1      33.125  29.703  26.113  1.00  0.00     0.094 C 
ATOM      7  C   UNL A   1      33.300  29.124  24.911  1.00  0.00     0.018 C 
BRANCH   7   8
ATOM      8  C   UNL A   1      32.149  28.830  24.027  1.00  0.00     0.006 A 
ATOM      9  C   UNL A   1      32.191  27.978  22.909  1.00  0.00     0.050 A 
ATOM     10  C   UNL A   1      31.004  27.618  22.258  1.00  0.00     0.034 A 
ATOM     11  C   UNL A   1      29.831  28.243  22.628  1.00  0.00     0.112 A 
ATOM     12  C   UNL A   1      30.909  29.428  24.273  1.00  0.00     0.119 A 
ATOM     13  N   UNL A   1      29.763  29.171  23.597  1.00  0.00    -0.264 NA
BRANCH   9  14
ATOM     14  C   UNL A   1      33.471  27.432  22.399  1.00  0.00     0.252 C 
ATOM     15  N   UNL A   1      33.857  26.145  22.698  1.00  0.00    -0.349 N 
ATOM     16  H   UNL A   1      34.681  25.858  22.242  1.00  0.00     0.164 HD
ATOM     17  O   UNL A   1      34.179  28.123  21.674  1.00  0.00    -0.269 OA
BRANCH  15  18
ATOM     18  C   UNL A   1      33.270  25.119  23.574  1.00  0.00     0.082 C 
ATOM     19  C   UNL A   1      34.054  25.134  24.892  1.00  0.00     0.031 C 
BRANCH  18  20
ATOM     20  C   UNL A   1      33.271  23.719  22.903  1.00  0.00     0.008 C 
ATOM     21  C   UNL A   1      34.436  22.845  23.398  1.00  0.00     0.010 C 
BRANCH  20  22
ATOM     22  C   UNL A   1      31.936  22.956  23.074  1.00  0.00     0.002 C 
ATOM     23  C   UNL A   1      30.773  23.777  23.614  1.00  0.00     0.004 C 
ENDBRANCH  20  22
ENDBRANCH  18  20
ENDBRANCH  15  18
ENDBRANCH   9  14
ENDBRANCH   7   8
ENDBRANCH   4   6
ENDBRANCH   3   4
ENDBRANCH   2   3
ENDBRANCH   1   2
BRANCH   1  24
ATOM     24  O   UNL A   1      33.590  33.809  29.349  1.00  0.00    -0.374 OA
BRANCH  24  25
ATOM     25  C   UNL A   1      34.659  33.878  30.292  1.00  0.00     0.202 C 
BRANCH  25  26
ATOM     26  C   UNL A   1      35.049  32.554  30.963  1.00  0.00     0.261 C 
BRANCH  26  27
ATOM     27  O   UNL A   1      35.966  31.791  30.158  1.00  0.00    -0.460 OA
BRANCH  27  28
ATOM     28  C   UNL A   1      36.476  30.689  30.760  1.00  0.00     0.338 C 
ATOM     29  O   UNL A   1      35.859  29.855  31.411  1.00  0.00    -0.246 OA
BRANCH  28  30
ATOM     30  C   UNL A   1      37.889  30.508  30.377  1.00  0.00     0.060 A 
ATOM     31  C   UNL A   1      38.182  30.392  29.012  1.00  0.00     0.016 A 
ATOM     32  C   UNL A   1      38.904  30.392  31.330  1.00  0.00     0.016 A 
ATOM     33  C   UNL A   1      39.483  30.112  28.595  1.00  0.00     0.010 A 
ATOM     34  C   UNL A   1      40.208  30.101  30.910  1.00  0.00     0.010 A 
ATOM     35  C   UNL A   1      40.497  29.928  29.544  1.00  0.00    -0.014 A 
BRANCH  35  36
ATOM     36  C   UNL A   1      41.825  29.424  29.113  1.00  0.00     0.031 A 
ATOM     37  C   UNL A   1      42.992  30.376  29.082  1.00  0.00     0.074 A 
ATOM     38  C   UNL A   1      41.994  28.133  28.773  1.00  0.00     0.049 A 
ATOM     39  N   UNL A   1      44.225  30.162  28.702  1.00  0.00    -0.248 NA
ATOM     40  C   UNL A   1      42.735  31.753  29.536  1.00  0.00     0.031 C 
ATOM     41  C   UNL A   1      40.949  27.110  28.793  1.00  0.00     0.029 A 
ATOM     42  N   UNL A   1      43.111  27.464  28.335  1.00  0.00    -0.354 N 
ATOM     43  C   UNL A   1      44.885  31.376  28.854  1.00  0.00     0.074 A 
ATOM     44  C   UNL A   1      43.914  32.327  29.347  1.00  0.00     0.031 C 
ATOM     45  C   UNL A   1      41.472  25.944  28.373  1.00  0.00     0.029 A 
ATOM     46  C   UNL A   1      42.877  26.144  28.026  1.00  0.00     0.049 A 
ATOM     47  H   UNL A   1      43.994  27.888  28.249  1.00  0.00     0.167 HD
ATOM     48  C   UNL A   1      46.185  31.667  28.610  1.00  0.00     0.037 A 
ATOM     49  C   UNL A   1      43.700  25.213  27.502  1.00  0.00     0.037 A 
ATOM     50  C   UNL A   1      47.155  30.710  28.144  1.00  0.00     0.049 A 
ATOM     51  C   UNL A   1      45.130  25.579  27.196  1.00  0.00     0.074 A 
ATOM     52  C   UNL A   1      48.507  30.899  27.917  1.00  0.00     0.029 A 
ATOM     53  N   UNL A   1      46.878  29.389  27.830  1.00  0.00    -0.354 N 
ATOM     54  N   UNL A   1      45.751  26.720  27.388  1.00  0.00    -0.248 NA
ATOM     55  C   UNL A   1      45.974  24.532  26.602  1.00  0.00     0.031 C 
ATOM     56  C   UNL A   1      49.038  29.706  27.417  1.00  0.00     0.029 A 
ATOM     57  C   UNL A   1      48.026  28.760  27.382  1.00  0.00     0.049 A 
ATOM     58  H   UNL A   1      45.995  28.961  27.913  1.00  0.00     0.167 HD
ATOM     59  C   UNL A   1      47.063  26.514  26.971  1.00  0.00     0.074 A 
ATOM     60  C   UNL A   1      47.150  25.140  26.524  1.00  0.00     0.031 C 
ATOM     61  C   UNL A   1      48.104  27.384  26.960  1.00  0.00     0.037 A 
BRANCH  48  62
ATOM     62  C   UNL A   1      46.645  33.082  28.820  1.00  0.00     0.058 A 
ATOM     63  C   UNL A   1      46.564  34.045  27.802  1.00  0.00     0.135 A 
ATOM     64  C   UNL A   1      47.095  33.498  30.084  1.00  0.00     0.135 A 
ATOM     65  F   UNL A   1      46.158  33.696  26.572  1.00  0.00    -0.206 F 
ATOM     66  C   UNL A   1      46.918  35.371  28.030  1.00  0.00     0.059 A 
ATOM     67  C   UNL A   1      47.432  34.823  30.340  1.00  0.00     0.059 A 
ATOM     68  F   UNL A   1      47.195  32.613  31.089  1.00  0.00    -0.206 F 
ATOM     69  C   UNL A   1      47.345  35.752  29.304  1.00  0.00     0.060 A 
BRANCH  69  70
ATOM     70  S   UNL A   1      47.755  37.486  29.595  1.00  0.00     0.124 S 
ATOM     71  O   UNL A   1      47.141  38.129  28.438  1.00  0.00    -0.237 OA
ATOM     72  O   UNL A   1      47.116  37.747  30.880  1.00  0.00    -0.237 OA
ATOM     73  O   UNL A   1      49.216  37.491  29.613  1.00  0.00    -0.744 OA
ENDBRANCH  69  70
ENDBRANCH  48  62
BRANCH  49  74
ATOM     74  C   UNL A   1      43.198  23.843  27.207  1.00  0.00     0.058 A 
ATOM     75  C   UNL A   1      43.068  22.883  28.222  1.00  0.00     0.135 A 
ATOM     76  C   UNL A   1      42.887  23.452  25.895  1.00  0.00     0.135 A 
ATOM     77  F   UNL A   1      43.363  23.205  29.491  1.00  0.00    -0.206 F 
ATOM     78  C   UNL A   1      42.683  21.576  27.945  1.00  0.00     0.059 A 
ATOM     79  C   UNL A   1      42.473  22.158  25.596  1.00  0.00     0.059 A 
ATOM     80  F   UNL A   1      42.987  24.333  24.888  1.00  0.00    -0.206 F 
ATOM     81  C   UNL A   1      42.393  21.221  26.625  1.00  0.00     0.060 A 
BRANCH  81  82
ATOM     82  S   UNL A   1      41.893  19.522  26.272  1.00  0.00     0.124 S 
ATOM     83  O   UNL A   1      40.449  19.663  26.140  1.00  0.00    -0.237 OA
ATOM     84  O   UNL A   1      42.624  19.235  25.041  1.00  0.00    -0.237 OA
ATOM     85  O   UNL A   1      42.351  18.788  27.449  1.00  0.00    -0.744 OA
ENDBRANCH  81  82
ENDBRANCH  49  74
BRANCH  61  86
ATOM     86  C   UNL A   1      49.439  26.868  26.498  1.00  0.00     0.058 A 
ATOM     87  C   UNL A   1      50.329  26.232  27.376  1.00  0.00     0.135 A 
ATOM     88  C   UNL A   1      49.805  26.964  25.145  1.00  0.00     0.135 A 
ATOM     89  F   UNL A   1      50.030  26.119  28.679  1.00  0.00    -0.206 F 
ATOM     90  C   UNL A   1      51.549  25.728  26.932  1.00  0.00     0.059 A 
ATOM     91  C   UNL A   1      51.007  26.442  24.675  1.00  0.00     0.059 A 
ATOM     92  F   UNL A   1      48.982  27.551  24.261  1.00  0.00    -0.206 F 
ATOM     93  C   UNL A   1      51.877  25.836  25.580  1.00  0.00     0.060 A 
BRANCH  93  94
ATOM     94  S   UNL A   1      53.446  25.147  25.010  1.00  0.00     0.124 S 
ATOM     95  O   UNL A   1      54.397  25.807  25.898  1.00  0.00    -0.237 OA
ATOM     96  O   UNL A   1      53.259  23.716  25.231  1.00  0.00    -0.237 OA
ATOM     97  O   UNL A   1      53.507  25.555  23.609  1.00  0.00    -0.744 OA
ENDBRANCH  93  94
ENDBRANCH  61  86
ENDBRANCH  35  36
ENDBRANCH  28  30
ENDBRANCH  27  28
ENDBRANCH  26  27
ENDBRANCH  25  26
ENDBRANCH  24  25
ENDBRANCH   1  24
TORSDOF 22
ENDMDL
MODEL 2
REMARK VINA RESULT:     -10.0      1.423      3.066
REMARK SMILES CC[C@H](C)[C@@H](C)NC(=O)c1ccncc1/C=C/C(=O)OCCOCCOC(=O)c1ccc(-c2c3nc(c(-c4c(F)cc(S(=O)(=O)[O-])cc4F)c4ccc([nH]4)c(-c4c(F)cc(S(=O)(=O)[O-])cc4F)c4nc(c(-c5c(F)cc(S(=O)(=O)[O-])cc5F)c5ccc2[nH]5)C=C4)C=C3)cc1
REMARK SMILES IDX 22 1 21 2 20 3 18 4 19 5 17 6 16 7 15 8 10 9 11 10 12 11
REMARK SMILES IDX 14 12 13 13 8 14 7 15 9 17 5 18 6 19 3 20 4 21 2 22 1 23
REMARK SMILES IDX 23 24 24 25 25 26 26 27 27 28 28 29 29 30 30 31 94 32 31 33
REMARK SMILES IDX 93 34 32 35 33 36 34 37 87 38 35 39 92 40 86 41 88 42 36 43
REMARK SMILES IDX 91 44 85 45 84 46 37 48 71 49 50 50 70 51 51 52 54 53 69 54
REMARK SMILES IDX 89 55 52 56 53 57 68 59 90 60 55 61 38 62 39 63 48 64 40 65
REMARK SMILES IDX 41 66 47 67 49 68 42 69 43 70 44 71 45 72 46 73 72 74 73 75
REMARK SMILES IDX 82 76 74 77 75 78 81 79 83 80 76 81 77 82 78 83 79 84 80 85
REMARK SMILES IDX 56 86 57 87 66 88 58 89 59 90 65 91 67 92 60 93 61 94 62 95
REMARK SMILES IDX 63 96 64 97
REMARK H PARENT 7 16 88 47 54 58
REMARK Flexibility Score: inf
ROOT
ATOM      1  C   UNL A   1      33.940  29.120  27.269  1.00  0.00     0.202 C 
ENDROOT
BRANCH   1   2
ATOM      2  C   UNL A   1      33.313  28.182  26.237  1.00  0.00     0.261 C 
BRANCH   2   3
ATOM      3  O   UNL A   1      33.544  28.645  24.894  1.00  0.00    -0.460 OA
BRANCH   3   4
ATOM      4  C   UNL A   1      33.466  27.692  23.940  1.00  0.00     0.330 C 
ATOM      5  O   UNL A   1      33.159  27.855  22.768  1.00  0.00    -0.247 OA
BRANCH   4   6
ATOM      6  C   UNL A   1      33.870  26.356  24.424  1.00  0.00     0.094 C 
ATOM      7  C   UNL A   1      34.024  25.224  23.715  1.00  0.00     0.018 C 
BRANCH   7   8
ATOM      8  C   UNL A   1      34.465  23.967  24.365  1.00  0.00     0.006 A 
ATOM      9  C   UNL A   1      33.838  22.719  24.209  1.00  0.00     0.050 A 
ATOM     10  C   UNL A   1      34.447  21.561  24.711  1.00  0.00     0.034 A 
ATOM     11  C   UNL A   1      35.574  21.694  25.496  1.00  0.00     0.112 A 
ATOM     12  C   UNL A   1      35.576  23.973  25.214  1.00  0.00     0.119 A 
ATOM     13  N   UNL A   1      36.131  22.880  25.792  1.00  0.00    -0.264 NA
BRANCH   9  14
ATOM     14  C   UNL A   1      32.538  22.587  23.509  1.00  0.00     0.252 C 
ATOM     15  N   UNL A   1      31.380  23.071  24.075  1.00  0.00    -0.349 N 
ATOM     16  H   UNL A   1      30.590  23.006  23.491  1.00  0.00     0.164 HD
ATOM     17  O   UNL A   1      32.497  22.070  22.398  1.00  0.00    -0.269 OA
BRANCH  15  18
ATOM     18  C   UNL A   1      31.102  23.667  25.391  1.00  0.00     0.082 C 
ATOM     19  C   UNL A   1      30.439  22.588  26.255  1.00  0.00     0.031 C 
BRANCH  18  20
ATOM     20  C   UNL A   1      30.230  24.947  25.272  1.00  0.00     0.008 C 
ATOM     21  C   UNL A   1      30.595  25.992  26.340  1.00  0.00     0.010 C 
BRANCH  20  22
ATOM     22  C   UNL A   1      30.278  25.595  23.868  1.00  0.00     0.002 C 
ATOM     23  C   UNL A   1      29.424  26.843  23.690  1.00  0.00     0.004 C 
ENDBRANCH  20  22
ENDBRANCH  18  20
ENDBRANCH  15  18
ENDBRANCH   9  14
ENDBRANCH   7   8
ENDBRANCH   4   6
ENDBRANCH   3   4
ENDBRANCH   2   3
ENDBRANCH   1   2
BRANCH   1  24
ATOM     24  O   UNL A   1      34.128  30.472  26.845  1.00  0.00    -0.374 OA
BRANCH  24  25
ATOM     25  C   UNL A   1      33.817  31.490  27.797  1.00  0.00     0.202 C 
BRANCH  25  26
ATOM     26  C   UNL A   1      34.731  31.559  29.028  1.00  0.00     0.261 C 
BRANCH  26  27
ATOM     27  O   UNL A   1      35.826  30.628  28.940  1.00  0.00    -0.460 OA
BRANCH  27  28
ATOM     28  C   UNL A   1      36.561  30.501  30.071  1.00  0.00     0.338 C 
ATOM     29  O   UNL A   1      36.138  30.402  31.216  1.00  0.00    -0.246 OA
BRANCH  28  30
ATOM     30  C   UNL A   1      37.984  30.310  29.733  1.00  0.00     0.060 A 
ATOM     31  C   UNL A   1      38.314  30.141  28.382  1.00  0.00     0.016 A 
ATOM     32  C   UNL A   1      38.974  30.235  30.717  1.00  0.00     0.016 A 
ATOM     33  C   UNL A   1      39.626  29.850  28.012  1.00  0.00     0.010 A 
ATOM     34  C   UNL A   1      40.289  29.933  30.343  1.00  0.00     0.010 A 
ATOM     35  C   UNL A   1      40.615  29.707  28.994  1.00  0.00    -0.014 A 
BRANCH  35  36
ATOM     36  C   UNL A   1      41.955  29.191  28.619  1.00  0.00     0.031 A 
ATOM     37  C   UNL A   1      43.122  30.143  28.587  1.00  0.00     0.074 A 
ATOM     38  C   UNL A   1      42.135  27.889  28.328  1.00  0.00     0.049 A 
ATOM     39  N   UNL A   1      44.365  29.919  28.250  1.00  0.00    -0.248 NA
ATOM     40  C   UNL A   1      42.850  31.534  28.987  1.00  0.00     0.031 C 
ATOM     41  C   UNL A   1      41.091  26.865  28.353  1.00  0.00     0.029 A 
ATOM     42  N   UNL A   1      43.264  27.207  27.945  1.00  0.00    -0.354 N 
ATOM     43  C   UNL A   1      45.020  31.139  28.380  1.00  0.00     0.074 A 
ATOM     44  C   UNL A   1      44.034  32.104  28.811  1.00  0.00     0.031 C 
ATOM     45  C   UNL A   1      41.626  25.686  27.989  1.00  0.00     0.029 A 
ATOM     46  C   UNL A   1      43.041  25.877  27.675  1.00  0.00     0.049 A 
ATOM     47  H   UNL A   1      44.150  27.630  27.870  1.00  0.00     0.167 HD
ATOM     48  C   UNL A   1      46.325  31.423  28.163  1.00  0.00     0.037 A 
ATOM     49  C   UNL A   1      43.879  24.930  27.208  1.00  0.00     0.037 A 
ATOM     50  C   UNL A   1      47.309  30.452  27.758  1.00  0.00     0.049 A 
ATOM     51  C   UNL A   1      45.317  25.289  26.930  1.00  0.00     0.074 A 
ATOM     52  C   UNL A   1      48.667  30.636  27.563  1.00  0.00     0.029 A 
ATOM     53  N   UNL A   1      47.042  29.121  27.481  1.00  0.00    -0.354 N 
ATOM     54  N   UNL A   1      45.931  26.436  27.100  1.00  0.00    -0.248 NA
ATOM     55  C   UNL A   1      46.179  24.222  26.396  1.00  0.00     0.031 C 
ATOM     56  C   UNL A   1      49.213  29.428  27.120  1.00  0.00     0.029 A 
ATOM     57  C   UNL A   1      48.204  28.479  27.088  1.00  0.00     0.049 A 
ATOM     58  H   UNL A   1      46.158  28.694  27.554  1.00  0.00     0.167 HD
ATOM     59  C   UNL A   1      47.254  26.218  26.728  1.00  0.00     0.074 A 
ATOM     60  C   UNL A   1      47.356  24.830  26.331  1.00  0.00     0.031 C 
ATOM     61  C   UNL A   1      48.294  27.089  26.717  1.00  0.00     0.037 A 
BRANCH  48  62
ATOM     62  C   UNL A   1      46.778  32.845  28.337  1.00  0.00     0.058 A 
ATOM     63  C   UNL A   1      47.354  33.298  29.533  1.00  0.00     0.135 A 
ATOM     64  C   UNL A   1      46.709  33.745  27.260  1.00  0.00     0.135 A 
ATOM     65  F   UNL A   1      47.427  32.485  30.598  1.00  0.00    -0.206 F 
ATOM     66  C   UNL A   1      47.842  34.595  29.657  1.00  0.00     0.059 A 
ATOM     67  C   UNL A   1      47.211  35.038  27.354  1.00  0.00     0.059 A 
ATOM     68  F   UNL A   1      46.161  33.361  26.095  1.00  0.00    -0.206 F 
ATOM     69  C   UNL A   1      47.773  35.455  28.560  1.00  0.00     0.060 A 
BRANCH  69  70
ATOM     70  S   UNL A   1      48.454  37.120  28.723  1.00  0.00     0.124 S 
ATOM     71  O   UNL A   1      49.775  36.841  29.278  1.00  0.00    -0.237 OA
ATOM     72  O   UNL A   1      48.432  37.602  27.347  1.00  0.00    -0.237 OA
ATOM     73  O   UNL A   1      47.520  37.782  29.630  1.00  0.00    -0.744 OA
ENDBRANCH  69  70
ENDBRANCH  48  62
BRANCH  49  74
ATOM     74  C   UNL A   1      43.387  23.550  26.945  1.00  0.00     0.058 A 
ATOM     75  C   UNL A   1      43.294  22.604  27.978  1.00  0.00     0.135 A 
ATOM     76  C   UNL A   1      43.049  23.134  25.648  1.00  0.00     0.135 A 
ATOM     77  F   UNL A   1      43.615  22.950  29.234  1.00  0.00    -0.206 F 
ATOM     78  C   UNL A   1      42.918  21.288  27.730  1.00  0.00     0.059 A 
ATOM     79  C   UNL A   1      42.644  21.831  25.379  1.00  0.00     0.059 A 
ATOM     80  F   UNL A   1      43.113  24.001  24.625  1.00  0.00    -0.206 F 
ATOM     81  C   UNL A   1      42.600  20.910  26.424  1.00  0.00     0.060 A 
BRANCH  81  82
ATOM     82  S   UNL A   1      42.113  19.199  26.109  1.00  0.00     0.124 S 
ATOM     83  O   UNL A   1      40.702  19.353  25.780  1.00  0.00    -0.237 OA
ATOM     84  O   UNL A   1      42.991  18.827  25.003  1.00  0.00    -0.237 OA
ATOM     85  O   UNL A   1      42.398  18.532  27.376  1.00  0.00    -0.744 OA
ENDBRANCH  81  82
ENDBRANCH  49  74
BRANCH  61  86
ATOM     86  C   UNL A   1      49.643  26.561  26.311  1.00  0.00     0.058 A 
ATOM     87  C   UNL A   1      50.138  26.722  25.008  1.00  0.00     0.135 A 
ATOM     88  C   UNL A   1      50.471  25.934  27.256  1.00  0.00     0.135 A 
ATOM     89  F   UNL A   1      49.385  27.309  24.066  1.00  0.00    -0.206 F 
ATOM     90  C   UNL A   1      51.401  26.259  24.651  1.00  0.00     0.059 A 
ATOM     91  C   UNL A   1      51.748  25.489  26.927  1.00  0.00     0.059 A 
ATOM     92  F   UNL A   1      50.050  25.767  28.520  1.00  0.00    -0.206 F 
ATOM     93  C   UNL A   1      52.199  25.646  25.618  1.00  0.00     0.060 A 
BRANCH  93  94
ATOM     94  S   UNL A   1      53.850  25.080  25.150  1.00  0.00     0.124 S 
ATOM     95  O   UNL A   1      54.079  25.829  23.920  1.00  0.00    -0.237 OA
ATOM     96  O   UNL A   1      54.656  25.484  26.298  1.00  0.00    -0.237 OA
ATOM     97  O   UNL A   1      53.680  23.639  24.987  1.00  0.00    -0.744 OA
ENDBRANCH  93  94
ENDBRANCH  61  86
ENDBRANCH  35  36
ENDBRANCH  28  30
ENDBRANCH  27  28
ENDBRANCH  26  27
ENDBRANCH  25  26
ENDBRANCH  24  25
ENDBRANCH   1  24
TORSDOF 22
ENDMDL
MODEL 3
REMARK VINA RESULT:      -9.9      1.383      8.315
REMARK SMILES CC[C@H](C)[C@@H](C)NC(=O)c1ccncc1/C=C/C(=O)OCCOCCOC(=O)c1ccc(-c2c3nc(c(-c4c(F)cc(S(=O)(=O)[O-])cc4F)c4ccc([nH]4)c(-c4c(F)cc(S(=O)(=O)[O-])cc4F)c4nc(c(-c5c(F)cc(S(=O)(=O)[O-])cc5F)c5ccc2[nH]5)C=C4)C=C3)cc1
REMARK SMILES IDX 22 1 21 2 20 3 18 4 19 5 17 6 16 7 15 8 10 9 11 10 12 11
REMARK SMILES IDX 14 12 13 13 8 14 7 15 9 17 5 18 6 19 3 20 4 21 2 22 1 23
REMARK SMILES IDX 23 24 24 25 25 26 26 27 27 28 28 29 29 30 30 31 94 32 31 33
REMARK SMILES IDX 93 34 32 35 33 36 34 37 87 38 35 39 92 40 86 41 88 42 36 43
REMARK SMILES IDX 91 44 85 45 84 46 37 48 71 49 50 50 70 51 51 52 54 53 69 54
REMARK SMILES IDX 89 55 52 56 53 57 68 59 90 60 55 61 38 62 39 63 48 64 40 65
REMARK SMILES IDX 41 66 47 67 49 68 42 69 43 70 44 71 45 72 46 73 72 74 73 75
REMARK SMILES IDX 82 76 74 77 75 78 81 79 83 80 76 81 77 82 78 83 79 84 80 85
REMARK SMILES IDX 56 86 57 87 66 88 58 89 59 90 65 91 67 92 60 93 61 94 62 95
REMARK SMILES IDX 63 96 64 97
REMARK H PARENT 7 16 88 47 54 58
REMARK Flexibility Score: inf
ROOT
ATOM      1  C   UNL A   1      34.468  32.440  29.294  1.00  0.00     0.202 C 
ENDROOT
BRANCH   1   2
ATOM      2  C   UNL A   1      35.314  31.912  28.134  1.00  0.00     0.261 C 
BRANCH   2   3
ATOM      3  O   UNL A   1      34.572  30.989  27.318  1.00  0.00    -0.460 OA
BRANCH   3   4
ATOM      4  C   UNL A   1      34.986  29.705  27.386  1.00  0.00     0.330 C 
ATOM      5  O   UNL A   1      36.095  29.312  27.723  1.00  0.00    -0.247 OA
BRANCH   4   6
ATOM      6  C   UNL A   1      33.918  28.736  27.071  1.00  0.00     0.094 C 
ATOM      7  C   UNL A   1      33.877  27.835  26.073  1.00  0.00     0.018 C 
BRANCH   7   8
ATOM      8  C   UNL A   1      32.727  26.914  25.919  1.00  0.00     0.006 A 
ATOM      9  C   UNL A   1      32.691  25.813  25.045  1.00  0.00     0.050 A 
ATOM     10  C   UNL A   1      31.634  24.896  25.117  1.00  0.00     0.034 A 
ATOM     11  C   UNL A   1      30.562  25.186  25.935  1.00  0.00     0.112 A 
ATOM     12  C   UNL A   1      31.564  27.118  26.666  1.00  0.00     0.119 A 
ATOM     13  N   UNL A   1      30.485  26.299  26.684  1.00  0.00    -0.264 NA
BRANCH   9  14
ATOM     14  C   UNL A   1      33.759  25.583  24.044  1.00  0.00     0.252 C 
ATOM     15  N   UNL A   1      34.789  24.706  24.300  1.00  0.00    -0.349 N 
ATOM     16  H   UNL A   1      35.396  24.566  23.537  1.00  0.00     0.164 HD
ATOM     17  O   UNL A   1      33.707  26.155  22.960  1.00  0.00    -0.269 OA
BRANCH  15  18
ATOM     18  C   UNL A   1      35.153  23.939  25.501  1.00  0.00     0.082 C 
ATOM     19  C   UNL A   1      36.681  23.983  25.630  1.00  0.00     0.031 C 
BRANCH  18  20
ATOM     20  C   UNL A   1      34.606  22.487  25.447  1.00  0.00     0.008 C 
ATOM     21  C   UNL A   1      34.192  22.082  24.022  1.00  0.00     0.010 C 
BRANCH  20  22
ATOM     22  C   UNL A   1      35.588  21.439  26.023  1.00  0.00     0.002 C 
ATOM     23  C   UNL A   1      36.233  20.510  25.002  1.00  0.00     0.004 C 
ENDBRANCH  20  22
ENDBRANCH  18  20
ENDBRANCH  15  18
ENDBRANCH   9  14
ENDBRANCH   7   8
ENDBRANCH   4   6
ENDBRANCH   3   4
ENDBRANCH   2   3
ENDBRANCH   1   2
BRANCH   1  24
ATOM     24  O   UNL A   1      34.944  33.635  29.915  1.00  0.00    -0.374 OA
BRANCH  24  25
ATOM     25  C   UNL A   1      35.693  33.474  31.121  1.00  0.00     0.202 C 
BRANCH  25  26
ATOM     26  C   UNL A   1      35.524  32.130  31.841  1.00  0.00     0.261 C 
BRANCH  26  27
ATOM     27  O   UNL A   1      36.787  31.474  32.061  1.00  0.00    -0.460 OA
BRANCH  27  28
ATOM     28  C   UNL A   1      36.971  30.333  31.352  1.00  0.00     0.338 C 
ATOM     29  O   UNL A   1      36.106  29.546  30.988  1.00  0.00    -0.246 OA
BRANCH  28  30
ATOM     30  C   UNL A   1      38.372  30.236  30.901  1.00  0.00     0.060 A 
ATOM     31  C   UNL A   1      38.652  30.582  29.572  1.00  0.00     0.016 A 
ATOM     32  C   UNL A   1      39.386  29.757  31.735  1.00  0.00     0.016 A 
ATOM     33  C   UNL A   1      39.936  30.408  29.058  1.00  0.00     0.010 A 
ATOM     34  C   UNL A   1      40.672  29.574  31.213  1.00  0.00     0.010 A 
ATOM     35  C   UNL A   1      40.946  29.867  29.865  1.00  0.00    -0.014 A 
BRANCH  35  36
ATOM     36  C   UNL A   1      42.246  29.486  29.260  1.00  0.00     0.031 A 
ATOM     37  C   UNL A   1      42.419  28.091  28.719  1.00  0.00     0.074 A 
ATOM     38  C   UNL A   1      43.253  30.376  29.176  1.00  0.00     0.049 A 
ATOM     39  N   UNL A   1      43.476  27.534  28.188  1.00  0.00    -0.248 NA
ATOM     40  C   UNL A   1      41.245  27.206  28.788  1.00  0.00     0.031 C 
ATOM     41  C   UNL A   1      43.196  31.763  29.635  1.00  0.00     0.029 A 
ATOM     42  N   UNL A   1      44.527  30.239  28.680  1.00  0.00    -0.354 N 
ATOM     43  C   UNL A   1      43.103  26.232  27.876  1.00  0.00     0.074 A 
ATOM     44  C   UNL A   1      41.727  26.075  28.290  1.00  0.00     0.031 C 
ATOM     45  C   UNL A   1      44.387  32.347  29.411  1.00  0.00     0.029 A 
ATOM     46  C   UNL A   1      45.298  31.368  28.822  1.00  0.00     0.049 A 
ATOM     47  H   UNL A   1      44.856  29.410  28.263  1.00  0.00     0.167 HD
ATOM     48  C   UNL A   1      43.841  25.259  27.292  1.00  0.00     0.037 A 
ATOM     49  C   UNL A   1      46.598  31.578  28.528  1.00  0.00     0.037 A 
ATOM     50  C   UNL A   1      45.204  25.428  26.857  1.00  0.00     0.049 A 
ATOM     51  C   UNL A   1      47.408  30.460  27.922  1.00  0.00     0.074 A 
ATOM     52  C   UNL A   1      46.018  24.514  26.209  1.00  0.00     0.029 A 
ATOM     53  N   UNL A   1      45.955  26.579  27.030  1.00  0.00    -0.354 N 
ATOM     54  N   UNL A   1      47.028  29.248  27.592  1.00  0.00    -0.248 NA
ATOM     55  C   UNL A   1      48.826  30.738  27.648  1.00  0.00     0.031 C 
ATOM     56  C   UNL A   1      47.277  25.096  26.035  1.00  0.00     0.029 A 
ATOM     57  C   UNL A   1      47.231  26.390  26.529  1.00  0.00     0.049 A 
ATOM     58  H   UNL A   1      45.629  27.410  27.448  1.00  0.00     0.167 HD
ATOM     59  C   UNL A   1      48.149  28.635  27.041  1.00  0.00     0.074 A 
ATOM     60  C   UNL A   1      49.219  29.609  27.074  1.00  0.00     0.031 C 
ATOM     61  C   UNL A   1      48.281  27.377  26.549  1.00  0.00     0.037 A 
BRANCH  48  62
ATOM     62  C   UNL A   1      43.209  23.910  27.099  1.00  0.00     0.058 A 
ATOM     63  C   UNL A   1      43.011  23.025  28.171  1.00  0.00     0.135 A 
ATOM     64  C   UNL A   1      42.719  23.533  25.838  1.00  0.00     0.135 A 
ATOM     65  F   UNL A   1      43.475  23.329  29.392  1.00  0.00    -0.206 F 
ATOM     66  C   UNL A   1      42.352  21.812  27.996  1.00  0.00     0.059 A 
ATOM     67  C   UNL A   1      42.038  22.336  25.645  1.00  0.00     0.059 A 
ATOM     68  F   UNL A   1      42.888  24.342  24.779  1.00  0.00    -0.206 F 
ATOM     69  C   UNL A   1      41.864  21.479  26.731  1.00  0.00     0.060 A 
BRANCH  69  70
ATOM     70  S   UNL A   1      40.971  19.922  26.533  1.00  0.00     0.124 S 
ATOM     71  O   UNL A   1      41.757  19.266  25.492  1.00  0.00    -0.237 OA
ATOM     72  O   UNL A   1      41.066  19.335  27.865  1.00  0.00    -0.237 OA
ATOM     73  O   UNL A   1      39.632  20.347  26.133  1.00  0.00    -0.744 OA
ENDBRANCH  69  70
ENDBRANCH  48  62
BRANCH  49  74
ATOM     74  C   UNL A   1      47.234  32.891  28.820  1.00  0.00     0.058 A 
ATOM     75  C   UNL A   1      47.800  33.161  30.076  1.00  0.00     0.135 A 
ATOM     76  C   UNL A   1      47.246  33.920  27.866  1.00  0.00     0.135 A 
ATOM     77  F   UNL A   1      47.805  32.213  31.026  1.00  0.00    -0.206 F 
ATOM     78  C   UNL A   1      48.321  34.412  30.388  1.00  0.00     0.059 A 
ATOM     79  C   UNL A   1      47.786  35.172  28.144  1.00  0.00     0.059 A 
ATOM     80  F   UNL A   1      46.726  33.713  26.646  1.00  0.00    -0.206 F 
ATOM     81  C   UNL A   1      48.303  35.414  29.416  1.00  0.00     0.060 A 
BRANCH  81  82
ATOM     82  S   UNL A   1      48.981  37.037  29.828  1.00  0.00     0.124 S 
ATOM     83  O   UNL A   1      47.787  37.873  29.779  1.00  0.00    -0.237 OA
ATOM     84  O   UNL A   1      49.546  36.808  31.154  1.00  0.00    -0.237 OA
ATOM     85  O   UNL A   1      49.959  37.269  28.769  1.00  0.00    -0.744 OA
ENDBRANCH  81  82
ENDBRANCH  49  74
BRANCH  61  86
ATOM     86  C   UNL A   1      49.611  26.994  25.961  1.00  0.00     0.058 A 
ATOM     87  C   UNL A   1      49.917  27.227  24.612  1.00  0.00     0.135 A 
ATOM     88  C   UNL A   1      50.612  26.439  26.776  1.00  0.00     0.135 A 
ATOM     89  F   UNL A   1      48.995  27.751  23.790  1.00  0.00    -0.206 F 
ATOM     90  C   UNL A   1      51.163  26.900  24.084  1.00  0.00     0.059 A 
ATOM     91  C   UNL A   1      51.874  26.130  26.275  1.00  0.00     0.059 A 
ATOM     92  F   UNL A   1      50.375  26.209  28.077  1.00  0.00    -0.206 F 
ATOM     93  C   UNL A   1      52.135  26.354  24.925  1.00  0.00     0.060 A 
BRANCH  93  94
ATOM     94  S   UNL A   1      53.759  25.967  24.236  1.00  0.00     0.124 S 
ATOM     95  O   UNL A   1      53.994  24.630  24.769  1.00  0.00    -0.237 OA
ATOM     96  O   UNL A   1      53.517  26.042  22.798  1.00  0.00    -0.237 OA
ATOM     97  O   UNL A   1      54.616  27.019  24.776  1.00  0.00    -0.744 OA
ENDBRANCH  93  94
ENDBRANCH  61  86
ENDBRANCH  35  36
ENDBRANCH  28  30
ENDBRANCH  27  28
ENDBRANCH  26  27
ENDBRANCH  25  26
ENDBRANCH  24  25
ENDBRANCH   1  24
TORSDOF 22
ENDMDL
