MODEL 1
REMARK VINA RESULT:     -10.1      0.000      0.000
REMARK SMILES O=C(OCCOCCOC(=O)C1(Cc2cccc(Cl)c2)CCCC1)c1ccc(-c2c3nc(c(-c4c(F)cc(S(=O)(=O)[O-])cc4F)c4ccc([nH]4)c(-c4c(F)cc(S(=O)(=O)[O-])cc4F)c4nc(c(-c5c(F)cc(S(=O)(=O)[O-])cc5F)c5ccc2[nH]5)C=C4)C=C3)cc1
REMARK SMILES IDX 5 1 4 2 3 3 2 4 1 5 25 6 26 7 90 8 27 9 89 10 28 11 29 12
REMARK SMILES IDX 30 13 83 14 31 15 88 16 82 17 84 18 32 19 87 20 81 21 80 22
REMARK SMILES IDX 33 24 67 25 46 26 66 27 47 28 50 29 65 30 85 31 48 32 49 33
REMARK SMILES IDX 64 35 86 36 51 37 34 38 35 39 44 40 36 41 37 42 43 43 45 44
REMARK SMILES IDX 38 45 39 46 40 47 41 48 42 49 68 50 69 51 78 52 70 53 71 54
REMARK SMILES IDX 77 55 79 56 72 57 73 58 74 59 75 60 76 61 52 62 53 63 62 64
REMARK SMILES IDX 54 65 55 66 61 67 63 68 56 69 57 70 58 71 59 72 60 73 6 74
REMARK SMILES IDX 7 75 8 76 9 77 10 78 11 79 12 80 21 81 24 82 22 83 23 84
REMARK SMILES IDX 13 85 14 86 15 87 20 88 16 89 18 90 17 91 19 92
REMARK H PARENT 84 23 50 34
REMARK Flexibility Score: inf
ROOT
ATOM      1  C   UNL A   1      35.040  33.560  30.391  1.00  0.00     0.202 C 
ENDROOT
BRANCH   1   2
ATOM      2  C   UNL A   1      36.423  32.948  30.638  1.00  0.00     0.261 C 
BRANCH   2   3
ATOM      3  O   UNL A   1      36.306  31.636  31.209  1.00  0.00    -0.460 OA
BRANCH   3   4
ATOM      4  C   UNL A   1      36.604  30.453  30.621  1.00  0.00     0.338 C 
ATOM      5  O   UNL A   1      35.714  29.612  30.509  1.00  0.00    -0.246 OA
BRANCH   4   6
ATOM      6  C   UNL A   1      37.960  30.123  30.084  1.00  0.00     0.060 A 
ATOM      7  C   UNL A   1      38.300  30.135  28.733  1.00  0.00     0.016 A 
ATOM      8  C   UNL A   1      38.977  29.852  31.014  1.00  0.00     0.016 A 
ATOM      9  C   UNL A   1      39.570  29.824  28.297  1.00  0.00     0.010 A 
ATOM     10  C   UNL A   1      40.284  29.585  30.588  1.00  0.00     0.010 A 
ATOM     11  C   UNL A   1      40.572  29.562  29.221  1.00  0.00    -0.014 A 
BRANCH  11  12
ATOM     12  C   UNL A   1      41.874  29.181  28.659  1.00  0.00     0.031 A 
ATOM     13  C   UNL A   1      42.989  30.174  28.724  1.00  0.00     0.074 A 
ATOM     14  C   UNL A   1      42.076  27.890  28.335  1.00  0.00     0.049 A 
ATOM     15  N   UNL A   1      44.226  30.045  28.341  1.00  0.00    -0.248 NA
ATOM     16  C   UNL A   1      42.674  31.482  29.328  1.00  0.00     0.031 C 
ATOM     17  C   UNL A   1      41.055  26.836  28.404  1.00  0.00     0.029 A 
ATOM     18  N   UNL A   1      43.207  27.228  27.946  1.00  0.00    -0.354 N 
ATOM     19  C   UNL A   1      44.837  31.256  28.640  1.00  0.00     0.074 A 
ATOM     20  C   UNL A   1      43.835  32.112  29.232  1.00  0.00     0.031 C 
ATOM     21  C   UNL A   1      41.618  25.656  28.101  1.00  0.00     0.029 A 
ATOM     22  C   UNL A   1      43.012  25.882  27.742  1.00  0.00     0.049 A 
ATOM     23  H   UNL A   1      44.076  27.673  27.825  1.00  0.00     0.167 HD
ATOM     24  C   UNL A   1      46.123  31.609  28.425  1.00  0.00     0.037 A 
ATOM     25  C   UNL A   1      43.865  24.952  27.276  1.00  0.00     0.037 A 
ATOM     26  C   UNL A   1      47.083  30.724  27.823  1.00  0.00     0.049 A 
ATOM     27  C   UNL A   1      45.263  25.402  26.948  1.00  0.00     0.074 A 
ATOM     28  C   UNL A   1      48.381  30.987  27.433  1.00  0.00     0.029 A 
ATOM     29  N   UNL A   1      46.835  29.388  27.530  1.00  0.00    -0.354 N 
ATOM     30  N   UNL A   1      45.804  26.588  27.117  1.00  0.00    -0.248 NA
ATOM     31  C   UNL A   1      46.158  24.408  26.350  1.00  0.00     0.031 C 
ATOM     32  C   UNL A   1      48.909  29.816  26.876  1.00  0.00     0.029 A 
ATOM     33  C   UNL A   1      47.955  28.813  26.959  1.00  0.00     0.049 A 
ATOM     34  H   UNL A   1      45.987  28.921  27.704  1.00  0.00     0.167 HD
ATOM     35  C   UNL A   1      47.105  26.483  26.644  1.00  0.00     0.074 A 
ATOM     36  C   UNL A   1      47.277  25.107  26.218  1.00  0.00     0.031 C 
ATOM     37  C   UNL A   1      48.069  27.434  26.552  1.00  0.00     0.037 A 
BRANCH  24  38
ATOM     38  C   UNL A   1      46.516  33.014  28.776  1.00  0.00     0.058 A 
ATOM     39  C   UNL A   1      46.362  34.078  27.874  1.00  0.00     0.135 A 
ATOM     40  C   UNL A   1      47.088  33.294  30.028  1.00  0.00     0.135 A 
ATOM     41  F   UNL A   1      45.856  33.857  26.650  1.00  0.00    -0.206 F 
ATOM     42  C   UNL A   1      46.777  35.367  28.192  1.00  0.00     0.059 A 
ATOM     43  C   UNL A   1      47.494  34.579  30.375  1.00  0.00     0.059 A 
ATOM     44  F   UNL A   1      47.279  32.310  30.919  1.00  0.00    -0.206 F 
ATOM     45  C   UNL A   1      47.346  35.608  29.444  1.00  0.00     0.060 A 
BRANCH  45  46
ATOM     46  S   UNL A   1      47.892  37.282  29.840  1.00  0.00     0.124 S 
ATOM     47  O   UNL A   1      47.070  38.078  28.933  1.00  0.00    -0.237 OA
ATOM     48  O   UNL A   1      47.558  37.392  31.257  1.00  0.00    -0.237 OA
ATOM     49  O   UNL A   1      49.318  37.257  29.535  1.00  0.00    -0.744 OA
ENDBRANCH  45  46
ENDBRANCH  24  38
BRANCH  25  50
ATOM     50  C   UNL A   1      43.402  23.562  27.011  1.00  0.00     0.058 A 
ATOM     51  C   UNL A   1      43.154  22.651  28.048  1.00  0.00     0.135 A 
ATOM     52  C   UNL A   1      43.217  23.109  25.692  1.00  0.00     0.135 A 
ATOM     53  F   UNL A   1      43.317  23.027  29.325  1.00  0.00    -0.206 F 
ATOM     54  C   UNL A   1      42.770  21.337  27.789  1.00  0.00     0.059 A 
ATOM     55  C   UNL A   1      42.802  21.812  25.410  1.00  0.00     0.059 A 
ATOM     56  F   UNL A   1      43.428  23.939  24.658  1.00  0.00    -0.206 F 
ATOM     57  C   UNL A   1      42.602  20.926  26.465  1.00  0.00     0.060 A 
BRANCH  57  58
ATOM     58  S   UNL A   1      42.102  19.223  26.130  1.00  0.00     0.124 S 
ATOM     59  O   UNL A   1      42.585  18.537  27.323  1.00  0.00    -0.237 OA
ATOM     60  O   UNL A   1      40.653  19.344  26.005  1.00  0.00    -0.237 OA
ATOM     61  O   UNL A   1      42.806  18.905  24.890  1.00  0.00    -0.744 OA
ENDBRANCH  57  58
ENDBRANCH  25  50
BRANCH  37  62
ATOM     62  C   UNL A   1      49.384  26.995  25.981  1.00  0.00     0.058 A 
ATOM     63  C   UNL A   1      49.703  27.209  24.632  1.00  0.00     0.135 A 
ATOM     64  C   UNL A   1      50.343  26.383  26.803  1.00  0.00     0.135 A 
ATOM     65  F   UNL A   1      48.812  27.786  23.809  1.00  0.00    -0.206 F 
ATOM     66  C   UNL A   1      50.921  26.801  24.106  1.00  0.00     0.059 A 
ATOM     67  C   UNL A   1      51.579  25.992  26.304  1.00  0.00     0.059 A 
ATOM     68  F   UNL A   1      50.084  26.170  28.102  1.00  0.00    -0.206 F 
ATOM     69  C   UNL A   1      51.852  26.191  24.951  1.00  0.00     0.060 A 
BRANCH  69  70
ATOM     70  S   UNL A   1      53.439  25.681  24.263  1.00  0.00     0.124 S 
ATOM     71  O   UNL A   1      53.242  25.954  22.843  1.00  0.00    -0.237 OA
ATOM     72  O   UNL A   1      54.378  26.561  24.953  1.00  0.00    -0.237 OA
ATOM     73  O   UNL A   1      53.528  24.271  24.627  1.00  0.00    -0.744 OA
ENDBRANCH  69  70
ENDBRANCH  37  62
ENDBRANCH  11  12
ENDBRANCH   4   6
ENDBRANCH   3   4
ENDBRANCH   2   3
ENDBRANCH   1   2
BRANCH   1  74
ATOM     74  O   UNL A   1      34.094  32.731  29.709  1.00  0.00    -0.374 OA
BRANCH  74  75
ATOM     75  C   UNL A   1      34.075  32.873  28.282  1.00  0.00     0.202 C 
BRANCH  75  76
ATOM     76  C   UNL A   1      34.759  31.667  27.647  1.00  0.00     0.261 C 
BRANCH  76  77
ATOM     77  O   UNL A   1      33.741  30.666  27.501  1.00  0.00    -0.463 OA
BRANCH  77  78
ATOM     78  C   UNL A   1      34.149  29.458  27.036  1.00  0.00     0.312 C 
ATOM     79  O   UNL A   1      35.259  28.983  27.263  1.00  0.00    -0.252 OA
BRANCH  78  80
ATOM     80  C   UNL A   1      33.087  28.798  26.150  1.00  0.00     0.072 C 
ATOM     81  C   UNL A   1      31.809  29.666  25.989  1.00  0.00     0.019 C 
ATOM     82  C   UNL A   1      33.632  28.776  24.714  1.00  0.00     0.019 C 
ATOM     83  C   UNL A   1      31.246  29.340  24.621  1.00  0.00     0.001 C 
ATOM     84  C   UNL A   1      32.443  28.955  23.772  1.00  0.00     0.001 C 
BRANCH  80  85
ATOM     85  C   UNL A   1      32.660  27.391  26.666  1.00  0.00     0.054 C 
BRANCH  85  86
ATOM     86  C   UNL A   1      32.866  26.170  25.801  1.00  0.00    -0.045 A 
ATOM     87  C   UNL A   1      34.114  25.526  25.745  1.00  0.00     0.004 A 
ATOM     88  C   UNL A   1      31.799  25.620  25.078  1.00  0.00     0.024 A 
ATOM     89  C   UNL A   1      34.300  24.387  24.956  1.00  0.00     0.002 A 
ATOM     90  C   UNL A   1      31.987  24.472  24.303  1.00  0.00     0.041 A 
ATOM     91  C   UNL A   1      33.234  23.859  24.233  1.00  0.00     0.020 A 
ATOM     92  Cl  UNL A   1      30.655  23.809  23.436  1.00  0.00    -0.084 Cl
ENDBRANCH  85  86
ENDBRANCH  80  85
ENDBRANCH  78  80
ENDBRANCH  77  78
ENDBRANCH  76  77
ENDBRANCH  75  76
ENDBRANCH  74  75
ENDBRANCH   1  74
TORSDOF 19
ENDMDL
MODEL 2
REMARK VINA RESULT:     -10.1      6.667     12.313
REMARK SMILES O=C(OCCOCCOC(=O)C1(Cc2cccc(Cl)c2)CCCC1)c1ccc(-c2c3nc(c(-c4c(F)cc(S(=O)(=O)[O-])cc4F)c4ccc([nH]4)c(-c4c(F)cc(S(=O)(=O)[O-])cc4F)c4nc(c(-c5c(F)cc(S(=O)(=O)[O-])cc5F)c5ccc2[nH]5)C=C4)C=C3)cc1
REMARK SMILES IDX 5 1 4 2 3 3 2 4 1 5 25 6 26 7 90 8 27 9 89 10 28 11 29 12
REMARK SMILES IDX 30 13 83 14 31 15 88 16 82 17 84 18 32 19 87 20 81 21 80 22
REMARK SMILES IDX 33 24 67 25 46 26 66 27 47 28 50 29 65 30 85 31 48 32 49 33
REMARK SMILES IDX 64 35 86 36 51 37 34 38 35 39 44 40 36 41 37 42 43 43 45 44
REMARK SMILES IDX 38 45 39 46 40 47 41 48 42 49 68 50 69 51 78 52 70 53 71 54
REMARK SMILES IDX 77 55 79 56 72 57 73 58 74 59 75 60 76 61 52 62 53 63 62 64
REMARK SMILES IDX 54 65 55 66 61 67 63 68 56 69 57 70 58 71 59 72 60 73 6 74
REMARK SMILES IDX 7 75 8 76 9 77 10 78 11 79 12 80 21 81 24 82 22 83 23 84
REMARK SMILES IDX 13 85 14 86 15 87 20 88 16 89 18 90 17 91 19 92
REMARK H PARENT 84 23 50 34
REMARK Flexibility Score: inf
ROOT
ATOM      1  C   UNL A   1      39.478  21.522  26.077  1.00  0.00     0.202 C 
ENDROOT
BRANCH   1   2
ATOM      2  C   UNL A   1      40.689  22.419  26.357  1.00  0.00     0.261 C 
BRANCH   2   3
ATOM      3  O   UNL A   1      40.278  23.775  26.585  1.00  0.00    -0.460 OA
BRANCH   3   4
ATOM      4  C   UNL A   1      41.072  24.856  26.770  1.00  0.00     0.338 C 
ATOM      5  O   UNL A   1      41.997  25.047  25.981  1.00  0.00    -0.246 OA
BRANCH   4   6
ATOM      6  C   UNL A   1      40.872  25.843  27.875  1.00  0.00     0.060 A 
ATOM      7  C   UNL A   1      41.714  26.921  28.136  1.00  0.00     0.016 A 
ATOM      8  C   UNL A   1      39.713  25.710  28.659  1.00  0.00     0.016 A 
ATOM      9  C   UNL A   1      41.475  27.802  29.169  1.00  0.00     0.010 A 
ATOM     10  C   UNL A   1      39.431  26.627  29.679  1.00  0.00     0.010 A 
ATOM     11  C   UNL A   1      40.325  27.669  29.936  1.00  0.00    -0.014 A 
BRANCH  11  12
ATOM     12  C   UNL A   1      40.191  28.615  31.052  1.00  0.00     0.031 A 
ATOM     13  C   UNL A   1      41.197  28.552  32.155  1.00  0.00     0.074 A 
ATOM     14  C   UNL A   1      39.329  29.641  30.919  1.00  0.00     0.049 A 
ATOM     15  N   UNL A   1      41.309  29.309  33.208  1.00  0.00    -0.248 NA
ATOM     16  C   UNL A   1      42.236  27.511  32.044  1.00  0.00     0.031 C 
ATOM     17  C   UNL A   1      38.427  29.838  29.776  1.00  0.00     0.029 A 
ATOM     18  N   UNL A   1      39.110  30.736  31.705  1.00  0.00    -0.354 N 
ATOM     19  C   UNL A   1      42.417  28.831  33.895  1.00  0.00     0.074 A 
ATOM     20  C   UNL A   1      42.943  27.713  33.145  1.00  0.00     0.031 C 
ATOM     21  C   UNL A   1      37.778  31.004  29.924  1.00  0.00     0.029 A 
ATOM     22  C   UNL A   1      38.159  31.592  31.201  1.00  0.00     0.049 A 
ATOM     23  H   UNL A   1      39.588  30.897  32.550  1.00  0.00     0.167 HD
ATOM     24  C   UNL A   1      42.933  29.292  35.056  1.00  0.00     0.037 A 
ATOM     25  C   UNL A   1      37.632  32.705  31.742  1.00  0.00     0.037 A 
ATOM     26  C   UNL A   1      42.368  30.403  35.772  1.00  0.00     0.049 A 
ATOM     27  C   UNL A   1      38.156  33.133  33.086  1.00  0.00     0.074 A 
ATOM     28  C   UNL A   1      42.708  30.899  37.015  1.00  0.00     0.029 A 
ATOM     29  N   UNL A   1      41.334  31.198  35.288  1.00  0.00    -0.354 N 
ATOM     30  N   UNL A   1      39.127  32.601  33.795  1.00  0.00    -0.248 NA
ATOM     31  C   UNL A   1      37.512  34.289  33.714  1.00  0.00     0.031 C 
ATOM     32  C   UNL A   1      41.860  31.976  37.297  1.00  0.00     0.029 A 
ATOM     33  C   UNL A   1      41.020  32.178  36.210  1.00  0.00     0.049 A 
ATOM     34  H   UNL A   1      40.893  31.080  34.418  1.00  0.00     0.167 HD
ATOM     35  C   UNL A   1      39.208  33.357  34.956  1.00  0.00     0.074 A 
ATOM     36  C   UNL A   1      38.212  34.406  34.834  1.00  0.00     0.031 C 
ATOM     37  C   UNL A   1      40.016  33.198  36.035  1.00  0.00     0.037 A 
BRANCH  24  38
ATOM     38  C   UNL A   1      44.102  28.546  35.629  1.00  0.00     0.058 A 
ATOM     39  C   UNL A   1      45.426  28.871  35.297  1.00  0.00     0.135 A 
ATOM     40  C   UNL A   1      43.891  27.466  36.500  1.00  0.00     0.135 A 
ATOM     41  F   UNL A   1      45.681  29.870  34.438  1.00  0.00    -0.206 F 
ATOM     42  C   UNL A   1      46.501  28.139  35.795  1.00  0.00     0.059 A 
ATOM     43  C   UNL A   1      44.950  26.731  37.025  1.00  0.00     0.059 A 
ATOM     44  F   UNL A   1      42.644  27.099  36.833  1.00  0.00    -0.206 F 
ATOM     45  C   UNL A   1      46.252  27.068  36.655  1.00  0.00     0.060 A 
BRANCH  45  46
ATOM     46  S   UNL A   1      47.654  26.120  37.284  1.00  0.00     0.124 S 
ATOM     47  O   UNL A   1      46.978  25.034  37.988  1.00  0.00    -0.237 OA
ATOM     48  O   UNL A   1      48.350  25.742  36.058  1.00  0.00    -0.237 OA
ATOM     49  O   UNL A   1      48.359  27.075  38.133  1.00  0.00    -0.744 OA
ENDBRANCH  45  46
ENDBRANCH  24  38
BRANCH  25  50
ATOM     50  C   UNL A   1      36.508  33.417  31.072  1.00  0.00     0.058 A 
ATOM     51  C   UNL A   1      35.193  33.345  31.551  1.00  0.00     0.135 A 
ATOM     52  C   UNL A   1      36.734  34.176  29.910  1.00  0.00     0.135 A 
ATOM     53  F   UNL A   1      34.918  32.633  32.654  1.00  0.00    -0.206 F 
ATOM     54  C   UNL A   1      34.139  33.973  30.890  1.00  0.00     0.059 A 
ATOM     55  C   UNL A   1      35.705  34.839  29.252  1.00  0.00     0.059 A 
ATOM     56  F   UNL A   1      37.975  34.292  29.410  1.00  0.00    -0.206 F 
ATOM     57  C   UNL A   1      34.405  34.714  29.736  1.00  0.00     0.060 A 
BRANCH  57  58
ATOM     58  S   UNL A   1      33.040  35.529  28.880  1.00  0.00     0.124 S 
ATOM     59  O   UNL A   1      32.280  36.077  29.999  1.00  0.00    -0.237 OA
ATOM     60  O   UNL A   1      33.735  36.502  28.043  1.00  0.00    -0.237 OA
ATOM     61  O   UNL A   1      32.398  34.436  28.156  1.00  0.00    -0.744 OA
ENDBRANCH  57  58
ENDBRANCH  25  50
BRANCH  37  62
ATOM     62  C   UNL A   1      39.849  34.194  37.143  1.00  0.00     0.058 A 
ATOM     63  C   UNL A   1      40.560  35.402  37.152  1.00  0.00     0.135 A 
ATOM     64  C   UNL A   1      38.944  33.946  38.187  1.00  0.00     0.135 A 
ATOM     65  F   UNL A   1      41.441  35.677  36.176  1.00  0.00    -0.206 F 
ATOM     66  C   UNL A   1      40.405  36.323  38.180  1.00  0.00     0.059 A 
ATOM     67  C   UNL A   1      38.752  34.866  39.210  1.00  0.00     0.059 A 
ATOM     68  F   UNL A   1      38.234  32.809  38.211  1.00  0.00    -0.206 F 
ATOM     69  C   UNL A   1      39.499  36.044  39.206  1.00  0.00     0.060 A 
BRANCH  69  70
ATOM     70  S   UNL A   1      39.289  37.254  40.527  1.00  0.00     0.124 S 
ATOM     71  O   UNL A   1      38.813  36.413  41.619  1.00  0.00    -0.237 OA
ATOM     72  O   UNL A   1      40.640  37.789  40.680  1.00  0.00    -0.237 OA
ATOM     73  O   UNL A   1      38.311  38.187  39.976  1.00  0.00    -0.744 OA
ENDBRANCH  69  70
ENDBRANCH  37  62
ENDBRANCH  11  12
ENDBRANCH   4   6
ENDBRANCH   3   4
ENDBRANCH   2   3
ENDBRANCH   1   2
BRANCH   1  74
ATOM     74  O   UNL A   1      38.199  22.159  26.111  1.00  0.00    -0.374 OA
BRANCH  74  75
ATOM     75  C   UNL A   1      37.399  21.986  24.933  1.00  0.00     0.202 C 
BRANCH  75  76
ATOM     76  C   UNL A   1      35.991  21.562  25.337  1.00  0.00     0.261 C 
BRANCH  76  77
ATOM     77  O   UNL A   1      35.097  22.427  24.621  1.00  0.00    -0.463 OA
BRANCH  77  78
ATOM     78  C   UNL A   1      34.840  23.630  25.191  1.00  0.00     0.312 C 
ATOM     79  O   UNL A   1      35.716  24.399  25.579  1.00  0.00    -0.252 OA
BRANCH  78  80
ATOM     80  C   UNL A   1      33.335  23.880  25.346  1.00  0.00     0.072 C 
ATOM     81  C   UNL A   1      32.468  22.779  24.676  1.00  0.00     0.019 C 
ATOM     82  C   UNL A   1      32.987  23.690  26.831  1.00  0.00     0.019 C 
ATOM     83  C   UNL A   1      31.191  22.695  25.488  1.00  0.00     0.001 C 
ATOM     84  C   UNL A   1      31.579  23.100  26.898  1.00  0.00     0.001 C 
BRANCH  80  85
ATOM     85  C   UNL A   1      32.891  25.263  24.783  1.00  0.00     0.054 C 
BRANCH  85  86
ATOM     86  C   UNL A   1      32.721  26.442  25.712  1.00  0.00    -0.045 A 
ATOM     87  C   UNL A   1      31.477  26.726  26.300  1.00  0.00     0.004 A 
ATOM     88  C   UNL A   1      33.818  27.246  26.051  1.00  0.00     0.024 A 
ATOM     89  C   UNL A   1      31.324  27.808  27.171  1.00  0.00     0.002 A 
ATOM     90  C   UNL A   1      33.663  28.317  26.935  1.00  0.00     0.041 A 
ATOM     91  C   UNL A   1      32.419  28.606  27.489  1.00  0.00     0.020 A 
ATOM     92  Cl  UNL A   1      35.029  29.281  27.347  1.00  0.00    -0.084 Cl
ENDBRANCH  85  86
ENDBRANCH  80  85
ENDBRANCH  78  80
ENDBRANCH  77  78
ENDBRANCH  76  77
ENDBRANCH  75  76
ENDBRANCH  74  75
ENDBRANCH   1  74
TORSDOF 19
ENDMDL
MODEL 3
REMARK VINA RESULT:     -10.1      6.587     12.189
REMARK SMILES O=C(OCCOCCOC(=O)C1(Cc2cccc(Cl)c2)CCCC1)c1ccc(-c2c3nc(c(-c4c(F)cc(S(=O)(=O)[O-])cc4F)c4ccc([nH]4)c(-c4c(F)cc(S(=O)(=O)[O-])cc4F)c4nc(c(-c5c(F)cc(S(=O)(=O)[O-])cc5F)c5ccc2[nH]5)C=C4)C=C3)cc1
REMARK SMILES IDX 5 1 4 2 3 3 2 4 1 5 25 6 26 7 90 8 27 9 89 10 28 11 29 12
REMARK SMILES IDX 30 13 83 14 31 15 88 16 82 17 84 18 32 19 87 20 81 21 80 22
REMARK SMILES IDX 33 24 67 25 46 26 66 27 47 28 50 29 65 30 85 31 48 32 49 33
REMARK SMILES IDX 64 35 86 36 51 37 34 38 35 39 44 40 36 41 37 42 43 43 45 44
REMARK SMILES IDX 38 45 39 46 40 47 41 48 42 49 68 50 69 51 78 52 70 53 71 54
REMARK SMILES IDX 77 55 79 56 72 57 73 58 74 59 75 60 76 61 52 62 53 63 62 64
REMARK SMILES IDX 54 65 55 66 61 67 63 68 56 69 57 70 58 71 59 72 60 73 6 74
REMARK SMILES IDX 7 75 8 76 9 77 10 78 11 79 12 80 21 81 24 82 22 83 23 84
REMARK SMILES IDX 13 85 14 86 15 87 20 88 16 89 18 90 17 91 19 92
REMARK H PARENT 84 23 50 34
REMARK Flexibility Score: inf
ROOT
ATOM      1  C   UNL A   1      42.613  22.099  27.215  1.00  0.00     0.202 C 
ENDROOT
BRANCH   1   2
ATOM      2  C   UNL A   1      43.613  23.199  27.587  1.00  0.00     0.261 C 
BRANCH   2   3
ATOM      3  O   UNL A   1      43.552  24.284  26.648  1.00  0.00    -0.460 OA
BRANCH   3   4
ATOM      4  C   UNL A   1      42.609  25.253  26.571  1.00  0.00     0.338 C 
ATOM      5  O   UNL A   1      41.932  25.333  25.547  1.00  0.00    -0.246 OA
BRANCH   4   6
ATOM      6  C   UNL A   1      42.337  26.222  27.676  1.00  0.00     0.060 A 
ATOM      7  C   UNL A   1      43.050  27.399  27.890  1.00  0.00     0.016 A 
ATOM      8  C   UNL A   1      41.240  25.959  28.513  1.00  0.00     0.016 A 
ATOM      9  C   UNL A   1      42.750  28.258  28.926  1.00  0.00     0.010 A 
ATOM     10  C   UNL A   1      40.892  26.847  29.538  1.00  0.00     0.010 A 
ATOM     11  C   UNL A   1      41.661  27.994  29.746  1.00  0.00    -0.014 A 
BRANCH  11  12
ATOM     12  C   UNL A   1      41.460  28.932  30.859  1.00  0.00     0.031 A 
ATOM     13  C   UNL A   1      40.310  29.882  30.781  1.00  0.00     0.074 A 
ATOM     14  C   UNL A   1      42.159  28.736  31.993  1.00  0.00     0.049 A 
ATOM     15  N   UNL A   1      39.909  30.759  31.656  1.00  0.00    -0.248 NA
ATOM     16  C   UNL A   1      39.481  29.818  29.563  1.00  0.00     0.031 C 
ATOM     17  C   UNL A   1      43.194  27.709  32.176  1.00  0.00     0.029 A 
ATOM     18  N   UNL A   1      42.071  29.337  33.217  1.00  0.00    -0.354 N 
ATOM     19  C   UNL A   1      38.793  31.364  31.093  1.00  0.00     0.074 A 
ATOM     20  C   UNL A   1      38.580  30.760  29.798  1.00  0.00     0.031 C 
ATOM     21  C   UNL A   1      43.617  27.733  33.450  1.00  0.00     0.029 A 
ATOM     22  C   UNL A   1      42.944  28.822  34.146  1.00  0.00     0.049 A 
ATOM     23  H   UNL A   1      41.442  30.068  33.414  1.00  0.00     0.167 HD
ATOM     24  C   UNL A   1      38.027  32.344  31.623  1.00  0.00     0.037 A 
ATOM     25  C   UNL A   1      43.193  29.223  35.405  1.00  0.00     0.037 A 
ATOM     26  C   UNL A   1      38.285  32.920  32.914  1.00  0.00     0.049 A 
ATOM     27  C   UNL A   1      42.395  30.386  35.929  1.00  0.00     0.074 A 
ATOM     28  C   UNL A   1      37.671  33.998  33.522  1.00  0.00     0.029 A 
ATOM     29  N   UNL A   1      39.244  32.447  33.802  1.00  0.00    -0.354 N 
ATOM     30  N   UNL A   1      41.418  31.040  35.342  1.00  0.00    -0.248 NA
ATOM     31  C   UNL A   1      42.737  30.880  37.265  1.00  0.00     0.031 C 
ATOM     32  C   UNL A   1      38.281  34.195  34.766  1.00  0.00     0.029 A 
ATOM     33  C   UNL A   1      39.244  33.214  34.952  1.00  0.00     0.049 A 
ATOM     34  H   UNL A   1      39.836  31.679  33.636  1.00  0.00     0.167 HD
ATOM     35  C   UNL A   1      41.029  32.027  36.238  1.00  0.00     0.074 A 
ATOM     36  C   UNL A   1      41.853  31.856  37.420  1.00  0.00     0.031 C 
ATOM     37  C   UNL A   1      40.091  32.998  36.099  1.00  0.00     0.037 A 
BRANCH  24  38
ATOM     38  C   UNL A   1      36.912  32.877  30.772  1.00  0.00     0.058 A 
ATOM     39  C   UNL A   1      37.138  33.813  29.751  1.00  0.00     0.135 A 
ATOM     40  C   UNL A   1      35.590  32.469  31.005  1.00  0.00     0.135 A 
ATOM     41  F   UNL A   1      38.380  34.266  29.513  1.00  0.00    -0.206 F 
ATOM     42  C   UNL A   1      36.090  34.340  29.002  1.00  0.00     0.059 A 
ATOM     43  C   UNL A   1      34.527  32.968  30.257  1.00  0.00     0.059 A 
ATOM     44  F   UNL A   1      35.315  31.593  31.984  1.00  0.00    -0.206 F 
ATOM     45  C   UNL A   1      34.787  33.913  29.265  1.00  0.00     0.060 A 
BRANCH  45  46
ATOM     46  S   UNL A   1      33.434  34.613  28.296  1.00  0.00     0.124 S 
ATOM     47  O   UNL A   1      32.605  35.208  29.339  1.00  0.00    -0.237 OA
ATOM     48  O   UNL A   1      34.130  35.556  27.426  1.00  0.00    -0.237 OA
ATOM     49  O   UNL A   1      32.860  33.452  27.624  1.00  0.00    -0.744 OA
ENDBRANCH  45  46
ENDBRANCH  24  38
BRANCH  25  50
ATOM     50  C   UNL A   1      44.285  28.595  36.201  1.00  0.00     0.058 A 
ATOM     51  C   UNL A   1      45.595  29.093  36.185  1.00  0.00     0.135 A 
ATOM     52  C   UNL A   1      44.033  27.456  36.986  1.00  0.00     0.135 A 
ATOM     53  F   UNL A   1      45.894  30.176  35.451  1.00  0.00    -0.206 F 
ATOM     54  C   UNL A   1      46.622  28.470  36.893  1.00  0.00     0.059 A 
ATOM     55  C   UNL A   1      45.034  26.836  37.726  1.00  0.00     0.059 A 
ATOM     56  F   UNL A   1      42.796  26.940  37.049  1.00  0.00    -0.206 F 
ATOM     57  C   UNL A   1      46.331  27.337  37.657  1.00  0.00     0.060 A 
BRANCH  57  58
ATOM     58  S   UNL A   1      47.661  26.531  38.575  1.00  0.00     0.124 S 
ATOM     59  O   UNL A   1      47.927  25.366  37.738  1.00  0.00    -0.237 OA
ATOM     60  O   UNL A   1      48.696  27.559  38.588  1.00  0.00    -0.237 OA
ATOM     61  O   UNL A   1      47.050  26.251  39.872  1.00  0.00    -0.744 OA
ENDBRANCH  57  58
ENDBRANCH  25  50
BRANCH  37  62
ATOM     62  C   UNL A   1      39.914  33.923  37.265  1.00  0.00     0.058 A 
ATOM     63  C   UNL A   1      39.031  33.619  38.311  1.00  0.00     0.135 A 
ATOM     64  C   UNL A   1      40.661  35.108  37.347  1.00  0.00     0.135 A 
ATOM     65  F   UNL A   1      38.292  32.499  38.270  1.00  0.00    -0.206 F 
ATOM     66  C   UNL A   1      38.869  34.479  39.391  1.00  0.00     0.059 A 
ATOM     67  C   UNL A   1      40.535  35.968  38.431  1.00  0.00     0.059 A 
ATOM     68  F   UNL A   1      41.526  35.432  36.375  1.00  0.00    -0.206 F 
ATOM     69  C   UNL A   1      39.625  35.652  39.439  1.00  0.00     0.060 A 
BRANCH  69  70
ATOM     70  S   UNL A   1      39.421  36.753  40.854  1.00  0.00     0.124 S 
ATOM     71  O   UNL A   1      38.427  36.033  41.642  1.00  0.00    -0.237 OA
ATOM     72  O   UNL A   1      40.768  36.794  41.416  1.00  0.00    -0.237 OA
ATOM     73  O   UNL A   1      38.964  38.000  40.248  1.00  0.00    -0.744 OA
ENDBRANCH  69  70
ENDBRANCH  37  62
ENDBRANCH  11  12
ENDBRANCH   4   6
ENDBRANCH   3   4
ENDBRANCH   2   3
ENDBRANCH   1   2
BRANCH   1  74
ATOM     74  O   UNL A   1      41.318  22.194  27.812  1.00  0.00    -0.374 OA
BRANCH  74  75
ATOM     75  C   UNL A   1      40.311  21.359  27.224  1.00  0.00     0.202 C 
BRANCH  75  76
ATOM     76  C   UNL A   1      39.765  22.034  25.970  1.00  0.00     0.261 C 
BRANCH  76  77
ATOM     77  O   UNL A   1      38.360  22.218  26.199  1.00  0.00    -0.463 OA
BRANCH  77  78
ATOM     78  C   UNL A   1      37.524  21.514  25.396  1.00  0.00     0.312 C 
ATOM     79  O   UNL A   1      37.852  20.485  24.810  1.00  0.00    -0.252 OA
BRANCH  78  80
ATOM     80  C   UNL A   1      36.155  22.190  25.263  1.00  0.00     0.072 C 
ATOM     81  C   UNL A   1      36.119  23.610  25.890  1.00  0.00     0.019 C 
ATOM     82  C   UNL A   1      35.936  22.501  23.774  1.00  0.00     0.019 C 
ATOM     83  C   UNL A   1      35.108  24.402  25.086  1.00  0.00     0.001 C 
ATOM     84  C   UNL A   1      35.140  23.802  23.692  1.00  0.00     0.001 C 
BRANCH  80  85
ATOM     85  C   UNL A   1      35.003  21.349  25.890  1.00  0.00     0.054 C 
BRANCH  85  86
ATOM     86  C   UNL A   1      34.159  20.448  25.019  1.00  0.00    -0.045 A 
ATOM     87  C   UNL A   1      33.013  20.939  24.369  1.00  0.00     0.004 A 
ATOM     88  C   UNL A   1      34.533  19.117  24.796  1.00  0.00     0.024 A 
ATOM     89  C   UNL A   1      32.241  20.110  23.550  1.00  0.00     0.002 A 
ATOM     90  C   UNL A   1      33.767  18.296  23.964  1.00  0.00     0.041 A 
ATOM     91  C   UNL A   1      32.618  18.785  23.348  1.00  0.00     0.020 A 
ATOM     92  Cl  UNL A   1      34.257  16.668  23.695  1.00  0.00    -0.084 Cl
ENDBRANCH  85  86
ENDBRANCH  80  85
ENDBRANCH  78  80
ENDBRANCH  77  78
ENDBRANCH  76  77
ENDBRANCH  75  76
ENDBRANCH  74  75
ENDBRANCH   1  74
TORSDOF 19
ENDMDL
