MODEL 1
REMARK VINA RESULT:     -11.3      0.000      0.000
REMARK SMILES Cc1nn(Cc2ccc(Cl)cc2Cl)c(C)c1NC(=O)c1c(C(=O)OCCOCCOC(=O)c2ccc(-c3c4nc(c(-c5c(F)cc(S(=O)(=O)[O-])cc5F)c5ccc([nH]5)c(-c5c(F)cc(S(=O)(=O)[O-])cc5F)c5nc(c(-c6c(F)cc(S(=O)(=O)[O-])cc6F)c6ccc3[nH]6)C=C5)C=C4)cc2)cnn1C
REMARK SMILES IDX 26 1 25 2 24 3 22 4 23 5 21 6 20 7 101 8 99 9 100 10 102 11
REMARK SMILES IDX 18 12 17 13 19 15 16 16 1 17 2 18 3 19 4 20 14 21 15 22 5 23
REMARK SMILES IDX 6 24 7 25 12 26 8 27 11 28 13 29 9 30 10 31 27 32 28 33
REMARK SMILES IDX 29 34 30 35 31 36 32 37 33 38 34 39 98 40 35 41 97 42 36 43
REMARK SMILES IDX 37 44 38 45 91 46 39 47 96 48 90 49 92 50 40 51 95 52 89 53
REMARK SMILES IDX 88 54 41 56 75 57 54 58 74 59 55 60 58 61 73 62 93 63 56 64
REMARK SMILES IDX 57 65 72 67 94 68 59 69 42 70 43 71 52 72 44 73 45 74 51 75
REMARK SMILES IDX 53 76 46 77 47 78 48 79 49 80 50 81 76 82 77 83 86 84 78 85
REMARK SMILES IDX 79 86 85 87 87 88 80 89 81 90 82 91 83 92 84 93 60 94 61 95
REMARK SMILES IDX 70 96 62 97 63 98 69 99 71 100 64 101 65 102 66 103 67 104
REMARK SMILES IDX 68 105
REMARK H PARENT 17 14 92 55 58 66
REMARK Flexibility Score: inf
ROOT
ATOM      1  C   UNL A   1      31.586  27.533  26.782  1.00  0.00     0.202 C 
ENDROOT
BRANCH   1   2
ATOM      2  C   UNL A   1      30.981  26.151  26.504  1.00  0.00     0.261 C 
BRANCH   2   3
ATOM      3  O   UNL A   1      31.861  25.016  26.556  1.00  0.00    -0.460 OA
BRANCH   3   4
ATOM      4  C   UNL A   1      31.249  23.797  26.402  1.00  0.00     0.342 C 
ATOM      5  O   UNL A   1      30.885  23.084  27.327  1.00  0.00    -0.246 OA
BRANCH   4   6
ATOM      6  C   UNL A   1      31.130  23.389  25.017  1.00  0.00     0.111 A 
ATOM      7  C   UNL A   1      31.645  22.237  24.432  1.00  0.00     0.140 A 
ATOM      8  N   UNL A   1      31.572  22.465  23.079  1.00  0.00    -0.262 N 
ATOM      9  C   UNL A   1      30.596  24.123  23.943  1.00  0.00     0.151 A 
ATOM     10  N   UNL A   1      30.852  23.561  22.761  1.00  0.00    -0.180 NA
ATOM     11  C   UNL A   1      32.093  21.638  22.013  1.00  0.00     0.174 C 
BRANCH   7  12
ATOM     12  C   UNL A   1      32.283  21.091  25.016  1.00  0.00     0.274 C 
ATOM     13  N   UNL A   1      33.593  21.147  25.434  1.00  0.00    -0.317 N 
ATOM     14  H   UNL A   1      33.970  20.265  25.661  1.00  0.00     0.170 HD
ATOM     15  O   UNL A   1      31.687  20.022  25.146  1.00  0.00    -0.267 OA
BRANCH  13  16
ATOM     16  C   UNL A   1      34.489  22.188  25.600  1.00  0.00     0.085 A 
ATOM     17  C   UNL A   1      34.153  22.604  28.187  1.00  0.00     0.071 C 
ATOM     18  C   UNL A   1      34.759  22.831  26.851  1.00  0.00     0.083 A 
ATOM     19  N   UNL A   1      35.776  23.689  26.754  1.00  0.00    -0.175 NA
ATOM     20  N   UNL A   1      36.156  23.599  25.468  1.00  0.00    -0.263 N 
ATOM     21  C   UNL A   1      35.256  22.903  24.696  1.00  0.00     0.060 A 
ATOM     22  C   UNL A   1      35.272  23.076  23.228  1.00  0.00     0.069 C 
BRANCH  20  23
ATOM     23  C   UNL A   1      37.557  23.858  25.126  1.00  0.00     0.181 C 
BRANCH  23  24
ATOM     24  C   UNL A   1      38.510  23.039  25.935  1.00  0.00    -0.008 A 
ATOM     25  C   UNL A   1      39.246  23.703  26.927  1.00  0.00     0.009 A 
ATOM     26  C   UNL A   1      38.710  21.664  25.744  1.00  0.00     0.047 A 
ATOM     27  C   UNL A   1      40.267  23.046  27.600  1.00  0.00     0.021 A 
ATOM     28  C   UNL A   1      39.716  20.997  26.440  1.00  0.00     0.041 A 
ATOM     29  Cl  UNL A   1      37.737  20.740  24.655  1.00  0.00    -0.084 Cl
ATOM     30  C   UNL A   1      40.523  21.707  27.324  1.00  0.00     0.042 A 
ATOM     31  Cl  UNL A   1      41.885  20.950  28.046  1.00  0.00    -0.084 Cl
ENDBRANCH  23  24
ENDBRANCH  20  23
ENDBRANCH  13  16
ENDBRANCH   7  12
ENDBRANCH   4   6
ENDBRANCH   3   4
ENDBRANCH   2   3
ENDBRANCH   1   2
BRANCH   1  32
ATOM     32  O   UNL A   1      31.899  28.373  25.688  1.00  0.00    -0.374 OA
BRANCH  32  33
ATOM     33  C   UNL A   1      31.685  29.762  25.804  1.00  0.00     0.202 C 
BRANCH  33  34
ATOM     34  C   UNL A   1      32.582  30.654  26.664  1.00  0.00     0.261 C 
BRANCH  34  35
ATOM     35  O   UNL A   1      33.763  30.146  27.273  1.00  0.00    -0.460 OA
BRANCH  35  36
ATOM     36  C   UNL A   1      34.575  31.134  27.734  1.00  0.00     0.338 C 
ATOM     37  O   UNL A   1      34.336  32.325  27.647  1.00  0.00    -0.246 OA
BRANCH  36  38
ATOM     38  C   UNL A   1      35.887  30.561  28.138  1.00  0.00     0.060 A 
ATOM     39  C   UNL A   1      36.863  31.442  28.610  1.00  0.00     0.016 A 
ATOM     40  C   UNL A   1      36.215  29.217  27.914  1.00  0.00     0.016 A 
ATOM     41  C   UNL A   1      38.178  31.004  28.769  1.00  0.00     0.010 A 
ATOM     42  C   UNL A   1      37.539  28.795  28.014  1.00  0.00     0.010 A 
ATOM     43  C   UNL A   1      38.527  29.692  28.426  1.00  0.00    -0.014 A 
BRANCH  43  44
ATOM     44  C   UNL A   1      39.841  29.186  28.823  1.00  0.00     0.031 A 
ATOM     45  C   UNL A   1      40.012  29.157  30.289  1.00  0.00     0.074 A 
ATOM     46  C   UNL A   1      40.858  28.760  28.049  1.00  0.00     0.049 A 
ATOM     47  N   UNL A   1      40.661  30.037  30.975  1.00  0.00    -0.248 NA
ATOM     48  C   UNL A   1      39.279  28.176  31.095  1.00  0.00     0.031 C 
ATOM     49  C   UNL A   1      40.889  28.615  26.602  1.00  0.00     0.029 A 
ATOM     50  N   UNL A   1      42.092  28.297  28.427  1.00  0.00    -0.354 N 
ATOM     51  C   UNL A   1      40.642  29.572  32.277  1.00  0.00     0.074 A 
ATOM     52  C   UNL A   1      39.609  28.568  32.328  1.00  0.00     0.031 C 
ATOM     53  C   UNL A   1      41.976  27.892  26.239  1.00  0.00     0.029 A 
ATOM     54  C   UNL A   1      42.797  27.658  27.413  1.00  0.00     0.049 A 
ATOM     55  H   UNL A   1      42.448  28.407  29.339  1.00  0.00     0.167 HD
ATOM     56  C   UNL A   1      41.671  29.845  33.122  1.00  0.00     0.037 A 
ATOM     57  C   UNL A   1      43.996  27.027  27.500  1.00  0.00     0.037 A 
ATOM     58  C   UNL A   1      42.499  30.924  32.633  1.00  0.00     0.049 A 
ATOM     59  C   UNL A   1      44.758  27.688  28.581  1.00  0.00     0.074 A 
ATOM     60  C   UNL A   1      42.264  32.217  32.197  1.00  0.00     0.029 A 
ATOM     61  N   UNL A   1      43.768  30.619  32.197  1.00  0.00    -0.354 N 
ATOM     62  N   UNL A   1      45.218  28.905  28.493  1.00  0.00    -0.248 NA
ATOM     63  C   UNL A   1      44.674  27.147  29.926  1.00  0.00     0.031 C 
ATOM     64  C   UNL A   1      43.192  32.436  31.136  1.00  0.00     0.029 A 
ATOM     65  C   UNL A   1      43.976  31.289  31.018  1.00  0.00     0.049 A 
ATOM     66  H   UNL A   1      44.410  30.026  32.649  1.00  0.00     0.167 HD
ATOM     67  C   UNL A   1      45.019  29.434  29.755  1.00  0.00     0.074 A 
ATOM     68  C   UNL A   1      44.808  28.280  30.621  1.00  0.00     0.031 C 
ATOM     69  C   UNL A   1      44.760  30.764  29.924  1.00  0.00     0.037 A 
BRANCH  56  70
ATOM     70  C   UNL A   1      42.142  28.877  34.176  1.00  0.00     0.058 A 
ATOM     71  C   UNL A   1      42.261  29.315  35.509  1.00  0.00     0.135 A 
ATOM     72  C   UNL A   1      42.739  27.628  33.885  1.00  0.00     0.135 A 
ATOM     73  F   UNL A   1      41.753  30.499  35.884  1.00  0.00    -0.206 F 
ATOM     74  C   UNL A   1      42.977  28.597  36.465  1.00  0.00     0.059 A 
ATOM     75  C   UNL A   1      43.399  26.866  34.838  1.00  0.00     0.059 A 
ATOM     76  F   UNL A   1      42.807  27.137  32.641  1.00  0.00    -0.206 F 
ATOM     77  C   UNL A   1      43.553  27.379  36.113  1.00  0.00     0.060 A 
BRANCH  77  78
ATOM     78  S   UNL A   1      44.570  26.501  37.308  1.00  0.00     0.124 S 
ATOM     79  O   UNL A   1      44.736  25.213  36.647  1.00  0.00    -0.237 OA
ATOM     80  O   UNL A   1      45.757  27.347  37.376  1.00  0.00    -0.237 OA
ATOM     81  O   UNL A   1      43.742  26.497  38.510  1.00  0.00    -0.744 OA
ENDBRANCH  77  78
ENDBRANCH  56  70
BRANCH  57  82
ATOM     82  C   UNL A   1      44.378  25.698  26.955  1.00  0.00     0.058 A 
ATOM     83  C   UNL A   1      43.790  24.509  27.426  1.00  0.00     0.135 A 
ATOM     84  C   UNL A   1      45.105  25.594  25.754  1.00  0.00     0.135 A 
ATOM     85  F   UNL A   1      43.039  24.522  28.539  1.00  0.00    -0.206 F 
ATOM     86  C   UNL A   1      43.881  23.300  26.726  1.00  0.00     0.059 A 
ATOM     87  C   UNL A   1      45.237  24.394  25.054  1.00  0.00     0.059 A 
ATOM     88  F   UNL A   1      45.605  26.689  25.164  1.00  0.00    -0.206 F 
ATOM     89  C   UNL A   1      44.596  23.256  25.529  1.00  0.00     0.060 A 
BRANCH  89  90
ATOM     90  S   UNL A   1      44.565  21.746  24.531  1.00  0.00     0.124 S 
ATOM     91  O   UNL A   1      45.889  21.188  24.779  1.00  0.00    -0.237 OA
ATOM     92  O   UNL A   1      43.446  21.014  25.116  1.00  0.00    -0.237 OA
ATOM     93  O   UNL A   1      44.341  22.239  23.175  1.00  0.00    -0.744 OA
ENDBRANCH  89  90
ENDBRANCH  57  82
BRANCH  69  94
ATOM     94  C   UNL A   1      45.109  31.707  28.801  1.00  0.00     0.058 A 
ATOM     95  C   UNL A   1      44.382  31.850  27.605  1.00  0.00     0.135 A 
ATOM     96  C   UNL A   1      46.189  32.582  29.000  1.00  0.00     0.135 A 
ATOM     97  F   UNL A   1      43.275  31.129  27.377  1.00  0.00    -0.206 F 
ATOM     98  C   UNL A   1      44.748  32.783  26.631  1.00  0.00     0.059 A 
ATOM     99  C   UNL A   1      46.550  33.542  28.057  1.00  0.00     0.059 A 
ATOM    100  F   UNL A   1      46.891  32.535  30.144  1.00  0.00    -0.206 F 
ATOM    101  C   UNL A   1      45.835  33.625  26.866  1.00  0.00     0.060 A 
BRANCH 101 102
ATOM    102  S   UNL A   1      46.266  34.875  25.635  1.00  0.00     0.124 S 
ATOM    103  O   UNL A   1      46.036  36.118  26.364  1.00  0.00    -0.237 OA
ATOM    104  O   UNL A   1      47.662  34.563  25.340  1.00  0.00    -0.237 OA
ATOM    105  O   UNL A   1      45.334  34.612  24.541  1.00  0.00    -0.744 OA
ENDBRANCH 101 102
ENDBRANCH  69  94
ENDBRANCH  43  44
ENDBRANCH  36  38
ENDBRANCH  35  36
ENDBRANCH  34  35
ENDBRANCH  33  34
ENDBRANCH  32  33
ENDBRANCH   1  32
TORSDOF 21
ENDMDL
MODEL 2
REMARK VINA RESULT:     -11.1      3.230      9.333
REMARK SMILES Cc1nn(Cc2ccc(Cl)cc2Cl)c(C)c1NC(=O)c1c(C(=O)OCCOCCOC(=O)c2ccc(-c3c4nc(c(-c5c(F)cc(S(=O)(=O)[O-])cc5F)c5ccc([nH]5)c(-c5c(F)cc(S(=O)(=O)[O-])cc5F)c5nc(c(-c6c(F)cc(S(=O)(=O)[O-])cc6F)c6ccc3[nH]6)C=C5)C=C4)cc2)cnn1C
REMARK SMILES IDX 26 1 25 2 24 3 22 4 23 5 21 6 20 7 101 8 99 9 100 10 102 11
REMARK SMILES IDX 18 12 17 13 19 15 16 16 1 17 2 18 3 19 4 20 14 21 15 22 5 23
REMARK SMILES IDX 6 24 7 25 12 26 8 27 11 28 13 29 9 30 10 31 27 32 28 33
REMARK SMILES IDX 29 34 30 35 31 36 32 37 33 38 34 39 98 40 35 41 97 42 36 43
REMARK SMILES IDX 37 44 38 45 91 46 39 47 96 48 90 49 92 50 40 51 95 52 89 53
REMARK SMILES IDX 88 54 41 56 75 57 54 58 74 59 55 60 58 61 73 62 93 63 56 64
REMARK SMILES IDX 57 65 72 67 94 68 59 69 42 70 43 71 52 72 44 73 45 74 51 75
REMARK SMILES IDX 53 76 46 77 47 78 48 79 49 80 50 81 76 82 77 83 86 84 78 85
REMARK SMILES IDX 79 86 85 87 87 88 80 89 81 90 82 91 83 92 84 93 60 94 61 95
REMARK SMILES IDX 70 96 62 97 63 98 69 99 71 100 64 101 65 102 66 103 67 104
REMARK SMILES IDX 68 105
REMARK H PARENT 17 14 92 55 58 66
REMARK Flexibility Score: inf
ROOT
ATOM      1  C   UNL A   1      36.250  21.408  24.905  1.00  0.00     0.202 C 
ENDROOT
BRANCH   1   2
ATOM      2  C   UNL A   1      34.725  21.250  24.958  1.00  0.00     0.261 C 
BRANCH   2   3
ATOM      3  O   UNL A   1      33.964  21.762  23.852  1.00  0.00    -0.460 OA
BRANCH   3   4
ATOM      4  C   UNL A   1      34.178  23.087  23.560  1.00  0.00     0.342 C 
ATOM      5  O   UNL A   1      34.696  23.492  22.530  1.00  0.00    -0.246 OA
BRANCH   4   6
ATOM      6  C   UNL A   1      33.790  23.977  24.635  1.00  0.00     0.111 A 
ATOM      7  C   UNL A   1      32.501  24.252  25.077  1.00  0.00     0.140 A 
ATOM      8  N   UNL A   1      32.626  25.378  25.854  1.00  0.00    -0.262 N 
ATOM      9  C   UNL A   1      34.610  24.854  25.368  1.00  0.00     0.151 A 
ATOM     10  N   UNL A   1      33.908  25.703  26.120  1.00  0.00    -0.180 NA
ATOM     11  C   UNL A   1      31.568  26.161  26.454  1.00  0.00     0.174 C 
BRANCH   7  12
ATOM     12  C   UNL A   1      31.241  23.657  24.727  1.00  0.00     0.274 C 
ATOM     13  N   UNL A   1      30.279  24.380  24.058  1.00  0.00    -0.317 N 
ATOM     14  H   UNL A   1      29.406  23.928  24.020  1.00  0.00     0.170 HD
ATOM     15  O   UNL A   1      30.975  22.494  25.028  1.00  0.00    -0.267 OA
BRANCH  13  16
ATOM     16  C   UNL A   1      30.291  25.612  23.427  1.00  0.00     0.085 A 
ATOM     17  C   UNL A   1      27.935  26.499  24.228  1.00  0.00     0.071 C 
ATOM     18  C   UNL A   1      29.240  26.580  23.525  1.00  0.00     0.083 A 
ATOM     19  N   UNL A   1      29.580  27.735  22.952  1.00  0.00    -0.175 NA
ATOM     20  N   UNL A   1      30.827  27.518  22.497  1.00  0.00    -0.263 N 
ATOM     21  C   UNL A   1      31.184  26.191  22.544  1.00  0.00     0.060 A 
ATOM     22  C   UNL A   1      32.302  25.711  21.703  1.00  0.00     0.069 C 
BRANCH  20  23
ATOM     23  C   UNL A   1      31.749  28.651  22.399  1.00  0.00     0.181 C 
BRANCH  23  24
ATOM     24  C   UNL A   1      32.401  28.980  23.703  1.00  0.00    -0.008 A 
ATOM     25  C   UNL A   1      33.695  28.483  23.919  1.00  0.00     0.009 A 
ATOM     26  C   UNL A   1      31.786  29.737  24.712  1.00  0.00     0.047 A 
ATOM     27  C   UNL A   1      34.294  28.604  25.165  1.00  0.00     0.021 A 
ATOM     28  C   UNL A   1      32.400  29.883  25.954  1.00  0.00     0.041 A 
ATOM     29  Cl  UNL A   1      30.262  30.516  24.471  1.00  0.00    -0.084 Cl
ATOM     30  C   UNL A   1      33.627  29.268  26.188  1.00  0.00     0.042 A 
ATOM     31  Cl  UNL A   1      34.308  29.275  27.765  1.00  0.00    -0.084 Cl
ENDBRANCH  23  24
ENDBRANCH  20  23
ENDBRANCH  13  16
ENDBRANCH   7  12
ENDBRANCH   4   6
ENDBRANCH   3   4
ENDBRANCH   2   3
ENDBRANCH   1   2
BRANCH   1  32
ATOM     32  O   UNL A   1      37.033  20.319  24.455  1.00  0.00    -0.374 OA
BRANCH  32  33
ATOM     33  C   UNL A   1      38.309  20.112  25.018  1.00  0.00     0.202 C 
BRANCH  33  34
ATOM     34  C   UNL A   1      38.886  21.038  26.092  1.00  0.00     0.261 C 
BRANCH  34  35
ATOM     35  O   UNL A   1      39.435  22.306  25.755  1.00  0.00    -0.460 OA
BRANCH  35  36
ATOM     36  C   UNL A   1      40.675  22.491  26.281  1.00  0.00     0.338 C 
ATOM     37  O   UNL A   1      41.553  21.648  26.300  1.00  0.00    -0.246 OA
BRANCH  36  38
ATOM     38  C   UNL A   1      40.717  23.774  27.033  1.00  0.00     0.060 A 
ATOM     39  C   UNL A   1      39.784  24.758  26.691  1.00  0.00     0.016 A 
ATOM     40  C   UNL A   1      41.742  24.075  27.939  1.00  0.00     0.016 A 
ATOM     41  C   UNL A   1      39.930  26.055  27.183  1.00  0.00     0.010 A 
ATOM     42  C   UNL A   1      41.923  25.384  28.380  1.00  0.00     0.010 A 
ATOM     43  C   UNL A   1      41.026  26.381  27.990  1.00  0.00    -0.014 A 
BRANCH  43  44
ATOM     44  C   UNL A   1      41.031  27.669  28.684  1.00  0.00     0.031 A 
ATOM     45  C   UNL A   1      42.107  28.560  28.206  1.00  0.00     0.074 A 
ATOM     46  C   UNL A   1      40.208  28.117  29.653  1.00  0.00     0.049 A 
ATOM     47  N   UNL A   1      43.228  28.757  28.815  1.00  0.00    -0.248 NA
ATOM     48  C   UNL A   1      42.022  29.165  26.873  1.00  0.00     0.031 C 
ATOM     49  C   UNL A   1      39.038  27.460  30.215  1.00  0.00     0.029 A 
ATOM     50  N   UNL A   1      40.225  29.321  30.307  1.00  0.00    -0.354 N 
ATOM     51  C   UNL A   1      43.883  29.720  28.070  1.00  0.00     0.074 A 
ATOM     52  C   UNL A   1      43.211  29.766  26.795  1.00  0.00     0.031 C 
ATOM     53  C   UNL A   1      38.324  28.349  30.947  1.00  0.00     0.029 A 
ATOM     54  C   UNL A   1      39.070  29.591  31.033  1.00  0.00     0.049 A 
ATOM     55  H   UNL A   1      40.988  29.942  30.265  1.00  0.00     0.167 HD
ATOM     56  C   UNL A   1      44.731  30.598  28.670  1.00  0.00     0.037 A 
ATOM     57  C   UNL A   1      38.756  30.726  31.710  1.00  0.00     0.037 A 
ATOM     58  C   UNL A   1      45.119  30.156  29.990  1.00  0.00     0.049 A 
ATOM     59  C   UNL A   1      40.029  31.333  32.156  1.00  0.00     0.074 A 
ATOM     60  C   UNL A   1      45.652  28.990  30.513  1.00  0.00     0.029 A 
ATOM     61  N   UNL A   1      44.638  30.853  31.073  1.00  0.00    -0.354 N 
ATOM     62  N   UNL A   1      40.794  30.802  33.069  1.00  0.00    -0.248 NA
ATOM     63  C   UNL A   1      40.662  32.328  31.310  1.00  0.00     0.031 C 
ATOM     64  C   UNL A   1      45.045  28.835  31.795  1.00  0.00     0.029 A 
ATOM     65  C   UNL A   1      44.218  29.938  32.005  1.00  0.00     0.049 A 
ATOM     66  H   UNL A   1      44.600  31.832  31.163  1.00  0.00     0.167 HD
ATOM     67  C   UNL A   1      42.078  31.025  32.605  1.00  0.00     0.074 A 
ATOM     68  C   UNL A   1      41.940  32.073  31.600  1.00  0.00     0.031 C 
ATOM     69  C   UNL A   1      43.083  30.142  32.876  1.00  0.00     0.037 A 
BRANCH  56  70
ATOM     70  C   UNL A   1      44.883  32.027  28.217  1.00  0.00     0.058 A 
ATOM     71  C   UNL A   1      46.165  32.514  27.897  1.00  0.00     0.135 A 
ATOM     72  C   UNL A   1      43.870  33.005  28.349  1.00  0.00     0.135 A 
ATOM     73  F   UNL A   1      47.202  31.672  27.775  1.00  0.00    -0.206 F 
ATOM     74  C   UNL A   1      46.433  33.877  27.782  1.00  0.00     0.059 A 
ATOM     75  C   UNL A   1      44.102  34.361  28.174  1.00  0.00     0.059 A 
ATOM     76  F   UNL A   1      42.631  32.705  28.762  1.00  0.00    -0.206 F 
ATOM     77  C   UNL A   1      45.395  34.792  27.937  1.00  0.00     0.060 A 
BRANCH  77  78
ATOM     78  S   UNL A   1      45.752  36.554  27.900  1.00  0.00     0.124 S 
ATOM     79  O   UNL A   1      44.561  37.098  28.540  1.00  0.00    -0.237 OA
ATOM     80  O   UNL A   1      46.988  36.628  28.672  1.00  0.00    -0.237 OA
ATOM     81  O   UNL A   1      45.893  36.835  26.475  1.00  0.00    -0.744 OA
ENDBRANCH  77  78
ENDBRANCH  56  70
BRANCH  57  82
ATOM     82  C   UNL A   1      37.476  31.482  31.695  1.00  0.00     0.058 A 
ATOM     83  C   UNL A   1      36.763  31.749  32.879  1.00  0.00     0.135 A 
ATOM     84  C   UNL A   1      37.085  32.215  30.559  1.00  0.00     0.135 A 
ATOM     85  F   UNL A   1      37.096  31.132  34.023  1.00  0.00    -0.206 F 
ATOM     86  C   UNL A   1      35.751  32.716  32.942  1.00  0.00     0.059 A 
ATOM     87  C   UNL A   1      36.060  33.161  30.588  1.00  0.00     0.059 A 
ATOM     88  F   UNL A   1      37.777  32.118  29.415  1.00  0.00    -0.206 F 
ATOM     89  C   UNL A   1      35.416  33.430  31.791  1.00  0.00     0.060 A 
BRANCH  89  90
ATOM     90  S   UNL A   1      34.242  34.802  31.908  1.00  0.00     0.124 S 
ATOM     91  O   UNL A   1      33.979  35.100  30.504  1.00  0.00    -0.237 OA
ATOM     92  O   UNL A   1      33.138  34.199  32.648  1.00  0.00    -0.237 OA
ATOM     93  O   UNL A   1      34.987  35.827  32.633  1.00  0.00    -0.744 OA
ENDBRANCH  89  90
ENDBRANCH  57  82
BRANCH  69  94
ATOM     94  C   UNL A   1      42.893  29.170  34.012  1.00  0.00     0.058 A 
ATOM     95  C   UNL A   1      43.203  29.426  35.360  1.00  0.00     0.135 A 
ATOM     96  C   UNL A   1      42.268  27.947  33.723  1.00  0.00     0.135 A 
ATOM     97  F   UNL A   1      43.705  30.609  35.744  1.00  0.00    -0.206 F 
ATOM     98  C   UNL A   1      42.952  28.485  36.363  1.00  0.00     0.059 A 
ATOM     99  C   UNL A   1      41.979  27.009  34.711  1.00  0.00     0.059 A 
ATOM    100  F   UNL A   1      41.896  27.663  32.464  1.00  0.00    -0.206 F 
ATOM    101  C   UNL A   1      42.340  27.278  36.027  1.00  0.00     0.060 A 
BRANCH 101 102
ATOM    102  S   UNL A   1      41.958  26.089  37.333  1.00  0.00     0.124 S 
ATOM    103  O   UNL A   1      42.085  24.813  36.635  1.00  0.00    -0.237 OA
ATOM    104  O   UNL A   1      42.985  26.370  38.331  1.00  0.00    -0.237 OA
ATOM    105  O   UNL A   1      40.599  26.448  37.734  1.00  0.00    -0.744 OA
ENDBRANCH 101 102
ENDBRANCH  69  94
ENDBRANCH  43  44
ENDBRANCH  36  38
ENDBRANCH  35  36
ENDBRANCH  34  35
ENDBRANCH  33  34
ENDBRANCH  32  33
ENDBRANCH   1  32
TORSDOF 21
ENDMDL
MODEL 3
REMARK VINA RESULT:     -10.9      2.198      3.526
REMARK SMILES Cc1nn(Cc2ccc(Cl)cc2Cl)c(C)c1NC(=O)c1c(C(=O)OCCOCCOC(=O)c2ccc(-c3c4nc(c(-c5c(F)cc(S(=O)(=O)[O-])cc5F)c5ccc([nH]5)c(-c5c(F)cc(S(=O)(=O)[O-])cc5F)c5nc(c(-c6c(F)cc(S(=O)(=O)[O-])cc6F)c6ccc3[nH]6)C=C5)C=C4)cc2)cnn1C
REMARK SMILES IDX 26 1 25 2 24 3 22 4 23 5 21 6 20 7 101 8 99 9 100 10 102 11
REMARK SMILES IDX 18 12 17 13 19 15 16 16 1 17 2 18 3 19 4 20 14 21 15 22 5 23
REMARK SMILES IDX 6 24 7 25 12 26 8 27 11 28 13 29 9 30 10 31 27 32 28 33
REMARK SMILES IDX 29 34 30 35 31 36 32 37 33 38 34 39 98 40 35 41 97 42 36 43
REMARK SMILES IDX 37 44 38 45 91 46 39 47 96 48 90 49 92 50 40 51 95 52 89 53
REMARK SMILES IDX 88 54 41 56 75 57 54 58 74 59 55 60 58 61 73 62 93 63 56 64
REMARK SMILES IDX 57 65 72 67 94 68 59 69 42 70 43 71 52 72 44 73 45 74 51 75
REMARK SMILES IDX 53 76 46 77 47 78 48 79 49 80 50 81 76 82 77 83 86 84 78 85
REMARK SMILES IDX 79 86 85 87 87 88 80 89 81 90 82 91 83 92 84 93 60 94 61 95
REMARK SMILES IDX 70 96 62 97 63 98 69 99 71 100 64 101 65 102 66 103 67 104
REMARK SMILES IDX 68 105
REMARK H PARENT 17 14 92 55 58 66
REMARK Flexibility Score: inf
ROOT
ATOM      1  C   UNL A   1      34.091  29.068  27.527  1.00  0.00     0.202 C 
ENDROOT
BRANCH   1   2
ATOM      2  C   UNL A   1      34.477  28.571  26.128  1.00  0.00     0.261 C 
BRANCH   2   3
ATOM      3  O   UNL A   1      33.540  28.791  25.061  1.00  0.00    -0.460 OA
BRANCH   3   4
ATOM      4  C   UNL A   1      33.295  27.699  24.266  1.00  0.00     0.342 C 
ATOM      5  O   UNL A   1      34.163  27.043  23.708  1.00  0.00    -0.246 OA
BRANCH   4   6
ATOM      6  C   UNL A   1      31.884  27.428  24.087  1.00  0.00     0.111 A 
ATOM      7  C   UNL A   1      30.985  26.978  25.048  1.00  0.00     0.140 A 
ATOM      8  N   UNL A   1      29.888  26.556  24.336  1.00  0.00    -0.262 N 
ATOM      9  C   UNL A   1      31.150  27.428  22.888  1.00  0.00     0.151 A 
ATOM     10  N   UNL A   1      29.930  26.908  23.033  1.00  0.00    -0.180 NA
ATOM     11  C   UNL A   1      28.713  25.879  24.838  1.00  0.00     0.174 C 
BRANCH   7  12
ATOM     12  C   UNL A   1      31.135  26.799  26.465  1.00  0.00     0.274 C 
ATOM     13  N   UNL A   1      31.382  25.555  26.999  1.00  0.00    -0.317 N 
ATOM     14  H   UNL A   1      31.300  25.526  27.979  1.00  0.00     0.170 HD
ATOM     15  O   UNL A   1      31.031  27.745  27.245  1.00  0.00    -0.267 OA
BRANCH  13  16
ATOM     16  C   UNL A   1      31.721  24.336  26.438  1.00  0.00     0.085 A 
ATOM     17  C   UNL A   1      29.572  22.961  27.122  1.00  0.00     0.071 C 
ATOM     18  C   UNL A   1      30.891  23.170  26.473  1.00  0.00     0.083 A 
ATOM     19  N   UNL A   1      31.389  22.187  25.721  1.00  0.00    -0.175 NA
ATOM     20  N   UNL A   1      32.516  22.710  25.209  1.00  0.00    -0.263 N 
ATOM     21  C   UNL A   1      32.872  23.895  25.809  1.00  0.00     0.060 A 
ATOM     22  C   UNL A   1      34.266  24.374  25.698  1.00  0.00     0.069 C 
BRANCH  20  23
ATOM     23  C   UNL A   1      32.984  22.236  23.904  1.00  0.00     0.181 C 
BRANCH  23  24
ATOM     24  C   UNL A   1      33.203  20.758  23.871  1.00  0.00    -0.008 A 
ATOM     25  C   UNL A   1      32.320  19.995  23.093  1.00  0.00     0.009 A 
ATOM     26  C   UNL A   1      34.223  20.106  24.581  1.00  0.00     0.047 A 
ATOM     27  C   UNL A   1      32.357  18.609  23.148  1.00  0.00     0.021 A 
ATOM     28  C   UNL A   1      34.277  18.715  24.613  1.00  0.00     0.041 A 
ATOM     29  Cl  UNL A   1      35.445  20.979  25.436  1.00  0.00    -0.084 Cl
ATOM     30  C   UNL A   1      33.309  17.975  23.939  1.00  0.00     0.042 A 
ATOM     31  Cl  UNL A   1      33.245  16.269  24.122  1.00  0.00    -0.084 Cl
ENDBRANCH  23  24
ENDBRANCH  20  23
ENDBRANCH  13  16
ENDBRANCH   7  12
ENDBRANCH   4   6
ENDBRANCH   3   4
ENDBRANCH   2   3
ENDBRANCH   1   2
BRANCH   1  32
ATOM     32  O   UNL A   1      33.084  30.054  27.647  1.00  0.00    -0.374 OA
BRANCH  32  33
ATOM     33  C   UNL A   1      33.358  31.370  27.223  1.00  0.00     0.202 C 
BRANCH  33  34
ATOM     34  C   UNL A   1      34.051  32.390  28.129  1.00  0.00     0.261 C 
BRANCH  34  35
ATOM     35  O   UNL A   1      34.828  31.977  29.246  1.00  0.00    -0.460 OA
BRANCH  35  36
ATOM     36  C   UNL A   1      35.974  32.695  29.376  1.00  0.00     0.338 C 
ATOM     37  O   UNL A   1      36.059  33.900  29.220  1.00  0.00    -0.246 OA
BRANCH  36  38
ATOM     38  C   UNL A   1      37.136  31.773  29.499  1.00  0.00     0.060 A 
ATOM     39  C   UNL A   1      38.300  32.272  30.089  1.00  0.00     0.016 A 
ATOM     40  C   UNL A   1      37.145  30.502  28.910  1.00  0.00     0.016 A 
ATOM     41  C   UNL A   1      39.487  31.542  30.010  1.00  0.00     0.010 A 
ATOM     42  C   UNL A   1      38.342  29.802  28.778  1.00  0.00     0.010 A 
ATOM     43  C   UNL A   1      39.520  30.328  29.313  1.00  0.00    -0.014 A 
BRANCH  43  44
ATOM     44  C   UNL A   1      40.698  29.472  29.446  1.00  0.00     0.031 A 
ATOM     45  C   UNL A   1      41.000  29.147  30.855  1.00  0.00     0.074 A 
ATOM     46  C   UNL A   1      41.496  28.966  28.485  1.00  0.00     0.049 A 
ATOM     47  N   UNL A   1      41.912  29.719  31.566  1.00  0.00    -0.248 NA
ATOM     48  C   UNL A   1      40.128  28.235  31.601  1.00  0.00     0.031 C 
ATOM     49  C   UNL A   1      41.347  29.075  27.042  1.00  0.00     0.029 A 
ATOM     50  N   UNL A   1      42.605  28.172  28.617  1.00  0.00    -0.354 N 
ATOM     51  C   UNL A   1      41.906  29.050  32.775  1.00  0.00     0.074 A 
ATOM     52  C   UNL A   1      40.665  28.317  32.820  1.00  0.00     0.031 C 
ATOM     53  C   UNL A   1      42.177  28.196  26.431  1.00  0.00     0.029 A 
ATOM     54  C   UNL A   1      43.025  27.577  27.433  1.00  0.00     0.049 A 
ATOM     55  H   UNL A   1      43.065  28.035  29.478  1.00  0.00     0.167 HD
ATOM     56  C   UNL A   1      43.048  28.925  33.502  1.00  0.00     0.037 A 
ATOM     57  C   UNL A   1      44.031  26.681  27.260  1.00  0.00     0.037 A 
ATOM     58  C   UNL A   1      44.068  29.853  33.066  1.00  0.00     0.049 A 
ATOM     59  C   UNL A   1      45.037  26.948  28.311  1.00  0.00     0.074 A 
ATOM     60  C   UNL A   1      44.121  31.221  32.862  1.00  0.00     0.029 A 
ATOM     61  N   UNL A   1      45.170  29.345  32.419  1.00  0.00    -0.354 N 
ATOM     62  N   UNL A   1      45.775  28.023  28.340  1.00  0.00    -0.248 NA
ATOM     63  C   UNL A   1      44.953  26.213  29.560  1.00  0.00     0.031 C 
ATOM     64  C   UNL A   1      44.966  31.404  31.727  1.00  0.00     0.029 A 
ATOM     65  C   UNL A   1      45.422  30.146  31.335  1.00  0.00     0.049 A 
ATOM     66  H   UNL A   1      45.685  28.551  32.687  1.00  0.00     0.167 HD
ATOM     67  C   UNL A   1      45.839  28.353  29.681  1.00  0.00     0.074 A 
ATOM     68  C   UNL A   1      45.433  27.144  30.388  1.00  0.00     0.031 C 
ATOM     69  C   UNL A   1      45.939  29.655  30.077  1.00  0.00     0.037 A 
BRANCH  56  70
ATOM     70  C   UNL A   1      43.364  27.704  34.327  1.00  0.00     0.058 A 
ATOM     71  C   UNL A   1      43.722  27.862  35.679  1.00  0.00     0.135 A 
ATOM     72  C   UNL A   1      43.595  26.422  33.776  1.00  0.00     0.135 A 
ATOM     73  F   UNL A   1      43.568  29.047  36.291  1.00  0.00    -0.206 F 
ATOM     74  C   UNL A   1      44.326  26.842  36.411  1.00  0.00     0.059 A 
ATOM     75  C   UNL A   1      44.134  25.373  34.506  1.00  0.00     0.059 A 
ATOM     76  F   UNL A   1      43.412  26.155  32.477  1.00  0.00    -0.206 F 
ATOM     77  C   UNL A   1      44.540  25.604  35.808  1.00  0.00     0.060 A 
BRANCH  77  78
ATOM     78  S   UNL A   1      45.417  24.319  36.708  1.00  0.00     0.124 S 
ATOM     79  O   UNL A   1      44.870  24.487  38.049  1.00  0.00    -0.237 OA
ATOM     80  O   UNL A   1      45.009  23.115  35.993  1.00  0.00    -0.237 OA
ATOM     81  O   UNL A   1      46.818  24.695  36.542  1.00  0.00    -0.744 OA
ENDBRANCH  77  78
ENDBRANCH  56  70
BRANCH  57  82
ATOM     82  C   UNL A   1      44.014  25.417  26.478  1.00  0.00     0.058 A 
ATOM     83  C   UNL A   1      44.861  25.222  25.371  1.00  0.00     0.135 A 
ATOM     84  C   UNL A   1      43.383  24.265  26.984  1.00  0.00     0.135 A 
ATOM     85  F   UNL A   1      45.540  26.255  24.850  1.00  0.00    -0.206 F 
ATOM     86  C   UNL A   1      45.101  23.954  24.826  1.00  0.00     0.059 A 
ATOM     87  C   UNL A   1      43.581  22.996  26.440  1.00  0.00     0.059 A 
ATOM     88  F   UNL A   1      42.650  24.328  28.106  1.00  0.00    -0.206 F 
ATOM     89  C   UNL A   1      44.466  22.842  25.379  1.00  0.00     0.060 A 
BRANCH  89  90
ATOM     90  S   UNL A   1      44.911  21.186  24.798  1.00  0.00     0.124 S 
ATOM     91  O   UNL A   1      46.332  21.121  25.119  1.00  0.00    -0.237 OA
ATOM     92  O   UNL A   1      44.037  20.335  25.599  1.00  0.00    -0.237 OA
ATOM     93  O   UNL A   1      44.596  21.230  23.372  1.00  0.00    -0.744 OA
ENDBRANCH  89  90
ENDBRANCH  57  82
BRANCH  69  94
ATOM     94  C   UNL A   1      46.401  30.675  29.068  1.00  0.00     0.058 A 
ATOM     95  C   UNL A   1      45.604  31.225  28.047  1.00  0.00     0.135 A 
ATOM     96  C   UNL A   1      47.698  31.192  29.212  1.00  0.00     0.135 A 
ATOM     97  F   UNL A   1      44.320  30.868  27.901  1.00  0.00    -0.206 F 
ATOM     98  C   UNL A   1      46.097  32.203  27.178  1.00  0.00     0.059 A 
ATOM     99  C   UNL A   1      48.197  32.189  28.379  1.00  0.00     0.059 A 
ATOM    100  F   UNL A   1      48.492  30.749  30.202  1.00  0.00    -0.206 F 
ATOM    101  C   UNL A   1      47.396  32.678  27.352  1.00  0.00     0.060 A 
BRANCH 101 102
ATOM    102  S   UNL A   1      48.009  33.988  26.269  1.00  0.00     0.124 S 
ATOM    103  O   UNL A   1      48.492  34.978  27.227  1.00  0.00    -0.237 OA
ATOM    104  O   UNL A   1      49.038  33.304  25.492  1.00  0.00    -0.237 OA
ATOM    105  O   UNL A   1      46.826  34.383  25.508  1.00  0.00    -0.744 OA
ENDBRANCH 101 102
ENDBRANCH  69  94
ENDBRANCH  43  44
ENDBRANCH  36  38
ENDBRANCH  35  36
ENDBRANCH  34  35
ENDBRANCH  33  34
ENDBRANCH  32  33
ENDBRANCH   1  32
TORSDOF 21
ENDMDL
