MODEL 1
REMARK VINA RESULT:     -10.5      0.000      0.000
REMARK SMILES CC(C)c1ccc([C@]2(C(=O)OCCOCCOC(=O)c3ccc(-c4c5nc(c(-c6c(F)cc(S(=O)(=O)[O-])cc6F)c6ccc([nH]6)c(-c6c(F)cc(S(=O)(=O)[O-])cc6F)c6nc(c(-c7c(F)cc(S(=O)(=O)[O-])cc7F)c7ccc4[nH]7)C=C6)C=C5)cc3)CCC[C@@H]2C)cc1
REMARK SMILES IDX 15 1 14 2 13 3 12 4 11 5 9 6 10 7 8 8 86 9 89 10 87 11 88 12
REMARK SMILES IDX 90 13 7 14 4 15 5 16 92 17 6 18 91 19 2 20 1 21 3 22 16 23
REMARK SMILES IDX 17 24 18 25 19 26 20 27 21 28 85 29 22 30 84 31 23 32 24 33
REMARK SMILES IDX 25 34 78 35 26 36 83 37 77 38 79 39 27 40 82 41 76 42 75 43
REMARK SMILES IDX 28 45 62 46 41 47 61 48 42 49 45 50 60 51 80 52 43 53 44 54
REMARK SMILES IDX 59 56 81 57 46 58 29 59 30 60 39 61 31 62 32 63 38 64 40 65
REMARK SMILES IDX 33 66 34 67 35 68 36 69 37 70 63 71 64 72 73 73 65 74 66 75
REMARK SMILES IDX 72 76 74 77 67 78 68 79 69 80 70 81 71 82 47 83 48 84 57 85
REMARK SMILES IDX 49 86 50 87 56 88 58 89 51 90 52 91 53 92 54 93 55 94
REMARK H PARENT 79 44 45 55
REMARK Flexibility Score: inf
ROOT
ATOM      1  C   UNL A   1      33.032  29.320  25.733  1.00  0.00     0.202 C 
ENDROOT
BRANCH   1   2
ATOM      2  O   UNL A   1      32.712  29.630  24.378  1.00  0.00    -0.374 OA
BRANCH   2   3
ATOM      3  C   UNL A   1      31.698  28.846  23.745  1.00  0.00     0.202 C 
BRANCH   3   4
ATOM      4  C   UNL A   1      32.182  27.788  22.753  1.00  0.00     0.261 C 
BRANCH   4   5
ATOM      5  O   UNL A   1      33.021  26.827  23.417  1.00  0.00    -0.463 OA
BRANCH   5   6
ATOM      6  C   UNL A   1      32.580  25.540  23.395  1.00  0.00     0.316 C 
ATOM      7  O   UNL A   1      32.104  24.998  22.402  1.00  0.00    -0.251 OA
BRANCH   6   8
ATOM      8  C   UNL A   1      32.722  24.829  24.775  1.00  0.00     0.095 C 
ATOM      9  C   UNL A   1      32.645  25.783  25.997  1.00  0.00     0.024 C 
ATOM     10  C   UNL A   1      31.408  24.005  24.964  1.00  0.00     0.008 C 
ATOM     11  C   UNL A   1      31.164  26.065  26.252  1.00  0.00     0.002 C 
ATOM     12  C   UNL A   1      30.388  25.080  25.384  1.00  0.00     0.005 C 
ATOM     13  C   UNL A   1      31.450  22.905  26.031  1.00  0.00     0.009 C 
BRANCH   8  14
ATOM     14  C   UNL A   1      34.042  24.036  24.731  1.00  0.00    -0.030 A 
ATOM     15  C   UNL A   1      36.466  22.505  24.799  1.00  0.00    -0.045 A 
ATOM     16  C   UNL A   1      36.376  23.765  25.407  1.00  0.00     0.004 A 
ATOM     17  C   UNL A   1      35.306  22.007  24.192  1.00  0.00     0.004 A 
ATOM     18  C   UNL A   1      35.191  24.513  25.376  1.00  0.00     0.005 A 
ATOM     19  C   UNL A   1      34.121  22.757  24.157  1.00  0.00     0.005 A 
BRANCH  15  20
ATOM     20  C   UNL A   1      37.769  21.712  24.877  1.00  0.00     0.013 C 
ATOM     21  C   UNL A   1      38.670  22.056  26.072  1.00  0.00     0.012 C 
ATOM     22  C   UNL A   1      37.518  20.195  24.888  1.00  0.00     0.012 C 
ENDBRANCH  15  20
ENDBRANCH   8  14
ENDBRANCH   6   8
ENDBRANCH   5   6
ENDBRANCH   4   5
ENDBRANCH   3   4
ENDBRANCH   2   3
ENDBRANCH   1   2
BRANCH   1  23
ATOM     23  C   UNL A   1      33.049  30.490  26.725  1.00  0.00     0.261 C 
BRANCH  23  24
ATOM     24  O   UNL A   1      33.601  30.137  28.006  1.00  0.00    -0.460 OA
BRANCH  24  25
ATOM     25  C   UNL A   1      34.577  30.969  28.443  1.00  0.00     0.338 C 
ATOM     26  O   UNL A   1      34.433  32.096  28.901  1.00  0.00    -0.246 OA
BRANCH  25  27
ATOM     27  C   UNL A   1      35.876  30.274  28.471  1.00  0.00     0.060 A 
ATOM     28  C   UNL A   1      36.292  29.742  29.699  1.00  0.00     0.016 A 
ATOM     29  C   UNL A   1      36.712  30.218  27.355  1.00  0.00     0.016 A 
ATOM     30  C   UNL A   1      37.567  29.199  29.830  1.00  0.00     0.010 A 
ATOM     31  C   UNL A   1      37.999  29.682  27.491  1.00  0.00     0.010 A 
ATOM     32  C   UNL A   1      38.445  29.205  28.738  1.00  0.00    -0.014 A 
BRANCH  32  33
ATOM     33  C   UNL A   1      39.872  28.861  28.957  1.00  0.00     0.031 A 
ATOM     34  C   UNL A   1      40.786  29.893  29.560  1.00  0.00     0.074 A 
ATOM     35  C   UNL A   1      40.334  27.629  28.674  1.00  0.00     0.049 A 
ATOM     36  N   UNL A   1      42.060  29.811  29.838  1.00  0.00    -0.248 NA
ATOM     37  C   UNL A   1      40.180  31.192  29.896  1.00  0.00     0.031 C 
ATOM     38  C   UNL A   1      39.536  26.532  28.128  1.00  0.00     0.029 A 
ATOM     39  N   UNL A   1      41.591  27.096  28.808  1.00  0.00    -0.354 N 
ATOM     40  C   UNL A   1      42.412  31.043  30.377  1.00  0.00     0.074 A 
ATOM     41  C   UNL A   1      41.221  31.866  30.360  1.00  0.00     0.031 C 
ATOM     42  C   UNL A   1      40.326  25.457  27.966  1.00  0.00     0.029 A 
ATOM     43  C   UNL A   1      41.689  25.797  28.371  1.00  0.00     0.049 A 
ATOM     44  H   UNL A   1      42.352  27.596  29.183  1.00  0.00     0.167 HD
ATOM     45  C   UNL A   1      43.613  31.448  30.852  1.00  0.00     0.037 A 
ATOM     46  C   UNL A   1      42.760  24.982  28.289  1.00  0.00     0.037 A 
ATOM     47  C   UNL A   1      44.793  30.625  30.871  1.00  0.00     0.049 A 
ATOM     48  C   UNL A   1      44.101  25.477  28.765  1.00  0.00     0.074 A 
ATOM     49  C   UNL A   1      46.055  30.939  31.345  1.00  0.00     0.029 A 
ATOM     50  N   UNL A   1      44.861  29.327  30.387  1.00  0.00    -0.354 N 
ATOM     51  N   UNL A   1      44.414  26.638  29.290  1.00  0.00    -0.248 NA
ATOM     52  C   UNL A   1      45.235  24.550  28.642  1.00  0.00     0.031 C 
ATOM     53  C   UNL A   1      46.896  29.847  31.106  1.00  0.00     0.029 A 
ATOM     54  C   UNL A   1      46.147  28.834  30.529  1.00  0.00     0.049 A 
ATOM     55  H   UNL A   1      44.105  28.829  30.000  1.00  0.00     0.167 HD
ATOM     56  C   UNL A   1      45.773  26.571  29.583  1.00  0.00     0.074 A 
ATOM     57  C   UNL A   1      46.221  25.253  29.185  1.00  0.00     0.031 C 
ATOM     58  C   UNL A   1      46.576  27.515  30.133  1.00  0.00     0.037 A 
BRANCH  45  59
ATOM     59  C   UNL A   1      43.717  32.857  31.368  1.00  0.00     0.058 A 
ATOM     60  C   UNL A   1      43.545  33.161  32.728  1.00  0.00     0.135 A 
ATOM     61  C   UNL A   1      44.022  33.914  30.495  1.00  0.00     0.135 A 
ATOM     62  F   UNL A   1      43.235  32.193  33.604  1.00  0.00    -0.206 F 
ATOM     63  C   UNL A   1      43.647  34.467  33.200  1.00  0.00     0.059 A 
ATOM     64  C   UNL A   1      44.152  35.223  30.948  1.00  0.00     0.059 A 
ATOM     65  F   UNL A   1      44.193  33.678  29.184  1.00  0.00    -0.206 F 
ATOM     66  C   UNL A   1      43.949  35.491  32.301  1.00  0.00     0.060 A 
BRANCH  66  67
ATOM     67  S   UNL A   1      44.080  37.179  32.927  1.00  0.00     0.124 S 
ATOM     68  O   UNL A   1      42.896  37.266  33.776  1.00  0.00    -0.237 OA
ATOM     69  O   UNL A   1      45.361  37.157  33.625  1.00  0.00    -0.237 OA
ATOM     70  O   UNL A   1      44.043  37.995  31.717  1.00  0.00    -0.744 OA
ENDBRANCH  66  67
ENDBRANCH  45  59
BRANCH  46  71
ATOM     71  C   UNL A   1      42.612  23.616  27.721  1.00  0.00     0.058 A 
ATOM     72  C   UNL A   1      42.643  23.396  26.337  1.00  0.00     0.135 A 
ATOM     73  C   UNL A   1      42.438  22.501  28.556  1.00  0.00     0.135 A 
ATOM     74  F   UNL A   1      42.795  24.431  25.496  1.00  0.00    -0.206 F 
ATOM     75  C   UNL A   1      42.496  22.122  25.797  1.00  0.00     0.059 A 
ATOM     76  C   UNL A   1      42.314  21.214  28.043  1.00  0.00     0.059 A 
ATOM     77  F   UNL A   1      42.410  22.656  29.889  1.00  0.00    -0.206 F 
ATOM     78  C   UNL A   1      42.335  21.036  26.661  1.00  0.00     0.060 A 
BRANCH  78  79
ATOM     79  S   UNL A   1      42.199  19.378  25.955  1.00  0.00     0.124 S 
ATOM     80  O   UNL A   1      43.026  19.499  24.760  1.00  0.00    -0.237 OA
ATOM     81  O   UNL A   1      42.739  18.544  27.024  1.00  0.00    -0.237 OA
ATOM     82  O   UNL A   1      40.766  19.231  25.720  1.00  0.00    -0.744 OA
ENDBRANCH  78  79
ENDBRANCH  46  71
BRANCH  58  83
ATOM     83  C   UNL A   1      48.016  27.151  30.369  1.00  0.00     0.058 A 
ATOM     84  C   UNL A   1      49.018  27.455  29.435  1.00  0.00     0.135 A 
ATOM     85  C   UNL A   1      48.405  26.538  31.572  1.00  0.00     0.135 A 
ATOM     86  F   UNL A   1      48.699  28.035  28.267  1.00  0.00    -0.206 F 
ATOM     87  C   UNL A   1      50.353  27.145  29.675  1.00  0.00     0.059 A 
ATOM     88  C   UNL A   1      49.738  26.244  31.845  1.00  0.00     0.059 A 
ATOM     89  F   UNL A   1      47.488  26.236  32.505  1.00  0.00    -0.206 F 
ATOM     90  C   UNL A   1      50.703  26.540  30.883  1.00  0.00     0.060 A 
BRANCH  90  91
ATOM     91  S   UNL A   1      52.444  26.174  31.198  1.00  0.00     0.124 S 
ATOM     92  O   UNL A   1      52.833  27.298  32.042  1.00  0.00    -0.237 OA
ATOM     93  O   UNL A   1      52.376  24.876  31.863  1.00  0.00    -0.237 OA
ATOM     94  O   UNL A   1      53.034  26.156  29.863  1.00  0.00    -0.744 OA
ENDBRANCH  90  91
ENDBRANCH  58  83
ENDBRANCH  32  33
ENDBRANCH  25  27
ENDBRANCH  24  25
ENDBRANCH  23  24
ENDBRANCH   1  23
TORSDOF 19
ENDMDL
MODEL 2
REMARK VINA RESULT:     -10.4      4.667     10.556
REMARK SMILES CC(C)c1ccc([C@]2(C(=O)OCCOCCOC(=O)c3ccc(-c4c5nc(c(-c6c(F)cc(S(=O)(=O)[O-])cc6F)c6ccc([nH]6)c(-c6c(F)cc(S(=O)(=O)[O-])cc6F)c6nc(c(-c7c(F)cc(S(=O)(=O)[O-])cc7F)c7ccc4[nH]7)C=C6)C=C5)cc3)CCC[C@@H]2C)cc1
REMARK SMILES IDX 15 1 14 2 13 3 12 4 11 5 9 6 10 7 8 8 86 9 89 10 87 11 88 12
REMARK SMILES IDX 90 13 7 14 4 15 5 16 92 17 6 18 91 19 2 20 1 21 3 22 16 23
REMARK SMILES IDX 17 24 18 25 19 26 20 27 21 28 85 29 22 30 84 31 23 32 24 33
REMARK SMILES IDX 25 34 78 35 26 36 83 37 77 38 79 39 27 40 82 41 76 42 75 43
REMARK SMILES IDX 28 45 62 46 41 47 61 48 42 49 45 50 60 51 80 52 43 53 44 54
REMARK SMILES IDX 59 56 81 57 46 58 29 59 30 60 39 61 31 62 32 63 38 64 40 65
REMARK SMILES IDX 33 66 34 67 35 68 36 69 37 70 63 71 64 72 73 73 65 74 66 75
REMARK SMILES IDX 72 76 74 77 67 78 68 79 69 80 70 81 71 82 47 83 48 84 57 85
REMARK SMILES IDX 49 86 50 87 56 88 58 89 51 90 52 91 53 92 54 93 55 94
REMARK H PARENT 79 44 45 55
REMARK Flexibility Score: inf
ROOT
ATOM      1  C   UNL A   1      38.873  21.653  25.851  1.00  0.00     0.202 C 
ENDROOT
BRANCH   1   2
ATOM      2  O   UNL A   1      37.917  22.678  25.589  1.00  0.00    -0.374 OA
BRANCH   2   3
ATOM      3  C   UNL A   1      36.607  22.270  25.186  1.00  0.00     0.202 C 
BRANCH   3   4
ATOM      4  C   UNL A   1      35.504  22.402  26.236  1.00  0.00     0.261 C 
BRANCH   4   5
ATOM      5  O   UNL A   1      34.843  23.673  26.110  1.00  0.00    -0.463 OA
BRANCH   5   6
ATOM      6  C   UNL A   1      33.501  23.625  25.894  1.00  0.00     0.316 C 
ATOM      7  O   UNL A   1      32.724  22.953  26.567  1.00  0.00    -0.251 OA
BRANCH   6   8
ATOM      8  C   UNL A   1      33.051  24.496  24.682  1.00  0.00     0.095 C 
ATOM      9  C   UNL A   1      34.030  24.472  23.479  1.00  0.00     0.024 C 
ATOM     10  C   UNL A   1      31.815  23.764  24.069  1.00  0.00     0.008 C 
ATOM     11  C   UNL A   1      33.753  23.184  22.702  1.00  0.00     0.002 C 
ATOM     12  C   UNL A   1      32.460  22.613  23.274  1.00  0.00     0.005 C 
ATOM     13  C   UNL A   1      30.936  24.597  23.129  1.00  0.00     0.009 C 
BRANCH   8  14
ATOM     14  C   UNL A   1      32.819  25.920  25.223  1.00  0.00    -0.030 A 
ATOM     15  C   UNL A   1      32.502  28.541  26.343  1.00  0.00    -0.045 A 
ATOM     16  C   UNL A   1      31.883  27.419  26.913  1.00  0.00     0.004 A 
ATOM     17  C   UNL A   1      33.317  28.320  25.226  1.00  0.00     0.004 A 
ATOM     18  C   UNL A   1      32.039  26.138  26.367  1.00  0.00     0.005 A 
ATOM     19  C   UNL A   1      33.471  27.037  24.677  1.00  0.00     0.005 A 
BRANCH  15  20
ATOM     20  C   UNL A   1      32.326  29.916  26.983  1.00  0.00     0.013 C 
ATOM     21  C   UNL A   1      33.629  30.611  27.403  1.00  0.00     0.012 C 
ATOM     22  C   UNL A   1      31.542  30.877  26.074  1.00  0.00     0.012 C 
ENDBRANCH  15  20
ENDBRANCH   8  14
ENDBRANCH   6   8
ENDBRANCH   5   6
ENDBRANCH   4   5
ENDBRANCH   3   4
ENDBRANCH   2   3
ENDBRANCH   1   2
BRANCH   1  23
ATOM     23  C   UNL A   1      40.191  22.087  26.506  1.00  0.00     0.261 C 
BRANCH  23  24
ATOM     24  O   UNL A   1      40.044  23.236  27.360  1.00  0.00    -0.460 OA
BRANCH  24  25
ATOM     25  C   UNL A   1      41.049  24.140  27.259  1.00  0.00     0.338 C 
ATOM     26  O   UNL A   1      42.032  24.069  26.533  1.00  0.00    -0.246 OA
BRANCH  25  27
ATOM     27  C   UNL A   1      40.729  25.357  28.026  1.00  0.00     0.060 A 
ATOM     28  C   UNL A   1      41.757  26.293  28.199  1.00  0.00     0.016 A 
ATOM     29  C   UNL A   1      39.490  25.543  28.640  1.00  0.00     0.016 A 
ATOM     30  C   UNL A   1      41.567  27.395  29.029  1.00  0.00     0.010 A 
ATOM     31  C   UNL A   1      39.304  26.646  29.484  1.00  0.00     0.010 A 
ATOM     32  C   UNL A   1      40.354  27.554  29.712  1.00  0.00    -0.014 A 
BRANCH  32  33
ATOM     33  C   UNL A   1      40.256  28.581  30.780  1.00  0.00     0.031 A 
ATOM     34  C   UNL A   1      41.175  28.487  31.967  1.00  0.00     0.074 A 
ATOM     35  C   UNL A   1      39.398  29.612  30.666  1.00  0.00     0.049 A 
ATOM     36  N   UNL A   1      41.264  29.268  33.011  1.00  0.00    -0.248 NA
ATOM     37  C   UNL A   1      42.124  27.361  31.976  1.00  0.00     0.031 C 
ATOM     38  C   UNL A   1      38.489  29.835  29.543  1.00  0.00     0.029 A 
ATOM     39  N   UNL A   1      39.155  30.666  31.511  1.00  0.00    -0.354 N 
ATOM     40  C   UNL A   1      42.272  28.730  33.804  1.00  0.00     0.074 A 
ATOM     41  C   UNL A   1      42.745  27.538  33.133  1.00  0.00     0.031 C 
ATOM     42  C   UNL A   1      37.779  30.953  29.773  1.00  0.00     0.029 A 
ATOM     43  C   UNL A   1      38.165  31.510  31.069  1.00  0.00     0.049 A 
ATOM     44  H   UNL A   1      39.645  30.805  32.354  1.00  0.00     0.167 HD
ATOM     45  C   UNL A   1      42.765  29.192  34.977  1.00  0.00     0.037 A 
ATOM     46  C   UNL A   1      37.619  32.596  31.652  1.00  0.00     0.037 A 
ATOM     47  C   UNL A   1      42.294  30.380  35.638  1.00  0.00     0.049 A 
ATOM     48  C   UNL A   1      38.141  33.056  32.989  1.00  0.00     0.074 A 
ATOM     49  C   UNL A   1      42.738  30.940  36.823  1.00  0.00     0.029 A 
ATOM     50  N   UNL A   1      41.265  31.189  35.176  1.00  0.00    -0.354 N 
ATOM     51  N   UNL A   1      39.108  32.547  33.717  1.00  0.00    -0.248 NA
ATOM     52  C   UNL A   1      37.501  34.238  33.583  1.00  0.00     0.031 C 
ATOM     53  C   UNL A   1      41.949  32.061  37.100  1.00  0.00     0.029 A 
ATOM     54  C   UNL A   1      41.045  32.229  36.064  1.00  0.00     0.049 A 
ATOM     55  H   UNL A   1      40.766  31.044  34.340  1.00  0.00     0.167 HD
ATOM     56  C   UNL A   1      39.208  33.363  34.840  1.00  0.00     0.074 A 
ATOM     57  C   UNL A   1      38.211  34.402  34.692  1.00  0.00     0.031 C 
ATOM     58  C   UNL A   1      40.051  33.261  35.898  1.00  0.00     0.037 A 
BRANCH  45  59
ATOM     59  C   UNL A   1      43.856  28.394  35.635  1.00  0.00     0.058 A 
ATOM     60  C   UNL A   1      43.574  27.393  36.579  1.00  0.00     0.135 A 
ATOM     61  C   UNL A   1      45.201  28.612  35.295  1.00  0.00     0.135 A 
ATOM     62  F   UNL A   1      42.307  27.155  36.954  1.00  0.00    -0.206 F 
ATOM     63  C   UNL A   1      44.589  26.654  37.181  1.00  0.00     0.059 A 
ATOM     64  C   UNL A   1      46.230  27.868  35.866  1.00  0.00     0.059 A 
ATOM     65  F   UNL A   1      45.526  29.558  34.400  1.00  0.00    -0.206 F 
ATOM     66  C   UNL A   1      45.914  26.901  36.818  1.00  0.00     0.060 A 
BRANCH  66  67
ATOM     67  S   UNL A   1      47.219  25.934  37.606  1.00  0.00     0.124 S 
ATOM     68  O   UNL A   1      47.460  26.707  38.821  1.00  0.00    -0.237 OA
ATOM     69  O   UNL A   1      46.578  24.637  37.797  1.00  0.00    -0.237 OA
ATOM     70  O   UNL A   1      48.299  25.958  36.625  1.00  0.00    -0.744 OA
ENDBRANCH  66  67
ENDBRANCH  45  59
BRANCH  46  71
ATOM     71  C   UNL A   1      36.506  33.318  30.981  1.00  0.00     0.058 A 
ATOM     72  C   UNL A   1      36.734  34.123  29.856  1.00  0.00     0.135 A 
ATOM     73  C   UNL A   1      35.188  33.214  31.454  1.00  0.00     0.135 A 
ATOM     74  F   UNL A   1      37.978  34.264  29.373  1.00  0.00    -0.206 F 
ATOM     75  C   UNL A   1      35.699  34.808  29.228  1.00  0.00     0.059 A 
ATOM     76  C   UNL A   1      34.133  33.869  30.829  1.00  0.00     0.059 A 
ATOM     77  F   UNL A   1      34.916  32.449  32.523  1.00  0.00    -0.206 F 
ATOM     78  C   UNL A   1      34.399  34.671  29.721  1.00  0.00     0.060 A 
BRANCH  78  79
ATOM     79  S   UNL A   1      33.053  35.522  28.869  1.00  0.00     0.124 S 
ATOM     80  O   UNL A   1      32.458  34.433  28.102  1.00  0.00    -0.237 OA
ATOM     81  O   UNL A   1      32.256  36.029  29.982  1.00  0.00    -0.237 OA
ATOM     82  O   UNL A   1      33.744  36.542  28.086  1.00  0.00    -0.744 OA
ENDBRANCH  78  79
ENDBRANCH  46  71
BRANCH  58  83
ATOM     83  C   UNL A   1      39.958  34.317  36.965  1.00  0.00     0.058 A 
ATOM     84  C   UNL A   1      40.646  35.535  36.861  1.00  0.00     0.135 A 
ATOM     85  C   UNL A   1      39.125  34.127  38.081  1.00  0.00     0.135 A 
ATOM     86  F   UNL A   1      41.460  35.764  35.818  1.00  0.00    -0.206 F 
ATOM     87  C   UNL A   1      40.528  36.521  37.835  1.00  0.00     0.059 A 
ATOM     88  C   UNL A   1      38.971  35.110  39.053  1.00  0.00     0.059 A 
ATOM     89  F   UNL A   1      38.435  32.984  38.223  1.00  0.00    -0.206 F 
ATOM     90  C   UNL A   1      39.688  36.300  38.928  1.00  0.00     0.060 A 
BRANCH  90  91
ATOM     91  S   UNL A   1      39.517  37.600  40.169  1.00  0.00     0.124 S 
ATOM     92  O   UNL A   1      40.870  38.142  40.216  1.00  0.00    -0.237 OA
ATOM     93  O   UNL A   1      38.506  38.470  39.574  1.00  0.00    -0.237 OA
ATOM     94  O   UNL A   1      39.088  36.877  41.362  1.00  0.00    -0.744 OA
ENDBRANCH  90  91
ENDBRANCH  58  83
ENDBRANCH  32  33
ENDBRANCH  25  27
ENDBRANCH  24  25
ENDBRANCH  23  24
ENDBRANCH   1  23
TORSDOF 19
ENDMDL
MODEL 3
REMARK VINA RESULT:     -10.4      4.456     10.394
REMARK SMILES CC(C)c1ccc([C@]2(C(=O)OCCOCCOC(=O)c3ccc(-c4c5nc(c(-c6c(F)cc(S(=O)(=O)[O-])cc6F)c6ccc([nH]6)c(-c6c(F)cc(S(=O)(=O)[O-])cc6F)c6nc(c(-c7c(F)cc(S(=O)(=O)[O-])cc7F)c7ccc4[nH]7)C=C6)C=C5)cc3)CCC[C@@H]2C)cc1
REMARK SMILES IDX 15 1 14 2 13 3 12 4 11 5 9 6 10 7 8 8 86 9 89 10 87 11 88 12
REMARK SMILES IDX 90 13 7 14 4 15 5 16 92 17 6 18 91 19 2 20 1 21 3 22 16 23
REMARK SMILES IDX 17 24 18 25 19 26 20 27 21 28 85 29 22 30 84 31 23 32 24 33
REMARK SMILES IDX 25 34 78 35 26 36 83 37 77 38 79 39 27 40 82 41 76 42 75 43
REMARK SMILES IDX 28 45 62 46 41 47 61 48 42 49 45 50 60 51 80 52 43 53 44 54
REMARK SMILES IDX 59 56 81 57 46 58 29 59 30 60 39 61 31 62 32 63 38 64 40 65
REMARK SMILES IDX 33 66 34 67 35 68 36 69 37 70 63 71 64 72 73 73 65 74 66 75
REMARK SMILES IDX 72 76 74 77 67 78 68 79 69 80 70 81 71 82 47 83 48 84 57 85
REMARK SMILES IDX 49 86 50 87 56 88 58 89 51 90 52 91 53 92 54 93 55 94
REMARK H PARENT 79 44 45 55
REMARK Flexibility Score: inf
ROOT
ATOM      1  C   UNL A   1      40.142  21.846  26.863  1.00  0.00     0.202 C 
ENDROOT
BRANCH   1   2
ATOM      2  O   UNL A   1      39.205  21.135  26.056  1.00  0.00    -0.374 OA
BRANCH   2   3
ATOM      3  C   UNL A   1      38.211  21.902  25.372  1.00  0.00     0.202 C 
BRANCH   3   4
ATOM      4  C   UNL A   1      36.991  21.130  24.868  1.00  0.00     0.261 C 
BRANCH   4   5
ATOM      5  O   UNL A   1      35.912  22.036  24.577  1.00  0.00    -0.463 OA
BRANCH   5   6
ATOM      6  C   UNL A   1      34.864  22.008  25.444  1.00  0.00     0.316 C 
ATOM      7  O   UNL A   1      34.946  21.607  26.602  1.00  0.00    -0.251 OA
BRANCH   6   8
ATOM      8  C   UNL A   1      33.537  22.518  24.806  1.00  0.00     0.095 C 
ATOM      9  C   UNL A   1      33.180  21.851  23.452  1.00  0.00     0.024 C 
ATOM     10  C   UNL A   1      32.391  21.967  25.714  1.00  0.00     0.008 C 
ATOM     11  C   UNL A   1      32.549  20.497  23.773  1.00  0.00     0.002 C 
ATOM     12  C   UNL A   1      32.285  20.495  25.274  1.00  0.00     0.005 C 
ATOM     13  C   UNL A   1      31.023  22.642  25.557  1.00  0.00     0.009 C 
BRANCH   8  14
ATOM     14  C   UNL A   1      33.660  24.050  24.693  1.00  0.00    -0.030 A 
ATOM     15  C   UNL A   1      33.728  26.909  24.476  1.00  0.00    -0.045 A 
ATOM     16  C   UNL A   1      33.563  26.091  23.350  1.00  0.00     0.004 A 
ATOM     17  C   UNL A   1      33.817  26.270  25.719  1.00  0.00     0.004 A 
ATOM     18  C   UNL A   1      33.528  24.694  23.455  1.00  0.00     0.005 A 
ATOM     19  C   UNL A   1      33.785  24.871  25.825  1.00  0.00     0.005 A 
BRANCH  15  20
ATOM     20  C   UNL A   1      33.736  28.428  24.321  1.00  0.00     0.013 C 
ATOM     21  C   UNL A   1      33.885  28.934  22.878  1.00  0.00     0.012 C 
ATOM     22  C   UNL A   1      32.481  29.074  24.928  1.00  0.00     0.012 C 
ENDBRANCH  15  20
ENDBRANCH   8  14
ENDBRANCH   6   8
ENDBRANCH   5   6
ENDBRANCH   4   5
ENDBRANCH   3   4
ENDBRANCH   2   3
ENDBRANCH   1   2
BRANCH   1  23
ATOM     23  C   UNL A   1      41.410  22.353  26.165  1.00  0.00     0.261 C 
BRANCH  23  24
ATOM     24  O   UNL A   1      42.157  23.291  26.961  1.00  0.00    -0.460 OA
BRANCH  24  25
ATOM     25  C   UNL A   1      42.310  24.511  26.392  1.00  0.00     0.338 C 
ATOM     26  O   UNL A   1      42.685  24.749  25.251  1.00  0.00    -0.246 OA
BRANCH  25  27
ATOM     27  C   UNL A   1      41.786  25.566  27.278  1.00  0.00     0.060 A 
ATOM     28  C   UNL A   1      42.477  26.785  27.301  1.00  0.00     0.016 A 
ATOM     29  C   UNL A   1      40.705  25.347  28.134  1.00  0.00     0.016 A 
ATOM     30  C   UNL A   1      42.122  27.772  28.217  1.00  0.00     0.010 A 
ATOM     31  C   UNL A   1      40.357  26.336  29.062  1.00  0.00     0.010 A 
ATOM     32  C   UNL A   1      41.088  27.536  29.133  1.00  0.00    -0.014 A 
BRANCH  32  33
ATOM     33  C   UNL A   1      40.891  28.484  30.259  1.00  0.00     0.031 A 
ATOM     34  C   UNL A   1      41.795  28.387  31.459  1.00  0.00     0.074 A 
ATOM     35  C   UNL A   1      39.958  29.451  30.189  1.00  0.00     0.049 A 
ATOM     36  N   UNL A   1      41.804  29.107  32.550  1.00  0.00    -0.248 NA
ATOM     37  C   UNL A   1      42.829  27.339  31.420  1.00  0.00     0.031 C 
ATOM     38  C   UNL A   1      39.054  29.672  29.062  1.00  0.00     0.029 A 
ATOM     39  N   UNL A   1      39.619  30.428  31.091  1.00  0.00    -0.354 N 
ATOM     40  C   UNL A   1      42.837  28.600  33.330  1.00  0.00     0.074 A 
ATOM     41  C   UNL A   1      43.413  27.492  32.599  1.00  0.00     0.031 C 
ATOM     42  C   UNL A   1      38.255  30.716  29.344  1.00  0.00     0.029 A 
ATOM     43  C   UNL A   1      38.573  31.219  30.679  1.00  0.00     0.049 A 
ATOM     44  H   UNL A   1      40.081  30.552  31.952  1.00  0.00     0.167 HD
ATOM     45  C   UNL A   1      43.272  29.025  34.540  1.00  0.00     0.037 A 
ATOM     46  C   UNL A   1      37.934  32.221  31.315  1.00  0.00     0.037 A 
ATOM     47  C   UNL A   1      42.697  30.129  35.262  1.00  0.00     0.049 A 
ATOM     48  C   UNL A   1      38.394  32.636  32.688  1.00  0.00     0.074 A 
ATOM     49  C   UNL A   1      43.076  30.647  36.488  1.00  0.00     0.029 A 
ATOM     50  N   UNL A   1      41.617  30.883  34.827  1.00  0.00    -0.354 N 
ATOM     51  N   UNL A   1      39.385  32.159  33.405  1.00  0.00    -0.248 NA
ATOM     52  C   UNL A   1      37.653  33.726  33.338  1.00  0.00     0.031 C 
ATOM     53  C   UNL A   1      42.196  31.684  36.815  1.00  0.00     0.029 A 
ATOM     54  C   UNL A   1      41.300  31.845  35.771  1.00  0.00     0.049 A 
ATOM     55  H   UNL A   1      41.145  30.753  33.973  1.00  0.00     0.167 HD
ATOM     56  C   UNL A   1      39.401  32.908  34.578  1.00  0.00     0.074 A 
ATOM     57  C   UNL A   1      38.328  33.875  34.471  1.00  0.00     0.031 C 
ATOM     58  C   UNL A   1      40.231  32.806  35.646  1.00  0.00     0.037 A 
BRANCH  45  59
ATOM     59  C   UNL A   1      44.410  28.273  35.173  1.00  0.00     0.058 A 
ATOM     60  C   UNL A   1      45.749  28.639  34.957  1.00  0.00     0.135 A 
ATOM     61  C   UNL A   1      44.158  27.190  36.030  1.00  0.00     0.135 A 
ATOM     62  F   UNL A   1      46.047  29.656  34.133  1.00  0.00    -0.206 F 
ATOM     63  C   UNL A   1      46.798  27.942  35.550  1.00  0.00     0.059 A 
ATOM     64  C   UNL A   1      45.191  26.494  36.652  1.00  0.00     0.059 A 
ATOM     65  F   UNL A   1      42.897  26.796  36.268  1.00  0.00    -0.206 F 
ATOM     66  C   UNL A   1      46.508  26.869  36.394  1.00  0.00     0.060 A 
BRANCH  66  67
ATOM     67  S   UNL A   1      47.878  25.975  37.156  1.00  0.00     0.124 S 
ATOM     68  O   UNL A   1      47.542  24.593  36.827  1.00  0.00    -0.237 OA
ATOM     69  O   UNL A   1      49.038  26.528  36.464  1.00  0.00    -0.237 OA
ATOM     70  O   UNL A   1      47.770  26.326  38.569  1.00  0.00    -0.744 OA
ENDBRANCH  66  67
ENDBRANCH  45  59
BRANCH  46  71
ATOM     71  C   UNL A   1      36.779  32.896  30.664  1.00  0.00     0.058 A 
ATOM     72  C   UNL A   1      35.459  32.556  30.993  1.00  0.00     0.135 A 
ATOM     73  C   UNL A   1      36.976  33.898  29.702  1.00  0.00     0.135 A 
ATOM     74  F   UNL A   1      35.218  31.596  31.899  1.00  0.00    -0.206 F 
ATOM     75  C   UNL A   1      34.373  33.176  30.383  1.00  0.00     0.059 A 
ATOM     76  C   UNL A   1      35.908  34.550  29.096  1.00  0.00     0.059 A 
ATOM     77  F   UNL A   1      38.220  34.266  29.359  1.00  0.00    -0.206 F 
ATOM     78  C   UNL A   1      34.609  34.176  29.436  1.00  0.00     0.060 A 
BRANCH  78  79
ATOM     79  S   UNL A   1      33.195  35.014  28.688  1.00  0.00     0.124 S 
ATOM     80  O   UNL A   1      33.843  36.124  27.998  1.00  0.00    -0.237 OA
ATOM     81  O   UNL A   1      32.635  33.970  27.834  1.00  0.00    -0.237 OA
ATOM     82  O   UNL A   1      32.374  35.379  29.838  1.00  0.00    -0.744 OA
ENDBRANCH  78  79
ENDBRANCH  46  71
BRANCH  58  83
ATOM     83  C   UNL A   1      40.037  33.783  36.773  1.00  0.00     0.058 A 
ATOM     84  C   UNL A   1      40.638  35.051  36.764  1.00  0.00     0.135 A 
ATOM     85  C   UNL A   1      39.193  33.465  37.851  1.00  0.00     0.135 A 
ATOM     86  F   UNL A   1      41.458  35.402  35.761  1.00  0.00    -0.206 F 
ATOM     87  C   UNL A   1      40.427  35.962  37.793  1.00  0.00     0.059 A 
ATOM     88  C   UNL A   1      38.946  34.372  38.877  1.00  0.00     0.059 A 
ATOM     89  F   UNL A   1      38.583  32.270  37.902  1.00  0.00    -0.206 F 
ATOM     90  C   UNL A   1      39.578  35.614  38.846  1.00  0.00     0.060 A 
BRANCH  90  91
ATOM     91  S   UNL A   1      39.285  36.818  40.159  1.00  0.00     0.124 S 
ATOM     92  O   UNL A   1      40.625  36.983  40.711  1.00  0.00    -0.237 OA
ATOM     93  O   UNL A   1      38.757  37.963  39.422  1.00  0.00    -0.237 OA
ATOM     94  O   UNL A   1      38.325  36.145  41.029  1.00  0.00    -0.744 OA
ENDBRANCH  90  91
ENDBRANCH  58  83
ENDBRANCH  32  33
ENDBRANCH  25  27
ENDBRANCH  24  25
ENDBRANCH  23  24
ENDBRANCH   1  23
TORSDOF 19
ENDMDL
