MODEL 1
REMARK VINA RESULT:     -11.5      0.000      0.000
REMARK SMILES O=C(OCCOCCOC(=O)[C@@H](Cc1ccc(O)cc1)Nc1c2ccccc2nc2ccccc12)c1ccc(-c2c3nc(c(-c4c(F)cc(S(=O)(=O)[O-])cc4F)c4ccc([nH]4)c(-c4c(F)cc(S(=O)(=O)[O-])cc4F)c4nc(c(-c5c(F)cc(S(=O)(=O)[O-])cc5F)c5ccc2[nH]5)C=C4)C=C3)cc1
REMARK SMILES IDX 6 1 5 2 4 3 3 4 2 5 1 6 36 7 37 8 101 9 38 10 100 11 39 12
REMARK SMILES IDX 40 13 41 14 94 15 42 16 99 17 93 18 95 19 43 20 98 21 92 22
REMARK SMILES IDX 91 23 44 25 78 26 57 27 77 28 58 29 61 30 76 31 96 32 59 33
REMARK SMILES IDX 60 34 75 36 97 37 62 38 45 39 46 40 55 41 47 42 48 43 54 44
REMARK SMILES IDX 56 45 49 46 50 47 51 48 52 49 53 50 79 51 80 52 89 53 81 54
REMARK SMILES IDX 82 55 88 56 90 57 83 58 84 59 85 60 86 61 87 62 63 63 64 64
REMARK SMILES IDX 73 65 65 66 66 67 72 68 74 69 67 70 68 71 69 72 70 73 71 74
REMARK SMILES IDX 7 75 8 76 9 77 10 78 11 79 12 80 13 81 14 82 15 83 20 84
REMARK SMILES IDX 16 85 19 86 17 87 18 88 21 90 22 92 23 93 35 94 24 95 28 96
REMARK SMILES IDX 30 97 34 98 25 99 27 100 29 101 31 102 33 103 26 104 32 105
REMARK H PARENT 95 24 61 35 18 89 21 91
REMARK Flexibility Score: inf
ROOT
ATOM      1  O   UNL A   1      31.489  28.017  24.927  1.00  0.00    -0.374 OA
ENDROOT
BRANCH   1   2
ATOM      2  C   UNL A   1      31.978  28.101  26.265  1.00  0.00     0.202 C 
BRANCH   2   3
ATOM      3  C   UNL A   1      33.477  28.329  26.524  1.00  0.00     0.261 C 
BRANCH   3   4
ATOM      4  O   UNL A   1      33.816  29.724  26.429  1.00  0.00    -0.460 OA
BRANCH   4   5
ATOM      5  C   UNL A   1      34.458  30.493  27.340  1.00  0.00     0.338 C 
ATOM      6  O   UNL A   1      34.026  31.623  27.562  1.00  0.00    -0.246 OA
BRANCH   5   7
ATOM      7  C   UNL A   1      35.706  30.059  28.038  1.00  0.00     0.060 A 
ATOM      8  C   UNL A   1      35.735  29.476  29.300  1.00  0.00     0.016 A 
ATOM      9  C   UNL A   1      36.927  30.183  27.353  1.00  0.00     0.016 A 
ATOM     10  C   UNL A   1      36.891  29.019  29.878  1.00  0.00     0.010 A 
ATOM     11  C   UNL A   1      38.122  29.740  27.934  1.00  0.00     0.010 A 
ATOM     12  C   UNL A   1      38.090  29.163  29.205  1.00  0.00    -0.014 A 
BRANCH  12  13
ATOM     13  C   UNL A   1      39.263  28.867  30.027  1.00  0.00     0.031 A 
ATOM     14  C   UNL A   1      40.259  27.909  29.458  1.00  0.00     0.074 A 
ATOM     15  C   UNL A   1      39.544  29.691  31.051  1.00  0.00     0.049 A 
ATOM     16  N   UNL A   1      41.424  27.560  29.919  1.00  0.00    -0.248 NA
ATOM     17  C   UNL A   1      39.913  27.294  28.161  1.00  0.00     0.031 C 
ATOM     18  C   UNL A   1      38.703  30.815  31.482  1.00  0.00     0.029 A 
ATOM     19  N   UNL A   1      40.644  29.772  31.855  1.00  0.00    -0.354 N 
ATOM     20  C   UNL A   1      41.931  26.653  28.999  1.00  0.00     0.074 A 
ATOM     21  C   UNL A   1      40.966  26.526  27.933  1.00  0.00     0.031 C 
ATOM     22  C   UNL A   1      39.336  31.488  32.455  1.00  0.00     0.029 A 
ATOM     23  C   UNL A   1      40.585  30.802  32.762  1.00  0.00     0.049 A 
ATOM     24  H   UNL A   1      41.406  29.151  31.791  1.00  0.00     0.167 HD
ATOM     25  C   UNL A   1      43.094  25.969  29.071  1.00  0.00     0.037 A 
ATOM     26  C   UNL A   1      41.442  31.117  33.750  1.00  0.00     0.037 A 
ATOM     27  C   UNL A   1      44.012  26.134  30.163  1.00  0.00     0.049 A 
ATOM     28  C   UNL A   1      42.668  30.257  33.885  1.00  0.00     0.074 A 
ATOM     29  C   UNL A   1      45.167  25.432  30.441  1.00  0.00     0.029 A 
ATOM     30  N   UNL A   1      43.863  27.087  31.166  1.00  0.00    -0.354 N 
ATOM     31  N   UNL A   1      43.083  29.288  33.099  1.00  0.00    -0.248 NA
ATOM     32  C   UNL A   1      43.529  30.505  35.044  1.00  0.00     0.031 C 
ATOM     33  C   UNL A   1      45.690  25.931  31.640  1.00  0.00     0.029 A 
ATOM     34  C   UNL A   1      44.895  26.981  32.077  1.00  0.00     0.049 A 
ATOM     35  H   UNL A   1      43.129  27.742  31.218  1.00  0.00     0.167 HD
ATOM     36  C   UNL A   1      44.264  28.821  33.656  1.00  0.00     0.074 A 
ATOM     37  C   UNL A   1      44.501  29.627  34.842  1.00  0.00     0.031 C 
ATOM     38  C   UNL A   1      45.081  27.822  33.237  1.00  0.00     0.037 A 
BRANCH  25  39
ATOM     39  C   UNL A   1      43.327  24.916  28.026  1.00  0.00     0.058 A 
ATOM     40  C   UNL A   1      42.970  23.571  28.213  1.00  0.00     0.135 A 
ATOM     41  C   UNL A   1      44.008  25.254  26.845  1.00  0.00     0.135 A 
ATOM     42  F   UNL A   1      42.358  23.183  29.343  1.00  0.00    -0.206 F 
ATOM     43  C   UNL A   1      43.314  22.592  27.283  1.00  0.00     0.059 A 
ATOM     44  C   UNL A   1      44.340  24.298  25.892  1.00  0.00     0.059 A 
ATOM     45  F   UNL A   1      44.392  26.521  26.627  1.00  0.00    -0.206 F 
ATOM     46  C   UNL A   1      44.009  22.965  26.129  1.00  0.00     0.060 A 
BRANCH  46  47
ATOM     47  S   UNL A   1      44.495  21.684  24.954  1.00  0.00     0.124 S 
ATOM     48  O   UNL A   1      44.366  22.390  23.684  1.00  0.00    -0.237 OA
ATOM     49  O   UNL A   1      45.858  21.375  25.372  1.00  0.00    -0.237 OA
ATOM     50  O   UNL A   1      43.516  20.624  25.185  1.00  0.00    -0.744 OA
ENDBRANCH  46  47
ENDBRANCH  25  39
BRANCH  26  51
ATOM     51  C   UNL A   1      41.134  32.225  34.694  1.00  0.00     0.058 A 
ATOM     52  C   UNL A   1      41.577  33.535  34.466  1.00  0.00     0.135 A 
ATOM     53  C   UNL A   1      40.371  31.992  35.853  1.00  0.00     0.135 A 
ATOM     54  F   UNL A   1      42.313  33.814  33.381  1.00  0.00    -0.206 F 
ATOM     55  C   UNL A   1      41.285  34.570  35.353  1.00  0.00     0.059 A 
ATOM     56  C   UNL A   1      40.041  33.014  36.737  1.00  0.00     0.059 A 
ATOM     57  F   UNL A   1      39.913  30.760  36.121  1.00  0.00    -0.206 F 
ATOM     58  C   UNL A   1      40.513  34.300  36.485  1.00  0.00     0.060 A 
BRANCH  58  59
ATOM     59  S   UNL A   1      40.107  35.653  37.610  1.00  0.00     0.124 S 
ATOM     60  O   UNL A   1      39.909  36.758  36.681  1.00  0.00    -0.237 OA
ATOM     61  O   UNL A   1      38.907  35.150  38.274  1.00  0.00    -0.237 OA
ATOM     62  O   UNL A   1      41.290  35.750  38.461  1.00  0.00    -0.744 OA
ENDBRANCH  58  59
ENDBRANCH  26  51
BRANCH  38  63
ATOM     63  C   UNL A   1      46.323  27.590  34.042  1.00  0.00     0.058 A 
ATOM     64  C   UNL A   1      46.353  26.672  35.102  1.00  0.00     0.135 A 
ATOM     65  C   UNL A   1      47.510  28.259  33.704  1.00  0.00     0.135 A 
ATOM     66  F   UNL A   1      45.239  26.016  35.461  1.00  0.00    -0.206 F 
ATOM     67  C   UNL A   1      47.519  26.441  35.819  1.00  0.00     0.059 A 
ATOM     68  C   UNL A   1      48.693  28.021  34.389  1.00  0.00     0.059 A 
ATOM     69  F   UNL A   1      47.527  29.135  32.688  1.00  0.00    -0.206 F 
ATOM     70  C   UNL A   1      48.685  27.119  35.453  1.00  0.00     0.060 A 
BRANCH  70  71
ATOM     71  S   UNL A   1      50.202  26.785  36.367  1.00  0.00     0.124 S 
ATOM     72  O   UNL A   1      49.730  26.837  37.745  1.00  0.00    -0.237 OA
ATOM     73  O   UNL A   1      50.580  25.465  35.874  1.00  0.00    -0.237 OA
ATOM     74  O   UNL A   1      51.087  27.874  35.963  1.00  0.00    -0.744 OA
ENDBRANCH  70  71
ENDBRANCH  38  63
ENDBRANCH  12  13
ENDBRANCH   5   7
ENDBRANCH   4   5
ENDBRANCH   3   4
ENDBRANCH   2   3
ENDBRANCH   1   2
BRANCH   1  75
ATOM     75  C   UNL A   1      30.563  26.969  24.621  1.00  0.00     0.202 C 
BRANCH  75  76
ATOM     76  C   UNL A   1      30.323  25.982  25.776  1.00  0.00     0.261 C 
BRANCH  76  77
ATOM     77  O   UNL A   1      30.471  24.616  25.338  1.00  0.00    -0.462 OA
BRANCH  77  78
ATOM     78  C   UNL A   1      31.246  23.838  26.134  1.00  0.00     0.328 C 
ATOM     79  O   UNL A   1      31.413  24.040  27.333  1.00  0.00    -0.250 OA
BRANCH  78  80
ATOM     80  C   UNL A   1      31.893  22.648  25.396  1.00  0.00     0.194 C 
BRANCH  80  81
ATOM     81  C   UNL A   1      32.645  22.808  24.041  1.00  0.00     0.072 C 
BRANCH  81  82
ATOM     82  C   UNL A   1      32.873  24.150  23.376  1.00  0.00    -0.045 A 
ATOM     83  C   UNL A   1      32.342  24.472  22.123  1.00  0.00     0.007 A 
ATOM     84  C   UNL A   1      33.770  25.066  23.944  1.00  0.00     0.007 A 
ATOM     85  C   UNL A   1      32.593  25.695  21.499  1.00  0.00     0.046 A 
ATOM     86  C   UNL A   1      34.057  26.282  23.312  1.00  0.00     0.046 A 
ATOM     87  C   UNL A   1      33.445  26.599  22.108  1.00  0.00     0.115 A 
BRANCH  87  88
ATOM     88  O   UNL A   1      33.715  27.807  21.539  1.00  0.00    -0.508 OA
ATOM     89  H   UNL A   1      33.154  28.539  21.704  1.00  0.00     0.293 HD
ENDBRANCH  87  88
ENDBRANCH  81  82
ENDBRANCH  80  81
BRANCH  80  90
ATOM     90  N   UNL A   1      32.694  21.825  26.313  1.00  0.00    -0.371 N 
ATOM     91  H   UNL A   1      32.456  21.739  27.264  1.00  0.00     0.161 HD
BRANCH  90  92
ATOM     92  C   UNL A   1      33.817  21.159  25.774  1.00  0.00     0.054 A 
ATOM     93  C   UNL A   1      33.728  19.800  25.338  1.00  0.00     0.024 A 
ATOM     94  C   UNL A   1      35.078  21.816  25.750  1.00  0.00     0.024 A 
ATOM     95  C   UNL A   1      32.558  18.994  25.406  1.00  0.00     0.012 A 
ATOM     96  C   UNL A   1      34.891  19.220  24.802  1.00  0.00     0.073 A 
ATOM     97  C   UNL A   1      36.149  21.131  25.149  1.00  0.00     0.073 A 
ATOM     98  C   UNL A   1      35.331  23.092  26.320  1.00  0.00     0.012 A 
ATOM     99  C   UNL A   1      32.562  17.651  25.039  1.00  0.00     0.001 A 
ATOM    100  C   UNL A   1      34.860  17.892  24.393  1.00  0.00     0.029 A 
ATOM    101  N   UNL A   1      36.044  19.886  24.665  1.00  0.00    -0.248 NA
ATOM    102  C   UNL A   1      37.388  21.752  25.069  1.00  0.00     0.029 A 
ATOM    103  C   UNL A   1      36.595  23.677  26.266  1.00  0.00     0.001 A 
ATOM    104  C   UNL A   1      33.721  17.096  24.525  1.00  0.00     0.002 A 
ATOM    105  C   UNL A   1      37.624  23.013  25.619  1.00  0.00     0.002 A 
ENDBRANCH  90  92
ENDBRANCH  80  90
ENDBRANCH  78  80
ENDBRANCH  77  78
ENDBRANCH  76  77
ENDBRANCH  75  76
ENDBRANCH   1  75
TORSDOF 22
ENDMDL
MODEL 2
REMARK VINA RESULT:     -11.5      2.619      3.774
REMARK SMILES O=C(OCCOCCOC(=O)[C@@H](Cc1ccc(O)cc1)Nc1c2ccccc2nc2ccccc12)c1ccc(-c2c3nc(c(-c4c(F)cc(S(=O)(=O)[O-])cc4F)c4ccc([nH]4)c(-c4c(F)cc(S(=O)(=O)[O-])cc4F)c4nc(c(-c5c(F)cc(S(=O)(=O)[O-])cc5F)c5ccc2[nH]5)C=C4)C=C3)cc1
REMARK SMILES IDX 6 1 5 2 4 3 3 4 2 5 1 6 36 7 37 8 101 9 38 10 100 11 39 12
REMARK SMILES IDX 40 13 41 14 94 15 42 16 99 17 93 18 95 19 43 20 98 21 92 22
REMARK SMILES IDX 91 23 44 25 78 26 57 27 77 28 58 29 61 30 76 31 96 32 59 33
REMARK SMILES IDX 60 34 75 36 97 37 62 38 45 39 46 40 55 41 47 42 48 43 54 44
REMARK SMILES IDX 56 45 49 46 50 47 51 48 52 49 53 50 79 51 80 52 89 53 81 54
REMARK SMILES IDX 82 55 88 56 90 57 83 58 84 59 85 60 86 61 87 62 63 63 64 64
REMARK SMILES IDX 73 65 65 66 66 67 72 68 74 69 67 70 68 71 69 72 70 73 71 74
REMARK SMILES IDX 7 75 8 76 9 77 10 78 11 79 12 80 13 81 14 82 15 83 20 84
REMARK SMILES IDX 16 85 19 86 17 87 18 88 21 90 22 92 23 93 35 94 24 95 28 96
REMARK SMILES IDX 30 97 34 98 25 99 27 100 29 101 31 102 33 103 26 104 32 105
REMARK H PARENT 95 24 61 35 18 89 21 91
REMARK Flexibility Score: inf
ROOT
ATOM      1  O   UNL A   1      31.511  28.430  25.395  1.00  0.00    -0.374 OA
ENDROOT
BRANCH   1   2
ATOM      2  C   UNL A   1      31.907  28.539  26.762  1.00  0.00     0.202 C 
BRANCH   2   3
ATOM      3  C   UNL A   1      33.400  28.580  27.130  1.00  0.00     0.261 C 
BRANCH   3   4
ATOM      4  O   UNL A   1      33.894  29.931  27.154  1.00  0.00    -0.460 OA
BRANCH   4   5
ATOM      5  C   UNL A   1      34.668  30.523  28.095  1.00  0.00     0.338 C 
ATOM      6  O   UNL A   1      34.218  31.498  28.696  1.00  0.00    -0.246 OA
BRANCH   5   7
ATOM      7  C   UNL A   1      36.067  30.090  28.388  1.00  0.00     0.060 A 
ATOM      8  C   UNL A   1      36.501  29.629  29.626  1.00  0.00     0.016 A 
ATOM      9  C   UNL A   1      36.995  30.082  27.332  1.00  0.00     0.016 A 
ATOM     10  C   UNL A   1      37.774  29.168  29.840  1.00  0.00     0.010 A 
ATOM     11  C   UNL A   1      38.306  29.632  27.534  1.00  0.00     0.010 A 
ATOM     12  C   UNL A   1      38.685  29.181  28.800  1.00  0.00    -0.014 A 
BRANCH  12  13
ATOM     13  C   UNL A   1      40.058  28.901  29.220  1.00  0.00     0.031 A 
ATOM     14  C   UNL A   1      40.644  27.599  28.780  1.00  0.00     0.074 A 
ATOM     15  C   UNL A   1      40.806  29.925  29.667  1.00  0.00     0.049 A 
ATOM     16  N   UNL A   1      41.859  27.153  28.916  1.00  0.00    -0.248 NA
ATOM     17  C   UNL A   1      39.746  26.691  28.039  1.00  0.00     0.031 C 
ATOM     18  C   UNL A   1      40.320  31.297  29.871  1.00  0.00     0.029 A 
ATOM     19  N   UNL A   1      42.139  30.001  29.945  1.00  0.00    -0.354 N 
ATOM     20  C   UNL A   1      41.862  25.898  28.322  1.00  0.00     0.074 A 
ATOM     21  C   UNL A   1      40.540  25.661  27.793  1.00  0.00     0.031 C 
ATOM     22  C   UNL A   1      41.353  32.080  30.215  1.00  0.00     0.029 A 
ATOM     23  C   UNL A   1      42.549  31.256  30.326  1.00  0.00     0.049 A 
ATOM     24  H   UNL A   1      42.749  29.230  29.880  1.00  0.00     0.167 HD
ATOM     25  C   UNL A   1      42.885  25.018  28.262  1.00  0.00     0.037 A 
ATOM     26  C   UNL A   1      43.759  31.665  30.750  1.00  0.00     0.037 A 
ATOM     27  C   UNL A   1      44.179  25.310  28.814  1.00  0.00     0.049 A 
ATOM     28  C   UNL A   1      44.849  30.630  30.792  1.00  0.00     0.074 A 
ATOM     29  C   UNL A   1      45.276  24.484  28.939  1.00  0.00     0.029 A 
ATOM     30  N   UNL A   1      44.539  26.548  29.338  1.00  0.00    -0.354 N 
ATOM     31  N   UNL A   1      44.817  29.385  30.369  1.00  0.00    -0.248 NA
ATOM     32  C   UNL A   1      46.125  31.033  31.388  1.00  0.00     0.031 C 
ATOM     33  C   UNL A   1      46.285  25.211  29.583  1.00  0.00     0.029 A 
ATOM     34  C   UNL A   1      45.837  26.505  29.805  1.00  0.00     0.049 A 
ATOM     35  H   UNL A   1      43.953  27.339  29.370  1.00  0.00     0.167 HD
ATOM     36  C   UNL A   1      46.074  28.860  30.629  1.00  0.00     0.074 A 
ATOM     37  C   UNL A   1      46.845  29.931  31.236  1.00  0.00     0.031 C 
ATOM     38  C   UNL A   1      46.555  27.613  30.393  1.00  0.00     0.037 A 
BRANCH  25  39
ATOM     39  C   UNL A   1      42.575  23.655  27.714  1.00  0.00     0.058 A 
ATOM     40  C   UNL A   1      42.318  22.547  28.538  1.00  0.00     0.135 A 
ATOM     41  C   UNL A   1      42.628  23.440  26.327  1.00  0.00     0.135 A 
ATOM     42  F   UNL A   1      42.301  22.686  29.873  1.00  0.00    -0.206 F 
ATOM     43  C   UNL A   1      42.162  21.269  28.008  1.00  0.00     0.059 A 
ATOM     44  C   UNL A   1      42.451  22.177  25.774  1.00  0.00     0.059 A 
ATOM     45  F   UNL A   1      42.893  24.460  25.496  1.00  0.00    -0.206 F 
ATOM     46  C   UNL A   1      42.240  21.092  26.624  1.00  0.00     0.060 A 
BRANCH  46  47
ATOM     47  S   UNL A   1      42.088  19.425  25.950  1.00  0.00     0.124 S 
ATOM     48  O   UNL A   1      42.578  18.616  27.061  1.00  0.00    -0.237 OA
ATOM     49  O   UNL A   1      40.659  19.326  25.676  1.00  0.00    -0.237 OA
ATOM     50  O   UNL A   1      42.949  19.457  24.769  1.00  0.00    -0.744 OA
ENDBRANCH  46  47
ENDBRANCH  25  39
BRANCH  26  51
ATOM     51  C   UNL A   1      43.964  33.062  31.216  1.00  0.00     0.058 A 
ATOM     52  C   UNL A   1      43.574  33.479  32.497  1.00  0.00     0.135 A 
ATOM     53  C   UNL A   1      44.573  34.018  30.382  1.00  0.00     0.135 A 
ATOM     54  F   UNL A   1      42.984  32.612  33.332  1.00  0.00    -0.206 F 
ATOM     55  C   UNL A   1      43.770  34.789  32.931  1.00  0.00     0.059 A 
ATOM     56  C   UNL A   1      44.805  35.324  30.803  1.00  0.00     0.059 A 
ATOM     57  F   UNL A   1      44.973  33.677  29.148  1.00  0.00    -0.206 F 
ATOM     58  C   UNL A   1      44.389  35.704  32.077  1.00  0.00     0.060 A 
BRANCH  58  59
ATOM     59  S   UNL A   1      44.674  37.390  32.658  1.00  0.00     0.124 S 
ATOM     60  O   UNL A   1      45.174  38.036  31.450  1.00  0.00    -0.237 OA
ATOM     61  O   UNL A   1      43.340  37.793  33.095  1.00  0.00    -0.237 OA
ATOM     62  O   UNL A   1      45.650  37.216  33.730  1.00  0.00    -0.744 OA
ENDBRANCH  58  59
ENDBRANCH  26  51
BRANCH  38  63
ATOM     63  C   UNL A   1      47.989  27.369  30.750  1.00  0.00     0.058 A 
ATOM     64  C   UNL A   1      49.026  27.597  29.835  1.00  0.00     0.135 A 
ATOM     65  C   UNL A   1      48.324  26.956  32.050  1.00  0.00     0.135 A 
ATOM     66  F   UNL A   1      48.749  27.987  28.581  1.00  0.00    -0.206 F 
ATOM     67  C   UNL A   1      50.354  27.400  30.189  1.00  0.00     0.059 A 
ATOM     68  C   UNL A   1      49.646  26.781  32.434  1.00  0.00     0.059 A 
ATOM     69  F   UNL A   1      47.363  26.740  32.960  1.00  0.00    -0.206 F 
ATOM     70  C   UNL A   1      50.654  26.993  31.492  1.00  0.00     0.060 A 
BRANCH  70  71
ATOM     71  S   UNL A   1      52.382  26.775  31.953  1.00  0.00     0.124 S 
ATOM     72  O   UNL A   1      52.880  28.143  31.880  1.00  0.00    -0.237 OA
ATOM     73  O   UNL A   1      52.279  26.208  33.294  1.00  0.00    -0.237 OA
ATOM     74  O   UNL A   1      52.892  25.863  30.933  1.00  0.00    -0.744 OA
ENDBRANCH  70  71
ENDBRANCH  38  63
ENDBRANCH  12  13
ENDBRANCH   5   7
ENDBRANCH   4   5
ENDBRANCH   3   4
ENDBRANCH   2   3
ENDBRANCH   1   2
BRANCH   1  75
ATOM     75  C   UNL A   1      30.722  27.295  25.020  1.00  0.00     0.202 C 
BRANCH  75  76
ATOM     76  C   UNL A   1      30.577  26.234  26.124  1.00  0.00     0.261 C 
BRANCH  76  77
ATOM     77  O   UNL A   1      30.722  24.901  25.593  1.00  0.00    -0.462 OA
BRANCH  77  78
ATOM     78  C   UNL A   1      31.446  24.051  26.363  1.00  0.00     0.328 C 
ATOM     79  O   UNL A   1      31.091  23.662  27.472  1.00  0.00    -0.250 OA
BRANCH  78  80
ATOM     80  C   UNL A   1      32.765  23.593  25.708  1.00  0.00     0.194 C 
BRANCH  80  81
ATOM     81  C   UNL A   1      33.694  24.565  24.921  1.00  0.00     0.072 C 
BRANCH  81  82
ATOM     82  C   UNL A   1      33.471  24.927  23.467  1.00  0.00    -0.045 A 
ATOM     83  C   UNL A   1      33.417  26.250  23.018  1.00  0.00     0.007 A 
ATOM     84  C   UNL A   1      33.152  23.924  22.540  1.00  0.00     0.007 A 
ATOM     85  C   UNL A   1      33.169  26.575  21.683  1.00  0.00     0.046 A 
ATOM     86  C   UNL A   1      32.867  24.239  21.206  1.00  0.00     0.046 A 
ATOM     87  C   UNL A   1      32.905  25.559  20.781  1.00  0.00     0.115 A 
BRANCH  87  88
ATOM     88  O   UNL A   1      32.663  25.828  19.469  1.00  0.00    -0.508 OA
ATOM     89  H   UNL A   1      32.439  25.134  18.881  1.00  0.00     0.293 HD
ENDBRANCH  87  88
ENDBRANCH  81  82
ENDBRANCH  80  81
BRANCH  80  90
ATOM     90  N   UNL A   1      33.567  22.783  26.635  1.00  0.00    -0.371 N 
ATOM     91  H   UNL A   1      33.434  22.837  27.609  1.00  0.00     0.161 HD
BRANCH  90  92
ATOM     92  C   UNL A   1      34.533  21.920  26.073  1.00  0.00     0.054 A 
ATOM     93  C   UNL A   1      35.913  22.293  26.022  1.00  0.00     0.024 A 
ATOM     94  C   UNL A   1      34.119  20.704  25.463  1.00  0.00     0.024 A 
ATOM     95  C   UNL A   1      36.445  23.523  26.497  1.00  0.00     0.012 A 
ATOM     96  C   UNL A   1      36.808  21.368  25.459  1.00  0.00     0.073 A 
ATOM     97  C   UNL A   1      35.127  19.855  24.971  1.00  0.00     0.073 A 
ATOM     98  C   UNL A   1      32.765  20.312  25.287  1.00  0.00     0.012 A 
ATOM     99  C   UNL A   1      37.789  23.858  26.344  1.00  0.00     0.001 A 
ATOM    100  C   UNL A   1      38.155  21.700  25.361  1.00  0.00     0.029 A 
ATOM    101  N   UNL A   1      36.429  20.169  24.999  1.00  0.00    -0.248 NA
ATOM    102  C   UNL A   1      34.769  18.640  24.403  1.00  0.00     0.029 A 
ATOM    103  C   UNL A   1      32.428  19.106  24.674  1.00  0.00     0.001 A 
ATOM    104  C   UNL A   1      38.650  22.938  25.774  1.00  0.00     0.002 A 
ATOM    105  C   UNL A   1      33.436  18.256  24.249  1.00  0.00     0.002 A 
ENDBRANCH  90  92
ENDBRANCH  80  90
ENDBRANCH  78  80
ENDBRANCH  77  78
ENDBRANCH  76  77
ENDBRANCH  75  76
ENDBRANCH   1  75
TORSDOF 22
ENDMDL
MODEL 3
REMARK VINA RESULT:     -11.4      3.113      8.923
REMARK SMILES O=C(OCCOCCOC(=O)[C@@H](Cc1ccc(O)cc1)Nc1c2ccccc2nc2ccccc12)c1ccc(-c2c3nc(c(-c4c(F)cc(S(=O)(=O)[O-])cc4F)c4ccc([nH]4)c(-c4c(F)cc(S(=O)(=O)[O-])cc4F)c4nc(c(-c5c(F)cc(S(=O)(=O)[O-])cc5F)c5ccc2[nH]5)C=C4)C=C3)cc1
REMARK SMILES IDX 6 1 5 2 4 3 3 4 2 5 1 6 36 7 37 8 101 9 38 10 100 11 39 12
REMARK SMILES IDX 40 13 41 14 94 15 42 16 99 17 93 18 95 19 43 20 98 21 92 22
REMARK SMILES IDX 91 23 44 25 78 26 57 27 77 28 58 29 61 30 76 31 96 32 59 33
REMARK SMILES IDX 60 34 75 36 97 37 62 38 45 39 46 40 55 41 47 42 48 43 54 44
REMARK SMILES IDX 56 45 49 46 50 47 51 48 52 49 53 50 79 51 80 52 89 53 81 54
REMARK SMILES IDX 82 55 88 56 90 57 83 58 84 59 85 60 86 61 87 62 63 63 64 64
REMARK SMILES IDX 73 65 65 66 66 67 72 68 74 69 67 70 68 71 69 72 70 73 71 74
REMARK SMILES IDX 7 75 8 76 9 77 10 78 11 79 12 80 13 81 14 82 15 83 20 84
REMARK SMILES IDX 16 85 19 86 17 87 18 88 21 90 22 92 23 93 35 94 24 95 28 96
REMARK SMILES IDX 30 97 34 98 25 99 27 100 29 101 31 102 33 103 26 104 32 105
REMARK H PARENT 95 24 61 35 18 89 21 91
REMARK Flexibility Score: inf
ROOT
ATOM      1  O   UNL A   1      42.100  21.998  25.889  1.00  0.00    -0.374 OA
ENDROOT
BRANCH   1   2
ATOM      2  C   UNL A   1      42.357  23.216  26.587  1.00  0.00     0.202 C 
BRANCH   2   3
ATOM      3  C   UNL A   1      43.471  24.160  26.102  1.00  0.00     0.261 C 
BRANCH   3   4
ATOM      4  O   UNL A   1      42.931  25.412  25.643  1.00  0.00    -0.460 OA
BRANCH   4   5
ATOM      5  C   UNL A   1      41.813  26.048  26.068  1.00  0.00     0.338 C 
ATOM      6  O   UNL A   1      40.793  25.960  25.385  1.00  0.00    -0.246 OA
BRANCH   5   7
ATOM      7  C   UNL A   1      41.780  26.908  27.289  1.00  0.00     0.060 A 
ATOM      8  C   UNL A   1      41.050  26.612  28.435  1.00  0.00     0.016 A 
ATOM      9  C   UNL A   1      42.590  28.057  27.315  1.00  0.00     0.016 A 
ATOM     10  C   UNL A   1      41.102  27.384  29.567  1.00  0.00     0.010 A 
ATOM     11  C   UNL A   1      42.643  28.869  28.454  1.00  0.00     0.010 A 
ATOM     12  C   UNL A   1      41.887  28.523  29.576  1.00  0.00    -0.014 A 
BRANCH  12  13
ATOM     13  C   UNL A   1      41.662  29.380  30.740  1.00  0.00     0.031 A 
ATOM     14  C   UNL A   1      40.420  30.211  30.733  1.00  0.00     0.074 A 
ATOM     15  C   UNL A   1      42.370  29.133  31.856  1.00  0.00     0.049 A 
ATOM     16  N   UNL A   1      39.926  30.964  31.672  1.00  0.00    -0.248 NA
ATOM     17  C   UNL A   1      39.592  30.145  29.512  1.00  0.00     0.031 C 
ATOM     18  C   UNL A   1      43.439  28.132  31.970  1.00  0.00     0.029 A 
ATOM     19  N   UNL A   1      42.246  29.633  33.119  1.00  0.00    -0.354 N 
ATOM     20  C   UNL A   1      38.759  31.498  31.143  1.00  0.00     0.074 A 
ATOM     21  C   UNL A   1      38.594  30.961  29.814  1.00  0.00     0.031 C 
ATOM     22  C   UNL A   1      43.850  28.076  33.246  1.00  0.00     0.029 A 
ATOM     23  C   UNL A   1      43.130  29.082  34.015  1.00  0.00     0.049 A 
ATOM     24  H   UNL A   1      41.586  30.322  33.365  1.00  0.00     0.167 HD
ATOM     25  C   UNL A   1      37.924  32.387  31.724  1.00  0.00     0.037 A 
ATOM     26  C   UNL A   1      43.341  29.397  35.306  1.00  0.00     0.037 A 
ATOM     27  C   UNL A   1      38.144  32.891  33.051  1.00  0.00     0.049 A 
ATOM     28  C   UNL A   1      42.479  30.481  35.890  1.00  0.00     0.074 A 
ATOM     29  C   UNL A   1      37.462  33.879  33.730  1.00  0.00     0.029 A 
ATOM     30  N   UNL A   1      39.144  32.428  33.901  1.00  0.00    -0.354 N 
ATOM     31  N   UNL A   1      41.460  31.106  35.342  1.00  0.00    -0.248 NA
ATOM     32  C   UNL A   1      42.803  30.928  37.248  1.00  0.00     0.031 C 
ATOM     33  C   UNL A   1      38.081  34.046  34.975  1.00  0.00     0.029 A 
ATOM     34  C   UNL A   1      39.110  33.122  35.094  1.00  0.00     0.049 A 
ATOM     35  H   UNL A   1      39.782  31.710  33.684  1.00  0.00     0.167 HD
ATOM     36  C   UNL A   1      41.005  32.006  36.294  1.00  0.00     0.074 A 
ATOM     37  C   UNL A   1      41.858  31.834  37.458  1.00  0.00     0.031 C 
ATOM     38  C   UNL A   1      39.983  32.896  36.222  1.00  0.00     0.037 A 
BRANCH  25  39
ATOM     39  C   UNL A   1      36.821  32.940  30.868  1.00  0.00     0.058 A 
ATOM     40  C   UNL A   1      37.055  33.842  29.818  1.00  0.00     0.135 A 
ATOM     41  C   UNL A   1      35.486  32.622  31.172  1.00  0.00     0.135 A 
ATOM     42  F   UNL A   1      38.308  34.216  29.514  1.00  0.00    -0.206 F 
ATOM     43  C   UNL A   1      36.004  34.438  29.124  1.00  0.00     0.059 A 
ATOM     44  C   UNL A   1      34.422  33.187  30.477  1.00  0.00     0.059 A 
ATOM     45  F   UNL A   1      35.205  31.783  32.181  1.00  0.00    -0.206 F 
ATOM     46  C   UNL A   1      34.690  34.111  29.469  1.00  0.00     0.060 A 
BRANCH  46  47
ATOM     47  S   UNL A   1      33.334  34.927  28.600  1.00  0.00     0.124 S 
ATOM     48  O   UNL A   1      32.576  35.494  29.710  1.00  0.00    -0.237 OA
ATOM     49  O   UNL A   1      34.036  35.888  27.756  1.00  0.00    -0.237 OA
ATOM     50  O   UNL A   1      32.680  33.832  27.888  1.00  0.00    -0.744 OA
ENDBRANCH  46  47
ENDBRANCH  25  39
BRANCH  26  51
ATOM     51  C   UNL A   1      44.431  28.738  36.076  1.00  0.00     0.058 A 
ATOM     52  C   UNL A   1      44.196  27.602  36.864  1.00  0.00     0.135 A 
ATOM     53  C   UNL A   1      45.746  29.234  36.031  1.00  0.00     0.135 A 
ATOM     54  F   UNL A   1      42.960  27.090  36.949  1.00  0.00    -0.206 F 
ATOM     55  C   UNL A   1      45.220  26.987  37.583  1.00  0.00     0.059 A 
ATOM     56  C   UNL A   1      46.790  28.621  36.717  1.00  0.00     0.059 A 
ATOM     57  F   UNL A   1      46.034  30.315  35.290  1.00  0.00    -0.206 F 
ATOM     58  C   UNL A   1      46.515  27.503  37.501  1.00  0.00     0.060 A 
BRANCH  58  59
ATOM     59  S   UNL A   1      47.844  26.680  38.405  1.00  0.00     0.124 S 
ATOM     60  O   UNL A   1      48.797  27.769  38.581  1.00  0.00    -0.237 OA
ATOM     61  O   UNL A   1      47.159  26.227  39.612  1.00  0.00    -0.237 OA
ATOM     62  O   UNL A   1      48.262  25.617  37.495  1.00  0.00    -0.744 OA
ENDBRANCH  58  59
ENDBRANCH  26  51
BRANCH  38  63
ATOM     63  C   UNL A   1      39.712  33.705  37.454  1.00  0.00     0.058 A 
ATOM     64  C   UNL A   1      38.798  33.280  38.429  1.00  0.00     0.135 A 
ATOM     65  C   UNL A   1      40.425  34.893  37.680  1.00  0.00     0.135 A 
ATOM     66  F   UNL A   1      38.092  32.153  38.249  1.00  0.00    -0.206 F 
ATOM     67  C   UNL A   1      38.581  34.022  39.582  1.00  0.00     0.059 A 
ATOM     68  C   UNL A   1      40.244  35.635  38.839  1.00  0.00     0.059 A 
ATOM     69  F   UNL A   1      41.318  35.328  36.778  1.00  0.00    -0.206 F 
ATOM     70  C   UNL A   1      39.311  35.197  39.778  1.00  0.00     0.060 A 
BRANCH  70  71
ATOM     71  S   UNL A   1      39.047  36.134  41.295  1.00  0.00     0.124 S 
ATOM     72  O   UNL A   1      38.907  37.491  40.780  1.00  0.00    -0.237 OA
ATOM     73  O   UNL A   1      37.832  35.530  41.830  1.00  0.00    -0.237 OA
ATOM     74  O   UNL A   1      40.259  35.876  42.067  1.00  0.00    -0.744 OA
ENDBRANCH  70  71
ENDBRANCH  38  63
ENDBRANCH  12  13
ENDBRANCH   5   7
ENDBRANCH   4   5
ENDBRANCH   3   4
ENDBRANCH   2   3
ENDBRANCH   1   2
BRANCH   1  75
ATOM     75  C   UNL A   1      40.842  21.354  26.118  1.00  0.00     0.202 C 
BRANCH  75  76
ATOM     76  C   UNL A   1      39.762  22.270  26.716  1.00  0.00     0.261 C 
BRANCH  76  77
ATOM     77  O   UNL A   1      38.503  22.116  26.030  1.00  0.00    -0.462 OA
BRANCH  77  78
ATOM     78  C   UNL A   1      37.681  23.193  26.088  1.00  0.00     0.328 C 
ATOM     79  O   UNL A   1      38.030  24.298  26.495  1.00  0.00    -0.250 OA
BRANCH  78  80
ATOM     80  C   UNL A   1      36.254  22.912  25.575  1.00  0.00     0.194 C 
BRANCH  80  81
ATOM     81  C   UNL A   1      35.927  22.724  24.064  1.00  0.00     0.072 C 
BRANCH  81  82
ATOM     82  C   UNL A   1      34.837  23.498  23.351  1.00  0.00    -0.045 A 
ATOM     83  C   UNL A   1      34.607  24.859  23.577  1.00  0.00     0.007 A 
ATOM     84  C   UNL A   1      33.914  22.819  22.543  1.00  0.00     0.007 A 
ATOM     85  C   UNL A   1      33.573  25.554  22.947  1.00  0.00     0.046 A 
ATOM     86  C   UNL A   1      32.852  23.498  21.934  1.00  0.00     0.046 A 
ATOM     87  C   UNL A   1      32.706  24.865  22.117  1.00  0.00     0.115 A 
BRANCH  87  88
ATOM     88  O   UNL A   1      31.687  25.504  21.478  1.00  0.00    -0.508 OA
ATOM     89  H   UNL A   1      31.595  25.426  20.549  1.00  0.00     0.293 HD
ENDBRANCH  87  88
ENDBRANCH  81  82
ENDBRANCH  80  81
BRANCH  80  90
ATOM     90  N   UNL A   1      35.606  21.851  26.359  1.00  0.00    -0.371 N 
ATOM     91  H   UNL A   1      36.041  21.461  27.151  1.00  0.00     0.161 HD
BRANCH  90  92
ATOM     92  C   UNL A   1      34.332  21.416  25.932  1.00  0.00     0.054 A 
ATOM     93  C   UNL A   1      34.169  20.167  25.254  1.00  0.00     0.024 A 
ATOM     94  C   UNL A   1      33.208  22.271  26.092  1.00  0.00     0.024 A 
ATOM     95  C   UNL A   1      35.223  19.267  24.934  1.00  0.00     0.012 A 
ATOM     96  C   UNL A   1      32.865  19.806  24.877  1.00  0.00     0.073 A 
ATOM     97  C   UNL A   1      31.954  21.765  25.704  1.00  0.00     0.073 A 
ATOM     98  C   UNL A   1      33.273  23.603  26.581  1.00  0.00     0.012 A 
ATOM     99  C   UNL A   1      35.007  18.103  24.200  1.00  0.00     0.001 A 
ATOM    100  C   UNL A   1      32.662  18.615  24.189  1.00  0.00     0.029 A 
ATOM    101  N   UNL A   1      31.791  20.559  25.144  1.00  0.00    -0.248 NA
ATOM    102  C   UNL A   1      30.824  22.552  25.880  1.00  0.00     0.029 A 
ATOM    103  C   UNL A   1      32.130  24.391  26.708  1.00  0.00     0.001 A 
ATOM    104  C   UNL A   1      33.716  17.773  23.827  1.00  0.00     0.002 A 
ATOM    105  C   UNL A   1      30.896  23.855  26.375  1.00  0.00     0.002 A 
ENDBRANCH  90  92
ENDBRANCH  80  90
ENDBRANCH  78  80
ENDBRANCH  77  78
ENDBRANCH  76  77
ENDBRANCH  75  76
ENDBRANCH   1  75
TORSDOF 22
ENDMDL
