MODEL 1
REMARK VINA RESULT:     -12.0      0.000      0.000
REMARK SMILES Cc1cc(C(=O)N[C@@H]2C(=O)N3C(C(=O)OCCOCCOC(=O)c4ccc(-c5c6nc(c(-c7c(F)cc(S(=O)(=O)[O-])cc7F)c7ccc([nH]7)c(-c7c(F)cc(S(=O)(=O)[O-])cc7F)c7nc(c(-c8c(F)cc(S(=O)(=O)[O-])cc8F)c8ccc5[nH]8)C=C7)C=C6)cc4)=C(CSc4nnc(C)s4)CS[C@H]23)n(C)n1
REMARK SMILES IDX 18 1 17 2 16 3 15 4 13 5 14 6 12 7 8 8 9 9 101 10 10 11
REMARK SMILES IDX 11 12 100 13 99 14 90 15 7 16 5 17 6 18 4 20 1 21 2 22 3 23
REMARK SMILES IDX 104 24 102 25 103 26 91 27 92 28 93 29 94 30 98 31 95 32
REMARK SMILES IDX 96 33 97 34 19 35 20 36 21 37 22 38 23 39 24 40 25 41 89 42
REMARK SMILES IDX 26 43 88 44 27 45 28 46 29 47 82 48 30 49 87 50 81 51 83 52
REMARK SMILES IDX 31 53 86 54 80 55 79 56 32 58 66 59 45 60 65 61 46 62 49 63
REMARK SMILES IDX 64 64 84 65 47 66 48 67 63 69 85 70 50 71 33 72 34 73 43 74
REMARK SMILES IDX 35 75 36 76 42 77 44 78 37 79 38 80 39 81 40 82 41 83 67 84
REMARK SMILES IDX 68 85 77 86 69 87 70 88 76 89 78 90 71 91 72 92 73 93 74 94
REMARK SMILES IDX 75 95 51 96 52 97 61 98 53 99 54 100 60 101 62 102 55 103
REMARK SMILES IDX 56 104 57 105 58 106 59 107
REMARK H PARENT 7 19 83 57 49 68
REMARK Flexibility Score: inf
ROOT
ATOM      1  O   UNL A   1      35.052  30.321  27.108  1.00  0.00    -0.374 OA
ENDROOT
BRANCH   1   2
ATOM      2  C   UNL A   1      34.241  29.180  27.383  1.00  0.00     0.202 C 
BRANCH   2   3
ATOM      3  C   UNL A   1      33.456  28.570  26.223  1.00  0.00     0.261 C 
BRANCH   3   4
ATOM      4  O   UNL A   1      33.166  27.186  26.488  1.00  0.00    -0.459 OA
BRANCH   4   5
ATOM      5  C   UNL A   1      31.855  26.877  26.516  1.00  0.00     0.355 C 
ATOM      6  O   UNL A   1      31.041  27.276  27.342  1.00  0.00    -0.244 OA
BRANCH   5   7
ATOM      7  C   UNL A   1      31.427  25.988  25.388  1.00  0.00     0.132 C 
ATOM      8  C   UNL A   1      32.491  22.756  25.570  1.00  0.00     0.206 C 
ATOM      9  C   UNL A   1      31.750  23.741  26.524  1.00  0.00     0.253 C 
ATOM     10  C   UNL A   1      32.225  23.849  24.490  1.00  0.00     0.181 C 
ATOM     11  O   UNL A   1      31.300  23.711  27.642  1.00  0.00    -0.272 OA
ATOM     12  N   UNL A   1      31.789  24.689  25.560  1.00  0.00    -0.289 N 
ATOM     13  S   UNL A   1      30.809  23.672  23.387  1.00  0.00    -0.129 SA
ATOM     14  C   UNL A   1      30.819  25.440  22.986  1.00  0.00     0.106 C 
ATOM     15  C   UNL A   1      30.898  26.377  24.197  1.00  0.00    -0.019 C 
BRANCH   8  16
ATOM     16  N   UNL A   1      31.982  21.387  25.323  1.00  0.00    -0.336 N 
ATOM     17  C   UNL A   1      32.719  20.213  25.269  1.00  0.00     0.270 C 
ATOM     18  O   UNL A   1      32.112  19.164  25.067  1.00  0.00    -0.268 OA
ATOM     19  H   UNL A   1      31.012  21.300  25.179  1.00  0.00     0.164 HD
BRANCH  17  20
ATOM     20  C   UNL A   1      34.164  20.291  25.383  1.00  0.00     0.126 A 
ATOM     21  C   UNL A   1      37.339  22.066  25.162  1.00  0.00     0.069 C 
ATOM     22  C   UNL A   1      36.237  21.082  25.298  1.00  0.00     0.060 A 
ATOM     23  C   UNL A   1      34.993  21.257  25.940  1.00  0.00     0.059 A 
ATOM     24  N   UNL A   1      36.299  19.892  24.701  1.00  0.00    -0.178 NA
ATOM     25  N   UNL A   1      35.059  19.378  24.869  1.00  0.00    -0.263 N 
ATOM     26  C   UNL A   1      34.848  18.006  24.478  1.00  0.00     0.174 C 
ENDBRANCH  17  20
ENDBRANCH   8  16
BRANCH  15  27
ATOM     27  C   UNL A   1      30.417  27.764  23.850  1.00  0.00     0.111 C 
BRANCH  27  28
ATOM     28  S   UNL A   1      28.663  27.932  23.434  1.00  0.00    -0.089 SA
BRANCH  28  29
ATOM     29  C   UNL A   1      28.312  29.618  23.145  1.00  0.00     0.174 A 
ATOM     30  N   UNL A   1      27.153  30.193  23.362  1.00  0.00    -0.132 NA
ATOM     31  S   UNL A   1      29.521  30.734  22.648  1.00  0.00    -0.091 S 
ATOM     32  N   UNL A   1      27.209  31.572  23.287  1.00  0.00    -0.143 NA
ATOM     33  C   UNL A   1      28.427  31.994  23.028  1.00  0.00     0.115 A 
ATOM     34  C   UNL A   1      28.877  33.407  23.085  1.00  0.00     0.081 C 
ENDBRANCH  28  29
ENDBRANCH  27  28
ENDBRANCH  15  27
ENDBRANCH   5   7
ENDBRANCH   4   5
ENDBRANCH   3   4
ENDBRANCH   2   3
ENDBRANCH   1   2
BRANCH   1  35
ATOM     35  C   UNL A   1      34.758  31.538  27.789  1.00  0.00     0.202 C 
BRANCH  35  36
ATOM     36  C   UNL A   1      34.868  31.567  29.320  1.00  0.00     0.261 C 
BRANCH  36  37
ATOM     37  O   UNL A   1      36.213  31.611  29.813  1.00  0.00    -0.460 OA
BRANCH  37  38
ATOM     38  C   UNL A   1      36.671  30.437  30.320  1.00  0.00     0.338 C 
ATOM     39  O   UNL A   1      36.042  29.600  30.942  1.00  0.00    -0.246 OA
BRANCH  38  40
ATOM     40  C   UNL A   1      38.061  30.237  29.873  1.00  0.00     0.060 A 
ATOM     41  C   UNL A   1      38.315  29.989  28.520  1.00  0.00     0.016 A 
ATOM     42  C   UNL A   1      39.104  30.248  30.794  1.00  0.00     0.016 A 
ATOM     43  C   UNL A   1      39.619  29.731  28.096  1.00  0.00     0.010 A 
ATOM     44  C   UNL A   1      40.414  30.047  30.364  1.00  0.00     0.010 A 
ATOM     45  C   UNL A   1      40.674  29.734  29.019  1.00  0.00    -0.014 A 
BRANCH  45  46
ATOM     46  C   UNL A   1      42.019  29.238  28.632  1.00  0.00     0.031 A 
ATOM     47  C   UNL A   1      43.170  30.212  28.597  1.00  0.00     0.074 A 
ATOM     48  C   UNL A   1      42.216  27.944  28.315  1.00  0.00     0.049 A 
ATOM     49  N   UNL A   1      44.411  30.020  28.232  1.00  0.00    -0.248 NA
ATOM     50  C   UNL A   1      42.875  31.596  29.009  1.00  0.00     0.031 C 
ATOM     51  C   UNL A   1      41.184  26.907  28.315  1.00  0.00     0.029 A 
ATOM     52  N   UNL A   1      43.354  27.284  27.926  1.00  0.00    -0.354 N 
ATOM     53  C   UNL A   1      45.035  31.257  28.352  1.00  0.00     0.074 A 
ATOM     54  C   UNL A   1      44.026  32.204  28.768  1.00  0.00     0.031 C 
ATOM     55  C   UNL A   1      41.739  25.738  27.950  1.00  0.00     0.029 A 
ATOM     56  C   UNL A   1      43.153  25.952  27.653  1.00  0.00     0.049 A 
ATOM     57  H   UNL A   1      44.231  27.724  27.849  1.00  0.00     0.167 HD
ATOM     58  C   UNL A   1      46.337  31.572  28.157  1.00  0.00     0.037 A 
ATOM     59  C   UNL A   1      44.012  25.016  27.199  1.00  0.00     0.037 A 
ATOM     60  C   UNL A   1      47.341  30.618  27.766  1.00  0.00     0.049 A 
ATOM     61  C   UNL A   1      45.449  25.396  26.949  1.00  0.00     0.074 A 
ATOM     62  C   UNL A   1      48.696  30.822  27.582  1.00  0.00     0.029 A 
ATOM     63  N   UNL A   1      47.097  29.280  27.492  1.00  0.00    -0.354 N 
ATOM     64  N   UNL A   1      46.034  26.560  27.107  1.00  0.00    -0.248 NA
ATOM     65  C   UNL A   1      46.343  24.335  26.466  1.00  0.00     0.031 C 
ATOM     66  C   UNL A   1      49.262  29.623  27.139  1.00  0.00     0.029 A 
ATOM     67  C   UNL A   1      48.271  28.653  27.113  1.00  0.00     0.049 A 
ATOM     68  H   UNL A   1      46.218  28.841  27.559  1.00  0.00     0.167 HD
ATOM     69  C   UNL A   1      47.370  26.365  26.773  1.00  0.00     0.074 A 
ATOM     70  C   UNL A   1      47.508  24.968  26.416  1.00  0.00     0.031 C 
ATOM     71  C   UNL A   1      48.392  27.258  26.765  1.00  0.00     0.037 A 
BRANCH  58  72
ATOM     72  C   UNL A   1      46.746  33.009  28.352  1.00  0.00     0.058 A 
ATOM     73  C   UNL A   1      46.703  33.944  27.304  1.00  0.00     0.135 A 
ATOM     74  C   UNL A   1      47.166  33.463  29.613  1.00  0.00     0.135 A 
ATOM     75  F   UNL A   1      46.327  33.564  26.072  1.00  0.00    -0.206 F 
ATOM     76  C   UNL A   1      47.094  35.267  27.490  1.00  0.00     0.059 A 
ATOM     77  C   UNL A   1      47.529  34.790  29.831  1.00  0.00     0.059 A 
ATOM     78  F   UNL A   1      47.230  32.615  30.651  1.00  0.00    -0.206 F 
ATOM     79  C   UNL A   1      47.504  35.680  28.759  1.00  0.00     0.060 A 
BRANCH  79  80
ATOM     80  S   UNL A   1      48.007  37.399  28.983  1.00  0.00     0.124 S 
ATOM     81  O   UNL A   1      46.771  38.002  29.474  1.00  0.00    -0.237 OA
ATOM     82  O   UNL A   1      49.087  37.282  29.957  1.00  0.00    -0.237 OA
ATOM     83  O   UNL A   1      48.415  37.812  27.643  1.00  0.00    -0.744 OA
ENDBRANCH  79  80
ENDBRANCH  58  72
BRANCH  59  84
ATOM     84  C   UNL A   1      43.535  23.626  26.959  1.00  0.00     0.058 A 
ATOM     85  C   UNL A   1      43.388  22.718  28.017  1.00  0.00     0.135 A 
ATOM     86  C   UNL A   1      43.202  23.184  25.668  1.00  0.00     0.135 A 
ATOM     87  F   UNL A   1      43.703  23.088  29.268  1.00  0.00    -0.206 F 
ATOM     88  C   UNL A   1      42.939  21.418  27.806  1.00  0.00     0.059 A 
ATOM     89  C   UNL A   1      42.724  21.899  25.435  1.00  0.00     0.059 A 
ATOM     90  F   UNL A   1      43.313  24.017  24.622  1.00  0.00    -0.206 F 
ATOM     91  C   UNL A   1      42.602  21.021  26.510  1.00  0.00     0.060 A 
BRANCH  91  92
ATOM     92  S   UNL A   1      41.957  19.353  26.257  1.00  0.00     0.124 S 
ATOM     93  O   UNL A   1      40.528  19.606  26.117  1.00  0.00    -0.237 OA
ATOM     94  O   UNL A   1      42.655  18.938  25.043  1.00  0.00    -0.237 OA
ATOM     95  O   UNL A   1      42.358  18.649  27.473  1.00  0.00    -0.744 OA
ENDBRANCH  91  92
ENDBRANCH  59  84
BRANCH  71  96
ATOM     96  C   UNL A   1      49.761  26.750  26.398  1.00  0.00     0.058 A 
ATOM     97  C   UNL A   1      50.265  26.854  25.092  1.00  0.00     0.135 A 
ATOM     98  C   UNL A   1      50.603  26.205  27.383  1.00  0.00     0.135 A 
ATOM     99  F   UNL A   1      49.503  27.362  24.111  1.00  0.00    -0.206 F 
ATOM    100  C   UNL A   1      51.547  26.416  24.772  1.00  0.00     0.059 A 
ATOM    101  C   UNL A   1      51.898  25.792  27.092  1.00  0.00     0.059 A 
ATOM    102  F   UNL A   1      50.175  26.093  28.652  1.00  0.00    -0.206 F 
ATOM    103  C   UNL A   1      52.357  25.890  25.780  1.00  0.00     0.060 A 
BRANCH 103 104
ATOM    104  S   UNL A   1      54.029  25.358  25.355  1.00  0.00     0.124 S 
ATOM    105  O   UNL A   1      54.816  25.994  26.406  1.00  0.00    -0.237 OA
ATOM    106  O   UNL A   1      53.922  23.906  25.433  1.00  0.00    -0.237 OA
ATOM    107  O   UNL A   1      54.226  25.897  24.012  1.00  0.00    -0.744 OA
ENDBRANCH 103 104
ENDBRANCH  71  96
ENDBRANCH  45  46
ENDBRANCH  38  40
ENDBRANCH  37  38
ENDBRANCH  36  37
ENDBRANCH  35  36
ENDBRANCH   1  35
TORSDOF 22
ENDMDL
MODEL 2
REMARK VINA RESULT:     -11.7      0.999      7.824
REMARK SMILES Cc1cc(C(=O)N[C@@H]2C(=O)N3C(C(=O)OCCOCCOC(=O)c4ccc(-c5c6nc(c(-c7c(F)cc(S(=O)(=O)[O-])cc7F)c7ccc([nH]7)c(-c7c(F)cc(S(=O)(=O)[O-])cc7F)c7nc(c(-c8c(F)cc(S(=O)(=O)[O-])cc8F)c8ccc5[nH]8)C=C7)C=C6)cc4)=C(CSc4nnc(C)s4)CS[C@H]23)n(C)n1
REMARK SMILES IDX 18 1 17 2 16 3 15 4 13 5 14 6 12 7 8 8 9 9 101 10 10 11
REMARK SMILES IDX 11 12 100 13 99 14 90 15 7 16 5 17 6 18 4 20 1 21 2 22 3 23
REMARK SMILES IDX 104 24 102 25 103 26 91 27 92 28 93 29 94 30 98 31 95 32
REMARK SMILES IDX 96 33 97 34 19 35 20 36 21 37 22 38 23 39 24 40 25 41 89 42
REMARK SMILES IDX 26 43 88 44 27 45 28 46 29 47 82 48 30 49 87 50 81 51 83 52
REMARK SMILES IDX 31 53 86 54 80 55 79 56 32 58 66 59 45 60 65 61 46 62 49 63
REMARK SMILES IDX 64 64 84 65 47 66 48 67 63 69 85 70 50 71 33 72 34 73 43 74
REMARK SMILES IDX 35 75 36 76 42 77 44 78 37 79 38 80 39 81 40 82 41 83 67 84
REMARK SMILES IDX 68 85 77 86 69 87 70 88 76 89 78 90 71 91 72 92 73 93 74 94
REMARK SMILES IDX 75 95 51 96 52 97 61 98 53 99 54 100 60 101 62 102 55 103
REMARK SMILES IDX 56 104 57 105 58 106 59 107
REMARK H PARENT 7 19 83 57 49 68
REMARK Flexibility Score: inf
ROOT
ATOM      1  O   UNL A   1      34.676  31.374  27.530  1.00  0.00    -0.374 OA
ENDROOT
BRANCH   1   2
ATOM      2  C   UNL A   1      34.480  29.966  27.648  1.00  0.00     0.202 C 
BRANCH   2   3
ATOM      3  C   UNL A   1      33.122  29.401  27.234  1.00  0.00     0.261 C 
BRANCH   3   4
ATOM      4  O   UNL A   1      33.226  27.989  26.977  1.00  0.00    -0.459 OA
BRANCH   4   5
ATOM      5  C   UNL A   1      32.056  27.371  26.727  1.00  0.00     0.355 C 
ATOM      6  O   UNL A   1      31.035  27.467  27.402  1.00  0.00    -0.244 OA
BRANCH   5   7
ATOM      7  C   UNL A   1      32.074  26.537  25.482  1.00  0.00     0.132 C 
ATOM      8  C   UNL A   1      33.686  23.545  25.734  1.00  0.00     0.206 C 
ATOM      9  C   UNL A   1      32.571  24.282  26.537  1.00  0.00     0.253 C 
ATOM     10  C   UNL A   1      33.458  24.675  24.684  1.00  0.00     0.181 C 
ATOM     11  O   UNL A   1      31.897  24.060  27.512  1.00  0.00    -0.272 OA
ATOM     12  N   UNL A   1      32.637  25.313  25.664  1.00  0.00    -0.289 N 
ATOM     13  S   UNL A   1      32.387  24.359  23.267  1.00  0.00    -0.129 SA
ATOM     14  C   UNL A   1      32.138  26.132  22.978  1.00  0.00     0.106 C 
ATOM     15  C   UNL A   1      31.758  26.942  24.223  1.00  0.00    -0.019 C 
BRANCH   8  16
ATOM     16  N   UNL A   1      33.526  22.139  25.298  1.00  0.00    -0.336 N 
ATOM     17  C   UNL A   1      34.529  21.245  24.956  1.00  0.00     0.270 C 
ATOM     18  O   UNL A   1      34.197  20.107  24.631  1.00  0.00    -0.268 OA
ATOM     19  H   UNL A   1      32.603  21.800  25.243  1.00  0.00     0.164 HD
BRANCH  17  20
ATOM     20  C   UNL A   1      35.902  21.715  24.931  1.00  0.00     0.126 A 
ATOM     21  C   UNL A   1      38.900  23.046  26.518  1.00  0.00     0.069 C 
ATOM     22  C   UNL A   1      37.844  22.561  25.595  1.00  0.00     0.060 A 
ATOM     23  C   UNL A   1      36.978  21.461  25.772  1.00  0.00     0.059 A 
ATOM     24  N   UNL A   1      37.544  23.228  24.482  1.00  0.00    -0.178 NA
ATOM     25  N   UNL A   1      36.423  22.618  24.029  1.00  0.00    -0.263 N 
ATOM     26  C   UNL A   1      35.935  23.003  22.728  1.00  0.00     0.174 C 
ENDBRANCH  17  20
ENDBRANCH   8  16
BRANCH  15  27
ATOM     27  C   UNL A   1      31.103  28.248  23.849  1.00  0.00     0.111 C 
BRANCH  27  28
ATOM     28  S   UNL A   1      29.442  28.146  23.137  1.00  0.00    -0.089 SA
BRANCH  28  29
ATOM     29  C   UNL A   1      28.855  29.764  22.843  1.00  0.00     0.174 A 
ATOM     30  N   UNL A   1      29.095  30.802  23.607  1.00  0.00    -0.132 NA
ATOM     31  S   UNL A   1      27.985  30.178  21.420  1.00  0.00    -0.091 S 
ATOM     32  N   UNL A   1      28.728  32.001  23.026  1.00  0.00    -0.143 NA
ATOM     33  C   UNL A   1      28.231  31.823  21.822  1.00  0.00     0.115 A 
ATOM     34  C   UNL A   1      27.934  32.902  20.847  1.00  0.00     0.081 C 
ENDBRANCH  28  29
ENDBRANCH  27  28
ENDBRANCH  15  27
ENDBRANCH   5   7
ENDBRANCH   4   5
ENDBRANCH   3   4
ENDBRANCH   2   3
ENDBRANCH   1   2
BRANCH   1  35
ATOM     35  C   UNL A   1      34.474  32.183  28.686  1.00  0.00     0.202 C 
BRANCH  35  36
ATOM     36  C   UNL A   1      35.025  31.690  30.032  1.00  0.00     0.261 C 
BRANCH  36  37
ATOM     37  O   UNL A   1      36.452  31.568  30.074  1.00  0.00    -0.460 OA
BRANCH  37  38
ATOM     38  C   UNL A   1      36.908  30.312  30.320  1.00  0.00     0.338 C 
ATOM     39  O   UNL A   1      36.277  29.362  30.746  1.00  0.00    -0.246 OA
BRANCH  38  40
ATOM     40  C   UNL A   1      38.300  30.210  29.842  1.00  0.00     0.060 A 
ATOM     41  C   UNL A   1      38.541  29.985  28.483  1.00  0.00     0.016 A 
ATOM     42  C   UNL A   1      39.358  30.292  30.741  1.00  0.00     0.016 A 
ATOM     43  C   UNL A   1      39.850  29.820  28.031  1.00  0.00     0.010 A 
ATOM     44  C   UNL A   1      40.670  30.184  30.283  1.00  0.00     0.010 A 
ATOM     45  C   UNL A   1      40.922  29.894  28.932  1.00  0.00    -0.014 A 
BRANCH  45  46
ATOM     46  C   UNL A   1      42.290  29.493  28.513  1.00  0.00     0.031 A 
ATOM     47  C   UNL A   1      42.535  28.061  28.110  1.00  0.00     0.074 A 
ATOM     48  C   UNL A   1      43.297  30.386  28.492  1.00  0.00     0.049 A 
ATOM     49  N   UNL A   1      43.653  27.473  27.770  1.00  0.00    -0.248 NA
ATOM     50  C   UNL A   1      41.365  27.165  28.114  1.00  0.00     0.031 C 
ATOM     51  C   UNL A   1      43.183  31.799  28.855  1.00  0.00     0.029 A 
ATOM     52  N   UNL A   1      44.618  30.233  28.154  1.00  0.00    -0.354 N 
ATOM     53  C   UNL A   1      43.323  26.141  27.539  1.00  0.00     0.074 A 
ATOM     54  C   UNL A   1      41.916  25.995  27.832  1.00  0.00     0.031 C 
ATOM     55  C   UNL A   1      44.385  32.385  28.714  1.00  0.00     0.029 A 
ATOM     56  C   UNL A   1      45.360  31.382  28.290  1.00  0.00     0.049 A 
ATOM     57  H   UNL A   1      44.999  29.379  27.846  1.00  0.00     0.167 HD
ATOM     58  C   UNL A   1      44.116  25.136  27.099  1.00  0.00     0.037 A 
ATOM     59  C   UNL A   1      46.679  31.595  28.106  1.00  0.00     0.037 A 
ATOM     60  C   UNL A   1      45.512  25.296  26.787  1.00  0.00     0.049 A 
ATOM     61  C   UNL A   1      47.552  30.453  27.654  1.00  0.00     0.074 A 
ATOM     62  C   UNL A   1      46.396  24.354  26.294  1.00  0.00     0.029 A 
ATOM     63  N   UNL A   1      46.227  26.474  26.943  1.00  0.00    -0.354 N 
ATOM     64  N   UNL A   1      47.218  29.210  27.400  1.00  0.00    -0.248 NA
ATOM     65  C   UNL A   1      48.979  30.744  27.459  1.00  0.00     0.031 C 
ATOM     66  C   UNL A   1      47.660  24.945  26.209  1.00  0.00     0.029 A 
ATOM     67  C   UNL A   1      47.549  26.276  26.583  1.00  0.00     0.049 A 
ATOM     68  H   UNL A   1      45.850  27.327  27.261  1.00  0.00     0.167 HD
ATOM     69  C   UNL A   1      48.387  28.578  26.985  1.00  0.00     0.074 A 
ATOM     70  C   UNL A   1      49.432  29.580  27.012  1.00  0.00     0.031 C 
ATOM     71  C   UNL A   1      48.577  27.287  26.612  1.00  0.00     0.037 A 
BRANCH  58  72
ATOM     72  C   UNL A   1      43.494  23.772  26.942  1.00  0.00     0.058 A 
ATOM     73  C   UNL A   1      43.292  22.916  28.036  1.00  0.00     0.135 A 
ATOM     74  C   UNL A   1      43.073  23.325  25.678  1.00  0.00     0.135 A 
ATOM     75  F   UNL A   1      43.691  23.282  29.265  1.00  0.00    -0.206 F 
ATOM     76  C   UNL A   1      42.727  21.653  27.880  1.00  0.00     0.059 A 
ATOM     77  C   UNL A   1      42.475  22.080  25.503  1.00  0.00     0.059 A 
ATOM     78  F   UNL A   1      43.244  24.100  24.595  1.00  0.00    -0.206 F 
ATOM     79  C   UNL A   1      42.321  21.245  26.608  1.00  0.00     0.060 A 
BRANCH  79  80
ATOM     80  S   UNL A   1      41.590  19.606  26.424  1.00  0.00     0.124 S 
ATOM     81  O   UNL A   1      42.348  19.074  25.295  1.00  0.00    -0.237 OA
ATOM     82  O   UNL A   1      41.870  18.993  27.719  1.00  0.00    -0.237 OA
ATOM     83  O   UNL A   1      40.183  19.888  26.156  1.00  0.00    -0.744 OA
ENDBRANCH  79  80
ENDBRANCH  58  72
BRANCH  59  84
ATOM     84  C   UNL A   1      47.251  32.949  28.342  1.00  0.00     0.058 A 
ATOM     85  C   UNL A   1      47.721  33.326  29.608  1.00  0.00     0.135 A 
ATOM     86  C   UNL A   1      47.353  33.888  27.302  1.00  0.00     0.135 A 
ATOM     87  F   UNL A   1      47.637  32.469  30.638  1.00  0.00    -0.206 F 
ATOM     88  C   UNL A   1      48.263  34.587  29.840  1.00  0.00     0.059 A 
ATOM     89  C   UNL A   1      47.916  35.144  27.503  1.00  0.00     0.059 A 
ATOM     90  F   UNL A   1      46.929  33.575  26.068  1.00  0.00    -0.206 F 
ATOM     91  C   UNL A   1      48.362  35.486  28.777  1.00  0.00     0.060 A 
BRANCH  91  92
ATOM     92  S   UNL A   1      49.127  37.096  29.075  1.00  0.00     0.124 S 
ATOM     93  O   UNL A   1      50.510  36.720  29.345  1.00  0.00    -0.237 OA
ATOM     94  O   UNL A   1      48.888  37.784  27.810  1.00  0.00    -0.237 OA
ATOM     95  O   UNL A   1      48.379  37.617  30.215  1.00  0.00    -0.744 OA
ENDBRANCH  91  92
ENDBRANCH  59  84
BRANCH  71  96
ATOM     96  C   UNL A   1      49.958  26.888  26.162  1.00  0.00     0.058 A 
ATOM     97  C   UNL A   1      50.370  27.018  24.826  1.00  0.00     0.135 A 
ATOM     98  C   UNL A   1      50.901  26.424  27.095  1.00  0.00     0.135 A 
ATOM     99  F   UNL A   1      49.508  27.451  23.892  1.00  0.00    -0.206 F 
ATOM    100  C   UNL A   1      51.660  26.681  24.428  1.00  0.00     0.059 A 
ATOM    101  C   UNL A   1      52.205  26.114  26.725  1.00  0.00     0.059 A 
ATOM    102  F   UNL A   1      50.564  26.292  28.389  1.00  0.00    -0.206 F 
ATOM    103  C   UNL A   1      52.572  26.234  25.387  1.00  0.00     0.060 A 
BRANCH 103 104
ATOM    104  S   UNL A   1      54.252  25.835  24.860  1.00  0.00     0.124 S 
ATOM    105  O   UNL A   1      54.251  26.317  23.483  1.00  0.00    -0.237 OA
ATOM    106  O   UNL A   1      55.062  26.603  25.800  1.00  0.00    -0.237 OA
ATOM    107  O   UNL A   1      54.322  24.385  25.017  1.00  0.00    -0.744 OA
ENDBRANCH 103 104
ENDBRANCH  71  96
ENDBRANCH  45  46
ENDBRANCH  38  40
ENDBRANCH  37  38
ENDBRANCH  36  37
ENDBRANCH  35  36
ENDBRANCH   1  35
TORSDOF 22
ENDMDL
MODEL 3
REMARK VINA RESULT:      -9.8      6.101     13.117
REMARK SMILES Cc1cc(C(=O)N[C@@H]2C(=O)N3C(C(=O)OCCOCCOC(=O)c4ccc(-c5c6nc(c(-c7c(F)cc(S(=O)(=O)[O-])cc7F)c7ccc([nH]7)c(-c7c(F)cc(S(=O)(=O)[O-])cc7F)c7nc(c(-c8c(F)cc(S(=O)(=O)[O-])cc8F)c8ccc5[nH]8)C=C7)C=C6)cc4)=C(CSc4nnc(C)s4)CS[C@H]23)n(C)n1
REMARK SMILES IDX 18 1 17 2 16 3 15 4 13 5 14 6 12 7 8 8 9 9 101 10 10 11
REMARK SMILES IDX 11 12 100 13 99 14 90 15 7 16 5 17 6 18 4 20 1 21 2 22 3 23
REMARK SMILES IDX 104 24 102 25 103 26 91 27 92 28 93 29 94 30 98 31 95 32
REMARK SMILES IDX 96 33 97 34 19 35 20 36 21 37 22 38 23 39 24 40 25 41 89 42
REMARK SMILES IDX 26 43 88 44 27 45 28 46 29 47 82 48 30 49 87 50 81 51 83 52
REMARK SMILES IDX 31 53 86 54 80 55 79 56 32 58 66 59 45 60 65 61 46 62 49 63
REMARK SMILES IDX 64 64 84 65 47 66 48 67 63 69 85 70 50 71 33 72 34 73 43 74
REMARK SMILES IDX 35 75 36 76 42 77 44 78 37 79 38 80 39 81 40 82 41 83 67 84
REMARK SMILES IDX 68 85 77 86 69 87 70 88 76 89 78 90 71 91 72 92 73 93 74 94
REMARK SMILES IDX 75 95 51 96 52 97 61 98 53 99 54 100 60 101 62 102 55 103
REMARK SMILES IDX 56 104 57 105 58 106 59 107
REMARK H PARENT 7 19 83 57 49 68
REMARK Flexibility Score: inf
ROOT
ATOM      1  O   UNL A   1      44.038  25.452  33.130  1.00  0.00    -0.374 OA
ENDROOT
BRANCH   1   2
ATOM      2  C   UNL A   1      44.234  25.785  31.757  1.00  0.00     0.202 C 
BRANCH   2   3
ATOM      3  C   UNL A   1      44.754  24.690  30.827  1.00  0.00     0.261 C 
BRANCH   3   4
ATOM      4  O   UNL A   1      43.724  24.284  29.908  1.00  0.00    -0.459 OA
BRANCH   4   5
ATOM      5  C   UNL A   1      43.671  24.996  28.766  1.00  0.00     0.355 C 
ATOM      6  O   UNL A   1      44.596  25.635  28.274  1.00  0.00    -0.244 OA
BRANCH   5   7
ATOM      7  C   UNL A   1      42.339  24.928  28.080  1.00  0.00     0.132 C 
ATOM      8  C   UNL A   1      39.968  27.082  29.242  1.00  0.00     0.206 C 
ATOM      9  C   UNL A   1      41.442  27.206  28.751  1.00  0.00     0.253 C 
ATOM     10  C   UNL A   1      40.065  25.634  28.672  1.00  0.00     0.181 C 
ATOM     11  O   UNL A   1      42.251  28.089  28.611  1.00  0.00    -0.272 OA
ATOM     12  N   UNL A   1      41.464  25.875  28.510  1.00  0.00    -0.289 N 
ATOM     13  S   UNL A   1      39.425  25.291  27.021  1.00  0.00    -0.129 SA
ATOM     14  C   UNL A   1      40.421  23.783  26.877  1.00  0.00     0.106 C 
ATOM     15  C   UNL A   1      41.900  23.948  27.247  1.00  0.00    -0.019 C 
BRANCH   8  16
ATOM     16  N   UNL A   1      38.902  27.970  28.723  1.00  0.00    -0.336 N 
ATOM     17  C   UNL A   1      38.397  29.115  29.321  1.00  0.00     0.270 C 
ATOM     18  O   UNL A   1      37.517  29.732  28.724  1.00  0.00    -0.268 OA
ATOM     19  H   UNL A   1      38.507  27.720  27.857  1.00  0.00     0.164 HD
BRANCH  17  20
ATOM     20  C   UNL A   1      38.877  29.482  30.641  1.00  0.00     0.126 A 
ATOM     21  C   UNL A   1      38.373  30.473  34.111  1.00  0.00     0.069 C 
ATOM     22  C   UNL A   1      38.892  30.133  32.763  1.00  0.00     0.060 A 
ATOM     23  C   UNL A   1      38.471  29.091  31.910  1.00  0.00     0.059 A 
ATOM     24  N   UNL A   1      39.805  30.896  32.164  1.00  0.00    -0.178 NA
ATOM     25  N   UNL A   1      39.866  30.404  30.905  1.00  0.00    -0.263 N 
ATOM     26  C   UNL A   1      40.902  30.914  30.040  1.00  0.00     0.174 C 
ENDBRANCH  17  20
ENDBRANCH   8  16
BRANCH  15  27
ATOM     27  C   UNL A   1      42.740  22.843  26.654  1.00  0.00     0.111 C 
BRANCH  27  28
ATOM     28  S   UNL A   1      42.164  21.150  26.933  1.00  0.00    -0.089 SA
BRANCH  28  29
ATOM     29  C   UNL A   1      43.108  20.064  25.944  1.00  0.00     0.174 A 
ATOM     30  N   UNL A   1      42.807  18.809  25.707  1.00  0.00    -0.132 NA
ATOM     31  S   UNL A   1      44.490  20.589  25.068  1.00  0.00    -0.091 S 
ATOM     32  N   UNL A   1      43.574  18.247  24.704  1.00  0.00    -0.143 NA
ATOM     33  C   UNL A   1      44.427  19.114  24.203  1.00  0.00     0.115 A 
ATOM     34  C   UNL A   1      45.248  18.905  22.984  1.00  0.00     0.081 C 
ENDBRANCH  28  29
ENDBRANCH  27  28
ENDBRANCH  15  27
ENDBRANCH   5   7
ENDBRANCH   4   5
ENDBRANCH   3   4
ENDBRANCH   2   3
ENDBRANCH   1   2
BRANCH   1  35
ATOM     35  C   UNL A   1      44.157  24.085  33.515  1.00  0.00     0.202 C 
BRANCH  35  36
ATOM     36  C   UNL A   1      43.267  23.562  34.652  1.00  0.00     0.261 C 
BRANCH  36  37
ATOM     37  O   UNL A   1      43.228  24.411  35.806  1.00  0.00    -0.460 OA
BRANCH  37  38
ATOM     38  C   UNL A   1      42.030  25.012  36.029  1.00  0.00     0.338 C 
ATOM     39  O   UNL A   1      41.042  24.530  36.551  1.00  0.00    -0.246 OA
BRANCH  38  40
ATOM     40  C   UNL A   1      42.140  26.437  35.667  1.00  0.00     0.060 A 
ATOM     41  C   UNL A   1      41.240  26.980  34.745  1.00  0.00     0.016 A 
ATOM     42  C   UNL A   1      43.157  27.222  36.202  1.00  0.00     0.016 A 
ATOM     43  C   UNL A   1      41.375  28.310  34.345  1.00  0.00     0.010 A 
ATOM     44  C   UNL A   1      43.261  28.565  35.847  1.00  0.00     0.010 A 
ATOM     45  C   UNL A   1      42.402  29.104  34.874  1.00  0.00    -0.014 A 
BRANCH  45  46
ATOM     46  C   UNL A   1      42.703  30.437  34.293  1.00  0.00     0.031 A 
ATOM     47  C   UNL A   1      43.377  30.505  32.945  1.00  0.00     0.074 A 
ATOM     48  C   UNL A   1      42.383  31.567  34.949  1.00  0.00     0.049 A 
ATOM     49  N   UNL A   1      43.789  31.549  32.274  1.00  0.00    -0.248 NA
ATOM     50  C   UNL A   1      43.643  29.220  32.275  1.00  0.00     0.031 C 
ATOM     51  C   UNL A   1      41.726  31.630  36.255  1.00  0.00     0.029 A 
ATOM     52  N   UNL A   1      42.574  32.882  34.607  1.00  0.00    -0.354 N 
ATOM     53  C   UNL A   1      44.376  31.046  31.118  1.00  0.00     0.074 A 
ATOM     54  C   UNL A   1      44.319  29.606  31.204  1.00  0.00     0.031 C 
ATOM     55  C   UNL A   1      41.563  32.919  36.601  1.00  0.00     0.029 A 
ATOM     56  C   UNL A   1      42.138  33.771  35.562  1.00  0.00     0.049 A 
ATOM     57  H   UNL A   1      42.986  33.163  33.759  1.00  0.00     0.167 HD
ATOM     58  C   UNL A   1      44.894  31.724  30.066  1.00  0.00     0.037 A 
ATOM     59  C   UNL A   1      42.210  35.117  35.597  1.00  0.00     0.037 A 
ATOM     60  C   UNL A   1      44.925  33.161  29.978  1.00  0.00     0.049 A 
ATOM     61  C   UNL A   1      42.827  35.851  34.435  1.00  0.00     0.074 A 
ATOM     62  C   UNL A   1      45.389  33.948  28.940  1.00  0.00     0.029 A 
ATOM     63  N   UNL A   1      44.480  34.024  30.968  1.00  0.00    -0.354 N 
ATOM     64  N   UNL A   1      43.341  35.364  33.330  1.00  0.00    -0.248 NA
ATOM     65  C   UNL A   1      42.869  37.317  34.522  1.00  0.00     0.031 C 
ATOM     66  C   UNL A   1      45.280  35.287  29.326  1.00  0.00     0.029 A 
ATOM     67  C   UNL A   1      44.684  35.336  30.577  1.00  0.00     0.049 A 
ATOM     68  H   UNL A   1      44.076  33.745  31.821  1.00  0.00     0.167 HD
ATOM     69  C   UNL A   1      43.738  36.464  32.576  1.00  0.00     0.074 A 
ATOM     70  C   UNL A   1      43.395  37.641  33.347  1.00  0.00     0.031 C 
ATOM     71  C   UNL A   1      44.331  36.498  31.356  1.00  0.00     0.037 A 
BRANCH  58  72
ATOM     72  C   UNL A   1      45.480  30.920  28.935  1.00  0.00     0.058 A 
ATOM     73  C   UNL A   1      46.816  30.484  28.946  1.00  0.00     0.135 A 
ATOM     74  C   UNL A   1      44.686  30.559  27.834  1.00  0.00     0.135 A 
ATOM     75  F   UNL A   1      47.628  30.812  29.964  1.00  0.00    -0.206 F 
ATOM     76  C   UNL A   1      47.352  29.750  27.891  1.00  0.00     0.059 A 
ATOM     77  C   UNL A   1      45.192  29.798  26.784  1.00  0.00     0.059 A 
ATOM     78  F   UNL A   1      43.404  30.951  27.767  1.00  0.00    -0.206 F 
ATOM     79  C   UNL A   1      46.531  29.412  26.815  1.00  0.00     0.060 A 
BRANCH  79  80
ATOM     80  S   UNL A   1      47.242  28.460  25.457  1.00  0.00     0.124 S 
ATOM     81  O   UNL A   1      48.671  28.659  25.679  1.00  0.00    -0.237 OA
ATOM     82  O   UNL A   1      46.740  27.116  25.723  1.00  0.00    -0.237 OA
ATOM     83  O   UNL A   1      46.698  29.106  24.266  1.00  0.00    -0.744 OA
ENDBRANCH  79  80
ENDBRANCH  58  72
BRANCH  59  84
ATOM     84  C   UNL A   1      41.675  35.857  36.773  1.00  0.00     0.058 A 
ATOM     85  C   UNL A   1      40.304  36.119  36.902  1.00  0.00     0.135 A 
ATOM     86  C   UNL A   1      42.524  36.302  37.800  1.00  0.00     0.135 A 
ATOM     87  F   UNL A   1      39.452  35.723  35.943  1.00  0.00    -0.206 F 
ATOM     88  C   UNL A   1      39.792  36.805  37.999  1.00  0.00     0.059 A 
ATOM     89  C   UNL A   1      42.032  36.965  38.920  1.00  0.00     0.059 A 
ATOM     90  F   UNL A   1      43.843  36.067  37.733  1.00  0.00    -0.206 F 
ATOM     91  C   UNL A   1      40.665  37.218  39.007  1.00  0.00     0.060 A 
BRANCH  91  92
ATOM     92  S   UNL A   1      39.981  38.049  40.457  1.00  0.00     0.124 S 
ATOM     93  O   UNL A   1      40.582  37.287  41.546  1.00  0.00    -0.237 OA
ATOM     94  O   UNL A   1      40.473  39.414  40.285  1.00  0.00    -0.237 OA
ATOM     95  O   UNL A   1      38.540  37.885  40.291  1.00  0.00    -0.744 OA
ENDBRANCH  91  92
ENDBRANCH  59  84
BRANCH  71  96
ATOM     96  C   UNL A   1      44.611  37.850  30.754  1.00  0.00     0.058 A 
ATOM     97  C   UNL A   1      43.748  38.438  29.816  1.00  0.00     0.135 A 
ATOM     98  C   UNL A   1      45.730  38.592  31.169  1.00  0.00     0.135 A 
ATOM     99  F   UNL A   1      42.667  37.771  29.381  1.00  0.00    -0.206 F 
ATOM    100  C   UNL A   1      43.997  39.704  29.294  1.00  0.00     0.059 A 
ATOM    101  C   UNL A   1      45.979  39.872  30.685  1.00  0.00     0.059 A 
ATOM    102  F   UNL A   1      46.582  38.082  32.073  1.00  0.00    -0.206 F 
ATOM    103  C   UNL A   1      45.113  40.415  29.739  1.00  0.00     0.060 A 
BRANCH 103 104
ATOM    104  S   UNL A   1      45.402  42.070  29.079  1.00  0.00     0.124 S 
ATOM    105  O   UNL A   1      45.676  41.782  27.675  1.00  0.00    -0.237 OA
ATOM    106  O   UNL A   1      44.135  42.739  29.353  1.00  0.00    -0.237 OA
ATOM    107  O   UNL A   1      46.541  42.552  29.855  1.00  0.00    -0.744 OA
ENDBRANCH 103 104
ENDBRANCH  71  96
ENDBRANCH  45  46
ENDBRANCH  38  40
ENDBRANCH  37  38
ENDBRANCH  36  37
ENDBRANCH  35  36
ENDBRANCH   1  35
TORSDOF 22
ENDMDL
