MODEL 1
REMARK VINA RESULT:     -10.2      0.000      0.000
REMARK SMILES C[C@@H]1[C@@H](C(=O)OCCOCCOC(=O)c2ccc(-c3c4nc(c(-c5c(F)cc(S(=O)(=O)[O-])cc5F)c5ccc([nH]5)c(-c5c(F)cc(S(=O)(=O)[O-])cc5F)c5nc(c(-c6c(F)cc(S(=O)(=O)[O-])cc6F)c6ccc3[nH]6)C=C5)C=C4)cc2)CCN1C(=O)N(C)Cc1ccsc1
REMARK SMILES IDX 8 1 7 2 6 3 4 4 5 5 3 6 1 7 2 8 83 9 81 10 82 11 84 12 85 13
REMARK SMILES IDX 86 14 87 15 88 16 89 17 90 18 93 19 91 20 92 21 9 22 10 23
REMARK SMILES IDX 11 24 12 25 13 26 14 27 15 28 16 29 80 30 17 31 79 32 18 33
REMARK SMILES IDX 19 34 20 35 73 36 21 37 78 38 72 39 74 40 22 41 77 42 71 43
REMARK SMILES IDX 70 44 23 46 57 47 36 48 56 49 37 50 40 51 55 52 75 53 38 54
REMARK SMILES IDX 39 55 54 57 76 58 41 59 24 60 25 61 34 62 26 63 27 64 33 65
REMARK SMILES IDX 35 66 28 67 29 68 30 69 31 70 32 71 58 72 59 73 68 74 60 75
REMARK SMILES IDX 61 76 67 77 69 78 62 79 63 80 64 81 65 82 66 83 42 84 43 85
REMARK SMILES IDX 52 86 44 87 45 88 51 89 53 90 46 91 47 92 48 93 49 94 50 95
REMARK H PARENT 74 45 40 56
REMARK Flexibility Score: inf
ROOT
ATOM      1  C   UNL A   1      33.653  30.143  26.961  1.00  0.00     0.202 C 
ENDROOT
BRANCH   1   2
ATOM      2  C   UNL A   1      33.634  28.687  27.442  1.00  0.00     0.261 C 
BRANCH   2   3
ATOM      3  O   UNL A   1      33.344  27.757  26.391  1.00  0.00    -0.463 OA
BRANCH   3   4
ATOM      4  C   UNL A   1      32.011  27.543  26.209  1.00  0.00     0.311 C 
ATOM      5  O   UNL A   1      31.255  27.103  27.065  1.00  0.00    -0.252 OA
BRANCH   4   6
ATOM      6  C   UNL A   1      31.573  28.044  24.840  1.00  0.00     0.123 C 
ATOM      7  C   UNL A   1      29.673  27.715  23.188  1.00  0.00     0.032 C 
ATOM      8  C   UNL A   1      30.528  27.066  24.283  1.00  0.00     0.098 C 
ATOM      9  N   UNL A   1      31.356  25.986  23.747  1.00  0.00    -0.321 N 
ATOM     10  C   UNL A   1      32.700  27.964  23.823  1.00  0.00     0.039 C 
ATOM     11  C   UNL A   1      32.700  26.492  23.446  1.00  0.00     0.122 C 
BRANCH   9  12
ATOM     12  C   UNL A   1      31.220  24.624  23.796  1.00  0.00     0.320 C 
ATOM     13  O   UNL A   1      30.282  24.114  23.166  1.00  0.00    -0.248 OA
BRANCH  12  14
ATOM     14  N   UNL A   1      32.050  23.814  24.540  1.00  0.00    -0.323 N 
ATOM     15  C   UNL A   1      32.479  23.889  25.926  1.00  0.00     0.149 C 
BRANCH  14  16
ATOM     16  C   UNL A   1      32.602  22.671  23.814  1.00  0.00     0.157 C 
BRANCH  16  17
ATOM     17  C   UNL A   1      34.082  22.511  24.082  1.00  0.00    -0.018 A 
ATOM     18  C   UNL A   1      35.084  23.350  23.486  1.00  0.00     0.017 A 
ATOM     19  C   UNL A   1      34.684  21.534  24.860  1.00  0.00     0.070 A 
ATOM     20  C   UNL A   1      36.366  22.964  23.806  1.00  0.00     0.065 A 
ATOM     21  S   UNL A   1      36.389  21.613  24.848  1.00  0.00    -0.152 S 
ENDBRANCH  16  17
ENDBRANCH  14  16
ENDBRANCH  12  14
ENDBRANCH   9  12
ENDBRANCH   4   6
ENDBRANCH   3   4
ENDBRANCH   2   3
ENDBRANCH   1   2
BRANCH   1  22
ATOM     22  O   UNL A   1      34.652  31.016  27.481  1.00  0.00    -0.374 OA
BRANCH  22  23
ATOM     23  C   UNL A   1      34.246  32.234  28.102  1.00  0.00     0.202 C 
BRANCH  23  24
ATOM     24  C   UNL A   1      34.831  32.592  29.474  1.00  0.00     0.261 C 
BRANCH  24  25
ATOM     25  O   UNL A   1      36.235  32.300  29.568  1.00  0.00    -0.460 OA
BRANCH  25  26
ATOM     26  C   UNL A   1      36.550  31.345  30.475  1.00  0.00     0.338 C 
ATOM     27  O   UNL A   1      35.900  31.026  31.465  1.00  0.00    -0.246 OA
BRANCH  26  28
ATOM     28  C   UNL A   1      37.712  30.568  30.016  1.00  0.00     0.060 A 
ATOM     29  C   UNL A   1      38.649  30.173  30.981  1.00  0.00     0.016 A 
ATOM     30  C   UNL A   1      37.931  30.310  28.663  1.00  0.00     0.016 A 
ATOM     31  C   UNL A   1      39.836  29.561  30.590  1.00  0.00     0.010 A 
ATOM     32  C   UNL A   1      39.131  29.708  28.270  1.00  0.00     0.010 A 
ATOM     33  C   UNL A   1      40.102  29.367  29.229  1.00  0.00    -0.014 A 
BRANCH  33  34
ATOM     34  C   UNL A   1      41.463  28.954  28.809  1.00  0.00     0.031 A 
ATOM     35  C   UNL A   1      42.559  29.984  28.791  1.00  0.00     0.074 A 
ATOM     36  C   UNL A   1      41.722  27.675  28.485  1.00  0.00     0.049 A 
ATOM     37  N   UNL A   1      43.811  29.854  28.440  1.00  0.00    -0.248 NA
ATOM     38  C   UNL A   1      42.194  31.341  29.231  1.00  0.00     0.031 C 
ATOM     39  C   UNL A   1      40.749  26.584  28.504  1.00  0.00     0.029 A 
ATOM     40  N   UNL A   1      42.887  27.081  28.072  1.00  0.00    -0.354 N 
ATOM     41  C   UNL A   1      44.383  31.110  28.609  1.00  0.00     0.074 A 
ATOM     42  C   UNL A   1      43.335  31.995  29.069  1.00  0.00     0.031 C 
ATOM     43  C   UNL A   1      41.356  25.453  28.108  1.00  0.00     0.029 A 
ATOM     44  C   UNL A   1      42.750  25.745  27.780  1.00  0.00     0.049 A 
ATOM     45  H   UNL A   1      43.741  27.565  27.991  1.00  0.00     0.167 HD
ATOM     46  C   UNL A   1      45.669  31.488  28.408  1.00  0.00     0.037 A 
ATOM     47  C   UNL A   1      43.644  24.865  27.288  1.00  0.00     0.037 A 
ATOM     48  C   UNL A   1      46.706  30.601  27.952  1.00  0.00     0.049 A 
ATOM     49  C   UNL A   1      45.053  25.324  27.012  1.00  0.00     0.074 A 
ATOM     50  C   UNL A   1      48.043  30.882  27.731  1.00  0.00     0.029 A 
ATOM     51  N   UNL A   1      46.524  29.261  27.642  1.00  0.00    -0.354 N 
ATOM     52  N   UNL A   1      45.585  26.509  27.194  1.00  0.00    -0.248 NA
ATOM     53  C   UNL A   1      45.984  24.324  26.470  1.00  0.00     0.031 C 
ATOM     54  C   UNL A   1      48.659  29.723  27.245  1.00  0.00     0.029 A 
ATOM     55  C   UNL A   1      47.717  28.707  27.210  1.00  0.00     0.049 A 
ATOM     56  H   UNL A   1      45.671  28.775  27.719  1.00  0.00     0.167 HD
ATOM     57  C   UNL A   1      46.918  26.391  26.814  1.00  0.00     0.074 A 
ATOM     58  C   UNL A   1      47.113  25.016  26.401  1.00  0.00     0.031 C 
ATOM     59  C   UNL A   1      47.894  27.334  26.809  1.00  0.00     0.037 A 
BRANCH  46  60
ATOM     60  C   UNL A   1      46.016  32.928  28.657  1.00  0.00     0.058 A 
ATOM     61  C   UNL A   1      45.903  33.901  27.651  1.00  0.00     0.135 A 
ATOM     62  C   UNL A   1      46.443  33.347  29.927  1.00  0.00     0.135 A 
ATOM     63  F   UNL A   1      45.519  33.551  26.412  1.00  0.00    -0.206 F 
ATOM     64  C   UNL A   1      46.223  35.233  27.889  1.00  0.00     0.059 A 
ATOM     65  C   UNL A   1      46.745  34.679  30.195  1.00  0.00     0.059 A 
ATOM     66  F   UNL A   1      46.572  32.458  30.924  1.00  0.00    -0.206 F 
ATOM     67  C   UNL A   1      46.645  35.613  29.164  1.00  0.00     0.060 A 
BRANCH  67  68
ATOM     68  S   UNL A   1      47.055  37.346  29.459  1.00  0.00     0.124 S 
ATOM     69  O   UNL A   1      47.693  37.274  30.770  1.00  0.00    -0.237 OA
ATOM     70  O   UNL A   1      47.939  37.654  28.340  1.00  0.00    -0.237 OA
ATOM     71  O   UNL A   1      45.757  38.012  29.429  1.00  0.00    -0.744 OA
ENDBRANCH  67  68
ENDBRANCH  46  60
BRANCH  47  72
ATOM     72  C   UNL A   1      43.231  23.465  27.009  1.00  0.00     0.058 A 
ATOM     73  C   UNL A   1      43.030  23.016  25.696  1.00  0.00     0.135 A 
ATOM     74  C   UNL A   1      43.031  22.548  28.052  1.00  0.00     0.135 A 
ATOM     75  F   UNL A   1      43.199  23.859  24.665  1.00  0.00    -0.206 F 
ATOM     76  C   UNL A   1      42.631  21.711  25.425  1.00  0.00     0.059 A 
ATOM     77  C   UNL A   1      42.654  21.231  27.807  1.00  0.00     0.059 A 
ATOM     78  F   UNL A   1      43.221  22.926  29.326  1.00  0.00    -0.206 F 
ATOM     79  C   UNL A   1      42.447  20.825  26.489  1.00  0.00     0.060 A 
BRANCH  79  80
ATOM     80  S   UNL A   1      41.975  19.120  26.126  1.00  0.00     0.124 S 
ATOM     81  O   UNL A   1      42.351  18.443  27.362  1.00  0.00    -0.237 OA
ATOM     82  O   UNL A   1      40.542  19.245  25.876  1.00  0.00    -0.237 OA
ATOM     83  O   UNL A   1      42.782  18.792  24.955  1.00  0.00    -0.744 OA
ENDBRANCH  79  80
ENDBRANCH  47  72
BRANCH  59  84
ATOM     84  C   UNL A   1      49.269  26.906  26.376  1.00  0.00     0.058 A 
ATOM     85  C   UNL A   1      50.148  26.251  27.253  1.00  0.00     0.135 A 
ATOM     86  C   UNL A   1      49.691  27.107  25.051  1.00  0.00     0.135 A 
ATOM     87  F   UNL A   1      49.797  26.040  28.531  1.00  0.00    -0.206 F 
ATOM     88  C   UNL A   1      51.407  25.830  26.836  1.00  0.00     0.059 A 
ATOM     89  C   UNL A   1      50.934  26.671  24.607  1.00  0.00     0.059 A 
ATOM     90  F   UNL A   1      48.882  27.718  24.170  1.00  0.00    -0.206 F 
ATOM     91  C   UNL A   1      51.791  26.043  25.510  1.00  0.00     0.060 A 
BRANCH  91  92
ATOM     92  S   UNL A   1      53.413  25.460  24.973  1.00  0.00     0.124 S 
ATOM     93  O   UNL A   1      53.344  24.044  25.314  1.00  0.00    -0.237 OA
ATOM     94  O   UNL A   1      53.402  25.771  23.546  1.00  0.00    -0.237 OA
ATOM     95  O   UNL A   1      54.341  26.255  25.773  1.00  0.00    -0.744 OA
ENDBRANCH  91  92
ENDBRANCH  59  84
ENDBRANCH  33  34
ENDBRANCH  26  28
ENDBRANCH  25  26
ENDBRANCH  24  25
ENDBRANCH  23  24
ENDBRANCH  22  23
ENDBRANCH   1  22
TORSDOF 21
ENDMDL
MODEL 2
REMARK VINA RESULT:      -9.8      2.990      9.396
REMARK SMILES C[C@@H]1[C@@H](C(=O)OCCOCCOC(=O)c2ccc(-c3c4nc(c(-c5c(F)cc(S(=O)(=O)[O-])cc5F)c5ccc([nH]5)c(-c5c(F)cc(S(=O)(=O)[O-])cc5F)c5nc(c(-c6c(F)cc(S(=O)(=O)[O-])cc6F)c6ccc3[nH]6)C=C5)C=C4)cc2)CCN1C(=O)N(C)Cc1ccsc1
REMARK SMILES IDX 8 1 7 2 6 3 4 4 5 5 3 6 1 7 2 8 83 9 81 10 82 11 84 12 85 13
REMARK SMILES IDX 86 14 87 15 88 16 89 17 90 18 93 19 91 20 92 21 9 22 10 23
REMARK SMILES IDX 11 24 12 25 13 26 14 27 15 28 16 29 80 30 17 31 79 32 18 33
REMARK SMILES IDX 19 34 20 35 73 36 21 37 78 38 72 39 74 40 22 41 77 42 71 43
REMARK SMILES IDX 70 44 23 46 57 47 36 48 56 49 37 50 40 51 55 52 75 53 38 54
REMARK SMILES IDX 39 55 54 57 76 58 41 59 24 60 25 61 34 62 26 63 27 64 33 65
REMARK SMILES IDX 35 66 28 67 29 68 30 69 31 70 32 71 58 72 59 73 68 74 60 75
REMARK SMILES IDX 61 76 67 77 69 78 62 79 63 80 64 81 65 82 66 83 42 84 43 85
REMARK SMILES IDX 52 86 44 87 45 88 51 89 53 90 46 91 47 92 48 93 49 94 50 95
REMARK H PARENT 74 45 40 56
REMARK Flexibility Score: inf
ROOT
ATOM      1  C   UNL A   1      35.079  22.203  24.165  1.00  0.00     0.202 C 
ENDROOT
BRANCH   1   2
ATOM      2  C   UNL A   1      33.888  22.943  24.784  1.00  0.00     0.261 C 
BRANCH   2   3
ATOM      3  O   UNL A   1      33.376  23.981  23.937  1.00  0.00    -0.463 OA
BRANCH   3   4
ATOM      4  C   UNL A   1      33.860  25.217  24.240  1.00  0.00     0.311 C 
ATOM      5  O   UNL A   1      34.368  25.520  25.312  1.00  0.00    -0.252 OA
BRANCH   4   6
ATOM      6  C   UNL A   1      33.799  26.127  23.022  1.00  0.00     0.123 C 
ATOM      7  C   UNL A   1      34.071  28.583  22.438  1.00  0.00     0.032 C 
ATOM      8  C   UNL A   1      33.644  27.574  23.511  1.00  0.00     0.098 C 
ATOM      9  N   UNL A   1      32.212  27.665  23.791  1.00  0.00    -0.321 N 
ATOM     10  C   UNL A   1      32.534  25.898  22.210  1.00  0.00     0.039 C 
ATOM     11  C   UNL A   1      31.487  26.656  23.011  1.00  0.00     0.122 C 
BRANCH   9  12
ATOM     12  C   UNL A   1      31.520  28.242  24.824  1.00  0.00     0.320 C 
ATOM     13  O   UNL A   1      30.953  29.322  24.607  1.00  0.00    -0.248 OA
BRANCH  12  14
ATOM     14  N   UNL A   1      31.464  27.694  26.087  1.00  0.00    -0.323 N 
ATOM     15  C   UNL A   1      31.338  26.318  26.536  1.00  0.00     0.149 C 
BRANCH  14  16
ATOM     16  C   UNL A   1      31.548  28.663  27.179  1.00  0.00     0.157 C 
BRANCH  16  17
ATOM     17  C   UNL A   1      32.912  29.316  27.232  1.00  0.00    -0.018 A 
ATOM     18  C   UNL A   1      34.141  28.575  27.167  1.00  0.00     0.017 A 
ATOM     19  C   UNL A   1      33.181  30.664  27.409  1.00  0.00     0.070 A 
ATOM     20  C   UNL A   1      35.254  29.369  27.322  1.00  0.00     0.065 A 
ATOM     21  S   UNL A   1      34.848  31.015  27.517  1.00  0.00    -0.152 S 
ENDBRANCH  16  17
ENDBRANCH  14  16
ENDBRANCH  12  14
ENDBRANCH   9  12
ENDBRANCH   4   6
ENDBRANCH   3   4
ENDBRANCH   2   3
ENDBRANCH   1   2
BRANCH   1  22
ATOM     22  O   UNL A   1      35.354  20.875  24.603  1.00  0.00    -0.374 OA
BRANCH  22  23
ATOM     23  C   UNL A   1      36.684  20.544  25.001  1.00  0.00     0.202 C 
BRANCH  23  24
ATOM     24  C   UNL A   1      37.764  21.630  24.937  1.00  0.00     0.261 C 
BRANCH  24  25
ATOM     25  O   UNL A   1      38.197  22.055  26.241  1.00  0.00    -0.460 OA
BRANCH  25  26
ATOM     26  C   UNL A   1      39.534  22.231  26.359  1.00  0.00     0.338 C 
ATOM     27  O   UNL A   1      40.415  21.528  25.875  1.00  0.00    -0.246 OA
BRANCH  26  28
ATOM     28  C   UNL A   1      39.825  23.525  26.997  1.00  0.00     0.060 A 
ATOM     29  C   UNL A   1      39.454  24.686  26.306  1.00  0.00     0.016 A 
ATOM     30  C   UNL A   1      40.529  23.604  28.199  1.00  0.00     0.016 A 
ATOM     31  C   UNL A   1      39.829  25.935  26.790  1.00  0.00     0.010 A 
ATOM     32  C   UNL A   1      40.918  24.860  28.677  1.00  0.00     0.010 A 
ATOM     33  C   UNL A   1      40.602  26.025  27.954  1.00  0.00    -0.014 A 
BRANCH  33  34
ATOM     34  C   UNL A   1      41.211  27.327  28.321  1.00  0.00     0.031 A 
ATOM     35  C   UNL A   1      42.694  27.509  28.145  1.00  0.00     0.074 A 
ATOM     36  C   UNL A   1      40.447  28.340  28.766  1.00  0.00     0.049 A 
ATOM     37  N   UNL A   1      43.439  28.547  28.420  1.00  0.00    -0.248 NA
ATOM     38  C   UNL A   1      43.435  26.367  27.583  1.00  0.00     0.031 C 
ATOM     39  C   UNL A   1      38.996  28.291  28.938  1.00  0.00     0.029 A 
ATOM     40  N   UNL A   1      40.792  29.607  29.160  1.00  0.00    -0.354 N 
ATOM     41  C   UNL A   1      44.735  28.185  28.071  1.00  0.00     0.074 A 
ATOM     42  C   UNL A   1      44.680  26.821  27.590  1.00  0.00     0.031 C 
ATOM     43  C   UNL A   1      38.575  29.475  29.415  1.00  0.00     0.029 A 
ATOM     44  C   UNL A   1      39.728  30.352  29.608  1.00  0.00     0.049 A 
ATOM     45  H   UNL A   1      41.714  29.951  29.125  1.00  0.00     0.167 HD
ATOM     46  C   UNL A   1      45.867  28.926  28.137  1.00  0.00     0.037 A 
ATOM     47  C   UNL A   1      39.694  31.594  30.132  1.00  0.00     0.037 A 
ATOM     48  C   UNL A   1      45.914  30.283  28.614  1.00  0.00     0.049 A 
ATOM     49  C   UNL A   1      40.975  32.377  30.254  1.00  0.00     0.074 A 
ATOM     50  C   UNL A   1      47.008  31.125  28.708  1.00  0.00     0.029 A 
ATOM     51  N   UNL A   1      44.820  30.995  29.084  1.00  0.00    -0.354 N 
ATOM     52  N   UNL A   1      42.191  32.029  29.903  1.00  0.00    -0.248 NA
ATOM     53  C   UNL A   1      40.880  33.722  30.838  1.00  0.00     0.031 C 
ATOM     54  C   UNL A   1      46.584  32.331  29.276  1.00  0.00     0.029 A 
ATOM     55  C   UNL A   1      45.216  32.258  29.490  1.00  0.00     0.049 A 
ATOM     56  H   UNL A   1      43.898  30.653  29.124  1.00  0.00     0.167 HD
ATOM     57  C   UNL A   1      43.000  33.121  30.199  1.00  0.00     0.074 A 
ATOM     58  C   UNL A   1      42.133  34.144  30.749  1.00  0.00     0.031 C 
ATOM     59  C   UNL A   1      44.338  33.267  30.029  1.00  0.00     0.037 A 
BRANCH  46  60
ATOM     60  C   UNL A   1      47.150  28.275  27.704  1.00  0.00     0.058 A 
ATOM     61  C   UNL A   1      47.597  28.333  26.374  1.00  0.00     0.135 A 
ATOM     62  C   UNL A   1      47.958  27.605  28.637  1.00  0.00     0.135 A 
ATOM     63  F   UNL A   1      46.853  28.944  25.437  1.00  0.00    -0.206 F 
ATOM     64  C   UNL A   1      48.787  27.731  25.981  1.00  0.00     0.059 A 
ATOM     65  C   UNL A   1      49.164  27.017  28.271  1.00  0.00     0.059 A 
ATOM     66  F   UNL A   1      47.575  27.516  29.921  1.00  0.00    -0.206 F 
ATOM     67  C   UNL A   1      49.564  27.073  26.936  1.00  0.00     0.060 A 
BRANCH  67  68
ATOM     68  S   UNL A   1      51.107  26.298  26.411  1.00  0.00     0.124 S 
ATOM     69  O   UNL A   1      51.026  26.443  24.961  1.00  0.00    -0.237 OA
ATOM     70  O   UNL A   1      52.113  27.120  27.075  1.00  0.00    -0.237 OA
ATOM     71  O   UNL A   1      50.989  24.932  26.912  1.00  0.00    -0.744 OA
ENDBRANCH  67  68
ENDBRANCH  46  60
BRANCH  47  72
ATOM     72  C   UNL A   1      38.403  32.168  30.594  1.00  0.00     0.058 A 
ATOM     73  C   UNL A   1      37.981  32.026  31.924  1.00  0.00     0.135 A 
ATOM     74  C   UNL A   1      37.567  32.873  29.714  1.00  0.00     0.135 A 
ATOM     75  F   UNL A   1      38.741  31.352  32.801  1.00  0.00    -0.206 F 
ATOM     76  C   UNL A   1      36.769  32.550  32.363  1.00  0.00     0.059 A 
ATOM     77  C   UNL A   1      36.361  33.425  30.134  1.00  0.00     0.059 A 
ATOM     78  F   UNL A   1      37.931  33.045  28.433  1.00  0.00    -0.206 F 
ATOM     79  C   UNL A   1      35.966  33.250  31.460  1.00  0.00     0.060 A 
BRANCH  79  80
ATOM     80  S   UNL A   1      34.417  33.966  32.050  1.00  0.00     0.124 S 
ATOM     81  O   UNL A   1      33.836  32.845  32.780  1.00  0.00    -0.237 OA
ATOM     82  O   UNL A   1      34.886  35.085  32.862  1.00  0.00    -0.237 OA
ATOM     83  O   UNL A   1      33.732  34.341  30.817  1.00  0.00    -0.744 OA
ENDBRANCH  79  80
ENDBRANCH  47  72
BRANCH  59  84
ATOM     84  C   UNL A   1      44.946  34.589  30.409  1.00  0.00     0.058 A 
ATOM     85  C   UNL A   1      45.468  34.819  31.691  1.00  0.00     0.135 A 
ATOM     86  C   UNL A   1      45.055  35.619  29.460  1.00  0.00     0.135 A 
ATOM     87  F   UNL A   1      45.384  33.870  32.636  1.00  0.00    -0.206 F 
ATOM     88  C   UNL A   1      46.058  36.034  32.026  1.00  0.00     0.059 A 
ATOM     89  C   UNL A   1      45.664  36.831  29.765  1.00  0.00     0.059 A 
ATOM     90  F   UNL A   1      44.582  35.444  28.216  1.00  0.00    -0.206 F 
ATOM     91  C   UNL A   1      46.152  37.034  31.056  1.00  0.00     0.060 A 
BRANCH  91  92
ATOM     92  S   UNL A   1      46.951  38.594  31.492  1.00  0.00     0.124 S 
ATOM     93  O   UNL A   1      46.349  39.511  30.530  1.00  0.00    -0.237 OA
ATOM     94  O   UNL A   1      46.545  38.776  32.883  1.00  0.00    -0.237 OA
ATOM     95  O   UNL A   1      48.370  38.316  31.292  1.00  0.00    -0.744 OA
ENDBRANCH  91  92
ENDBRANCH  59  84
ENDBRANCH  33  34
ENDBRANCH  26  28
ENDBRANCH  25  26
ENDBRANCH  24  25
ENDBRANCH  23  24
ENDBRANCH  22  23
ENDBRANCH   1  22
TORSDOF 21
ENDMDL
MODEL 3
REMARK VINA RESULT:      -9.7      5.002      6.653
REMARK SMILES C[C@@H]1[C@@H](C(=O)OCCOCCOC(=O)c2ccc(-c3c4nc(c(-c5c(F)cc(S(=O)(=O)[O-])cc5F)c5ccc([nH]5)c(-c5c(F)cc(S(=O)(=O)[O-])cc5F)c5nc(c(-c6c(F)cc(S(=O)(=O)[O-])cc6F)c6ccc3[nH]6)C=C5)C=C4)cc2)CCN1C(=O)N(C)Cc1ccsc1
REMARK SMILES IDX 8 1 7 2 6 3 4 4 5 5 3 6 1 7 2 8 83 9 81 10 82 11 84 12 85 13
REMARK SMILES IDX 86 14 87 15 88 16 89 17 90 18 93 19 91 20 92 21 9 22 10 23
REMARK SMILES IDX 11 24 12 25 13 26 14 27 15 28 16 29 80 30 17 31 79 32 18 33
REMARK SMILES IDX 19 34 20 35 73 36 21 37 78 38 72 39 74 40 22 41 77 42 71 43
REMARK SMILES IDX 70 44 23 46 57 47 36 48 56 49 37 50 40 51 55 52 75 53 38 54
REMARK SMILES IDX 39 55 54 57 76 58 41 59 24 60 25 61 34 62 26 63 27 64 33 65
REMARK SMILES IDX 35 66 28 67 29 68 30 69 31 70 32 71 58 72 59 73 68 74 60 75
REMARK SMILES IDX 61 76 67 77 69 78 62 79 63 80 64 81 65 82 66 83 42 84 43 85
REMARK SMILES IDX 52 86 44 87 45 88 51 89 53 90 46 91 47 92 48 93 49 94 50 95
REMARK H PARENT 74 45 40 56
REMARK Flexibility Score: inf
ROOT
ATOM      1  C   UNL A   1      33.775  27.660  26.669  1.00  0.00     0.202 C 
ENDROOT
BRANCH   1   2
ATOM      2  C   UNL A   1      33.346  26.452  25.829  1.00  0.00     0.261 C 
BRANCH   2   3
ATOM      3  O   UNL A   1      34.413  25.522  25.606  1.00  0.00    -0.463 OA
BRANCH   3   4
ATOM      4  C   UNL A   1      34.107  24.246  25.972  1.00  0.00     0.311 C 
ATOM      5  O   UNL A   1      33.113  23.926  26.610  1.00  0.00    -0.252 OA
BRANCH   4   6
ATOM      6  C   UNL A   1      35.103  23.265  25.370  1.00  0.00     0.123 C 
ATOM      7  C   UNL A   1      36.650  23.078  23.365  1.00  0.00     0.032 C 
ATOM      8  C   UNL A   1      35.334  23.655  23.903  1.00  0.00     0.098 C 
ATOM      9  N   UNL A   1      34.177  23.066  23.230  1.00  0.00    -0.321 N 
ATOM     10  C   UNL A   1      34.523  21.863  25.270  1.00  0.00     0.039 C 
ATOM     11  C   UNL A   1      33.645  21.958  24.032  1.00  0.00     0.122 C 
BRANCH   9  12
ATOM     12  C   UNL A   1      33.357  23.544  22.242  1.00  0.00     0.320 C 
ATOM     13  O   UNL A   1      33.612  23.221  21.073  1.00  0.00    -0.248 OA
BRANCH  12  14
ATOM     14  N   UNL A   1      32.299  24.392  22.491  1.00  0.00    -0.323 N 
ATOM     15  C   UNL A   1      31.326  24.428  23.569  1.00  0.00     0.149 C 
BRANCH  14  16
ATOM     16  C   UNL A   1      32.115  25.449  21.497  1.00  0.00     0.157 C 
BRANCH  16  17
ATOM     17  C   UNL A   1      32.250  26.820  22.120  1.00  0.00    -0.018 A 
ATOM     18  C   UNL A   1      33.513  27.477  22.311  1.00  0.00     0.017 A 
ATOM     19  C   UNL A   1      31.228  27.599  22.642  1.00  0.00     0.070 A 
ATOM     20  C   UNL A   1      33.398  28.677  22.976  1.00  0.00     0.065 A 
ATOM     21  S   UNL A   1      31.776  29.050  23.354  1.00  0.00    -0.152 S 
ENDBRANCH  16  17
ENDBRANCH  14  16
ENDBRANCH  12  14
ENDBRANCH   9  12
ENDBRANCH   4   6
ENDBRANCH   3   4
ENDBRANCH   2   3
ENDBRANCH   1   2
BRANCH   1  22
ATOM     22  O   UNL A   1      32.824  28.238  27.560  1.00  0.00    -0.374 OA
BRANCH  22  23
ATOM     23  C   UNL A   1      31.941  29.244  27.066  1.00  0.00     0.202 C 
BRANCH  23  24
ATOM     24  C   UNL A   1      32.413  30.703  27.065  1.00  0.00     0.261 C 
BRANCH  24  25
ATOM     25  O   UNL A   1      33.842  30.822  26.966  1.00  0.00    -0.460 OA
BRANCH  25  26
ATOM     26  C   UNL A   1      34.420  31.504  27.982  1.00  0.00     0.338 C 
ATOM     27  O   UNL A   1      33.900  32.373  28.676  1.00  0.00    -0.246 OA
BRANCH  26  28
ATOM     28  C   UNL A   1      35.736  30.929  28.301  1.00  0.00     0.060 A 
ATOM     29  C   UNL A   1      35.760  29.670  28.915  1.00  0.00     0.016 A 
ATOM     30  C   UNL A   1      36.916  31.643  28.091  1.00  0.00     0.016 A 
ATOM     31  C   UNL A   1      36.964  29.138  29.368  1.00  0.00     0.010 A 
ATOM     32  C   UNL A   1      38.123  31.114  28.561  1.00  0.00     0.010 A 
ATOM     33  C   UNL A   1      38.145  29.879  29.234  1.00  0.00    -0.014 A 
BRANCH  33  34
ATOM     34  C   UNL A   1      39.367  29.428  29.941  1.00  0.00     0.031 A 
ATOM     35  C   UNL A   1      39.752  30.105  31.228  1.00  0.00     0.074 A 
ATOM     36  C   UNL A   1      40.099  28.406  29.462  1.00  0.00     0.049 A 
ATOM     37  N   UNL A   1      40.785  29.891  31.999  1.00  0.00    -0.248 NA
ATOM     38  C   UNL A   1      38.849  31.164  31.710  1.00  0.00     0.031 C 
ATOM     39  C   UNL A   1      39.800  27.650  28.247  1.00  0.00     0.029 A 
ATOM     40  N   UNL A   1      41.249  27.835  29.941  1.00  0.00    -0.354 N 
ATOM     41  C   UNL A   1      40.663  30.790  33.053  1.00  0.00     0.074 A 
ATOM     42  C   UNL A   1      39.469  31.570  32.809  1.00  0.00     0.031 C 
ATOM     43  C   UNL A   1      40.752  26.718  28.069  1.00  0.00     0.029 A 
ATOM     44  C   UNL A   1      41.740  26.832  29.141  1.00  0.00     0.049 A 
ATOM     45  H   UNL A   1      41.683  28.116  30.780  1.00  0.00     0.167 HD
ATOM     46  C   UNL A   1      41.468  30.943  34.132  1.00  0.00     0.037 A 
ATOM     47  C   UNL A   1      42.868  26.102  29.252  1.00  0.00     0.037 A 
ATOM     48  C   UNL A   1      42.652  30.162  34.370  1.00  0.00     0.049 A 
ATOM     49  C   UNL A   1      43.782  26.334  30.428  1.00  0.00     0.074 A 
ATOM     50  C   UNL A   1      43.528  30.230  35.439  1.00  0.00     0.029 A 
ATOM     51  N   UNL A   1      43.132  29.172  33.523  1.00  0.00    -0.354 N 
ATOM     52  N   UNL A   1      43.644  27.174  31.426  1.00  0.00    -0.248 NA
ATOM     53  C   UNL A   1      45.001  25.516  30.495  1.00  0.00     0.031 C 
ATOM     54  C   UNL A   1      44.561  29.312  35.217  1.00  0.00     0.029 A 
ATOM     55  C   UNL A   1      44.303  28.638  34.033  1.00  0.00     0.049 A 
ATOM     56  H   UNL A   1      42.703  28.892  32.682  1.00  0.00     0.167 HD
ATOM     57  C   UNL A   1      44.743  26.966  32.253  1.00  0.00     0.074 A 
ATOM     58  C   UNL A   1      45.531  25.915  31.642  1.00  0.00     0.031 C 
ATOM     59  C   UNL A   1      45.071  27.587  33.415  1.00  0.00     0.037 A 
BRANCH  46  60
ATOM     60  C   UNL A   1      41.105  32.012  35.123  1.00  0.00     0.058 A 
ATOM     61  C   UNL A   1      40.181  31.782  36.155  1.00  0.00     0.135 A 
ATOM     62  C   UNL A   1      41.709  33.278  35.057  1.00  0.00     0.135 A 
ATOM     63  F   UNL A   1      39.559  30.595  36.252  1.00  0.00    -0.206 F 
ATOM     64  C   UNL A   1      39.852  32.775  37.071  1.00  0.00     0.059 A 
ATOM     65  C   UNL A   1      41.413  34.279  35.977  1.00  0.00     0.059 A 
ATOM     66  F   UNL A   1      42.596  33.553  34.087  1.00  0.00    -0.206 F 
ATOM     67  C   UNL A   1      40.472  34.022  36.973  1.00  0.00     0.060 A 
BRANCH  67  68
ATOM     68  S   UNL A   1      40.037  35.300  38.171  1.00  0.00     0.124 S 
ATOM     69  O   UNL A   1      39.889  36.468  37.308  1.00  0.00    -0.237 OA
ATOM     70  O   UNL A   1      38.802  34.781  38.749  1.00  0.00    -0.237 OA
ATOM     71  O   UNL A   1      41.185  35.327  39.072  1.00  0.00    -0.744 OA
ENDBRANCH  67  68
ENDBRANCH  46  60
BRANCH  47  72
ATOM     72  C   UNL A   1      43.205  25.094  28.213  1.00  0.00     0.058 A 
ATOM     73  C   UNL A   1      42.895  23.739  28.390  1.00  0.00     0.135 A 
ATOM     74  C   UNL A   1      43.844  25.469  27.020  1.00  0.00     0.135 A 
ATOM     75  F   UNL A   1      42.293  23.330  29.518  1.00  0.00    -0.206 F 
ATOM     76  C   UNL A   1      43.217  22.786  27.428  1.00  0.00     0.059 A 
ATOM     77  C   UNL A   1      44.156  24.539  26.034  1.00  0.00     0.059 A 
ATOM     78  F   UNL A   1      44.153  26.757  26.799  1.00  0.00    -0.206 F 
ATOM     79  C   UNL A   1      43.847  23.197  26.252  1.00  0.00     0.060 A 
BRANCH  79  80
ATOM     80  S   UNL A   1      44.219  21.961  24.989  1.00  0.00     0.124 S 
ATOM     81  O   UNL A   1      44.099  22.747  23.766  1.00  0.00    -0.237 OA
ATOM     82  O   UNL A   1      45.571  21.547  25.354  1.00  0.00    -0.237 OA
ATOM     83  O   UNL A   1      43.186  20.951  25.196  1.00  0.00    -0.744 OA
ENDBRANCH  79  80
ENDBRANCH  47  72
BRANCH  59  84
ATOM     84  C   UNL A   1      46.315  27.125  34.120  1.00  0.00     0.058 A 
ATOM     85  C   UNL A   1      47.561  27.729  33.890  1.00  0.00     0.135 A 
ATOM     86  C   UNL A   1      46.249  26.101  35.080  1.00  0.00     0.135 A 
ATOM     87  F   UNL A   1      47.681  28.708  32.979  1.00  0.00    -0.206 F 
ATOM     88  C   UNL A   1      48.703  27.318  34.571  1.00  0.00     0.059 A 
ATOM     89  C   UNL A   1      47.373  25.693  35.790  1.00  0.00     0.059 A 
ATOM     90  F   UNL A   1      45.079  25.500  35.346  1.00  0.00    -0.206 F 
ATOM     91  C   UNL A   1      48.599  26.300  35.520  1.00  0.00     0.060 A 
BRANCH  91  92
ATOM     92  S   UNL A   1      50.081  25.799  36.422  1.00  0.00     0.124 S 
ATOM     93  O   UNL A   1      50.310  26.958  37.277  1.00  0.00    -0.237 OA
ATOM     94  O   UNL A   1      49.640  24.585  37.102  1.00  0.00    -0.237 OA
ATOM     95  O   UNL A   1      51.068  25.593  35.365  1.00  0.00    -0.744 OA
ENDBRANCH  91  92
ENDBRANCH  59  84
ENDBRANCH  33  34
ENDBRANCH  26  28
ENDBRANCH  25  26
ENDBRANCH  24  25
ENDBRANCH  23  24
ENDBRANCH  22  23
ENDBRANCH   1  22
TORSDOF 21
ENDMDL
