MODEL 1
REMARK VINA RESULT:     -11.2      0.000      0.000
REMARK SMILES COc1ccc([C@H]2[C@H](C(=O)OCCOCCOC(=O)c3ccc(-c4c5nc(c(-c6c(F)cc(S(=O)(=O)[O-])cc6F)c6ccc([nH]6)c(-c6c(F)cc(S(=O)(=O)[O-])cc6F)c6nc(c(-c7c(F)cc(S(=O)(=O)[O-])cc7F)c7ccc4[nH]7)C=C6)C=C5)cc3)CCN2c2ccc(F)cc2)cc1
REMARK SMILES IDX 15 1 14 2 13 3 12 4 11 5 9 6 10 7 8 8 7 9 88 10 86 11 87 12
REMARK SMILES IDX 6 13 3 14 4 15 97 16 5 17 96 18 2 19 1 20 89 21 90 22 95 23
REMARK SMILES IDX 91 24 94 25 92 26 93 27 16 28 17 29 18 30 19 31 20 32 21 33
REMARK SMILES IDX 85 34 22 35 84 36 23 37 24 38 25 39 78 40 26 41 83 42 77 43
REMARK SMILES IDX 79 44 27 45 82 46 76 47 75 48 28 50 62 51 41 52 61 53 42 54
REMARK SMILES IDX 45 55 60 56 80 57 43 58 44 59 59 61 81 62 46 63 29 64 30 65
REMARK SMILES IDX 39 66 31 67 32 68 38 69 40 70 33 71 34 72 35 73 36 74 37 75
REMARK SMILES IDX 63 76 64 77 73 78 65 79 66 80 72 81 74 82 67 83 68 84 69 85
REMARK SMILES IDX 70 86 71 87 47 88 48 89 57 90 49 91 50 92 56 93 58 94 51 95
REMARK SMILES IDX 52 96 53 97 54 98 55 99
REMARK H PARENT 79 49 45 60
REMARK Flexibility Score: inf
ROOT
ATOM      1  C   UNL A   1      32.719  28.003  25.559  1.00  0.00     0.202 C 
ENDROOT
BRANCH   1   2
ATOM      2  O   UNL A   1      31.501  27.995  24.818  1.00  0.00    -0.374 OA
BRANCH   2   3
ATOM      3  C   UNL A   1      30.781  26.763  24.780  1.00  0.00     0.202 C 
BRANCH   3   4
ATOM      4  C   UNL A   1      30.523  26.172  23.395  1.00  0.00     0.261 C 
BRANCH   4   5
ATOM      5  O   UNL A   1      30.508  24.733  23.434  1.00  0.00    -0.463 OA
BRANCH   5   6
ATOM      6  C   UNL A   1      31.720  24.129  23.432  1.00  0.00     0.311 C 
ATOM      7  O   UNL A   1      32.699  24.536  22.815  1.00  0.00    -0.252 OA
BRANCH   6   8
ATOM      8  C   UNL A   1      31.774  22.847  24.229  1.00  0.00     0.128 C 
ATOM      9  C   UNL A   1      33.093  22.050  24.176  1.00  0.00     0.127 C 
ATOM     10  N   UNL A   1      33.850  22.605  25.310  1.00  0.00    -0.364 N 
ATOM     11  C   UNL A   1      31.576  23.135  25.712  1.00  0.00     0.039 C 
ATOM     12  C   UNL A   1      32.991  23.298  26.264  1.00  0.00     0.118 C 
BRANCH   9  13
ATOM     13  C   UNL A   1      32.810  20.546  24.365  1.00  0.00    -0.024 A 
ATOM     14  C   UNL A   1      32.555  17.745  24.695  1.00  0.00     0.118 A 
ATOM     15  C   UNL A   1      32.784  18.567  25.797  1.00  0.00     0.047 A 
ATOM     16  C   UNL A   1      32.359  18.322  23.448  1.00  0.00     0.047 A 
ATOM     17  C   UNL A   1      32.904  19.954  25.637  1.00  0.00     0.010 A 
ATOM     18  C   UNL A   1      32.490  19.701  23.288  1.00  0.00     0.010 A 
BRANCH  14  19
ATOM     19  O   UNL A   1      32.503  16.397  24.931  1.00  0.00    -0.497 OA
ATOM     20  C   UNL A   1      33.778  15.806  25.183  1.00  0.00     0.278 C 
ENDBRANCH  14  19
ENDBRANCH   9  13
BRANCH  10  21
ATOM     21  C   UNL A   1      35.216  22.538  25.469  1.00  0.00     0.037 A 
ATOM     22  C   UNL A   1      35.942  21.420  25.013  1.00  0.00     0.029 A 
ATOM     23  C   UNL A   1      35.952  23.582  26.039  1.00  0.00     0.029 A 
ATOM     24  C   UNL A   1      37.337  21.357  25.094  1.00  0.00     0.041 A 
ATOM     25  C   UNL A   1      37.347  23.524  26.123  1.00  0.00     0.041 A 
ATOM     26  C   UNL A   1      38.029  22.413  25.656  1.00  0.00     0.123 A 
ATOM     27  F   UNL A   1      39.363  22.372  25.738  1.00  0.00    -0.207 F 
ENDBRANCH  10  21
ENDBRANCH   6   8
ENDBRANCH   5   6
ENDBRANCH   4   5
ENDBRANCH   3   4
ENDBRANCH   2   3
ENDBRANCH   1   2
BRANCH   1  28
ATOM     28  C   UNL A   1      32.715  28.757  26.898  1.00  0.00     0.261 C 
BRANCH  28  29
ATOM     29  O   UNL A   1      33.992  28.733  27.559  1.00  0.00    -0.460 OA
BRANCH  29  30
ATOM     30  C   UNL A   1      34.547  29.947  27.810  1.00  0.00     0.338 C 
ATOM     31  O   UNL A   1      33.967  31.015  27.919  1.00  0.00    -0.246 OA
BRANCH  30  32
ATOM     32  C   UNL A   1      35.975  29.752  28.132  1.00  0.00     0.060 A 
ATOM     33  C   UNL A   1      36.943  29.978  27.144  1.00  0.00     0.016 A 
ATOM     34  C   UNL A   1      36.356  29.342  29.405  1.00  0.00     0.016 A 
ATOM     35  C   UNL A   1      38.299  29.777  27.428  1.00  0.00     0.010 A 
ATOM     36  C   UNL A   1      37.712  29.176  29.696  1.00  0.00     0.010 A 
ATOM     37  C   UNL A   1      38.695  29.351  28.703  1.00  0.00    -0.014 A 
BRANCH  37  38
ATOM     38  C   UNL A   1      40.084  28.890  28.992  1.00  0.00     0.031 A 
ATOM     39  C   UNL A   1      41.033  29.869  29.639  1.00  0.00     0.074 A 
ATOM     40  C   UNL A   1      40.528  27.664  28.655  1.00  0.00     0.049 A 
ATOM     41  N   UNL A   1      42.327  29.795  29.807  1.00  0.00    -0.248 NA
ATOM     42  C   UNL A   1      40.434  31.123  30.125  1.00  0.00     0.031 C 
ATOM     43  C   UNL A   1      39.724  26.599  28.061  1.00  0.00     0.029 A 
ATOM     44  N   UNL A   1      41.786  27.118  28.755  1.00  0.00    -0.354 N 
ATOM     45  C   UNL A   1      42.702  31.014  30.364  1.00  0.00     0.074 A 
ATOM     46  C   UNL A   1      41.508  31.824  30.452  1.00  0.00     0.031 C 
ATOM     47  C   UNL A   1      40.506  25.522  27.860  1.00  0.00     0.029 A 
ATOM     48  C   UNL A   1      41.878  25.839  28.258  1.00  0.00     0.049 A 
ATOM     49  H   UNL A   1      42.552  27.598  29.145  1.00  0.00     0.167 HD
ATOM     50  C   UNL A   1      43.924  31.419  30.787  1.00  0.00     0.037 A 
ATOM     51  C   UNL A   1      42.948  25.026  28.122  1.00  0.00     0.037 A 
ATOM     52  C   UNL A   1      45.103  30.599  30.735  1.00  0.00     0.049 A 
ATOM     53  C   UNL A   1      44.314  25.510  28.544  1.00  0.00     0.074 A 
ATOM     54  C   UNL A   1      46.381  30.901  31.172  1.00  0.00     0.029 A 
ATOM     55  N   UNL A   1      45.150  29.312  30.217  1.00  0.00    -0.354 N 
ATOM     56  N   UNL A   1      44.657  26.659  29.076  1.00  0.00    -0.248 NA
ATOM     57  C   UNL A   1      45.443  24.586  28.343  1.00  0.00     0.031 C 
ATOM     58  C   UNL A   1      47.210  29.817  30.869  1.00  0.00     0.029 A 
ATOM     59  C   UNL A   1      46.437  28.814  30.306  1.00  0.00     0.049 A 
ATOM     60  H   UNL A   1      44.379  28.827  29.841  1.00  0.00     0.167 HD
ATOM     61  C   UNL A   1      46.026  26.577  29.317  1.00  0.00     0.074 A 
ATOM     62  C   UNL A   1      46.453  25.272  28.860  1.00  0.00     0.031 C 
ATOM     63  C   UNL A   1      46.849  27.498  29.880  1.00  0.00     0.037 A 
BRANCH  50  64
ATOM     64  C   UNL A   1      44.036  32.826  31.315  1.00  0.00     0.058 A 
ATOM     65  C   UNL A   1      43.824  33.132  32.670  1.00  0.00     0.135 A 
ATOM     66  C   UNL A   1      44.325  33.889  30.444  1.00  0.00     0.135 A 
ATOM     67  F   UNL A   1      43.534  32.156  33.547  1.00  0.00    -0.206 F 
ATOM     68  C   UNL A   1      43.819  34.444  33.128  1.00  0.00     0.059 A 
ATOM     69  C   UNL A   1      44.367  35.208  30.889  1.00  0.00     0.059 A 
ATOM     70  F   UNL A   1      44.548  33.658  29.141  1.00  0.00    -0.206 F 
ATOM     71  C   UNL A   1      44.080  35.477  32.226  1.00  0.00     0.060 A 
BRANCH  71  72
ATOM     72  S   UNL A   1      44.010  37.178  32.823  1.00  0.00     0.124 S 
ATOM     73  O   UNL A   1      45.322  37.321  33.444  1.00  0.00    -0.237 OA
ATOM     74  O   UNL A   1      43.807  37.934  31.591  1.00  0.00    -0.237 OA
ATOM     75  O   UNL A   1      42.876  37.170  33.743  1.00  0.00    -0.744 OA
ENDBRANCH  71  72
ENDBRANCH  50  64
BRANCH  51  76
ATOM     76  C   UNL A   1      42.769  23.646  27.590  1.00  0.00     0.058 A 
ATOM     77  C   UNL A   1      42.555  22.568  28.464  1.00  0.00     0.135 A 
ATOM     78  C   UNL A   1      42.785  23.374  26.213  1.00  0.00     0.135 A 
ATOM     79  F   UNL A   1      42.550  22.774  29.791  1.00  0.00    -0.206 F 
ATOM     80  C   UNL A   1      42.364  21.273  27.996  1.00  0.00     0.059 A 
ATOM     81  C   UNL A   1      42.570  22.089  25.719  1.00  0.00     0.059 A 
ATOM     82  F   UNL A   1      42.982  24.366  25.332  1.00  0.00    -0.206 F 
ATOM     83  C   UNL A   1      42.361  21.045  26.619  1.00  0.00     0.060 A 
BRANCH  83  84
ATOM     84  S   UNL A   1      42.028  19.372  26.024  1.00  0.00     0.124 S 
ATOM     85  O   UNL A   1      42.856  19.312  24.825  1.00  0.00    -0.237 OA
ATOM     86  O   UNL A   1      42.473  18.557  27.150  1.00  0.00    -0.237 OA
ATOM     87  O   UNL A   1      40.586  19.378  25.796  1.00  0.00    -0.744 OA
ENDBRANCH  83  84
ENDBRANCH  51  76
BRANCH  63  88
ATOM     88  C   UNL A   1      48.287  27.124  30.120  1.00  0.00     0.058 A 
ATOM     89  C   UNL A   1      49.293  27.379  29.176  1.00  0.00     0.135 A 
ATOM     90  C   UNL A   1      48.679  26.621  31.373  1.00  0.00     0.135 A 
ATOM     91  F   UNL A   1      48.976  27.851  27.960  1.00  0.00    -0.206 F 
ATOM     92  C   UNL A   1      50.637  27.156  29.469  1.00  0.00     0.059 A 
ATOM     93  C   UNL A   1      50.016  26.417  31.697  1.00  0.00     0.059 A 
ATOM     94  F   UNL A   1      47.756  26.367  32.315  1.00  0.00    -0.206 F 
ATOM     95  C   UNL A   1      50.990  26.689  30.738  1.00  0.00     0.060 A 
BRANCH  95  96
ATOM     96  S   UNL A   1      52.741  26.496  31.136  1.00  0.00     0.124 S 
ATOM     97  O   UNL A   1      52.960  27.611  32.051  1.00  0.00    -0.237 OA
ATOM     98  O   UNL A   1      52.777  25.167  31.737  1.00  0.00    -0.237 OA
ATOM     99  O   UNL A   1      53.401  26.609  29.839  1.00  0.00    -0.744 OA
ENDBRANCH  95  96
ENDBRANCH  63  88
ENDBRANCH  37  38
ENDBRANCH  30  32
ENDBRANCH  29  30
ENDBRANCH  28  29
ENDBRANCH   1  28
TORSDOF 20
ENDMDL
MODEL 2
REMARK VINA RESULT:     -11.0      5.061     10.861
REMARK SMILES COc1ccc([C@H]2[C@H](C(=O)OCCOCCOC(=O)c3ccc(-c4c5nc(c(-c6c(F)cc(S(=O)(=O)[O-])cc6F)c6ccc([nH]6)c(-c6c(F)cc(S(=O)(=O)[O-])cc6F)c6nc(c(-c7c(F)cc(S(=O)(=O)[O-])cc7F)c7ccc4[nH]7)C=C6)C=C5)cc3)CCN2c2ccc(F)cc2)cc1
REMARK SMILES IDX 15 1 14 2 13 3 12 4 11 5 9 6 10 7 8 8 7 9 88 10 86 11 87 12
REMARK SMILES IDX 6 13 3 14 4 15 97 16 5 17 96 18 2 19 1 20 89 21 90 22 95 23
REMARK SMILES IDX 91 24 94 25 92 26 93 27 16 28 17 29 18 30 19 31 20 32 21 33
REMARK SMILES IDX 85 34 22 35 84 36 23 37 24 38 25 39 78 40 26 41 83 42 77 43
REMARK SMILES IDX 79 44 27 45 82 46 76 47 75 48 28 50 62 51 41 52 61 53 42 54
REMARK SMILES IDX 45 55 60 56 80 57 43 58 44 59 59 61 81 62 46 63 29 64 30 65
REMARK SMILES IDX 39 66 31 67 32 68 38 69 40 70 33 71 34 72 35 73 36 74 37 75
REMARK SMILES IDX 63 76 64 77 73 78 65 79 66 80 72 81 74 82 67 83 68 84 69 85
REMARK SMILES IDX 70 86 71 87 47 88 48 89 57 90 49 91 50 92 56 93 58 94 51 95
REMARK SMILES IDX 52 96 53 97 54 98 55 99
REMARK H PARENT 79 49 45 60
REMARK Flexibility Score: inf
ROOT
ATOM      1  C   UNL A   1      37.240  22.839  25.404  1.00  0.00     0.202 C 
ENDROOT
BRANCH   1   2
ATOM      2  O   UNL A   1      35.833  22.610  25.450  1.00  0.00    -0.374 OA
BRANCH   2   3
ATOM      3  C   UNL A   1      35.205  22.231  24.227  1.00  0.00     0.202 C 
BRANCH   3   4
ATOM      4  C   UNL A   1      33.740  22.634  24.063  1.00  0.00     0.261 C 
BRANCH   4   5
ATOM      5  O   UNL A   1      33.600  24.059  23.921  1.00  0.00    -0.463 OA
BRANCH   5   6
ATOM      6  C   UNL A   1      32.399  24.573  24.276  1.00  0.00     0.311 C 
ATOM      7  O   UNL A   1      31.656  24.086  25.121  1.00  0.00    -0.252 OA
BRANCH   6   8
ATOM      8  C   UNL A   1      31.997  25.803  23.496  1.00  0.00     0.128 C 
ATOM      9  C   UNL A   1      31.528  27.023  24.314  1.00  0.00     0.127 C 
ATOM     10  N   UNL A   1      32.781  27.763  24.536  1.00  0.00    -0.364 N 
ATOM     11  C   UNL A   1      33.178  26.331  22.691  1.00  0.00     0.039 C 
ATOM     12  C   UNL A   1      33.830  27.370  23.601  1.00  0.00     0.118 C 
BRANCH   9  13
ATOM     13  C   UNL A   1      30.517  27.852  23.496  1.00  0.00    -0.024 A 
ATOM     14  C   UNL A   1      28.666  29.554  22.193  1.00  0.00     0.118 A 
ATOM     15  C   UNL A   1      30.037  29.752  22.037  1.00  0.00     0.047 A 
ATOM     16  C   UNL A   1      28.218  28.457  22.917  1.00  0.00     0.047 A 
ATOM     17  C   UNL A   1      30.956  28.907  22.676  1.00  0.00     0.010 A 
ATOM     18  C   UNL A   1      29.133  27.625  23.561  1.00  0.00     0.010 A 
BRANCH  14  19
ATOM     19  O   UNL A   1      27.839  30.455  21.579  1.00  0.00    -0.497 OA
ATOM     20  C   UNL A   1      28.443  31.728  21.347  1.00  0.00     0.278 C 
ENDBRANCH  14  19
ENDBRANCH   9  13
BRANCH  10  21
ATOM     21  C   UNL A   1      32.995  28.694  25.528  1.00  0.00     0.037 A 
ATOM     22  C   UNL A   1      34.153  28.643  26.329  1.00  0.00     0.029 A 
ATOM     23  C   UNL A   1      32.111  29.754  25.758  1.00  0.00     0.029 A 
ATOM     24  C   UNL A   1      34.432  29.617  27.293  1.00  0.00     0.041 A 
ATOM     25  C   UNL A   1      32.386  30.730  26.722  1.00  0.00     0.041 A 
ATOM     26  C   UNL A   1      33.538  30.654  27.484  1.00  0.00     0.123 A 
ATOM     27  F   UNL A   1      33.791  31.596  28.399  1.00  0.00    -0.207 F 
ENDBRANCH  10  21
ENDBRANCH   6   8
ENDBRANCH   5   6
ENDBRANCH   4   5
ENDBRANCH   3   4
ENDBRANCH   2   3
ENDBRANCH   1   2
BRANCH   1  28
ATOM     28  C   UNL A   1      37.762  24.106  26.100  1.00  0.00     0.261 C 
BRANCH  28  29
ATOM     29  O   UNL A   1      39.004  23.893  26.792  1.00  0.00    -0.460 OA
BRANCH  29  30
ATOM     30  C   UNL A   1      39.990  24.786  26.518  1.00  0.00     0.338 C 
ATOM     31  O   UNL A   1      40.593  24.921  25.466  1.00  0.00    -0.246 OA
BRANCH  30  32
ATOM     32  C   UNL A   1      40.097  25.729  27.651  1.00  0.00     0.060 A 
ATOM     33  C   UNL A   1      39.242  25.586  28.752  1.00  0.00     0.016 A 
ATOM     34  C   UNL A   1      41.038  26.752  27.623  1.00  0.00     0.016 A 
ATOM     35  C   UNL A   1      39.317  26.485  29.823  1.00  0.00     0.010 A 
ATOM     36  C   UNL A   1      41.135  27.626  28.709  1.00  0.00     0.010 A 
ATOM     37  C   UNL A   1      40.252  27.528  29.801  1.00  0.00    -0.014 A 
BRANCH  37  38
ATOM     38  C   UNL A   1      40.217  28.648  30.785  1.00  0.00     0.031 A 
ATOM     39  C   UNL A   1      41.188  28.602  31.941  1.00  0.00     0.074 A 
ATOM     40  C   UNL A   1      39.330  29.657  30.708  1.00  0.00     0.049 A 
ATOM     41  N   UNL A   1      41.229  29.325  33.030  1.00  0.00    -0.248 NA
ATOM     42  C   UNL A   1      42.229  27.564  31.869  1.00  0.00     0.031 C 
ATOM     43  C   UNL A   1      38.358  29.859  29.636  1.00  0.00     0.029 A 
ATOM     44  N   UNL A   1      39.095  30.701  31.573  1.00  0.00    -0.354 N 
ATOM     45  C   UNL A   1      42.263  28.792  33.794  1.00  0.00     0.074 A 
ATOM     46  C   UNL A   1      42.781  27.654  33.068  1.00  0.00     0.031 C 
ATOM     47  C   UNL A   1      37.640  30.967  29.900  1.00  0.00     0.029 A 
ATOM     48  C   UNL A   1      38.061  31.522  31.187  1.00  0.00     0.049 A 
ATOM     49  H   UNL A   1      39.619  30.848  32.394  1.00  0.00     0.167 HD
ATOM     50  C   UNL A   1      42.755  29.220  34.981  1.00  0.00     0.037 A 
ATOM     51  C   UNL A   1      37.507  32.584  31.808  1.00  0.00     0.037 A 
ATOM     52  C   UNL A   1      42.265  30.374  35.683  1.00  0.00     0.049 A 
ATOM     53  C   UNL A   1      38.026  33.017  33.158  1.00  0.00     0.074 A 
ATOM     54  C   UNL A   1      42.718  30.915  36.873  1.00  0.00     0.029 A 
ATOM     55  N   UNL A   1      41.211  31.171  35.257  1.00  0.00    -0.354 N 
ATOM     56  N   UNL A   1      39.007  32.512  33.868  1.00  0.00    -0.248 NA
ATOM     57  C   UNL A   1      37.359  34.165  33.796  1.00  0.00     0.031 C 
ATOM     58  C   UNL A   1      41.904  32.005  37.193  1.00  0.00     0.029 A 
ATOM     59  C   UNL A   1      40.988  32.186  36.169  1.00  0.00     0.049 A 
ATOM     60  H   UNL A   1      40.698  31.032  34.427  1.00  0.00     0.167 HD
ATOM     61  C   UNL A   1      39.105  33.307  35.007  1.00  0.00     0.074 A 
ATOM     62  C   UNL A   1      38.076  34.319  34.901  1.00  0.00     0.031 C 
ATOM     63  C   UNL A   1      39.981  33.213  36.039  1.00  0.00     0.037 A 
BRANCH  50  64
ATOM     64  C   UNL A   1      43.863  28.407  35.598  1.00  0.00     0.058 A 
ATOM     65  C   UNL A   1      45.213  28.624  35.275  1.00  0.00     0.135 A 
ATOM     66  C   UNL A   1      43.567  27.371  36.499  1.00  0.00     0.135 A 
ATOM     67  F   UNL A   1      45.556  29.593  34.410  1.00  0.00    -0.206 F 
ATOM     68  C   UNL A   1      46.220  27.798  35.762  1.00  0.00     0.059 A 
ATOM     69  C   UNL A   1      44.563  26.559  37.032  1.00  0.00     0.059 A 
ATOM     70  F   UNL A   1      42.297  27.125  36.854  1.00  0.00    -0.206 F 
ATOM     71  C   UNL A   1      45.883  26.760  36.631  1.00  0.00     0.060 A 
BRANCH  71  72
ATOM     72  S   UNL A   1      47.192  25.660  37.206  1.00  0.00     0.124 S 
ATOM     73  O   UNL A   1      48.382  26.463  36.943  1.00  0.00    -0.237 OA
ATOM     74  O   UNL A   1      46.851  25.475  38.613  1.00  0.00    -0.237 OA
ATOM     75  O   UNL A   1      47.035  24.476  36.366  1.00  0.00    -0.744 OA
ENDBRANCH  71  72
ENDBRANCH  50  64
BRANCH  51  76
ATOM     76  C   UNL A   1      36.410  33.344  31.145  1.00  0.00     0.058 A 
ATOM     77  C   UNL A   1      36.682  34.167  30.040  1.00  0.00     0.135 A 
ATOM     78  C   UNL A   1      35.078  33.252  31.575  1.00  0.00     0.135 A 
ATOM     79  F   UNL A   1      37.943  34.303  29.601  1.00  0.00    -0.206 F 
ATOM     80  C   UNL A   1      35.677  34.871  29.387  1.00  0.00     0.059 A 
ATOM     81  C   UNL A   1      34.049  33.927  30.921  1.00  0.00     0.059 A 
ATOM     82  F   UNL A   1      34.760  32.477  32.624  1.00  0.00    -0.206 F 
ATOM     83  C   UNL A   1      34.359  34.735  29.829  1.00  0.00     0.060 A 
BRANCH  83  84
ATOM     84  S   UNL A   1      33.053  35.589  28.918  1.00  0.00     0.124 S 
ATOM     85  O   UNL A   1      33.808  36.616  28.209  1.00  0.00    -0.237 OA
ATOM     86  O   UNL A   1      32.507  34.515  28.094  1.00  0.00    -0.237 OA
ATOM     87  O   UNL A   1      32.168  36.072  29.974  1.00  0.00    -0.744 OA
ENDBRANCH  83  84
ENDBRANCH  51  76
BRANCH  63  88
ATOM     88  C   UNL A   1      39.940  34.266  37.114  1.00  0.00     0.058 A 
ATOM     89  C   UNL A   1      40.513  35.534  36.941  1.00  0.00     0.135 A 
ATOM     90  C   UNL A   1      39.199  34.037  38.288  1.00  0.00     0.135 A 
ATOM     91  F   UNL A   1      41.239  35.805  35.845  1.00  0.00    -0.206 F 
ATOM     92  C   UNL A   1      40.346  36.541  37.889  1.00  0.00     0.059 A 
ATOM     93  C   UNL A   1      38.996  35.036  39.233  1.00  0.00     0.059 A 
ATOM     94  F   UNL A   1      38.623  32.843  38.499  1.00  0.00    -0.206 F 
ATOM     95  C   UNL A   1      39.573  36.288  39.025  1.00  0.00     0.060 A 
BRANCH  95  96
ATOM     96  S   UNL A   1      39.285  37.631  40.196  1.00  0.00     0.124 S 
ATOM     97  O   UNL A   1      38.898  36.898  41.397  1.00  0.00    -0.237 OA
ATOM     98  O   UNL A   1      40.589  38.285  40.246  1.00  0.00    -0.237 OA
ATOM     99  O   UNL A   1      38.223  38.411  39.568  1.00  0.00    -0.744 OA
ENDBRANCH  95  96
ENDBRANCH  63  88
ENDBRANCH  37  38
ENDBRANCH  30  32
ENDBRANCH  29  30
ENDBRANCH  28  29
ENDBRANCH   1  28
TORSDOF 20
ENDMDL
MODEL 3
REMARK VINA RESULT:     -10.9      4.885      9.921
REMARK SMILES COc1ccc([C@H]2[C@H](C(=O)OCCOCCOC(=O)c3ccc(-c4c5nc(c(-c6c(F)cc(S(=O)(=O)[O-])cc6F)c6ccc([nH]6)c(-c6c(F)cc(S(=O)(=O)[O-])cc6F)c6nc(c(-c7c(F)cc(S(=O)(=O)[O-])cc7F)c7ccc4[nH]7)C=C6)C=C5)cc3)CCN2c2ccc(F)cc2)cc1
REMARK SMILES IDX 15 1 14 2 13 3 12 4 11 5 9 6 10 7 8 8 7 9 88 10 86 11 87 12
REMARK SMILES IDX 6 13 3 14 4 15 97 16 5 17 96 18 2 19 1 20 89 21 90 22 95 23
REMARK SMILES IDX 91 24 94 25 92 26 93 27 16 28 17 29 18 30 19 31 20 32 21 33
REMARK SMILES IDX 85 34 22 35 84 36 23 37 24 38 25 39 78 40 26 41 83 42 77 43
REMARK SMILES IDX 79 44 27 45 82 46 76 47 75 48 28 50 62 51 41 52 61 53 42 54
REMARK SMILES IDX 45 55 60 56 80 57 43 58 44 59 59 61 81 62 46 63 29 64 30 65
REMARK SMILES IDX 39 66 31 67 32 68 38 69 40 70 33 71 34 72 35 73 36 74 37 75
REMARK SMILES IDX 63 76 64 77 73 78 65 79 66 80 72 81 74 82 67 83 68 84 69 85
REMARK SMILES IDX 70 86 71 87 47 88 48 89 57 90 49 91 50 92 56 93 58 94 51 95
REMARK SMILES IDX 52 96 53 97 54 98 55 99
REMARK H PARENT 79 49 45 60
REMARK Flexibility Score: inf
ROOT
ATOM      1  C   UNL A   1      41.977  21.595  26.149  1.00  0.00     0.202 C 
ENDROOT
BRANCH   1   2
ATOM      2  O   UNL A   1      40.619  21.439  26.555  1.00  0.00    -0.374 OA
BRANCH   2   3
ATOM      3  C   UNL A   1      39.833  20.505  25.817  1.00  0.00     0.202 C 
BRANCH   3   4
ATOM      4  C   UNL A   1      38.331  20.779  25.760  1.00  0.00     0.261 C 
BRANCH   4   5
ATOM      5  O   UNL A   1      38.041  21.957  24.987  1.00  0.00    -0.463 OA
BRANCH   5   6
ATOM      6  C   UNL A   1      37.616  23.034  25.689  1.00  0.00     0.311 C 
ATOM      7  O   UNL A   1      38.282  23.618  26.538  1.00  0.00    -0.252 OA
BRANCH   6   8
ATOM      8  C   UNL A   1      36.198  23.454  25.381  1.00  0.00     0.128 C 
ATOM      9  C   UNL A   1      35.437  22.620  24.331  1.00  0.00     0.127 C 
ATOM     10  N   UNL A   1      34.788  21.584  25.151  1.00  0.00    -0.364 N 
ATOM     11  C   UNL A   1      35.331  23.353  26.630  1.00  0.00     0.039 C 
ATOM     12  C   UNL A   1      34.717  21.957  26.560  1.00  0.00     0.118 C 
BRANCH   9  13
ATOM     13  C   UNL A   1      34.400  23.501  23.605  1.00  0.00    -0.024 A 
ATOM     14  C   UNL A   1      32.693  25.189  22.103  1.00  0.00     0.118 A 
ATOM     15  C   UNL A   1      32.896  23.865  21.716  1.00  0.00     0.047 A 
ATOM     16  C   UNL A   1      33.262  25.643  23.285  1.00  0.00     0.047 A 
ATOM     17  C   UNL A   1      33.735  23.026  22.461  1.00  0.00     0.010 A 
ATOM     18  C   UNL A   1      34.106  24.810  24.019  1.00  0.00     0.010 A 
BRANCH  14  19
ATOM     19  O   UNL A   1      31.901  25.955  21.291  1.00  0.00    -0.497 OA
ATOM     20  C   UNL A   1      31.053  26.860  22.000  1.00  0.00     0.278 C 
ENDBRANCH  14  19
ENDBRANCH   9  13
BRANCH  10  21
ATOM     21  C   UNL A   1      34.328  20.371  24.690  1.00  0.00     0.037 A 
ATOM     22  C   UNL A   1      35.175  19.247  24.643  1.00  0.00     0.029 A 
ATOM     23  C   UNL A   1      32.999  20.180  24.295  1.00  0.00     0.029 A 
ATOM     24  C   UNL A   1      34.715  17.986  24.249  1.00  0.00     0.041 A 
ATOM     25  C   UNL A   1      32.534  18.921  23.900  1.00  0.00     0.041 A 
ATOM     26  C   UNL A   1      33.393  17.836  23.875  1.00  0.00     0.123 A 
ATOM     27  F   UNL A   1      32.935  16.637  23.499  1.00  0.00    -0.207 F 
ENDBRANCH  10  21
ENDBRANCH   6   8
ENDBRANCH   5   6
ENDBRANCH   4   5
ENDBRANCH   3   4
ENDBRANCH   2   3
ENDBRANCH   1   2
BRANCH   1  28
ATOM     28  C   UNL A   1      42.539  23.026  26.131  1.00  0.00     0.261 C 
BRANCH  28  29
ATOM     29  O   UNL A   1      41.523  24.028  26.308  1.00  0.00    -0.460 OA
BRANCH  29  30
ATOM     30  C   UNL A   1      41.888  25.298  25.992  1.00  0.00     0.338 C 
ATOM     31  O   UNL A   1      42.283  25.705  24.912  1.00  0.00    -0.246 OA
BRANCH  30  32
ATOM     32  C   UNL A   1      41.546  26.180  27.127  1.00  0.00     0.060 A 
ATOM     33  C   UNL A   1      42.133  27.449  27.217  1.00  0.00     0.016 A 
ATOM     34  C   UNL A   1      40.650  25.752  28.101  1.00  0.00     0.016 A 
ATOM     35  C   UNL A   1      41.835  28.287  28.298  1.00  0.00     0.010 A 
ATOM     36  C   UNL A   1      40.328  26.604  29.159  1.00  0.00     0.010 A 
ATOM     37  C   UNL A   1      40.944  27.863  29.293  1.00  0.00    -0.014 A 
BRANCH  37  38
ATOM     38  C   UNL A   1      40.776  28.601  30.578  1.00  0.00     0.031 A 
ATOM     39  C   UNL A   1      39.689  29.646  30.655  1.00  0.00     0.074 A 
ATOM     40  C   UNL A   1      41.580  28.405  31.640  1.00  0.00     0.049 A 
ATOM     41  N   UNL A   1      39.467  30.558  31.565  1.00  0.00    -0.248 NA
ATOM     42  C   UNL A   1      38.752  29.687  29.520  1.00  0.00     0.031 C 
ATOM     43  C   UNL A   1      42.646  27.410  31.732  1.00  0.00     0.029 A 
ATOM     44  N   UNL A   1      41.630  29.060  32.848  1.00  0.00    -0.354 N 
ATOM     45  C   UNL A   1      38.402  31.314  31.084  1.00  0.00     0.074 A 
ATOM     46  C   UNL A   1      38.064  30.787  29.781  1.00  0.00     0.031 C 
ATOM     47  C   UNL A   1      43.236  27.512  32.937  1.00  0.00     0.029 A 
ATOM     48  C   UNL A   1      42.629  28.615  33.682  1.00  0.00     0.049 A 
ATOM     49  H   UNL A   1      41.007  29.782  33.095  1.00  0.00     0.167 HD
ATOM     50  C   UNL A   1      37.747  32.340  31.678  1.00  0.00     0.037 A 
ATOM     51  C   UNL A   1      43.021  29.059  34.895  1.00  0.00     0.037 A 
ATOM     52  C   UNL A   1      38.058  32.837  32.990  1.00  0.00     0.049 A 
ATOM     53  C   UNL A   1      42.320  30.240  35.523  1.00  0.00     0.074 A 
ATOM     54  C   UNL A   1      37.431  33.847  33.698  1.00  0.00     0.029 A 
ATOM     55  N   UNL A   1      39.084  32.360  33.794  1.00  0.00    -0.354 N 
ATOM     56  N   UNL A   1      41.311  30.942  35.064  1.00  0.00    -0.248 NA
ATOM     57  C   UNL A   1      42.815  30.693  36.833  1.00  0.00     0.031 C 
ATOM     58  C   UNL A   1      38.111  34.016  34.908  1.00  0.00     0.029 A 
ATOM     59  C   UNL A   1      39.119  33.067  34.983  1.00  0.00     0.049 A 
ATOM     60  H   UNL A   1      39.696  31.627  33.553  1.00  0.00     0.167 HD
ATOM     61  C   UNL A   1      41.020  31.884  36.048  1.00  0.00     0.074 A 
ATOM     62  C   UNL A   1      41.968  31.673  37.121  1.00  0.00     0.031 C 
ATOM     63  C   UNL A   1      40.045  32.827  36.064  1.00  0.00     0.037 A 
BRANCH  50  64
ATOM     64  C   UNL A   1      36.647  33.001  30.889  1.00  0.00     0.058 A 
ATOM     65  C   UNL A   1      36.917  33.877  29.825  1.00  0.00     0.135 A 
ATOM     66  C   UNL A   1      35.301  32.782  31.228  1.00  0.00     0.135 A 
ATOM     67  F   UNL A   1      38.186  34.133  29.463  1.00  0.00    -0.206 F 
ATOM     68  C   UNL A   1      35.901  34.570  29.176  1.00  0.00     0.059 A 
ATOM     69  C   UNL A   1      34.265  33.433  30.563  1.00  0.00     0.059 A 
ATOM     70  F   UNL A   1      34.981  31.947  32.228  1.00  0.00    -0.206 F 
ATOM     71  C   UNL A   1      34.578  34.349  29.560  1.00  0.00     0.060 A 
BRANCH  71  72
ATOM     72  S   UNL A   1      33.276  35.300  28.751  1.00  0.00     0.124 S 
ATOM     73  O   UNL A   1      32.578  34.257  28.005  1.00  0.00    -0.237 OA
ATOM     74  O   UNL A   1      32.549  35.863  29.883  1.00  0.00    -0.237 OA
ATOM     75  O   UNL A   1      34.014  36.265  27.940  1.00  0.00    -0.744 OA
ENDBRANCH  71  72
ENDBRANCH  50  64
BRANCH  51  76
ATOM     76  C   UNL A   1      44.118  28.362  35.622  1.00  0.00     0.058 A 
ATOM     77  C   UNL A   1      43.827  27.340  36.540  1.00  0.00     0.135 A 
ATOM     78  C   UNL A   1      45.469  28.677  35.407  1.00  0.00     0.135 A 
ATOM     79  F   UNL A   1      42.550  27.014  36.795  1.00  0.00    -0.206 F 
ATOM     80  C   UNL A   1      44.830  26.657  37.218  1.00  0.00     0.059 A 
ATOM     81  C   UNL A   1      46.493  27.990  36.055  1.00  0.00     0.059 A 
ATOM     82  F   UNL A   1      45.805  29.643  34.539  1.00  0.00    -0.206 F 
ATOM     83  C   UNL A   1      46.164  26.981  36.959  1.00  0.00     0.060 A 
BRANCH  83  84
ATOM     84  S   UNL A   1      47.457  26.028  37.784  1.00  0.00     0.124 S 
ATOM     85  O   UNL A   1      48.628  26.870  37.572  1.00  0.00    -0.237 OA
ATOM     86  O   UNL A   1      46.957  25.961  39.153  1.00  0.00    -0.237 OA
ATOM     87  O   UNL A   1      47.453  24.760  37.060  1.00  0.00    -0.744 OA
ENDBRANCH  83  84
ENDBRANCH  51  76
BRANCH  63  88
ATOM     88  C   UNL A   1      39.879  33.668  37.301  1.00  0.00     0.058 A 
ATOM     89  C   UNL A   1      40.585  34.865  37.493  1.00  0.00     0.135 A 
ATOM     90  C   UNL A   1      38.896  33.329  38.249  1.00  0.00     0.135 A 
ATOM     91  F   UNL A   1      41.540  35.233  36.626  1.00  0.00    -0.206 F 
ATOM     92  C   UNL A   1      40.316  35.700  38.576  1.00  0.00     0.059 A 
ATOM     93  C   UNL A   1      38.592  34.161  39.321  1.00  0.00     0.059 A 
ATOM     94  F   UNL A   1      38.186  32.198  38.108  1.00  0.00    -0.206 F 
ATOM     95  C   UNL A   1      39.308  35.347  39.476  1.00  0.00     0.060 A 
BRANCH  95  96
ATOM     96  S   UNL A   1      38.906  36.485  40.819  1.00  0.00     0.124 S 
ATOM     97  O   UNL A   1      37.947  35.703  41.592  1.00  0.00    -0.237 OA
ATOM     98  O   UNL A   1      40.206  36.695  41.448  1.00  0.00    -0.237 OA
ATOM     99  O   UNL A   1      38.356  37.647  40.129  1.00  0.00    -0.744 OA
ENDBRANCH  95  96
ENDBRANCH  63  88
ENDBRANCH  37  38
ENDBRANCH  30  32
ENDBRANCH  29  30
ENDBRANCH  28  29
ENDBRANCH   1  28
TORSDOF 20
ENDMDL
