MODEL 1
REMARK VINA RESULT:      -8.8      0.000      0.000
REMARK SMILES C[C@@H](Oc1ccc(/C=C2\C(=O)[NH+]=C(OCCOCCOC(=O)c3ccc(-c4c5nc(c(-c6c(F)cc(S(=O)(=O)[O-])cc6F)c6ccc([nH]6)c(-c6c(F)cc(S(=O)(=O)[O-])cc6F)c6nc(c(-c7c(F)cc(S(=O)(=O)[O-])cc7F)c7ccc4[nH]7)C=C6)C=C5)cc3)N(c3ccc4c(c3)OCO4)C2=O)cc1)C(=O)[O-]
REMARK SMILES IDX 17 1 16 2 15 3 14 4 13 5 8 6 9 7 10 8 99 9 11 10 12 11 89 12
REMARK SMILES IDX 100 13 7 15 4 16 5 17 102 18 6 19 101 20 3 21 2 22 1 23
REMARK SMILES IDX 103 24 104 25 105 26 90 27 91 28 95 29 92 30 94 31 93 32
REMARK SMILES IDX 96 33 98 34 97 35 18 36 19 37 20 38 21 39 22 40 23 41 24 42
REMARK SMILES IDX 88 43 25 44 87 45 26 46 27 47 28 48 81 49 29 50 86 51 80 52
REMARK SMILES IDX 82 53 30 54 85 55 79 56 78 57 31 59 65 60 44 61 64 62 45 63
REMARK SMILES IDX 48 64 63 65 83 66 46 67 47 68 62 70 84 71 49 72 32 73 33 74
REMARK SMILES IDX 42 75 34 76 35 77 41 78 43 79 36 80 37 81 38 82 39 83 40 84
REMARK SMILES IDX 66 85 67 86 76 87 68 88 69 89 75 90 77 91 70 92 71 93 72 94
REMARK SMILES IDX 73 95 74 96 50 97 51 98 60 99 52 100 53 101 59 102 61 103
REMARK SMILES IDX 54 104 55 105 56 106 57 107 58 108
REMARK H PARENT 12 14 82 58 48 69
REMARK Flexibility Score: inf
ROOT
ATOM      1  O   UNL A   1      45.386  23.821  25.880  1.00  0.00    -0.374 OA
ENDROOT
BRANCH   1   2
ATOM      2  C   UNL A   1      46.113  24.886  25.249  1.00  0.00     0.202 C 
BRANCH   2   3
ATOM      3  C   UNL A   1      45.637  26.266  25.726  1.00  0.00     0.266 C 
BRANCH   3   4
ATOM      4  O   UNL A   1      46.576  27.018  26.532  1.00  0.00    -0.428 OA
BRANCH   4   5
ATOM      5  C   UNL A   1      46.413  26.971  27.878  1.00  0.00     0.465 C 
ATOM      6  C   UNL A   1      46.794  26.821  31.855  1.00  0.00     0.032 C 
ATOM      7  C   UNL A   1      46.385  26.856  30.571  1.00  0.00     0.155 C 
ATOM      8  C   UNL A   1      46.028  25.701  29.733  1.00  0.00     0.349 C 
ATOM      9  C   UNL A   1      46.250  28.195  29.937  1.00  0.00     0.357 C 
ATOM     10  O   UNL A   1      45.377  24.762  30.172  1.00  0.00    -0.240 OA
ATOM     11  N   UNL A   1      46.384  25.803  28.422  1.00  0.00    -0.171 N 
ATOM     12  N   UNL A   1      46.278  28.171  28.553  1.00  0.00    -0.123 N 
ATOM     13  O   UNL A   1      46.184  29.215  30.624  1.00  0.00    -0.240 OA
ATOM     14  H   UNL A   1      46.614  25.000  27.901  1.00  0.00     0.319 HD
BRANCH   6  15
ATOM     15  C   UNL A   1      47.073  25.713  32.793  1.00  0.00    -0.024 A 
ATOM     16  C   UNL A   1      47.413  23.699  34.747  1.00  0.00     0.120 A 
ATOM     17  C   UNL A   1      48.483  24.095  33.954  1.00  0.00     0.047 A 
ATOM     18  C   UNL A   1      46.183  24.324  34.599  1.00  0.00     0.047 A 
ATOM     19  C   UNL A   1      48.317  25.105  32.995  1.00  0.00     0.012 A 
ATOM     20  C   UNL A   1      46.011  25.305  33.618  1.00  0.00     0.012 A 
BRANCH  16  21
ATOM     21  O   UNL A   1      47.656  22.812  35.756  1.00  0.00    -0.485 OA
BRANCH  21  22
ATOM     22  C   UNL A   1      46.610  21.857  35.968  1.00  0.00     0.216 C 
ATOM     23  C   UNL A   1      45.981  22.005  37.351  1.00  0.00     0.059 C 
BRANCH  22  24
ATOM     24  C   UNL A   1      47.206  20.456  35.885  1.00  0.00     0.082 C 
ATOM     25  O   UNL A   1      48.265  20.161  35.349  1.00  0.00    -0.546 OA
ATOM     26  O   UNL A   1      46.415  19.484  36.384  1.00  0.00    -0.546 OA
ENDBRANCH  22  24
ENDBRANCH  21  22
ENDBRANCH  16  21
ENDBRANCH   6  15
BRANCH  12  27
ATOM     27  C   UNL A   1      46.233  29.417  27.872  1.00  0.00     0.144 A 
ATOM     28  C   UNL A   1      47.441  30.101  27.602  1.00  0.00     0.056 A 
ATOM     29  C   UNL A   1      45.006  29.960  27.472  1.00  0.00     0.103 A 
ATOM     30  C   UNL A   1      47.433  31.333  26.944  1.00  0.00     0.055 A 
ATOM     31  C   UNL A   1      45.039  31.150  26.776  1.00  0.00     0.170 A 
ATOM     32  C   UNL A   1      46.216  31.818  26.524  1.00  0.00     0.166 A 
ATOM     33  O   UNL A   1      43.959  31.787  26.248  1.00  0.00    -0.453 OA
ATOM     34  O   UNL A   1      46.018  32.965  25.820  1.00  0.00    -0.454 OA
ATOM     35  C   UNL A   1      44.608  32.861  25.536  1.00  0.00     0.468 C 
ENDBRANCH  12  27
ENDBRANCH   4   5
ENDBRANCH   3   4
ENDBRANCH   2   3
ENDBRANCH   1   2
BRANCH   1  36
ATOM     36  C   UNL A   1      43.976  23.826  25.609  1.00  0.00     0.202 C 
BRANCH  36  37
ATOM     37  C   UNL A   1      43.100  23.696  26.851  1.00  0.00     0.261 C 
BRANCH  37  38
ATOM     38  O   UNL A   1      41.749  24.010  26.511  1.00  0.00    -0.460 OA
BRANCH  38  39
ATOM     39  C   UNL A   1      41.547  25.285  26.100  1.00  0.00     0.338 C 
ATOM     40  O   UNL A   1      41.278  25.660  24.975  1.00  0.00    -0.246 OA
BRANCH  39  41
ATOM     41  C   UNL A   1      41.503  26.154  27.298  1.00  0.00     0.060 A 
ATOM     42  C   UNL A   1      40.404  26.015  28.157  1.00  0.00     0.016 A 
ATOM     43  C   UNL A   1      42.547  27.031  27.615  1.00  0.00     0.016 A 
ATOM     44  C   UNL A   1      40.326  26.784  29.314  1.00  0.00     0.010 A 
ATOM     45  C   UNL A   1      42.470  27.800  28.771  1.00  0.00     0.010 A 
ATOM     46  C   UNL A   1      41.342  27.703  29.602  1.00  0.00    -0.014 A 
BRANCH  46  47
ATOM     47  C   UNL A   1      41.139  28.721  30.649  1.00  0.00     0.031 A 
ATOM     48  C   UNL A   1      42.019  28.653  31.865  1.00  0.00     0.074 A 
ATOM     49  C   UNL A   1      40.184  29.658  30.526  1.00  0.00     0.049 A 
ATOM     50  N   UNL A   1      41.984  29.370  32.954  1.00  0.00    -0.248 NA
ATOM     51  C   UNL A   1      43.073  27.622  31.852  1.00  0.00     0.031 C 
ATOM     52  C   UNL A   1      39.294  29.814  29.376  1.00  0.00     0.029 A 
ATOM     53  N   UNL A   1      39.796  30.645  31.392  1.00  0.00    -0.354 N 
ATOM     54  C   UNL A   1      43.003  28.874  33.758  1.00  0.00     0.074 A 
ATOM     55  C   UNL A   1      43.619  27.777  33.047  1.00  0.00     0.031 C 
ATOM     56  C   UNL A   1      38.447  30.830  29.618  1.00  0.00     0.029 A 
ATOM     57  C   UNL A   1      38.720  31.374  30.947  1.00  0.00     0.049 A 
ATOM     58  H   UNL A   1      40.245  30.816  32.251  1.00  0.00     0.167 HD
ATOM     59  C   UNL A   1      43.393  29.304  34.979  1.00  0.00     0.037 A 
ATOM     60  C   UNL A   1      38.028  32.354  31.560  1.00  0.00     0.037 A 
ATOM     61  C   UNL A   1      42.765  30.395  35.673  1.00  0.00     0.049 A 
ATOM     62  C   UNL A   1      38.457  32.792  32.937  1.00  0.00     0.074 A 
ATOM     63  C   UNL A   1      43.082  30.926  36.910  1.00  0.00     0.029 A 
ATOM     64  N   UNL A   1      41.685  31.118  35.188  1.00  0.00    -0.354 N 
ATOM     65  N   UNL A   1      39.438  32.336  33.680  1.00  0.00    -0.248 NA
ATOM     66  C   UNL A   1      37.688  33.879  33.559  1.00  0.00     0.031 C 
ATOM     67  C   UNL A   1      42.170  31.949  37.187  1.00  0.00     0.029 A 
ATOM     68  C   UNL A   1      41.314  32.084  36.105  1.00  0.00     0.049 A 
ATOM     69  H   UNL A   1      41.249  30.966  34.319  1.00  0.00     0.167 HD
ATOM     70  C   UNL A   1      39.424  33.099  34.842  1.00  0.00     0.074 A 
ATOM     71  C   UNL A   1      38.339  34.048  34.702  1.00  0.00     0.031 C 
ATOM     72  C   UNL A   1      40.236  33.025  35.926  1.00  0.00     0.037 A 
BRANCH  59  73
ATOM     73  C   UNL A   1      44.532  28.580  35.636  1.00  0.00     0.058 A 
ATOM     74  C   UNL A   1      44.314  27.493  36.498  1.00  0.00     0.135 A 
ATOM     75  C   UNL A   1      45.858  28.976  35.400  1.00  0.00     0.135 A 
ATOM     76  F   UNL A   1      43.063  27.094  36.778  1.00  0.00    -0.206 F 
ATOM     77  C   UNL A   1      45.370  26.839  37.122  1.00  0.00     0.059 A 
ATOM     78  C   UNL A   1      46.931  28.319  35.995  1.00  0.00     0.059 A 
ATOM     79  F   UNL A   1      46.120  30.016  34.593  1.00  0.00    -0.206 F 
ATOM     80  C   UNL A   1      46.676  27.260  36.865  1.00  0.00     0.060 A 
BRANCH  80  81
ATOM     81  S   UNL A   1      48.036  26.399  37.680  1.00  0.00     0.124 S 
ATOM     82  O   UNL A   1      48.900  26.083  36.546  1.00  0.00    -0.237 OA
ATOM     83  O   UNL A   1      48.545  27.413  38.599  1.00  0.00    -0.237 OA
ATOM     84  O   UNL A   1      47.385  25.256  38.311  1.00  0.00    -0.744 OA
ENDBRANCH  80  81
ENDBRANCH  59  73
BRANCH  60  85
ATOM     85  C   UNL A   1      36.866  32.983  30.881  1.00  0.00     0.058 A 
ATOM     86  C   UNL A   1      35.554  32.592  31.182  1.00  0.00     0.135 A 
ATOM     87  C   UNL A   1      37.043  33.996  29.925  1.00  0.00     0.135 A 
ATOM     88  F   UNL A   1      35.334  31.623  32.085  1.00  0.00    -0.206 F 
ATOM     89  C   UNL A   1      34.457  33.169  30.549  1.00  0.00     0.059 A 
ATOM     90  C   UNL A   1      35.962  34.604  29.295  1.00  0.00     0.059 A 
ATOM     91  F   UNL A   1      38.278  34.416  29.611  1.00  0.00    -0.206 F 
ATOM     92  C   UNL A   1      34.672  34.176  29.607  1.00  0.00     0.060 A 
BRANCH  92  93
ATOM     93  S   UNL A   1      33.240  34.955  28.828  1.00  0.00     0.124 S 
ATOM     94  O   UNL A   1      32.782  33.898  27.934  1.00  0.00    -0.237 OA
ATOM     95  O   UNL A   1      32.381  35.237  29.975  1.00  0.00    -0.237 OA
ATOM     96  O   UNL A   1      33.812  36.131  28.178  1.00  0.00    -0.744 OA
ENDBRANCH  92  93
ENDBRANCH  60  85
BRANCH  72  97
ATOM     97  C   UNL A   1      40.011  34.023  37.026  1.00  0.00     0.058 A 
ATOM     98  C   UNL A   1      40.531  35.323  36.959  1.00  0.00     0.135 A 
ATOM     99  C   UNL A   1      39.203  33.690  38.126  1.00  0.00     0.135 A 
ATOM    100  F   UNL A   1      41.313  35.686  35.930  1.00  0.00    -0.206 F 
ATOM    101  C   UNL A   1      40.270  36.259  37.955  1.00  0.00     0.059 A 
ATOM    102  C   UNL A   1      38.909  34.616  39.120  1.00  0.00     0.059 A 
ATOM    103  F   UNL A   1      38.672  32.461  38.227  1.00  0.00    -0.206 F 
ATOM    104  C   UNL A   1      39.456  35.895  39.031  1.00  0.00     0.060 A 
BRANCH 104 105
ATOM    105  S   UNL A   1      39.087  37.130  40.295  1.00  0.00     0.124 S 
ATOM    106  O   UNL A   1      38.217  36.378  41.194  1.00  0.00    -0.237 OA
ATOM    107  O   UNL A   1      40.412  37.451  40.817  1.00  0.00    -0.237 OA
ATOM    108  O   UNL A   1      38.441  38.201  39.543  1.00  0.00    -0.744 OA
ENDBRANCH 104 105
ENDBRANCH  72  97
ENDBRANCH  46  47
ENDBRANCH  39  41
ENDBRANCH  38  39
ENDBRANCH  37  38
ENDBRANCH  36  37
ENDBRANCH   1  36
TORSDOF 21
ENDMDL
MODEL 2
REMARK VINA RESULT:      -8.5      1.193      9.718
REMARK SMILES C[C@@H](Oc1ccc(/C=C2\C(=O)[NH+]=C(OCCOCCOC(=O)c3ccc(-c4c5nc(c(-c6c(F)cc(S(=O)(=O)[O-])cc6F)c6ccc([nH]6)c(-c6c(F)cc(S(=O)(=O)[O-])cc6F)c6nc(c(-c7c(F)cc(S(=O)(=O)[O-])cc7F)c7ccc4[nH]7)C=C6)C=C5)cc3)N(c3ccc4c(c3)OCO4)C2=O)cc1)C(=O)[O-]
REMARK SMILES IDX 17 1 16 2 15 3 14 4 13 5 8 6 9 7 10 8 99 9 11 10 12 11 89 12
REMARK SMILES IDX 100 13 7 15 4 16 5 17 102 18 6 19 101 20 3 21 2 22 1 23
REMARK SMILES IDX 103 24 104 25 105 26 90 27 91 28 95 29 92 30 94 31 93 32
REMARK SMILES IDX 96 33 98 34 97 35 18 36 19 37 20 38 21 39 22 40 23 41 24 42
REMARK SMILES IDX 88 43 25 44 87 45 26 46 27 47 28 48 81 49 29 50 86 51 80 52
REMARK SMILES IDX 82 53 30 54 85 55 79 56 78 57 31 59 65 60 44 61 64 62 45 63
REMARK SMILES IDX 48 64 63 65 83 66 46 67 47 68 62 70 84 71 49 72 32 73 33 74
REMARK SMILES IDX 42 75 34 76 35 77 41 78 43 79 36 80 37 81 38 82 39 83 40 84
REMARK SMILES IDX 66 85 67 86 76 87 68 88 69 89 75 90 77 91 70 92 71 93 72 94
REMARK SMILES IDX 73 95 74 96 50 97 51 98 60 99 52 100 53 101 59 102 61 103
REMARK SMILES IDX 54 104 55 105 56 106 57 107 58 108
REMARK H PARENT 12 14 82 58 48 69
REMARK Flexibility Score: inf
ROOT
ATOM      1  O   UNL A   1      42.294  22.077  27.965  1.00  0.00    -0.374 OA
ENDROOT
BRANCH   1   2
ATOM      2  C   UNL A   1      42.569  22.869  29.130  1.00  0.00     0.202 C 
BRANCH   2   3
ATOM      3  C   UNL A   1      44.078  23.010  29.382  1.00  0.00     0.266 C 
BRANCH   3   4
ATOM      4  O   UNL A   1      44.458  23.743  30.571  1.00  0.00    -0.428 OA
BRANCH   4   5
ATOM      5  C   UNL A   1      45.059  24.945  30.392  1.00  0.00     0.465 C 
ATOM      6  C   UNL A   1      46.031  28.798  29.949  1.00  0.00     0.032 C 
ATOM      7  C   UNL A   1      45.982  27.454  30.047  1.00  0.00     0.155 C 
ATOM      8  C   UNL A   1      45.876  26.498  28.935  1.00  0.00     0.349 C 
ATOM      9  C   UNL A   1      46.072  26.868  31.412  1.00  0.00     0.357 C 
ATOM     10  O   UNL A   1      46.505  26.644  27.895  1.00  0.00    -0.240 OA
ATOM     11  N   UNL A   1      45.114  25.397  29.187  1.00  0.00    -0.171 N 
ATOM     12  N   UNL A   1      45.575  25.580  31.508  1.00  0.00    -0.123 N 
ATOM     13  O   UNL A   1      46.503  27.531  32.356  1.00  0.00    -0.240 OA
ATOM     14  H   UNL A   1      44.616  24.955  28.462  1.00  0.00     0.319 HD
BRANCH   6  15
ATOM     15  C   UNL A   1      45.941  29.728  28.804  1.00  0.00    -0.024 A 
ATOM     16  C   UNL A   1      45.961  31.655  26.736  1.00  0.00     0.120 A 
ATOM     17  C   UNL A   1      44.799  30.950  27.027  1.00  0.00     0.047 A 
ATOM     18  C   UNL A   1      47.105  31.432  27.490  1.00  0.00     0.047 A 
ATOM     19  C   UNL A   1      44.787  30.006  28.064  1.00  0.00     0.012 A 
ATOM     20  C   UNL A   1      47.099  30.464  28.499  1.00  0.00     0.012 A 
BRANCH  16  21
ATOM     21  O   UNL A   1      45.888  32.657  25.812  1.00  0.00    -0.485 OA
BRANCH  21  22
ATOM     22  C   UNL A   1      44.730  33.491  25.934  1.00  0.00     0.216 C 
ATOM     23  C   UNL A   1      44.036  33.697  24.590  1.00  0.00     0.059 C 
BRANCH  22  24
ATOM     24  C   UNL A   1      45.170  34.862  26.436  1.00  0.00     0.082 C 
ATOM     25  O   UNL A   1      44.433  35.734  26.874  1.00  0.00    -0.546 OA
ATOM     26  O   UNL A   1      46.486  35.116  26.278  1.00  0.00    -0.546 OA
ENDBRANCH  22  24
ENDBRANCH  21  22
ENDBRANCH  16  21
ENDBRANCH   6  15
BRANCH  12  27
ATOM     27  C   UNL A   1      45.552  24.978  32.795  1.00  0.00     0.144 A 
ATOM     28  C   UNL A   1      44.321  24.857  33.480  1.00  0.00     0.056 A 
ATOM     29  C   UNL A   1      46.737  24.508  33.376  1.00  0.00     0.103 A 
ATOM     30  C   UNL A   1      44.265  24.280  34.751  1.00  0.00     0.055 A 
ATOM     31  C   UNL A   1      46.637  23.895  34.606  1.00  0.00     0.170 A 
ATOM     32  C   UNL A   1      45.438  23.788  35.276  1.00  0.00     0.166 A 
ATOM     33  O   UNL A   1      47.662  23.316  35.288  1.00  0.00    -0.453 OA
ATOM     34  O   UNL A   1      45.567  23.143  36.466  1.00  0.00    -0.454 OA
ATOM     35  C   UNL A   1      46.947  22.732  36.396  1.00  0.00     0.468 C 
ENDBRANCH  12  27
ENDBRANCH   4   5
ENDBRANCH   3   4
ENDBRANCH   2   3
ENDBRANCH   1   2
BRANCH   1  36
ATOM     36  C   UNL A   1      41.680  22.802  26.888  1.00  0.00     0.202 C 
BRANCH  36  37
ATOM     37  C   UNL A   1      42.660  23.591  26.027  1.00  0.00     0.261 C 
BRANCH  37  38
ATOM     38  O   UNL A   1      42.793  24.912  26.552  1.00  0.00    -0.460 OA
BRANCH  38  39
ATOM     39  C   UNL A   1      41.834  25.782  26.151  1.00  0.00     0.338 C 
ATOM     40  O   UNL A   1      41.248  25.791  25.086  1.00  0.00    -0.246 OA
BRANCH  39  41
ATOM     41  C   UNL A   1      41.455  26.616  27.314  1.00  0.00     0.060 A 
ATOM     42  C   UNL A   1      42.020  27.896  27.403  1.00  0.00     0.016 A 
ATOM     43  C   UNL A   1      40.513  26.188  28.257  1.00  0.00     0.016 A 
ATOM     44  C   UNL A   1      41.676  28.735  28.458  1.00  0.00     0.010 A 
ATOM     45  C   UNL A   1      40.169  27.026  29.313  1.00  0.00     0.010 A 
ATOM     46  C   UNL A   1      40.778  28.286  29.433  1.00  0.00    -0.014 A 
BRANCH  46  47
ATOM     47  C   UNL A   1      40.628  29.031  30.697  1.00  0.00     0.031 A 
ATOM     48  C   UNL A   1      39.570  30.095  30.754  1.00  0.00     0.074 A 
ATOM     49  C   UNL A   1      41.429  28.780  31.746  1.00  0.00     0.049 A 
ATOM     50  N   UNL A   1      39.296  30.941  31.709  1.00  0.00    -0.248 NA
ATOM     51  C   UNL A   1      38.711  30.229  29.563  1.00  0.00     0.031 C 
ATOM     52  C   UNL A   1      42.473  27.757  31.789  1.00  0.00     0.029 A 
ATOM     53  N   UNL A   1      41.497  29.386  32.972  1.00  0.00    -0.354 N 
ATOM     54  C   UNL A   1      38.243  31.712  31.233  1.00  0.00     0.074 A 
ATOM     55  C   UNL A   1      37.945  31.255  29.895  1.00  0.00     0.031 C 
ATOM     56  C   UNL A   1      43.092  27.819  32.981  1.00  0.00     0.029 A 
ATOM     57  C   UNL A   1      42.505  28.901  33.769  1.00  0.00     0.049 A 
ATOM     58  H   UNL A   1      40.881  30.100  33.255  1.00  0.00     0.167 HD
ATOM     59  C   UNL A   1      37.580  32.708  31.863  1.00  0.00     0.037 A 
ATOM     60  C   UNL A   1      42.913  29.307  34.987  1.00  0.00     0.037 A 
ATOM     61  C   UNL A   1      37.894  33.152  33.193  1.00  0.00     0.049 A 
ATOM     62  C   UNL A   1      42.184  30.444  35.655  1.00  0.00     0.074 A 
ATOM     63  C   UNL A   1      37.283  34.145  33.937  1.00  0.00     0.029 A 
ATOM     64  N   UNL A   1      38.914  32.630  33.976  1.00  0.00    -0.354 N 
ATOM     65  N   UNL A   1      41.171  31.150  35.209  1.00  0.00    -0.248 NA
ATOM     66  C   UNL A   1      42.648  30.838  36.992  1.00  0.00     0.031 C 
ATOM     67  C   UNL A   1      37.958  34.246  35.158  1.00  0.00     0.029 A 
ATOM     68  C   UNL A   1      38.960  33.288  35.191  1.00  0.00     0.049 A 
ATOM     69  H   UNL A   1      39.516  31.900  33.705  1.00  0.00     0.167 HD
ATOM     70  C   UNL A   1      40.858  32.050  36.221  1.00  0.00     0.074 A 
ATOM     71  C   UNL A   1      41.787  31.797  37.303  1.00  0.00     0.031 C 
ATOM     72  C   UNL A   1      39.889  32.999  36.255  1.00  0.00     0.037 A 
BRANCH  59  73
ATOM     73  C   UNL A   1      36.472  33.385  31.110  1.00  0.00     0.058 A 
ATOM     74  C   UNL A   1      36.734  34.245  30.031  1.00  0.00     0.135 A 
ATOM     75  C   UNL A   1      35.132  33.171  31.469  1.00  0.00     0.135 A 
ATOM     76  F   UNL A   1      38.000  34.505  29.666  1.00  0.00    -0.206 F 
ATOM     77  C   UNL A   1      35.707  34.888  29.350  1.00  0.00     0.059 A 
ATOM     78  C   UNL A   1      34.087  33.785  30.785  1.00  0.00     0.059 A 
ATOM     79  F   UNL A   1      34.829  32.367  32.500  1.00  0.00    -0.206 F 
ATOM     80  C   UNL A   1      34.386  34.653  29.735  1.00  0.00     0.060 A 
BRANCH  80  81
ATOM     81  S   UNL A   1      33.063  35.492  28.840  1.00  0.00     0.124 S 
ATOM     82  O   UNL A   1      32.285  36.060  29.936  1.00  0.00    -0.237 OA
ATOM     83  O   UNL A   1      33.798  36.451  28.020  1.00  0.00    -0.237 OA
ATOM     84  O   UNL A   1      32.414  34.412  28.103  1.00  0.00    -0.744 OA
ENDBRANCH  80  81
ENDBRANCH  59  73
BRANCH  60  85
ATOM     85  C   UNL A   1      44.062  28.637  35.650  1.00  0.00     0.058 A 
ATOM     86  C   UNL A   1      45.376  29.076  35.435  1.00  0.00     0.135 A 
ATOM     87  C   UNL A   1      43.870  27.550  36.517  1.00  0.00     0.135 A 
ATOM     88  F   UNL A   1      45.612  30.107  34.608  1.00  0.00    -0.206 F 
ATOM     89  C   UNL A   1      46.462  28.455  36.044  1.00  0.00     0.059 A 
ATOM     90  C   UNL A   1      44.937  26.927  37.156  1.00  0.00     0.059 A 
ATOM     91  F   UNL A   1      42.630  27.100  36.767  1.00  0.00    -0.206 F 
ATOM     92  C   UNL A   1      46.231  27.380  36.905  1.00  0.00     0.060 A 
BRANCH  92  93
ATOM     93  S   UNL A   1      47.642  26.612  37.732  1.00  0.00     0.124 S 
ATOM     94  O   UNL A   1      48.175  27.730  38.501  1.00  0.00    -0.237 OA
ATOM     95  O   UNL A   1      47.005  25.551  38.506  1.00  0.00    -0.237 OA
ATOM     96  O   UNL A   1      48.471  26.155  36.620  1.00  0.00    -0.744 OA
ENDBRANCH  92  93
ENDBRANCH  60  85
BRANCH  72  97
ATOM     97  C   UNL A   1      39.755  33.803  37.517  1.00  0.00     0.058 A 
ATOM     98  C   UNL A   1      40.464  34.997  37.709  1.00  0.00     0.135 A 
ATOM     99  C   UNL A   1      38.848  33.406  38.513  1.00  0.00     0.135 A 
ATOM    100  F   UNL A   1      41.346  35.415  36.787  1.00  0.00    -0.206 F 
ATOM    101  C   UNL A   1      40.291  35.765  38.855  1.00  0.00     0.059 A 
ATOM    102  C   UNL A   1      38.641  34.170  39.655  1.00  0.00     0.059 A 
ATOM    103  F   UNL A   1      38.136  32.277  38.368  1.00  0.00    -0.206 F 
ATOM    104  C   UNL A   1      39.375  35.343  39.822  1.00  0.00     0.060 A 
BRANCH 104 105
ATOM    105  S   UNL A   1      39.125  36.370  41.285  1.00  0.00     0.124 S 
ATOM    106  O   UNL A   1      40.423  36.260  41.946  1.00  0.00    -0.237 OA
ATOM    107  O   UNL A   1      38.819  37.675  40.706  1.00  0.00    -0.237 OA
ATOM    108  O   UNL A   1      38.013  35.719  41.971  1.00  0.00    -0.744 OA
ENDBRANCH 104 105
ENDBRANCH  72  97
ENDBRANCH  46  47
ENDBRANCH  39  41
ENDBRANCH  38  39
ENDBRANCH  37  38
ENDBRANCH  36  37
ENDBRANCH   1  36
TORSDOF 21
ENDMDL
MODEL 3
REMARK VINA RESULT:      -8.4      3.902     10.083
REMARK SMILES C[C@@H](Oc1ccc(/C=C2\C(=O)[NH+]=C(OCCOCCOC(=O)c3ccc(-c4c5nc(c(-c6c(F)cc(S(=O)(=O)[O-])cc6F)c6ccc([nH]6)c(-c6c(F)cc(S(=O)(=O)[O-])cc6F)c6nc(c(-c7c(F)cc(S(=O)(=O)[O-])cc7F)c7ccc4[nH]7)C=C6)C=C5)cc3)N(c3ccc4c(c3)OCO4)C2=O)cc1)C(=O)[O-]
REMARK SMILES IDX 17 1 16 2 15 3 14 4 13 5 8 6 9 7 10 8 99 9 11 10 12 11 89 12
REMARK SMILES IDX 100 13 7 15 4 16 5 17 102 18 6 19 101 20 3 21 2 22 1 23
REMARK SMILES IDX 103 24 104 25 105 26 90 27 91 28 95 29 92 30 94 31 93 32
REMARK SMILES IDX 96 33 98 34 97 35 18 36 19 37 20 38 21 39 22 40 23 41 24 42
REMARK SMILES IDX 88 43 25 44 87 45 26 46 27 47 28 48 81 49 29 50 86 51 80 52
REMARK SMILES IDX 82 53 30 54 85 55 79 56 78 57 31 59 65 60 44 61 64 62 45 63
REMARK SMILES IDX 48 64 63 65 83 66 46 67 47 68 62 70 84 71 49 72 32 73 33 74
REMARK SMILES IDX 42 75 34 76 35 77 41 78 43 79 36 80 37 81 38 82 39 83 40 84
REMARK SMILES IDX 66 85 67 86 76 87 68 88 69 89 75 90 77 91 70 92 71 93 72 94
REMARK SMILES IDX 73 95 74 96 50 97 51 98 60 99 52 100 53 101 59 102 61 103
REMARK SMILES IDX 54 104 55 105 56 106 57 107 58 108
REMARK H PARENT 12 14 82 58 48 69
REMARK Flexibility Score: inf
ROOT
ATOM      1  O   UNL A   1      46.137  23.786  35.358  1.00  0.00    -0.374 OA
ENDROOT
BRANCH   1   2
ATOM      2  C   UNL A   1      46.418  22.778  34.375  1.00  0.00     0.202 C 
BRANCH   2   3
ATOM      3  C   UNL A   1      46.195  21.362  34.928  1.00  0.00     0.266 C 
BRANCH   3   4
ATOM      4  O   UNL A   1      47.390  20.596  35.212  1.00  0.00    -0.428 OA
BRANCH   4   5
ATOM      5  C   UNL A   1      47.647  20.310  36.513  1.00  0.00     0.465 C 
ATOM      6  C   UNL A   1      48.317  18.649  40.088  1.00  0.00     0.032 C 
ATOM      7  C   UNL A   1      48.115  19.456  39.026  1.00  0.00     0.155 C 
ATOM      8  C   UNL A   1      46.846  20.089  38.637  1.00  0.00     0.349 C 
ATOM      9  C   UNL A   1      49.294  19.765  38.174  1.00  0.00     0.357 C 
ATOM     10  O   UNL A   1      46.087  20.578  39.464  1.00  0.00    -0.240 OA
ATOM     11  N   UNL A   1      46.631  20.181  37.294  1.00  0.00    -0.171 N 
ATOM     12  N   UNL A   1      48.972  20.194  36.897  1.00  0.00    -0.123 N 
ATOM     13  O   UNL A   1      50.438  19.584  38.590  1.00  0.00    -0.240 OA
ATOM     14  H   UNL A   1      45.718  20.149  36.929  1.00  0.00     0.319 HD
BRANCH   6  15
ATOM     15  C   UNL A   1      47.414  18.099  41.121  1.00  0.00    -0.024 A 
ATOM     16  C   UNL A   1      45.567  16.910  42.899  1.00  0.00     0.120 A 
ATOM     17  C   UNL A   1      46.086  18.170  43.167  1.00  0.00     0.047 A 
ATOM     18  C   UNL A   1      45.934  16.251  41.734  1.00  0.00     0.047 A 
ATOM     19  C   UNL A   1      46.990  18.766  42.276  1.00  0.00     0.012 A 
ATOM     20  C   UNL A   1      46.864  16.832  40.866  1.00  0.00     0.012 A 
BRANCH  16  21
ATOM     21  O   UNL A   1      44.589  16.430  43.723  1.00  0.00    -0.485 OA
BRANCH  21  22
ATOM     22  C   UNL A   1      44.042  15.169  43.320  1.00  0.00     0.216 C 
ATOM     23  C   UNL A   1      42.529  15.244  43.129  1.00  0.00     0.059 C 
BRANCH  22  24
ATOM     24  C   UNL A   1      44.314  14.148  44.418  1.00  0.00     0.082 C 
ATOM     25  O   UNL A   1      44.710  13.004  44.249  1.00  0.00    -0.546 OA
ATOM     26  O   UNL A   1      43.991  14.568  45.660  1.00  0.00    -0.546 OA
ENDBRANCH  22  24
ENDBRANCH  21  22
ENDBRANCH  16  21
ENDBRANCH   6  15
BRANCH  12  27
ATOM     27  C   UNL A   1      50.042  20.435  35.995  1.00  0.00     0.144 A 
ATOM     28  C   UNL A   1      50.555  19.363  35.228  1.00  0.00     0.056 A 
ATOM     29  C   UNL A   1      50.580  21.722  35.865  1.00  0.00     0.103 A 
ATOM     30  C   UNL A   1      51.614  19.563  34.340  1.00  0.00     0.055 A 
ATOM     31  C   UNL A   1      51.586  21.895  34.939  1.00  0.00     0.170 A 
ATOM     32  C   UNL A   1      52.091  20.847  34.202  1.00  0.00     0.166 A 
ATOM     33  O   UNL A   1      52.177  23.079  34.624  1.00  0.00    -0.453 OA
ATOM     34  O   UNL A   1      53.071  21.242  33.346  1.00  0.00    -0.454 OA
ATOM     35  C   UNL A   1      53.018  22.672  33.526  1.00  0.00     0.468 C 
ENDBRANCH  12  27
ENDBRANCH   4   5
ENDBRANCH   3   4
ENDBRANCH   2   3
ENDBRANCH   1   2
BRANCH   1  36
ATOM     36  C   UNL A   1      47.118  23.886  36.402  1.00  0.00     0.202 C 
BRANCH  36  37
ATOM     37  C   UNL A   1      48.409  24.582  35.982  1.00  0.00     0.261 C 
BRANCH  37  38
ATOM     38  O   UNL A   1      48.159  25.977  35.810  1.00  0.00    -0.460 OA
BRANCH  38  39
ATOM     39  C   UNL A   1      47.612  26.594  36.885  1.00  0.00     0.338 C 
ATOM     40  O   UNL A   1      48.059  26.634  38.015  1.00  0.00    -0.246 OA
BRANCH  39  41
ATOM     41  C   UNL A   1      46.463  27.402  36.417  1.00  0.00     0.060 A 
ATOM     42  C   UNL A   1      45.186  27.022  36.852  1.00  0.00     0.016 A 
ATOM     43  C   UNL A   1      46.636  28.548  35.632  1.00  0.00     0.016 A 
ATOM     44  C   UNL A   1      44.073  27.764  36.468  1.00  0.00     0.010 A 
ATOM     45  C   UNL A   1      45.524  29.290  35.248  1.00  0.00     0.010 A 
ATOM     46  C   UNL A   1      44.239  28.877  35.636  1.00  0.00    -0.014 A 
BRANCH  46  47
ATOM     47  C   UNL A   1      43.067  29.493  34.987  1.00  0.00     0.031 A 
ATOM     48  C   UNL A   1      42.658  28.962  33.643  1.00  0.00     0.074 A 
ATOM     49  C   UNL A   1      42.407  30.507  35.571  1.00  0.00     0.049 A 
ATOM     50  N   UNL A   1      41.726  29.383  32.833  1.00  0.00    -0.248 NA
ATOM     51  C   UNL A   1      43.418  27.803  33.139  1.00  0.00     0.031 C 
ATOM     52  C   UNL A   1      42.720  31.079  36.880  1.00  0.00     0.029 A 
ATOM     53  N   UNL A   1      41.346  31.248  35.121  1.00  0.00    -0.354 N 
ATOM     54  C   UNL A   1      41.791  28.550  31.724  1.00  0.00     0.074 A 
ATOM     55  C   UNL A   1      42.872  27.617  31.948  1.00  0.00     0.031 C 
ATOM     56  C   UNL A   1      41.876  32.098  37.121  1.00  0.00     0.029 A 
ATOM     57  C   UNL A   1      40.987  32.264  35.973  1.00  0.00     0.049 A 
ATOM     58  H   UNL A   1      40.886  31.069  34.270  1.00  0.00     0.167 HD
ATOM     59  C   UNL A   1      41.011  28.560  30.620  1.00  0.00     0.037 A 
ATOM     60  C   UNL A   1      40.056  33.227  35.823  1.00  0.00     0.037 A 
ATOM     61  C   UNL A   1      39.943  29.499  30.412  1.00  0.00     0.049 A 
ATOM     62  C   UNL A   1      39.223  33.242  34.567  1.00  0.00     0.074 A 
ATOM     63  C   UNL A   1      39.079  29.597  29.337  1.00  0.00     0.029 A 
ATOM     64  N   UNL A   1      39.599  30.507  31.301  1.00  0.00    -0.354 N 
ATOM     65  N   UNL A   1      39.274  32.433  33.535  1.00  0.00    -0.248 NA
ATOM     66  C   UNL A   1      38.206  34.295  34.457  1.00  0.00     0.031 C 
ATOM     67  C   UNL A   1      38.234  30.689  29.561  1.00  0.00     0.029 A 
ATOM     68  C   UNL A   1      38.543  31.242  30.794  1.00  0.00     0.049 A 
ATOM     69  H   UNL A   1      40.041  30.674  32.164  1.00  0.00     0.167 HD
ATOM     70  C   UNL A   1      38.276  32.861  32.665  1.00  0.00     0.074 A 
ATOM     71  C   UNL A   1      37.637  33.998  33.296  1.00  0.00     0.031 C 
ATOM     72  C   UNL A   1      37.918  32.360  31.457  1.00  0.00     0.037 A 
BRANCH  59  73
ATOM     73  C   UNL A   1      41.303  27.540  29.558  1.00  0.00     0.058 A 
ATOM     74  C   UNL A   1      42.444  27.631  28.744  1.00  0.00     0.135 A 
ATOM     75  C   UNL A   1      40.434  26.457  29.352  1.00  0.00     0.135 A 
ATOM     76  F   UNL A   1      43.292  28.662  28.882  1.00  0.00    -0.206 F 
ATOM     77  C   UNL A   1      42.700  26.697  27.747  1.00  0.00     0.059 A 
ATOM     78  C   UNL A   1      40.684  25.497  28.376  1.00  0.00     0.059 A 
ATOM     79  F   UNL A   1      39.323  26.331  30.095  1.00  0.00    -0.206 F 
ATOM     80  C   UNL A   1      41.813  25.634  27.569  1.00  0.00     0.060 A 
BRANCH  80  81
ATOM     81  S   UNL A   1      42.160  24.427  26.273  1.00  0.00     0.124 S 
ATOM     82  O   UNL A   1      40.849  23.810  26.091  1.00  0.00    -0.237 OA
ATOM     83  O   UNL A   1      42.621  25.270  25.174  1.00  0.00    -0.237 OA
ATOM     84  O   UNL A   1      43.180  23.571  26.871  1.00  0.00    -0.744 OA
ENDBRANCH  80  81
ENDBRANCH  59  73
BRANCH  60  85
ATOM     85  C   UNL A   1      39.864  34.249  36.884  1.00  0.00     0.058 A 
ATOM     86  C   UNL A   1      39.018  34.008  37.976  1.00  0.00     0.135 A 
ATOM     87  C   UNL A   1      40.529  35.484  36.834  1.00  0.00     0.135 A 
ATOM     88  F   UNL A   1      38.355  32.844  38.066  1.00  0.00    -0.206 F 
ATOM     89  C   UNL A   1      38.825  34.958  38.973  1.00  0.00     0.059 A 
ATOM     90  C   UNL A   1      40.370  36.442  37.830  1.00  0.00     0.059 A 
ATOM     91  F   UNL A   1      41.360  35.759  35.816  1.00  0.00    -0.206 F 
ATOM     92  C   UNL A   1      39.507  36.174  38.892  1.00  0.00     0.060 A 
BRANCH  92  93
ATOM     93  S   UNL A   1      39.290  37.382  40.217  1.00  0.00     0.124 S 
ATOM     94  O   UNL A   1      38.660  36.570  41.253  1.00  0.00    -0.237 OA
ATOM     95  O   UNL A   1      40.664  37.799  40.481  1.00  0.00    -0.237 OA
ATOM     96  O   UNL A   1      38.440  38.400  39.605  1.00  0.00    -0.744 OA
ENDBRANCH  92  93
ENDBRANCH  60  85
BRANCH  72  97
ATOM     97  C   UNL A   1      36.757  33.007  30.757  1.00  0.00     0.058 A 
ATOM     98  C   UNL A   1      35.437  32.815  31.188  1.00  0.00     0.135 A 
ATOM     99  C   UNL A   1      36.981  33.888  29.687  1.00  0.00     0.135 A 
ATOM    100  F   UNL A   1      35.173  31.978  32.204  1.00  0.00    -0.206 F 
ATOM    101  C   UNL A   1      34.373  33.463  30.571  1.00  0.00     0.059 A 
ATOM    102  C   UNL A   1      35.936  34.565  29.070  1.00  0.00     0.059 A 
ATOM    103  F   UNL A   1      38.230  34.114  29.247  1.00  0.00    -0.206 F 
ATOM    104  C   UNL A   1      34.634  34.338  29.513  1.00  0.00     0.060 A 
BRANCH 104 105
ATOM    105  S   UNL A   1      33.250  35.208  28.747  1.00  0.00     0.124 S 
ATOM    106  O   UNL A   1      32.459  35.586  29.915  1.00  0.00    -0.237 OA
ATOM    107  O   UNL A   1      33.914  36.305  28.050  1.00  0.00    -0.237 OA
ATOM    108  O   UNL A   1      32.650  34.197  27.882  1.00  0.00    -0.744 OA
ENDBRANCH 104 105
ENDBRANCH  72  97
ENDBRANCH  46  47
ENDBRANCH  39  41
ENDBRANCH  38  39
ENDBRANCH  37  38
ENDBRANCH  36  37
ENDBRANCH   1  36
TORSDOF 21
ENDMDL
