MODEL 1
REMARK VINA RESULT:     -10.7      0.000      0.000
REMARK SMILES CC(C)(C[N@@H+]1C[C@@H]2C[NH2+]C[C@H]2C1(C)C)C(=O)OCCOCCOC(=O)c1ccc(-c2c3nc(c(-c4c(F)cc(S(=O)(=O)[O-])cc4F)c4ccc([nH]4)c(-c4c(F)cc(S(=O)(=O)[O-])cc4F)c4nc(c(-c5c(F)cc(S(=O)(=O)[O-])cc5F)c5ccc2[nH]5)C=C4)C=C3)cc1
REMARK SMILES IDX 21 1 20 2 19 3 18 4 17 5 15 6 16 7 2 8 1 9 3 10 4 11 5 12
REMARK SMILES IDX 6 13 12 14 7 16 11 17 13 18 14 19 8 20 10 21 9 22 22 25
REMARK SMILES IDX 23 26 24 27 25 28 26 29 27 30 91 31 28 32 90 33 29 34 30 35
REMARK SMILES IDX 31 36 84 37 32 38 89 39 83 40 85 41 33 42 88 43 82 44 81 45
REMARK SMILES IDX 34 47 68 48 47 49 67 50 48 51 51 52 66 53 86 54 49 55 50 56
REMARK SMILES IDX 65 58 87 59 52 60 35 61 36 62 45 63 37 64 38 65 44 66 46 67
REMARK SMILES IDX 39 68 40 69 41 70 42 71 43 72 69 73 70 74 79 75 71 76 72 77
REMARK SMILES IDX 78 78 80 79 73 80 74 81 75 82 76 83 77 84 53 85 54 86 63 87
REMARK SMILES IDX 55 88 56 89 62 90 64 91 57 92 58 93 59 94 60 95 61 96
REMARK H PARENT 5 15 9 23 9 24 85 46 51 57
REMARK Flexibility Score: inf
ROOT
ATOM      1  C   UNL A   1      40.058  22.090  26.868  1.00  0.00     0.202 C 
ENDROOT
BRANCH   1   2
ATOM      2  O   UNL A   1      39.245  21.467  25.889  1.00  0.00    -0.374 OA
BRANCH   2   3
ATOM      3  C   UNL A   1      37.931  21.955  25.664  1.00  0.00     0.202 C 
BRANCH   3   4
ATOM      4  C   UNL A   1      36.829  21.005  25.169  1.00  0.00     0.261 C 
BRANCH   4   5
ATOM      5  O   UNL A   1      35.462  21.234  25.589  1.00  0.00    -0.463 OA
BRANCH   5   6
ATOM      6  C   UNL A   1      34.823  22.194  24.864  1.00  0.00     0.317 C 
ATOM      7  O   UNL A   1      34.808  22.187  23.632  1.00  0.00    -0.251 OA
BRANCH   6   8
ATOM      8  C   UNL A   1      34.296  23.409  25.656  1.00  0.00     0.111 C 
ATOM      9  C   UNL A   1      35.415  24.470  25.598  1.00  0.00     0.029 C 
ATOM     10  C   UNL A   1      34.201  22.910  27.118  1.00  0.00     0.029 C 
BRANCH   8  11
ATOM     11  C   UNL A   1      32.903  24.031  25.303  1.00  0.00     0.280 C 
BRANCH  11  12
ATOM     12  N   UNL A   1      32.791  25.456  25.087  1.00  0.00    -0.329 N 
ATOM     13  C   UNL A   1      32.422  26.423  26.128  1.00  0.00     0.272 C 
ATOM     14  C   UNL A   1      32.434  26.006  23.751  1.00  0.00     0.101 C 
ATOM     15  H   UNL A   1      33.802  25.354  25.181  1.00  0.00     0.348 HD
ATOM     16  C   UNL A   1      33.078  27.587  25.437  1.00  0.00     0.114 C 
ATOM     17  C   UNL A   1      32.430  27.514  24.071  1.00  0.00     0.119 C 
ATOM     18  C   UNL A   1      33.444  25.551  22.701  1.00  0.00     0.079 C 
ATOM     19  C   UNL A   1      31.033  25.631  23.223  1.00  0.00     0.079 C 
ATOM     20  C   UNL A   1      33.005  29.052  25.739  1.00  0.00     0.270 C 
ATOM     21  C   UNL A   1      33.177  28.610  23.365  1.00  0.00     0.271 C 
ATOM     22  N   UNL A   1      33.284  29.670  24.412  1.00  0.00    -0.345 N 
ATOM     23  H   UNL A   1      34.224  30.066  24.406  1.00  0.00     0.346 HD
ATOM     24  H   UNL A   1      32.613  30.416  24.225  1.00  0.00     0.346 HD
ENDBRANCH  11  12
ENDBRANCH   8  11
ENDBRANCH   6   8
ENDBRANCH   5   6
ENDBRANCH   4   5
ENDBRANCH   3   4
ENDBRANCH   2   3
ENDBRANCH   1   2
BRANCH   1  25
ATOM     25  C   UNL A   1      40.879  23.326  26.496  1.00  0.00     0.261 C 
BRANCH  25  26
ATOM     26  O   UNL A   1      40.133  24.524  26.316  1.00  0.00    -0.460 OA
BRANCH  26  27
ATOM     27  C   UNL A   1      40.842  25.657  26.172  1.00  0.00     0.338 C 
ATOM     28  O   UNL A   1      41.565  25.978  25.237  1.00  0.00    -0.246 OA
BRANCH  27  29
ATOM     29  C   UNL A   1      40.748  26.389  27.439  1.00  0.00     0.060 A 
ATOM     30  C   UNL A   1      39.811  26.007  28.396  1.00  0.00     0.016 A 
ATOM     31  C   UNL A   1      41.613  27.464  27.670  1.00  0.00     0.016 A 
ATOM     32  C   UNL A   1      39.696  26.757  29.563  1.00  0.00     0.010 A 
ATOM     33  C   UNL A   1      41.562  28.149  28.880  1.00  0.00     0.010 A 
ATOM     34  C   UNL A   1      40.560  27.840  29.808  1.00  0.00    -0.014 A 
BRANCH  34  35
ATOM     35  C   UNL A   1      40.319  28.708  30.987  1.00  0.00     0.031 A 
ATOM     36  C   UNL A   1      41.193  28.565  32.205  1.00  0.00     0.074 A 
ATOM     37  C   UNL A   1      39.374  29.665  30.922  1.00  0.00     0.049 A 
ATOM     38  N   UNL A   1      41.248  29.318  33.272  1.00  0.00    -0.248 NA
ATOM     39  C   UNL A   1      42.122  27.421  32.236  1.00  0.00     0.031 C 
ATOM     40  C   UNL A   1      38.451  29.860  29.802  1.00  0.00     0.029 A 
ATOM     41  N   UNL A   1      39.054  30.668  31.798  1.00  0.00    -0.354 N 
ATOM     42  C   UNL A   1      42.214  28.746  34.092  1.00  0.00     0.074 A 
ATOM     43  C   UNL A   1      42.680  27.550  33.429  1.00  0.00     0.031 C 
ATOM     44  C   UNL A   1      37.700  30.949  30.038  1.00  0.00     0.029 A 
ATOM     45  C   UNL A   1      38.073  31.512  31.333  1.00  0.00     0.049 A 
ATOM     46  H   UNL A   1      39.485  30.774  32.677  1.00  0.00     0.167 HD
ATOM     47  C   UNL A   1      42.691  29.194  35.277  1.00  0.00     0.037 A 
ATOM     48  C   UNL A   1      37.547  32.622  31.885  1.00  0.00     0.037 A 
ATOM     49  C   UNL A   1      42.229  30.398  35.915  1.00  0.00     0.049 A 
ATOM     50  C   UNL A   1      38.097  33.105  33.200  1.00  0.00     0.074 A 
ATOM     51  C   UNL A   1      42.664  30.968  37.097  1.00  0.00     0.029 A 
ATOM     52  N   UNL A   1      41.222  31.215  35.421  1.00  0.00    -0.354 N 
ATOM     53  N   UNL A   1      39.058  32.588  33.929  1.00  0.00    -0.248 NA
ATOM     54  C   UNL A   1      37.504  34.325  33.761  1.00  0.00     0.031 C 
ATOM     55  C   UNL A   1      41.890  32.106  37.341  1.00  0.00     0.029 A 
ATOM     56  C   UNL A   1      41.005  32.273  36.286  1.00  0.00     0.049 A 
ATOM     57  H   UNL A   1      40.734  31.063  34.580  1.00  0.00     0.167 HD
ATOM     58  C   UNL A   1      39.195  33.427  35.029  1.00  0.00     0.074 A 
ATOM     59  C   UNL A   1      38.232  34.497  34.856  1.00  0.00     0.031 C 
ATOM     60  C   UNL A   1      40.037  33.323  36.087  1.00  0.00     0.037 A 
BRANCH  47  61
ATOM     61  C   UNL A   1      43.757  28.377  35.956  1.00  0.00     0.058 A 
ATOM     62  C   UNL A   1      45.123  28.652  35.782  1.00  0.00     0.135 A 
ATOM     63  C   UNL A   1      43.408  27.319  36.810  1.00  0.00     0.135 A 
ATOM     64  F   UNL A   1      45.515  29.641  34.961  1.00  0.00    -0.206 F 
ATOM     65  C   UNL A   1      46.106  27.893  36.409  1.00  0.00     0.059 A 
ATOM     66  C   UNL A   1      44.373  26.562  37.469  1.00  0.00     0.059 A 
ATOM     67  F   UNL A   1      42.117  27.008  37.009  1.00  0.00    -0.206 F 
ATOM     68  C   UNL A   1      45.720  26.848  37.251  1.00  0.00     0.060 A 
BRANCH  68  69
ATOM     69  S   UNL A   1      47.006  25.873  38.062  1.00  0.00     0.124 S 
ATOM     70  O   UNL A   1      48.169  26.180  37.235  1.00  0.00    -0.237 OA
ATOM     71  O   UNL A   1      47.021  26.434  39.409  1.00  0.00    -0.237 OA
ATOM     72  O   UNL A   1      46.509  24.504  37.962  1.00  0.00    -0.744 OA
ENDBRANCH  68  69
ENDBRANCH  47  61
BRANCH  48  73
ATOM     73  C   UNL A   1      36.458  33.354  31.183  1.00  0.00     0.058 A 
ATOM     74  C   UNL A   1      36.705  34.093  30.017  1.00  0.00     0.135 A 
ATOM     75  C   UNL A   1      35.136  33.305  31.656  1.00  0.00     0.135 A 
ATOM     76  F   UNL A   1      37.950  34.175  29.526  1.00  0.00    -0.206 F 
ATOM     77  C   UNL A   1      35.685  34.768  29.352  1.00  0.00     0.059 A 
ATOM     78  C   UNL A   1      34.096  33.949  30.994  1.00  0.00     0.059 A 
ATOM     79  F   UNL A   1      34.843  32.597  32.758  1.00  0.00    -0.206 F 
ATOM     80  C   UNL A   1      34.382  34.687  29.847  1.00  0.00     0.060 A 
BRANCH  80  81
ATOM     81  S   UNL A   1      33.055  35.518  28.948  1.00  0.00     0.124 S 
ATOM     82  O   UNL A   1      33.797  36.511  28.179  1.00  0.00    -0.237 OA
ATOM     83  O   UNL A   1      32.469  34.423  28.182  1.00  0.00    -0.237 OA
ATOM     84  O   UNL A   1      32.209  36.048  30.014  1.00  0.00    -0.744 OA
ENDBRANCH  80  81
ENDBRANCH  48  73
BRANCH  60  85
ATOM     85  C   UNL A   1      39.962  34.400  37.131  1.00  0.00     0.058 A 
ATOM     86  C   UNL A   1      40.622  35.628  36.967  1.00  0.00     0.135 A 
ATOM     87  C   UNL A   1      39.175  34.223  38.280  1.00  0.00     0.135 A 
ATOM     88  F   UNL A   1      41.389  35.844  35.887  1.00  0.00    -0.206 F 
ATOM     89  C   UNL A   1      40.523  36.636  37.919  1.00  0.00     0.059 A 
ATOM     90  C   UNL A   1      39.041  35.227  39.232  1.00  0.00     0.059 A 
ATOM     91  F   UNL A   1      38.514  33.070  38.477  1.00  0.00    -0.206 F 
ATOM     92  C   UNL A   1      39.729  36.426  39.049  1.00  0.00     0.060 A 
BRANCH  92  93
ATOM     93  S   UNL A   1      39.584  37.753  40.262  1.00  0.00     0.124 S 
ATOM     94  O   UNL A   1      40.965  38.215  40.357  1.00  0.00    -0.237 OA
ATOM     95  O   UNL A   1      38.652  38.670  39.614  1.00  0.00    -0.237 OA
ATOM     96  O   UNL A   1      39.066  37.075  41.447  1.00  0.00    -0.744 OA
ENDBRANCH  92  93
ENDBRANCH  60  85
ENDBRANCH  34  35
ENDBRANCH  27  29
ENDBRANCH  26  27
ENDBRANCH  25  26
ENDBRANCH   1  25
TORSDOF 19
ENDMDL
MODEL 2
REMARK VINA RESULT:     -10.7      5.181     11.536
REMARK SMILES CC(C)(C[N@@H+]1C[C@@H]2C[NH2+]C[C@H]2C1(C)C)C(=O)OCCOCCOC(=O)c1ccc(-c2c3nc(c(-c4c(F)cc(S(=O)(=O)[O-])cc4F)c4ccc([nH]4)c(-c4c(F)cc(S(=O)(=O)[O-])cc4F)c4nc(c(-c5c(F)cc(S(=O)(=O)[O-])cc5F)c5ccc2[nH]5)C=C4)C=C3)cc1
REMARK SMILES IDX 21 1 20 2 19 3 18 4 17 5 15 6 16 7 2 8 1 9 3 10 4 11 5 12
REMARK SMILES IDX 6 13 12 14 7 16 11 17 13 18 14 19 8 20 10 21 9 22 22 25
REMARK SMILES IDX 23 26 24 27 25 28 26 29 27 30 91 31 28 32 90 33 29 34 30 35
REMARK SMILES IDX 31 36 84 37 32 38 89 39 83 40 85 41 33 42 88 43 82 44 81 45
REMARK SMILES IDX 34 47 68 48 47 49 67 50 48 51 51 52 66 53 86 54 49 55 50 56
REMARK SMILES IDX 65 58 87 59 52 60 35 61 36 62 45 63 37 64 38 65 44 66 46 67
REMARK SMILES IDX 39 68 40 69 41 70 42 71 43 72 69 73 70 74 79 75 71 76 72 77
REMARK SMILES IDX 78 78 80 79 73 80 74 81 75 82 76 83 77 84 53 85 54 86 63 87
REMARK SMILES IDX 55 88 56 89 62 90 64 91 57 92 58 93 59 94 60 95 61 96
REMARK H PARENT 5 15 9 23 9 24 85 46 51 57
REMARK Flexibility Score: inf
ROOT
ATOM      1  C   UNL A   1      34.951  34.040  28.321  1.00  0.00     0.202 C 
ENDROOT
BRANCH   1   2
ATOM      2  O   UNL A   1      34.336  35.296  28.549  1.00  0.00    -0.374 OA
BRANCH   2   3
ATOM      3  C   UNL A   1      33.226  35.376  29.430  1.00  0.00     0.202 C 
BRANCH   3   4
ATOM      4  C   UNL A   1      33.450  35.572  30.938  1.00  0.00     0.261 C 
BRANCH   4   5
ATOM      5  O   UNL A   1      33.814  34.429  31.750  1.00  0.00    -0.463 OA
BRANCH   5   6
ATOM      6  C   UNL A   1      34.964  34.607  32.457  1.00  0.00     0.317 C 
ATOM      7  O   UNL A   1      35.289  35.701  32.920  1.00  0.00    -0.251 OA
BRANCH   6   8
ATOM      8  C   UNL A   1      35.946  33.416  32.474  1.00  0.00     0.111 C 
ATOM      9  C   UNL A   1      37.021  33.740  31.414  1.00  0.00     0.029 C 
ATOM     10  C   UNL A   1      35.116  32.220  31.949  1.00  0.00     0.029 C 
BRANCH   8  11
ATOM     11  C   UNL A   1      36.596  32.954  33.821  1.00  0.00     0.280 C 
BRANCH  11  12
ATOM     12  N   UNL A   1      37.663  31.979  33.802  1.00  0.00    -0.329 N 
ATOM     13  C   UNL A   1      37.460  30.536  33.617  1.00  0.00     0.272 C 
ATOM     14  C   UNL A   1      38.930  32.209  34.547  1.00  0.00     0.101 C 
ATOM     15  H   UNL A   1      37.724  32.350  32.853  1.00  0.00     0.348 HD
ATOM     16  C   UNL A   1      38.852  30.291  33.107  1.00  0.00     0.114 C 
ATOM     17  C   UNL A   1      39.679  30.902  34.218  1.00  0.00     0.119 C 
ATOM     18  C   UNL A   1      39.599  33.496  34.073  1.00  0.00     0.079 C 
ATOM     19  C   UNL A   1      38.799  32.305  36.082  1.00  0.00     0.079 C 
ATOM     20  C   UNL A   1      39.573  29.003  32.854  1.00  0.00     0.270 C 
ATOM     21  C   UNL A   1      41.056  30.748  33.638  1.00  0.00     0.271 C 
ATOM     22  N   UNL A   1      41.002  29.397  33.002  1.00  0.00    -0.345 N 
ATOM     23  H   UNL A   1      41.448  29.430  32.085  1.00  0.00     0.346 HD
ATOM     24  H   UNL A   1      41.495  28.717  33.581  1.00  0.00     0.346 HD
ENDBRANCH  11  12
ENDBRANCH   8  11
ENDBRANCH   6   8
ENDBRANCH   5   6
ENDBRANCH   4   5
ENDBRANCH   3   4
ENDBRANCH   2   3
ENDBRANCH   1   2
BRANCH   1  25
ATOM     25  C   UNL A   1      34.093  32.838  27.919  1.00  0.00     0.261 C 
BRANCH  25  26
ATOM     26  O   UNL A   1      34.286  31.662  28.696  1.00  0.00    -0.460 OA
BRANCH  26  27
ATOM     27  C   UNL A   1      34.464  30.516  28.017  1.00  0.00     0.338 C 
ATOM     28  O   UNL A   1      33.621  29.853  27.427  1.00  0.00    -0.246 OA
BRANCH  27  29
ATOM     29  C   UNL A   1      35.843  30.080  28.260  1.00  0.00     0.060 A 
ATOM     30  C   UNL A   1      36.218  29.626  29.522  1.00  0.00     0.016 A 
ATOM     31  C   UNL A   1      36.765  30.123  27.209  1.00  0.00     0.016 A 
ATOM     32  C   UNL A   1      37.547  29.279  29.746  1.00  0.00     0.010 A 
ATOM     33  C   UNL A   1      38.070  29.681  27.411  1.00  0.00     0.010 A 
ATOM     34  C   UNL A   1      38.485  29.317  28.697  1.00  0.00    -0.014 A 
BRANCH  34  35
ATOM     35  C   UNL A   1      39.919  29.084  28.999  1.00  0.00     0.031 A 
ATOM     36  C   UNL A   1      40.546  27.760  28.649  1.00  0.00     0.074 A 
ATOM     37  C   UNL A   1      40.659  30.088  29.507  1.00  0.00     0.049 A 
ATOM     38  N   UNL A   1      41.805  27.410  28.688  1.00  0.00    -0.248 NA
ATOM     39  C   UNL A   1      39.642  26.685  28.204  1.00  0.00     0.031 C 
ATOM     40  C   UNL A   1      40.138  31.394  29.915  1.00  0.00     0.029 A 
ATOM     41  N   UNL A   1      42.006  30.177  29.739  1.00  0.00    -0.354 N 
ATOM     42  C   UNL A   1      41.842  26.084  28.271  1.00  0.00     0.074 A 
ATOM     43  C   UNL A   1      40.478  25.672  28.039  1.00  0.00     0.031 C 
ATOM     44  C   UNL A   1      41.162  32.172  30.302  1.00  0.00     0.029 A 
ATOM     45  C   UNL A   1      42.404  31.414  30.191  1.00  0.00     0.049 A 
ATOM     46  H   UNL A   1      42.629  29.429  29.596  1.00  0.00     0.167 HD
ATOM     47  C   UNL A   1      42.921  25.290  28.072  1.00  0.00     0.037 A 
ATOM     48  C   UNL A   1      43.635  31.883  30.471  1.00  0.00     0.037 A 
ATOM     49  C   UNL A   1      44.276  25.722  28.290  1.00  0.00     0.049 A 
ATOM     50  C   UNL A   1      44.821  30.986  30.235  1.00  0.00     0.074 A 
ATOM     51  C   UNL A   1      45.449  25.018  28.087  1.00  0.00     0.029 A 
ATOM     52  N   UNL A   1      44.637  26.975  28.765  1.00  0.00    -0.354 N 
ATOM     53  N   UNL A   1      44.842  29.756  29.777  1.00  0.00    -0.248 NA
ATOM     54  C   UNL A   1      46.145  31.539  30.541  1.00  0.00     0.031 C 
ATOM     55  C   UNL A   1      46.516  25.830  28.481  1.00  0.00     0.029 A 
ATOM     56  C   UNL A   1      46.013  27.058  28.884  1.00  0.00     0.049 A 
ATOM     57  H   UNL A   1      44.006  27.698  28.986  1.00  0.00     0.167 HD
ATOM     58  C   UNL A   1      46.184  29.393  29.726  1.00  0.00     0.074 A 
ATOM     59  C   UNL A   1      46.941  30.542  30.179  1.00  0.00     0.031 C 
ATOM     60  C   UNL A   1      46.739  28.216  29.341  1.00  0.00     0.037 A 
BRANCH  47  61
ATOM     61  C   UNL A   1      42.677  23.882  27.602  1.00  0.00     0.058 A 
ATOM     62  C   UNL A   1      42.533  22.815  28.504  1.00  0.00     0.135 A 
ATOM     63  C   UNL A   1      42.562  23.599  26.232  1.00  0.00     0.135 A 
ATOM     64  F   UNL A   1      42.653  23.026  29.825  1.00  0.00    -0.206 F 
ATOM     65  C   UNL A   1      42.311  21.514  28.064  1.00  0.00     0.059 A 
ATOM     66  C   UNL A   1      42.314  22.308  25.770  1.00  0.00     0.059 A 
ATOM     67  F   UNL A   1      42.697  24.579  25.325  1.00  0.00    -0.206 F 
ATOM     68  C   UNL A   1      42.204  21.270  26.694  1.00  0.00     0.060 A 
BRANCH  68  69
ATOM     69  S   UNL A   1      41.910  19.577  26.138  1.00  0.00     0.124 S 
ATOM     70  O   UNL A   1      42.793  19.494  24.979  1.00  0.00    -0.237 OA
ATOM     71  O   UNL A   1      42.313  18.792  27.300  1.00  0.00    -0.237 OA
ATOM     72  O   UNL A   1      40.481  19.561  25.840  1.00  0.00    -0.744 OA
ENDBRANCH  68  69
ENDBRANCH  47  61
BRANCH  48  73
ATOM     73  C   UNL A   1      43.802  33.270  30.981  1.00  0.00     0.058 A 
ATOM     74  C   UNL A   1      43.866  33.543  32.356  1.00  0.00     0.135 A 
ATOM     75  C   UNL A   1      43.929  34.353  30.096  1.00  0.00     0.135 A 
ATOM     76  F   UNL A   1      43.748  32.544  33.244  1.00  0.00    -0.206 F 
ATOM     77  C   UNL A   1      44.036  34.838  32.835  1.00  0.00     0.059 A 
ATOM     78  C   UNL A   1      44.127  35.653  30.550  1.00  0.00     0.059 A 
ATOM     79  F   UNL A   1      43.894  34.144  28.771  1.00  0.00    -0.206 F 
ATOM     80  C   UNL A   1      44.169  35.887  31.924  1.00  0.00     0.060 A 
BRANCH  80  81
ATOM     81  S   UNL A   1      44.445  37.558  32.551  1.00  0.00     0.124 S 
ATOM     82  O   UNL A   1      45.894  37.573  32.718  1.00  0.00    -0.237 OA
ATOM     83  O   UNL A   1      43.918  38.384  31.469  1.00  0.00    -0.237 OA
ATOM     84  O   UNL A   1      43.666  37.586  33.785  1.00  0.00    -0.744 OA
ENDBRANCH  80  81
ENDBRANCH  48  73
BRANCH  60  85
ATOM     85  C   UNL A   1      48.238  28.120  29.383  1.00  0.00     0.058 A 
ATOM     86  C   UNL A   1      48.911  27.650  30.521  1.00  0.00     0.135 A 
ATOM     87  C   UNL A   1      49.003  28.448  28.253  1.00  0.00     0.135 A 
ATOM     88  F   UNL A   1      48.223  27.329  31.629  1.00  0.00    -0.206 F 
ATOM     89  C   UNL A   1      50.295  27.530  30.546  1.00  0.00     0.059 A 
ATOM     90  C   UNL A   1      50.387  28.310  28.246  1.00  0.00     0.059 A 
ATOM     91  F   UNL A   1      48.405  28.890  27.135  1.00  0.00    -0.206 F 
ATOM     92  C   UNL A   1      51.025  27.863  29.402  1.00  0.00     0.060 A 
BRANCH  92  93
ATOM     93  S   UNL A   1      52.819  27.673  29.435  1.00  0.00     0.124 S 
ATOM     94  O   UNL A   1      53.161  28.345  30.685  1.00  0.00    -0.237 OA
ATOM     95  O   UNL A   1      52.981  26.222  29.430  1.00  0.00    -0.237 OA
ATOM     96  O   UNL A   1      53.255  28.351  28.218  1.00  0.00    -0.744 OA
ENDBRANCH  92  93
ENDBRANCH  60  85
ENDBRANCH  34  35
ENDBRANCH  27  29
ENDBRANCH  26  27
ENDBRANCH  25  26
ENDBRANCH   1  25
TORSDOF 19
ENDMDL
MODEL 3
REMARK VINA RESULT:     -10.5      5.244     10.043
REMARK SMILES CC(C)(C[N@@H+]1C[C@@H]2C[NH2+]C[C@H]2C1(C)C)C(=O)OCCOCCOC(=O)c1ccc(-c2c3nc(c(-c4c(F)cc(S(=O)(=O)[O-])cc4F)c4ccc([nH]4)c(-c4c(F)cc(S(=O)(=O)[O-])cc4F)c4nc(c(-c5c(F)cc(S(=O)(=O)[O-])cc5F)c5ccc2[nH]5)C=C4)C=C3)cc1
REMARK SMILES IDX 21 1 20 2 19 3 18 4 17 5 15 6 16 7 2 8 1 9 3 10 4 11 5 12
REMARK SMILES IDX 6 13 12 14 7 16 11 17 13 18 14 19 8 20 10 21 9 22 22 25
REMARK SMILES IDX 23 26 24 27 25 28 26 29 27 30 91 31 28 32 90 33 29 34 30 35
REMARK SMILES IDX 31 36 84 37 32 38 89 39 83 40 85 41 33 42 88 43 82 44 81 45
REMARK SMILES IDX 34 47 68 48 47 49 67 50 48 51 51 52 66 53 86 54 49 55 50 56
REMARK SMILES IDX 65 58 87 59 52 60 35 61 36 62 45 63 37 64 38 65 44 66 46 67
REMARK SMILES IDX 39 68 40 69 41 70 42 71 43 72 69 73 70 74 79 75 71 76 72 77
REMARK SMILES IDX 78 78 80 79 73 80 74 81 75 82 76 83 77 84 53 85 54 86 63 87
REMARK SMILES IDX 55 88 56 89 62 90 64 91 57 92 58 93 59 94 60 95 61 96
REMARK H PARENT 5 15 9 23 9 24 85 46 51 57
REMARK Flexibility Score: inf
ROOT
ATOM      1  C   UNL A   1      32.164  29.992  25.675  1.00  0.00     0.202 C 
ENDROOT
BRANCH   1   2
ATOM      2  O   UNL A   1      31.692  29.004  24.776  1.00  0.00    -0.374 OA
BRANCH   2   3
ATOM      3  C   UNL A   1      31.231  27.763  25.288  1.00  0.00     0.202 C 
BRANCH   3   4
ATOM      4  C   UNL A   1      30.033  27.055  24.635  1.00  0.00     0.261 C 
BRANCH   4   5
ATOM      5  O   UNL A   1      30.277  25.941  23.741  1.00  0.00    -0.463 OA
BRANCH   5   6
ATOM      6  C   UNL A   1      31.192  26.213  22.770  1.00  0.00     0.317 C 
ATOM      7  O   UNL A   1      31.006  27.081  21.915  1.00  0.00    -0.251 OA
BRANCH   6   8
ATOM      8  C   UNL A   1      32.382  25.237  22.662  1.00  0.00     0.111 C 
ATOM      9  C   UNL A   1      32.861  25.313  21.196  1.00  0.00     0.029 C 
ATOM     10  C   UNL A   1      31.760  23.837  22.879  1.00  0.00     0.029 C 
BRANCH   8  11
ATOM     11  C   UNL A   1      33.584  25.352  23.659  1.00  0.00     0.280 C 
BRANCH  11  12
ATOM     12  N   UNL A   1      33.713  24.398  24.737  1.00  0.00    -0.329 N 
ATOM     13  C   UNL A   1      33.154  24.590  26.081  1.00  0.00     0.272 C 
ATOM     14  C   UNL A   1      34.876  23.473  24.812  1.00  0.00     0.101 C 
ATOM     15  H   UNL A   1      32.950  23.983  24.202  1.00  0.00     0.348 HD
ATOM     16  C   UNL A   1      33.107  23.121  26.394  1.00  0.00     0.114 C 
ATOM     17  C   UNL A   1      34.539  22.719  26.114  1.00  0.00     0.119 C 
ATOM     18  C   UNL A   1      34.957  22.618  23.550  1.00  0.00     0.079 C 
ATOM     19  C   UNL A   1      36.255  24.141  24.995  1.00  0.00     0.079 C 
ATOM     20  C   UNL A   1      32.835  22.419  27.689  1.00  0.00     0.270 C 
ATOM     21  C   UNL A   1      34.444  21.234  26.323  1.00  0.00     0.271 C 
ATOM     22  N   UNL A   1      33.544  21.121  27.510  1.00  0.00    -0.345 N 
ATOM     23  H   UNL A   1      32.866  20.375  27.358  1.00  0.00     0.346 HD
ATOM     24  H   UNL A   1      34.089  20.902  28.344  1.00  0.00     0.346 HD
ENDBRANCH  11  12
ENDBRANCH   8  11
ENDBRANCH   6   8
ENDBRANCH   5   6
ENDBRANCH   4   5
ENDBRANCH   3   4
ENDBRANCH   2   3
ENDBRANCH   1   2
BRANCH   1  25
ATOM     25  C   UNL A   1      32.458  29.617  27.128  1.00  0.00     0.261 C 
BRANCH  25  26
ATOM     26  O   UNL A   1      33.830  29.412  27.441  1.00  0.00    -0.460 OA
BRANCH  26  27
ATOM     27  C   UNL A   1      34.456  30.412  28.085  1.00  0.00     0.338 C 
ATOM     28  O   UNL A   1      34.035  31.540  28.311  1.00  0.00    -0.246 OA
BRANCH  27  29
ATOM     29  C   UNL A   1      35.836  29.978  28.321  1.00  0.00     0.060 A 
ATOM     30  C   UNL A   1      36.212  29.503  29.575  1.00  0.00     0.016 A 
ATOM     31  C   UNL A   1      36.758  30.041  27.271  1.00  0.00     0.016 A 
ATOM     32  C   UNL A   1      37.542  29.158  29.794  1.00  0.00     0.010 A 
ATOM     33  C   UNL A   1      38.064  29.601  27.466  1.00  0.00     0.010 A 
ATOM     34  C   UNL A   1      38.481  29.217  28.746  1.00  0.00    -0.014 A 
BRANCH  34  35
ATOM     35  C   UNL A   1      39.915  28.985  29.044  1.00  0.00     0.031 A 
ATOM     36  C   UNL A   1      40.546  27.667  28.676  1.00  0.00     0.074 A 
ATOM     37  C   UNL A   1      40.652  29.983  29.566  1.00  0.00     0.049 A 
ATOM     38  N   UNL A   1      41.806  27.320  28.711  1.00  0.00    -0.248 NA
ATOM     39  C   UNL A   1      39.645  26.595  28.217  1.00  0.00     0.031 C 
ATOM     40  C   UNL A   1      40.128  31.282  29.992  1.00  0.00     0.029 A 
ATOM     41  N   UNL A   1      41.999  30.074  29.799  1.00  0.00    -0.354 N 
ATOM     42  C   UNL A   1      41.848  26.000  28.276  1.00  0.00     0.074 A 
ATOM     43  C   UNL A   1      40.484  25.587  28.039  1.00  0.00     0.031 C 
ATOM     44  C   UNL A   1      41.149  32.058  30.388  1.00  0.00     0.029 A 
ATOM     45  C   UNL A   1      42.394  31.305  30.267  1.00  0.00     0.049 A 
ATOM     46  H   UNL A   1      42.625  29.329  29.645  1.00  0.00     0.167 HD
ATOM     47  C   UNL A   1      42.929  25.212  28.066  1.00  0.00     0.037 A 
ATOM     48  C   UNL A   1      43.624  31.774  30.553  1.00  0.00     0.037 A 
ATOM     49  C   UNL A   1      44.283  25.645  28.289  1.00  0.00     0.049 A 
ATOM     50  C   UNL A   1      44.812  30.883  30.305  1.00  0.00     0.074 A 
ATOM     51  C   UNL A   1      45.457  24.947  28.076  1.00  0.00     0.029 A 
ATOM     52  N   UNL A   1      44.640  26.893  28.781  1.00  0.00    -0.354 N 
ATOM     53  N   UNL A   1      44.837  29.660  29.830  1.00  0.00    -0.248 NA
ATOM     54  C   UNL A   1      46.135  31.437  30.617  1.00  0.00     0.031 C 
ATOM     55  C   UNL A   1      46.522  25.757  28.481  1.00  0.00     0.029 A 
ATOM     56  C   UNL A   1      46.015  26.978  28.901  1.00  0.00     0.049 A 
ATOM     57  H   UNL A   1      44.007  27.611  29.011  1.00  0.00     0.167 HD
ATOM     58  C   UNL A   1      46.179  29.302  29.774  1.00  0.00     0.074 A 
ATOM     59  C   UNL A   1      46.934  30.447  30.242  1.00  0.00     0.031 C 
ATOM     60  C   UNL A   1      46.738  28.132  29.373  1.00  0.00     0.037 A 
BRANCH  47  61
ATOM     61  C   UNL A   1      42.688  23.810  27.577  1.00  0.00     0.058 A 
ATOM     62  C   UNL A   1      42.579  23.511  26.209  1.00  0.00     0.135 A 
ATOM     63  C   UNL A   1      42.588  22.746  28.487  1.00  0.00     0.135 A 
ATOM     64  F   UNL A   1      42.648  24.493  25.295  1.00  0.00    -0.206 F 
ATOM     65  C   UNL A   1      42.354  22.213  25.761  1.00  0.00     0.059 A 
ATOM     66  C   UNL A   1      42.389  21.435  28.061  1.00  0.00     0.059 A 
ATOM     67  F   UNL A   1      42.679  22.974  29.806  1.00  0.00    -0.206 F 
ATOM     68  C   UNL A   1      42.259  21.181  26.696  1.00  0.00     0.060 A 
BRANCH  68  69
ATOM     69  S   UNL A   1      41.971  19.500  26.101  1.00  0.00     0.124 S 
ATOM     70  O   UNL A   1      42.398  18.708  27.250  1.00  0.00    -0.237 OA
ATOM     71  O   UNL A   1      40.537  19.505  25.832  1.00  0.00    -0.237 OA
ATOM     72  O   UNL A   1      42.827  19.406  24.922  1.00  0.00    -0.744 OA
ENDBRANCH  68  69
ENDBRANCH  47  61
BRANCH  48  73
ATOM     73  C   UNL A   1      43.787  33.155  31.082  1.00  0.00     0.058 A 
ATOM     74  C   UNL A   1      43.898  34.260  30.226  1.00  0.00     0.135 A 
ATOM     75  C   UNL A   1      43.808  33.397  32.466  1.00  0.00     0.135 A 
ATOM     76  F   UNL A   1      43.886  34.081  28.896  1.00  0.00    -0.206 F 
ATOM     77  C   UNL A   1      44.037  35.554  30.719  1.00  0.00     0.059 A 
ATOM     78  C   UNL A   1      43.919  34.684  32.982  1.00  0.00     0.059 A 
ATOM     79  F   UNL A   1      43.687  32.377  33.328  1.00  0.00    -0.206 F 
ATOM     80  C   UNL A   1      44.043  35.756  32.100  1.00  0.00     0.060 A 
BRANCH  80  81
ATOM     81  S   UNL A   1      44.168  37.443  32.734  1.00  0.00     0.124 S 
ATOM     82  O   UNL A   1      45.520  37.452  33.280  1.00  0.00    -0.237 OA
ATOM     83  O   UNL A   1      43.960  38.240  31.529  1.00  0.00    -0.237 OA
ATOM     84  O   UNL A   1      43.089  37.513  33.715  1.00  0.00    -0.744 OA
ENDBRANCH  80  81
ENDBRANCH  48  73
BRANCH  60  85
ATOM     85  C   UNL A   1      48.238  28.040  29.413  1.00  0.00     0.058 A 
ATOM     86  C   UNL A   1      48.912  27.564  30.547  1.00  0.00     0.135 A 
ATOM     87  C   UNL A   1      49.001  28.377  28.285  1.00  0.00     0.135 A 
ATOM     88  F   UNL A   1      48.226  27.233  31.653  1.00  0.00    -0.206 F 
ATOM     89  C   UNL A   1      50.297  27.448  30.570  1.00  0.00     0.059 A 
ATOM     90  C   UNL A   1      50.385  28.244  28.276  1.00  0.00     0.059 A 
ATOM     91  F   UNL A   1      48.400  28.826  27.170  1.00  0.00    -0.206 F 
ATOM     92  C   UNL A   1      51.025  27.790  29.428  1.00  0.00     0.060 A 
BRANCH  92  93
ATOM     93  S   UNL A   1      52.819  27.605  29.459  1.00  0.00     0.124 S 
ATOM     94  O   UNL A   1      53.229  28.833  30.132  1.00  0.00    -0.237 OA
ATOM     95  O   UNL A   1      52.995  26.374  30.224  1.00  0.00    -0.237 OA
ATOM     96  O   UNL A   1      53.176  27.514  28.047  1.00  0.00    -0.744 OA
ENDBRANCH  92  93
ENDBRANCH  60  85
ENDBRANCH  34  35
ENDBRANCH  27  29
ENDBRANCH  26  27
ENDBRANCH  25  26
ENDBRANCH   1  25
TORSDOF 19
ENDMDL
