MODEL 1
REMARK VINA RESULT:      -9.6      0.000      0.000
REMARK SMILES NS(=O)(=O)c1ccc(-n2nc(C(=O)NCCCCCCCCCCC(=O)OCCOCCOC(=O)c3ccc(-c4c5nc(c(-c6c(F)cc(S(=O)(=O)[O-])cc6F)c6ccc([nH]6)c(-c6c(F)cc(S(=O)(=O)[O-])cc6F)c6nc(c(-c7c(F)cc(S(=O)(=O)[O-])cc7F)c7ccc4[nH]7)C=C6)C=C5)cc3)cc2-c2ccccc2)cc1
REMARK SMILES IDX 23 1 22 2 21 3 20 4 19 5 18 6 17 7 16 8 15 9 14 10 12 11
REMARK SMILES IDX 13 12 11 14 9 15 10 16 103 17 102 18 8 19 5 20 6 21 111 22
REMARK SMILES IDX 7 23 110 24 2 25 3 26 4 27 1 28 104 31 105 32 109 33 106 34
REMARK SMILES IDX 108 35 107 36 24 37 25 38 26 39 27 40 28 41 29 42 30 43
REMARK SMILES IDX 31 44 32 45 33 46 34 47 35 48 36 49 37 50 101 51 38 52
REMARK SMILES IDX 100 53 39 54 40 55 41 56 94 57 42 58 99 59 93 60 95 61 43 62
REMARK SMILES IDX 98 63 92 64 91 65 44 67 78 68 57 69 77 70 58 71 61 72 76 73
REMARK SMILES IDX 96 74 59 75 60 76 75 78 97 79 62 80 45 81 46 82 55 83 47 84
REMARK SMILES IDX 48 85 54 86 56 87 49 88 50 89 51 90 52 91 53 92 79 93 80 94
REMARK SMILES IDX 89 95 81 96 82 97 88 98 90 99 83 100 84 101 85 102 86 103
REMARK SMILES IDX 87 104 63 105 64 106 73 107 65 108 66 109 72 110 74 111
REMARK SMILES IDX 67 112 68 113 69 114 70 115 71 116
REMARK H PARENT 14 13 1 29 1 30 95 66 61 77
REMARK Flexibility Score: inf
ROOT
ATOM      1  C   UNL A   1      34.162  31.244  27.474  1.00  0.00     0.012 C 
ENDROOT
BRANCH   1   2
ATOM      2  C   UNL A   1      35.022  30.043  27.866  1.00  0.00     0.001 C 
BRANCH   2   3
ATOM      3  C   UNL A   1      35.151  28.999  26.763  1.00  0.00     0.000 C 
BRANCH   3   4
ATOM      4  C   UNL A   1      33.876  28.169  26.613  1.00  0.00     0.000 C 
BRANCH   4   5
ATOM      5  C   UNL A   1      33.727  27.575  25.209  1.00  0.00     0.000 C 
BRANCH   5   6
ATOM      6  C   UNL A   1      32.303  27.718  24.657  1.00  0.00     0.000 C 
BRANCH   6   7
ATOM      7  C   UNL A   1      32.061  26.880  23.393  1.00  0.00     0.002 C 
BRANCH   7   8
ATOM      8  C   UNL A   1      31.257  25.610  23.670  1.00  0.00     0.021 C 
BRANCH   8   9
ATOM      9  C   UNL A   1      29.826  25.948  24.069  1.00  0.00     0.116 C 
BRANCH   9  10
ATOM     10  N   UNL A   1      29.575  25.523  25.422  1.00  0.00    -0.351 N 
ATOM     11  C   UNL A   1      30.049  24.475  26.169  1.00  0.00     0.271 C 
ATOM     12  O   UNL A   1      29.452  24.262  27.228  1.00  0.00    -0.267 OA
ATOM     13  H   UNL A   1      28.938  26.097  25.906  1.00  0.00     0.163 HD
BRANCH  11  14
ATOM     14  C   UNL A   1      31.219  23.676  25.748  1.00  0.00     0.151 A 
ATOM     15  N   UNL A   1      32.292  21.871  25.293  1.00  0.00    -0.232 N 
ATOM     16  N   UNL A   1      31.049  22.393  25.366  1.00  0.00    -0.162 NA
ATOM     17  C   UNL A   1      33.270  22.839  25.365  1.00  0.00     0.075 A 
ATOM     18  C   UNL A   1      32.592  23.999  25.652  1.00  0.00     0.065 A 
BRANCH  15  19
ATOM     19  C   UNL A   1      32.481  20.494  25.065  1.00  0.00     0.065 A 
ATOM     20  C   UNL A   1      33.225  17.891  24.541  1.00  0.00     0.082 A 
ATOM     21  C   UNL A   1      33.246  18.351  25.859  1.00  0.00     0.024 A 
ATOM     22  C   UNL A   1      32.779  18.704  23.491  1.00  0.00     0.024 A 
ATOM     23  C   UNL A   1      32.882  19.665  26.122  1.00  0.00     0.030 A 
ATOM     24  C   UNL A   1      32.371  20.007  23.759  1.00  0.00     0.030 A 
BRANCH  20  25
ATOM     25  S   UNL A   1      33.781  16.256  24.191  1.00  0.00     0.238 S 
ATOM     26  O   UNL A   1      34.314  16.195  22.854  1.00  0.00    -0.207 OA
ATOM     27  O   UNL A   1      32.789  15.319  24.677  1.00  0.00    -0.207 OA
BRANCH  25  28
ATOM     28  N   UNL A   1      35.106  16.110  25.208  1.00  0.00    -0.225 NA
ATOM     29  H   UNL A   1      34.854  16.427  26.144  1.00  0.00     0.137 HD
ATOM     30  H   UNL A   1      35.873  16.680  24.851  1.00  0.00     0.137 HD
ENDBRANCH  25  28
ENDBRANCH  20  25
ENDBRANCH  15  19
BRANCH  17  31
ATOM     31  C   UNL A   1      34.695  22.705  25.082  1.00  0.00     0.000 A 
ATOM     32  C   UNL A   1      35.558  22.104  26.006  1.00  0.00     0.010 A 
ATOM     33  C   UNL A   1      35.192  23.095  23.832  1.00  0.00     0.010 A 
ATOM     34  C   UNL A   1      36.902  21.910  25.688  1.00  0.00     0.001 A 
ATOM     35  C   UNL A   1      36.534  22.895  23.513  1.00  0.00     0.001 A 
ATOM     36  C   UNL A   1      37.387  22.303  24.442  1.00  0.00     0.000 A 
ENDBRANCH  17  31
ENDBRANCH  11  14
ENDBRANCH   9  10
ENDBRANCH   8   9
ENDBRANCH   7   8
ENDBRANCH   6   7
ENDBRANCH   5   6
ENDBRANCH   4   5
ENDBRANCH   3   4
ENDBRANCH   2   3
ENDBRANCH   1   2
BRANCH   1  37
ATOM     37  C   UNL A   1      33.810  32.215  28.609  1.00  0.00     0.123 C 
BRANCH  37  38
ATOM     38  C   UNL A   1      33.377  33.623  28.246  1.00  0.00     0.305 C 
ATOM     39  O   UNL A   1      32.301  33.865  27.714  1.00  0.00    -0.252 OA
BRANCH  38  40
ATOM     40  O   UNL A   1      34.309  34.551  28.557  1.00  0.00    -0.463 OA
BRANCH  40  41
ATOM     41  C   UNL A   1      35.647  34.097  28.809  1.00  0.00     0.261 C 
BRANCH  41  42
ATOM     42  C   UNL A   1      35.947  34.189  30.303  1.00  0.00     0.202 C 
BRANCH  42  43
ATOM     43  O   UNL A   1      37.291  33.907  30.702  1.00  0.00    -0.374 OA
BRANCH  43  44
ATOM     44  C   UNL A   1      37.715  32.547  30.797  1.00  0.00     0.202 C 
BRANCH  44  45
ATOM     45  C   UNL A   1      38.421  32.116  32.077  1.00  0.00     0.261 C 
BRANCH  45  46
ATOM     46  O   UNL A   1      38.616  30.712  32.091  1.00  0.00    -0.460 OA
BRANCH  46  47
ATOM     47  C   UNL A   1      38.662  30.151  33.323  1.00  0.00     0.338 C 
ATOM     48  O   UNL A   1      38.066  30.509  34.323  1.00  0.00    -0.246 OA
BRANCH  47  49
ATOM     49  C   UNL A   1      39.665  29.076  33.285  1.00  0.00     0.060 A 
ATOM     50  C   UNL A   1      40.837  29.370  33.974  1.00  0.00     0.016 A 
ATOM     51  C   UNL A   1      39.625  28.166  32.221  1.00  0.00     0.016 A 
ATOM     52  C   UNL A   1      42.015  29.098  33.326  1.00  0.00     0.010 A 
ATOM     53  C   UNL A   1      40.795  27.908  31.565  1.00  0.00     0.010 A 
ATOM     54  C   UNL A   1      41.949  28.499  32.065  1.00  0.00    -0.014 A 
BRANCH  54  55
ATOM     55  C   UNL A   1      43.154  28.426  31.281  1.00  0.00     0.031 A 
ATOM     56  C   UNL A   1      43.281  29.610  30.418  1.00  0.00     0.074 A 
ATOM     57  C   UNL A   1      44.055  27.440  31.445  1.00  0.00     0.049 A 
ATOM     58  N   UNL A   1      43.001  29.693  29.161  1.00  0.00    -0.248 NA
ATOM     59  C   UNL A   1      43.426  30.913  31.091  1.00  0.00     0.031 C 
ATOM     60  C   UNL A   1      44.097  26.396  32.474  1.00  0.00     0.029 A 
ATOM     61  N   UNL A   1      45.204  27.231  30.751  1.00  0.00    -0.354 N 
ATOM     62  C   UNL A   1      43.225  31.026  28.846  1.00  0.00     0.074 A 
ATOM     63  C   UNL A   1      43.150  31.744  30.087  1.00  0.00     0.031 C 
ATOM     64  C   UNL A   1      45.321  25.816  32.470  1.00  0.00     0.029 A 
ATOM     65  C   UNL A   1      46.094  26.356  31.367  1.00  0.00     0.049 A 
ATOM     66  H   UNL A   1      45.391  27.663  29.886  1.00  0.00     0.167 HD
ATOM     67  C   UNL A   1      43.817  31.369  27.671  1.00  0.00     0.037 A 
ATOM     68  C   UNL A   1      47.398  26.197  31.017  1.00  0.00     0.037 A 
ATOM     69  C   UNL A   1      43.768  30.267  26.738  1.00  0.00     0.049 A 
ATOM     70  C   UNL A   1      47.536  26.724  29.628  1.00  0.00     0.074 A 
ATOM     71  C   UNL A   1      42.755  29.540  26.144  1.00  0.00     0.029 A 
ATOM     72  N   UNL A   1      44.909  29.506  26.612  1.00  0.00    -0.354 N 
ATOM     73  N   UNL A   1      46.957  26.174  28.592  1.00  0.00    -0.248 NA
ATOM     74  C   UNL A   1      47.879  28.130  29.465  1.00  0.00     0.031 C 
ATOM     75  C   UNL A   1      43.241  28.203  26.074  1.00  0.00     0.029 A 
ATOM     76  C   UNL A   1      44.549  28.184  26.565  1.00  0.00     0.049 A 
ATOM     77  H   UNL A   1      45.828  29.854  26.564  1.00  0.00     0.167 HD
ATOM     78  C   UNL A   1      46.489  27.238  27.829  1.00  0.00     0.074 A 
ATOM     79  C   UNL A   1      47.154  28.417  28.379  1.00  0.00     0.031 C 
ATOM     80  C   UNL A   1      45.389  27.099  27.030  1.00  0.00     0.037 A 
BRANCH  67  81
ATOM     81  C   UNL A   1      44.817  32.500  27.535  1.00  0.00     0.058 A 
ATOM     82  C   UNL A   1      44.611  33.448  26.515  1.00  0.00     0.135 A 
ATOM     83  C   UNL A   1      46.092  32.543  28.150  1.00  0.00     0.135 A 
ATOM     84  F   UNL A   1      43.433  33.521  25.876  1.00  0.00    -0.206 F 
ATOM     85  C   UNL A   1      45.628  34.288  26.061  1.00  0.00     0.059 A 
ATOM     86  C   UNL A   1      47.100  33.406  27.749  1.00  0.00     0.059 A 
ATOM     87  F   UNL A   1      46.479  31.696  29.108  1.00  0.00    -0.206 F 
ATOM     88  C   UNL A   1      46.878  34.239  26.670  1.00  0.00     0.060 A 
BRANCH  88  89
ATOM     89  S   UNL A   1      48.233  35.212  26.005  1.00  0.00     0.124 S 
ATOM     90  O   UNL A   1      49.317  34.852  26.912  1.00  0.00    -0.237 OA
ATOM     91  O   UNL A   1      48.333  34.696  24.646  1.00  0.00    -0.237 OA
ATOM     92  O   UNL A   1      47.746  36.584  26.117  1.00  0.00    -0.744 OA
ENDBRANCH  88  89
ENDBRANCH  67  81
BRANCH  68  93
ATOM     93  C   UNL A   1      48.554  26.001  31.933  1.00  0.00     0.058 A 
ATOM     94  C   UNL A   1      48.488  26.319  33.302  1.00  0.00     0.135 A 
ATOM     95  C   UNL A   1      49.679  25.253  31.528  1.00  0.00     0.135 A 
ATOM     96  F   UNL A   1      47.435  26.997  33.784  1.00  0.00    -0.206 F 
ATOM     97  C   UNL A   1      49.469  25.906  34.214  1.00  0.00     0.059 A 
ATOM     98  C   UNL A   1      50.671  24.837  32.414  1.00  0.00     0.059 A 
ATOM     99  F   UNL A   1      49.804  24.825  30.263  1.00  0.00    -0.206 F 
ATOM    100  C   UNL A   1      50.554  25.154  33.761  1.00  0.00     0.060 A 
BRANCH 100 101
ATOM    101  S   UNL A   1      51.761  24.504  34.943  1.00  0.00     0.124 S 
ATOM    102  O   UNL A   1      52.928  24.287  34.095  1.00  0.00    -0.237 OA
ATOM    103  O   UNL A   1      51.867  25.592  35.909  1.00  0.00    -0.237 OA
ATOM    104  O   UNL A   1      51.124  23.289  35.447  1.00  0.00    -0.744 OA
ENDBRANCH 100 101
ENDBRANCH  68  93
BRANCH  80 105
ATOM    105  C   UNL A   1      44.884  25.701  26.769  1.00  0.00     0.058 A 
ATOM    106  C   UNL A   1      43.858  25.075  27.500  1.00  0.00     0.135 A 
ATOM    107  C   UNL A   1      45.358  25.033  25.631  1.00  0.00     0.135 A 
ATOM    108  F   UNL A   1      43.279  25.694  28.538  1.00  0.00    -0.206 F 
ATOM    109  C   UNL A   1      43.355  23.822  27.138  1.00  0.00     0.059 A 
ATOM    110  C   UNL A   1      44.852  23.798  25.235  1.00  0.00     0.059 A 
ATOM    111  F   UNL A   1      46.291  25.608  24.855  1.00  0.00    -0.206 F 
ATOM    112  C   UNL A   1      43.861  23.191  26.002  1.00  0.00     0.060 A 
BRANCH 112 113
ATOM    113  S   UNL A   1      43.170  21.601  25.493  1.00  0.00     0.124 S 
ATOM    114  O   UNL A   1      41.756  21.921  25.329  1.00  0.00    -0.237 OA
ATOM    115  O   UNL A   1      43.903  21.315  24.263  1.00  0.00    -0.237 OA
ATOM    116  O   UNL A   1      43.484  20.718  26.614  1.00  0.00    -0.744 OA
ENDBRANCH 112 113
ENDBRANCH  80 105
ENDBRANCH  54  55
ENDBRANCH  47  49
ENDBRANCH  46  47
ENDBRANCH  45  46
ENDBRANCH  44  45
ENDBRANCH  43  44
ENDBRANCH  42  43
ENDBRANCH  41  42
ENDBRANCH  40  41
ENDBRANCH  38  40
ENDBRANCH  37  38
ENDBRANCH   1  37
TORSDOF 32
ENDMDL
MODEL 2
REMARK VINA RESULT:      -9.4      3.652      9.314
REMARK SMILES NS(=O)(=O)c1ccc(-n2nc(C(=O)NCCCCCCCCCCC(=O)OCCOCCOC(=O)c3ccc(-c4c5nc(c(-c6c(F)cc(S(=O)(=O)[O-])cc6F)c6ccc([nH]6)c(-c6c(F)cc(S(=O)(=O)[O-])cc6F)c6nc(c(-c7c(F)cc(S(=O)(=O)[O-])cc7F)c7ccc4[nH]7)C=C6)C=C5)cc3)cc2-c2ccccc2)cc1
REMARK SMILES IDX 23 1 22 2 21 3 20 4 19 5 18 6 17 7 16 8 15 9 14 10 12 11
REMARK SMILES IDX 13 12 11 14 9 15 10 16 103 17 102 18 8 19 5 20 6 21 111 22
REMARK SMILES IDX 7 23 110 24 2 25 3 26 4 27 1 28 104 31 105 32 109 33 106 34
REMARK SMILES IDX 108 35 107 36 24 37 25 38 26 39 27 40 28 41 29 42 30 43
REMARK SMILES IDX 31 44 32 45 33 46 34 47 35 48 36 49 37 50 101 51 38 52
REMARK SMILES IDX 100 53 39 54 40 55 41 56 94 57 42 58 99 59 93 60 95 61 43 62
REMARK SMILES IDX 98 63 92 64 91 65 44 67 78 68 57 69 77 70 58 71 61 72 76 73
REMARK SMILES IDX 96 74 59 75 60 76 75 78 97 79 62 80 45 81 46 82 55 83 47 84
REMARK SMILES IDX 48 85 54 86 56 87 49 88 50 89 51 90 52 91 53 92 79 93 80 94
REMARK SMILES IDX 89 95 81 96 82 97 88 98 90 99 83 100 84 101 85 102 86 103
REMARK SMILES IDX 87 104 63 105 64 106 73 107 65 108 66 109 72 110 74 111
REMARK SMILES IDX 67 112 68 113 69 114 70 115 71 116
REMARK H PARENT 14 13 1 29 1 30 95 66 61 77
REMARK Flexibility Score: inf
ROOT
ATOM      1  C   UNL A   1      39.636  25.697  27.818  1.00  0.00     0.012 C 
ENDROOT
BRANCH   1   2
ATOM      2  C   UNL A   1      39.860  27.206  27.728  1.00  0.00     0.001 C 
BRANCH   2   3
ATOM      3  C   UNL A   1      40.365  27.827  29.025  1.00  0.00     0.000 C 
BRANCH   3   4
ATOM      4  C   UNL A   1      39.255  28.565  29.772  1.00  0.00     0.000 C 
BRANCH   4   5
ATOM      5  C   UNL A   1      38.702  27.754  30.948  1.00  0.00     0.000 C 
BRANCH   5   6
ATOM      6  C   UNL A   1      37.950  28.626  31.962  1.00  0.00     0.000 C 
BRANCH   6   7
ATOM      7  C   UNL A   1      37.350  29.894  31.338  1.00  0.00     0.002 C 
BRANCH   7   8
ATOM      8  C   UNL A   1      35.911  29.697  30.863  1.00  0.00     0.021 C 
BRANCH   8   9
ATOM      9  C   UNL A   1      35.834  29.702  29.342  1.00  0.00     0.116 C 
BRANCH   9  10
ATOM     10  N   UNL A   1      35.424  31.000  28.870  1.00  0.00    -0.351 N 
ATOM     11  C   UNL A   1      34.651  31.400  27.810  1.00  0.00     0.271 C 
ATOM     12  O   UNL A   1      34.685  32.606  27.551  1.00  0.00    -0.267 OA
ATOM     13  H   UNL A   1      35.763  31.746  29.416  1.00  0.00     0.163 HD
BRANCH  11  14
ATOM     14  C   UNL A   1      33.810  30.453  27.048  1.00  0.00     0.151 A 
ATOM     15  N   UNL A   1      33.177  28.519  26.358  1.00  0.00    -0.232 N 
ATOM     16  N   UNL A   1      33.826  29.141  27.365  1.00  0.00    -0.162 NA
ATOM     17  C   UNL A   1      32.521  29.406  25.533  1.00  0.00     0.075 A 
ATOM     18  C   UNL A   1      32.916  30.647  25.970  1.00  0.00     0.065 A 
BRANCH  15  19
ATOM     19  C   UNL A   1      33.139  27.113  26.288  1.00  0.00     0.065 A 
ATOM     20  C   UNL A   1      32.876  24.410  25.810  1.00  0.00     0.082 A 
ATOM     21  C   UNL A   1      34.048  25.058  25.415  1.00  0.00     0.024 A 
ATOM     22  C   UNL A   1      31.860  25.090  26.493  1.00  0.00     0.024 A 
ATOM     23  C   UNL A   1      34.176  26.422  25.647  1.00  0.00     0.030 A 
ATOM     24  C   UNL A   1      32.006  26.446  26.765  1.00  0.00     0.030 A 
BRANCH  20  25
ATOM     25  S   UNL A   1      32.668  22.702  25.429  1.00  0.00     0.238 S 
ATOM     26  O   UNL A   1      33.848  21.968  25.808  1.00  0.00    -0.207 OA
ATOM     27  O   UNL A   1      32.074  22.594  24.112  1.00  0.00    -0.207 OA
BRANCH  25  28
ATOM     28  N   UNL A   1      31.482  22.240  26.520  1.00  0.00    -0.225 NA
ATOM     29  H   UNL A   1      31.557  22.807  27.365  1.00  0.00     0.137 HD
ATOM     30  H   UNL A   1      31.605  21.256  26.759  1.00  0.00     0.137 HD
ENDBRANCH  25  28
ENDBRANCH  20  25
ENDBRANCH  15  19
BRANCH  17  31
ATOM     31  C   UNL A   1      31.531  29.116  24.502  1.00  0.00     0.000 A 
ATOM     32  C   UNL A   1      31.571  27.916  23.783  1.00  0.00     0.010 A 
ATOM     33  C   UNL A   1      30.468  30.005  24.293  1.00  0.00     0.010 A 
ATOM     34  C   UNL A   1      30.571  27.616  22.858  1.00  0.00     0.001 A 
ATOM     35  C   UNL A   1      29.467  29.703  23.373  1.00  0.00     0.001 A 
ATOM     36  C   UNL A   1      29.519  28.509  22.656  1.00  0.00     0.000 A 
ENDBRANCH  17  31
ENDBRANCH  11  14
ENDBRANCH   9  10
ENDBRANCH   8   9
ENDBRANCH   7   8
ENDBRANCH   6   7
ENDBRANCH   5   6
ENDBRANCH   4   5
ENDBRANCH   3   4
ENDBRANCH   2   3
ENDBRANCH   1   2
BRANCH   1  37
ATOM     37  C   UNL A   1      40.006  24.889  26.567  1.00  0.00     0.123 C 
BRANCH  37  38
ATOM     38  C   UNL A   1      39.497  23.464  26.452  1.00  0.00     0.305 C 
ATOM     39  O   UNL A   1      38.306  23.184  26.496  1.00  0.00    -0.252 OA
BRANCH  38  40
ATOM     40  O   UNL A   1      40.497  22.564  26.315  1.00  0.00    -0.463 OA
BRANCH  40  41
ATOM     41  C   UNL A   1      40.558  21.485  27.259  1.00  0.00     0.261 C 
BRANCH  41  42
ATOM     42  C   UNL A   1      40.849  20.178  26.525  1.00  0.00     0.202 C 
BRANCH  42  43
ATOM     43  O   UNL A   1      41.681  19.235  27.207  1.00  0.00    -0.374 OA
BRANCH  43  44
ATOM     44  C   UNL A   1      42.925  18.857  26.619  1.00  0.00     0.202 C 
BRANCH  44  45
ATOM     45  C   UNL A   1      43.281  19.466  25.267  1.00  0.00     0.261 C 
BRANCH  45  46
ATOM     46  O   UNL A   1      44.302  20.439  25.412  1.00  0.00    -0.460 OA
BRANCH  46  47
ATOM     47  C   UNL A   1      44.156  21.543  24.641  1.00  0.00     0.338 C 
ATOM     48  O   UNL A   1      44.401  21.655  23.453  1.00  0.00    -0.246 OA
BRANCH  47  49
ATOM     49  C   UNL A   1      43.750  22.649  25.520  1.00  0.00     0.060 A 
ATOM     50  C   UNL A   1      43.524  23.850  24.855  1.00  0.00     0.016 A 
ATOM     51  C   UNL A   1      44.119  22.596  26.871  1.00  0.00     0.016 A 
ATOM     52  C   UNL A   1      44.086  24.973  25.405  1.00  0.00     0.010 A 
ATOM     53  C   UNL A   1      44.694  23.709  27.415  1.00  0.00     0.010 A 
ATOM     54  C   UNL A   1      44.783  24.838  26.609  1.00  0.00    -0.014 A 
BRANCH  54  55
ATOM     55  C   UNL A   1      45.570  25.951  27.070  1.00  0.00     0.031 A 
ATOM     56  C   UNL A   1      46.939  25.870  26.539  1.00  0.00     0.074 A 
ATOM     57  C   UNL A   1      45.037  26.953  27.792  1.00  0.00     0.049 A 
ATOM     58  N   UNL A   1      47.992  25.447  27.154  1.00  0.00    -0.248 NA
ATOM     59  C   UNL A   1      47.093  25.965  25.076  1.00  0.00     0.031 C 
ATOM     60  C   UNL A   1      43.629  27.205  28.114  1.00  0.00     0.029 A 
ATOM     61  N   UNL A   1      45.669  28.033  28.320  1.00  0.00    -0.354 N 
ATOM     62  C   UNL A   1      48.997  25.509  26.198  1.00  0.00     0.074 A 
ATOM     63  C   UNL A   1      48.333  25.504  24.926  1.00  0.00     0.031 C 
ATOM     64  C   UNL A   1      43.498  28.470  28.579  1.00  0.00     0.029 A 
ATOM     65  C   UNL A   1      44.816  29.064  28.706  1.00  0.00     0.049 A 
ATOM     66  H   UNL A   1      46.647  28.084  28.421  1.00  0.00     0.167 HD
ATOM     67  C   UNL A   1      50.244  25.935  26.533  1.00  0.00     0.037 A 
ATOM     68  C   UNL A   1      45.210  30.331  29.002  1.00  0.00     0.037 A 
ATOM     69  C   UNL A   1      50.428  25.887  27.966  1.00  0.00     0.049 A 
ATOM     70  C   UNL A   1      46.669  30.266  29.307  1.00  0.00     0.074 A 
ATOM     71  C   UNL A   1      50.391  24.888  28.918  1.00  0.00     0.029 A 
ATOM     72  N   UNL A   1      50.291  27.074  28.650  1.00  0.00    -0.354 N 
ATOM     73  N   UNL A   1      47.157  29.631  30.342  1.00  0.00    -0.248 NA
ATOM     74  C   UNL A   1      47.603  30.455  28.206  1.00  0.00     0.031 C 
ATOM     75  C   UNL A   1      49.807  25.487  30.071  1.00  0.00     0.029 A 
ATOM     76  C   UNL A   1      49.574  26.837  29.795  1.00  0.00     0.049 A 
ATOM     77  H   UNL A   1      50.648  27.946  28.366  1.00  0.00     0.167 HD
ATOM     78  C   UNL A   1      48.294  28.984  29.869  1.00  0.00     0.074 A 
ATOM     79  C   UNL A   1      48.558  29.592  28.566  1.00  0.00     0.031 C 
ATOM     80  C   UNL A   1      48.729  27.821  30.440  1.00  0.00     0.037 A 
BRANCH  67  81
ATOM     81  C   UNL A   1      51.103  26.802  25.636  1.00  0.00     0.058 A 
ATOM     82  C   UNL A   1      52.354  26.301  25.227  1.00  0.00     0.135 A 
ATOM     83  C   UNL A   1      50.899  28.183  25.394  1.00  0.00     0.135 A 
ATOM     84  F   UNL A   1      52.653  25.001  25.382  1.00  0.00    -0.206 F 
ATOM     85  C   UNL A   1      53.363  27.127  24.733  1.00  0.00     0.059 A 
ATOM     86  C   UNL A   1      51.871  29.011  24.854  1.00  0.00     0.059 A 
ATOM     87  F   UNL A   1      49.791  28.839  25.750  1.00  0.00    -0.206 F 
ATOM     88  C   UNL A   1      53.117  28.487  24.575  1.00  0.00     0.060 A 
BRANCH  88  89
ATOM     89  S   UNL A   1      54.449  29.581  24.071  1.00  0.00     0.124 S 
ATOM     90  O   UNL A   1      54.448  30.553  25.159  1.00  0.00    -0.237 OA
ATOM     91  O   UNL A   1      55.585  28.668  24.026  1.00  0.00    -0.237 OA
ATOM     92  O   UNL A   1      54.000  30.083  22.776  1.00  0.00    -0.744 OA
ENDBRANCH  88  89
ENDBRANCH  67  81
BRANCH  68  93
ATOM     93  C   UNL A   1      44.507  31.594  28.648  1.00  0.00     0.058 A 
ATOM     94  C   UNL A   1      44.034  32.488  29.625  1.00  0.00     0.135 A 
ATOM     95  C   UNL A   1      44.510  32.075  27.322  1.00  0.00     0.135 A 
ATOM     96  F   UNL A   1      44.029  32.129  30.919  1.00  0.00    -0.206 F 
ATOM     97  C   UNL A   1      43.606  33.785  29.309  1.00  0.00     0.059 A 
ATOM     98  C   UNL A   1      44.083  33.357  26.981  1.00  0.00     0.059 A 
ATOM     99  F   UNL A   1      45.015  31.339  26.321  1.00  0.00    -0.206 F 
ATOM    100  C   UNL A   1      43.644  34.215  27.982  1.00  0.00     0.060 A 
BRANCH 100 101
ATOM    101  S   UNL A   1      43.217  35.925  27.572  1.00  0.00     0.124 S 
ATOM    102  O   UNL A   1      43.993  36.675  28.553  1.00  0.00    -0.237 OA
ATOM    103  O   UNL A   1      43.662  36.034  26.188  1.00  0.00    -0.237 OA
ATOM    104  O   UNL A   1      41.768  35.968  27.762  1.00  0.00    -0.744 OA
ENDBRANCH 100 101
ENDBRANCH  68  93
BRANCH  80 105
ATOM    105  C   UNL A   1      48.130  27.425  31.767  1.00  0.00     0.058 A 
ATOM    106  C   UNL A   1      48.521  27.957  33.009  1.00  0.00     0.135 A 
ATOM    107  C   UNL A   1      47.008  26.584  31.756  1.00  0.00     0.135 A 
ATOM    108  F   UNL A   1      49.517  28.849  33.090  1.00  0.00    -0.206 F 
ATOM    109  C   UNL A   1      47.850  27.635  34.192  1.00  0.00     0.059 A 
ATOM    110  C   UNL A   1      46.307  26.273  32.918  1.00  0.00     0.059 A 
ATOM    111  F   UNL A   1      46.546  26.096  30.594  1.00  0.00    -0.206 F 
ATOM    112  C   UNL A   1      46.743  26.789  34.135  1.00  0.00     0.060 A 
BRANCH 112 113
ATOM    113  S   UNL A   1      45.833  26.421  35.652  1.00  0.00     0.124 S 
ATOM    114  O   UNL A   1      46.869  25.834  36.495  1.00  0.00    -0.237 OA
ATOM    115  O   UNL A   1      45.353  27.738  36.062  1.00  0.00    -0.237 OA
ATOM    116  O   UNL A   1      44.790  25.499  35.209  1.00  0.00    -0.744 OA
ENDBRANCH 112 113
ENDBRANCH  80 105
ENDBRANCH  54  55
ENDBRANCH  47  49
ENDBRANCH  46  47
ENDBRANCH  45  46
ENDBRANCH  44  45
ENDBRANCH  43  44
ENDBRANCH  42  43
ENDBRANCH  41  42
ENDBRANCH  40  41
ENDBRANCH  38  40
ENDBRANCH  37  38
ENDBRANCH   1  37
TORSDOF 32
ENDMDL
MODEL 3
REMARK VINA RESULT:      -8.9      5.860     11.248
REMARK SMILES NS(=O)(=O)c1ccc(-n2nc(C(=O)NCCCCCCCCCCC(=O)OCCOCCOC(=O)c3ccc(-c4c5nc(c(-c6c(F)cc(S(=O)(=O)[O-])cc6F)c6ccc([nH]6)c(-c6c(F)cc(S(=O)(=O)[O-])cc6F)c6nc(c(-c7c(F)cc(S(=O)(=O)[O-])cc7F)c7ccc4[nH]7)C=C6)C=C5)cc3)cc2-c2ccccc2)cc1
REMARK SMILES IDX 23 1 22 2 21 3 20 4 19 5 18 6 17 7 16 8 15 9 14 10 12 11
REMARK SMILES IDX 13 12 11 14 9 15 10 16 103 17 102 18 8 19 5 20 6 21 111 22
REMARK SMILES IDX 7 23 110 24 2 25 3 26 4 27 1 28 104 31 105 32 109 33 106 34
REMARK SMILES IDX 108 35 107 36 24 37 25 38 26 39 27 40 28 41 29 42 30 43
REMARK SMILES IDX 31 44 32 45 33 46 34 47 35 48 36 49 37 50 101 51 38 52
REMARK SMILES IDX 100 53 39 54 40 55 41 56 94 57 42 58 99 59 93 60 95 61 43 62
REMARK SMILES IDX 98 63 92 64 91 65 44 67 78 68 57 69 77 70 58 71 61 72 76 73
REMARK SMILES IDX 96 74 59 75 60 76 75 78 97 79 62 80 45 81 46 82 55 83 47 84
REMARK SMILES IDX 48 85 54 86 56 87 49 88 50 89 51 90 52 91 53 92 79 93 80 94
REMARK SMILES IDX 89 95 81 96 82 97 88 98 90 99 83 100 84 101 85 102 86 103
REMARK SMILES IDX 87 104 63 105 64 106 73 107 65 108 66 109 72 110 74 111
REMARK SMILES IDX 67 112 68 113 69 114 70 115 71 116
REMARK H PARENT 14 13 1 29 1 30 95 66 61 77
REMARK Flexibility Score: inf
ROOT
ATOM      1  C   UNL A   1      33.749  30.465  27.031  1.00  0.00     0.012 C 
ENDROOT
BRANCH   1   2
ATOM      2  C   UNL A   1      35.058  29.685  27.141  1.00  0.00     0.001 C 
BRANCH   2   3
ATOM      3  C   UNL A   1      35.668  29.709  28.537  1.00  0.00     0.000 C 
BRANCH   3   4
ATOM      4  C   UNL A   1      37.150  30.082  28.505  1.00  0.00     0.000 C 
BRANCH   4   5
ATOM      5  C   UNL A   1      37.721  30.333  29.904  1.00  0.00     0.000 C 
BRANCH   5   6
ATOM      6  C   UNL A   1      39.181  30.802  29.869  1.00  0.00     0.000 C 
BRANCH   6   7
ATOM      7  C   UNL A   1      40.186  29.640  29.863  1.00  0.00     0.002 C 
BRANCH   7   8
ATOM      8  C   UNL A   1      41.026  29.591  28.588  1.00  0.00     0.021 C 
BRANCH   8   9
ATOM      9  C   UNL A   1      40.386  28.679  27.549  1.00  0.00     0.116 C 
BRANCH   9  10
ATOM     10  N   UNL A   1      39.885  27.483  28.179  1.00  0.00    -0.351 N 
ATOM     11  C   UNL A   1      40.268  26.168  28.111  1.00  0.00     0.271 C 
ATOM     12  O   UNL A   1      39.477  25.357  28.599  1.00  0.00    -0.267 OA
ATOM     13  H   UNL A   1      39.118  27.641  28.775  1.00  0.00     0.163 HD
BRANCH  11  14
ATOM     14  C   UNL A   1      41.559  25.755  27.520  1.00  0.00     0.151 A 
ATOM     15  N   UNL A   1      42.998  24.359  26.751  1.00  0.00    -0.232 N 
ATOM     16  N   UNL A   1      41.677  24.533  26.961  1.00  0.00    -0.162 NA
ATOM     17  C   UNL A   1      43.712  25.525  26.918  1.00  0.00     0.075 A 
ATOM     18  C   UNL A   1      42.797  26.427  27.406  1.00  0.00     0.065 A 
BRANCH  15  19
ATOM     19  C   UNL A   1      43.499  23.117  26.313  1.00  0.00     0.065 A 
ATOM     20  C   UNL A   1      44.347  20.789  25.103  1.00  0.00     0.082 A 
ATOM     21  C   UNL A   1      45.241  21.854  25.226  1.00  0.00     0.024 A 
ATOM     22  C   UNL A   1      43.051  20.858  25.631  1.00  0.00     0.024 A 
ATOM     23  C   UNL A   1      44.811  23.030  25.827  1.00  0.00     0.030 A 
ATOM     24  C   UNL A   1      42.634  22.019  26.273  1.00  0.00     0.030 A 
BRANCH  20  25
ATOM     25  S   UNL A   1      44.857  19.332  24.253  1.00  0.00     0.238 S 
ATOM     26  O   UNL A   1      44.545  19.447  22.851  1.00  0.00    -0.207 OA
ATOM     27  O   UNL A   1      44.473  18.181  25.043  1.00  0.00    -0.207 OA
BRANCH  25  28
ATOM     28  N   UNL A   1      46.527  19.435  24.350  1.00  0.00    -0.225 NA
ATOM     29  H   UNL A   1      46.948  18.811  23.662  1.00  0.00     0.137 HD
ATOM     30  H   UNL A   1      46.831  19.164  25.286  1.00  0.00     0.137 HD
ENDBRANCH  25  28
ENDBRANCH  20  25
ENDBRANCH  15  19
BRANCH  17  31
ATOM     31  C   UNL A   1      45.098  25.797  26.550  1.00  0.00     0.000 A 
ATOM     32  C   UNL A   1      46.134  25.630  27.476  1.00  0.00     0.010 A 
ATOM     33  C   UNL A   1      45.409  26.135  25.226  1.00  0.00     0.010 A 
ATOM     34  C   UNL A   1      47.460  25.815  27.088  1.00  0.00     0.001 A 
ATOM     35  C   UNL A   1      46.735  26.313  24.838  1.00  0.00     0.001 A 
ATOM     36  C   UNL A   1      47.759  26.153  25.769  1.00  0.00     0.000 A 
ENDBRANCH  17  31
ENDBRANCH  11  14
ENDBRANCH   9  10
ENDBRANCH   8   9
ENDBRANCH   7   8
ENDBRANCH   6   7
ENDBRANCH   5   6
ENDBRANCH   4   5
ENDBRANCH   3   4
ENDBRANCH   2   3
ENDBRANCH   1   2
BRANCH   1  37
ATOM     37  C   UNL A   1      33.541  31.575  28.070  1.00  0.00     0.123 C 
BRANCH  37  38
ATOM     38  C   UNL A   1      32.883  32.867  27.622  1.00  0.00     0.305 C 
ATOM     39  O   UNL A   1      31.770  32.897  27.111  1.00  0.00    -0.252 OA
BRANCH  38  40
ATOM     40  O   UNL A   1      33.663  33.950  27.835  1.00  0.00    -0.463 OA
BRANCH  40  41
ATOM     41  C   UNL A   1      33.058  35.102  28.441  1.00  0.00     0.261 C 
BRANCH  41  42
ATOM     42  C   UNL A   1      33.867  35.523  29.665  1.00  0.00     0.202 C 
BRANCH  42  43
ATOM     43  O   UNL A   1      33.123  35.982  30.796  1.00  0.00    -0.374 OA
BRANCH  43  44
ATOM     44  C   UNL A   1      33.776  36.792  31.773  1.00  0.00     0.202 C 
BRANCH  44  45
ATOM     45  C   UNL A   1      33.676  36.357  33.231  1.00  0.00     0.261 C 
BRANCH  45  46
ATOM     46  O   UNL A   1      34.753  35.501  33.571  1.00  0.00    -0.460 OA
BRANCH  46  47
ATOM     47  C   UNL A   1      34.601  34.209  33.193  1.00  0.00     0.338 C 
ATOM     48  O   UNL A   1      33.579  33.547  33.212  1.00  0.00    -0.246 OA
BRANCH  47  49
ATOM     49  C   UNL A   1      35.932  33.686  32.852  1.00  0.00     0.060 A 
ATOM     50  C   UNL A   1      36.140  32.367  33.241  1.00  0.00     0.016 A 
ATOM     51  C   UNL A   1      36.984  34.598  32.690  1.00  0.00     0.016 A 
ATOM     52  C   UNL A   1      37.322  32.094  33.880  1.00  0.00     0.010 A 
ATOM     53  C   UNL A   1      38.156  34.334  33.340  1.00  0.00     0.010 A 
ATOM     54  C   UNL A   1      38.242  33.135  34.037  1.00  0.00    -0.014 A 
BRANCH  54  55
ATOM     55  C   UNL A   1      39.370  32.923  34.904  1.00  0.00     0.031 A 
ATOM     56  C   UNL A   1      39.044  33.323  36.282  1.00  0.00     0.074 A 
ATOM     57  C   UNL A   1      40.500  32.333  34.476  1.00  0.00     0.049 A 
ATOM     58  N   UNL A   1      39.365  34.424  36.873  1.00  0.00    -0.248 NA
ATOM     59  C   UNL A   1      37.981  32.561  36.962  1.00  0.00     0.031 C 
ATOM     60  C   UNL A   1      40.766  31.682  33.189  1.00  0.00     0.029 A 
ATOM     61  N   UNL A   1      41.645  32.109  35.173  1.00  0.00    -0.354 N 
ATOM     62  C   UNL A   1      38.761  34.335  38.119  1.00  0.00     0.074 A 
ATOM     63  C   UNL A   1      37.702  33.377  37.978  1.00  0.00     0.031 C 
ATOM     64  C   UNL A   1      41.900  30.948  33.287  1.00  0.00     0.029 A 
ATOM     65  C   UNL A   1      42.500  31.179  34.588  1.00  0.00     0.049 A 
ATOM     66  H   UNL A   1      41.852  32.567  36.020  1.00  0.00     0.167 HD
ATOM     67  C   UNL A   1      39.411  34.764  39.234  1.00  0.00     0.037 A 
ATOM     68  C   UNL A   1      43.556  30.592  35.211  1.00  0.00     0.037 A 
ATOM     69  C   UNL A   1      40.513  35.627  38.878  1.00  0.00     0.049 A 
ATOM     70  C   UNL A   1      43.898  31.457  36.378  1.00  0.00     0.074 A 
ATOM     71  C   UNL A   1      40.629  36.831  38.211  1.00  0.00     0.029 A 
ATOM     72  N   UNL A   1      41.769  35.062  38.869  1.00  0.00    -0.354 N 
ATOM     73  N   UNL A   1      44.357  32.676  36.257  1.00  0.00    -0.248 NA
ATOM     74  C   UNL A   1      43.254  31.167  37.651  1.00  0.00     0.031 C 
ATOM     75  C   UNL A   1      41.839  36.734  37.465  1.00  0.00     0.029 A 
ATOM     76  C   UNL A   1      42.439  35.506  37.759  1.00  0.00     0.049 A 
ATOM     77  H   UNL A   1      42.125  34.443  39.546  1.00  0.00     0.167 HD
ATOM     78  C   UNL A   1      43.702  33.411  37.238  1.00  0.00     0.074 A 
ATOM     79  C   UNL A   1      43.093  32.412  38.114  1.00  0.00     0.031 C 
ATOM     80  C   UNL A   1      43.467  34.748  37.076  1.00  0.00     0.037 A 
BRANCH  67  81
ATOM     81  C   UNL A   1      39.338  34.055  40.571  1.00  0.00     0.058 A 
ATOM     82  C   UNL A   1      38.700  34.715  41.639  1.00  0.00     0.135 A 
ATOM     83  C   UNL A   1      40.093  32.913  40.934  1.00  0.00     0.135 A 
ATOM     84  F   UNL A   1      37.934  35.795  41.415  1.00  0.00    -0.206 F 
ATOM     85  C   UNL A   1      38.895  34.345  42.969  1.00  0.00     0.059 A 
ATOM     86  C   UNL A   1      40.257  32.497  42.246  1.00  0.00     0.059 A 
ATOM     87  F   UNL A   1      40.798  32.186  40.063  1.00  0.00    -0.206 F 
ATOM     88  C   UNL A   1      39.698  33.247  43.262  1.00  0.00     0.060 A 
BRANCH  88  89
ATOM     89  S   UNL A   1      40.070  32.845  44.972  1.00  0.00     0.124 S 
ATOM     90  O   UNL A   1      38.827  33.229  45.633  1.00  0.00    -0.237 OA
ATOM     91  O   UNL A   1      40.339  31.415  44.891  1.00  0.00    -0.237 OA
ATOM     92  O   UNL A   1      41.228  33.682  45.269  1.00  0.00    -0.744 OA
ENDBRANCH  88  89
ENDBRANCH  67  81
BRANCH  68  93
ATOM     93  C   UNL A   1      43.995  29.176  35.090  1.00  0.00     0.058 A 
ATOM     94  C   UNL A   1      43.261  28.114  35.647  1.00  0.00     0.135 A 
ATOM     95  C   UNL A   1      45.023  28.812  34.195  1.00  0.00     0.135 A 
ATOM     96  F   UNL A   1      42.239  28.367  36.480  1.00  0.00    -0.206 F 
ATOM     97  C   UNL A   1      43.521  26.774  35.325  1.00  0.00     0.059 A 
ATOM     98  C   UNL A   1      45.305  27.488  33.865  1.00  0.00     0.059 A 
ATOM     99  F   UNL A   1      45.733  29.745  33.543  1.00  0.00    -0.206 F 
ATOM    100  C   UNL A   1      44.540  26.471  34.422  1.00  0.00     0.060 A 
BRANCH 100 101
ATOM    101  S   UNL A   1      44.806  24.759  33.897  1.00  0.00     0.124 S 
ATOM    102  O   UNL A   1      45.768  24.921  32.814  1.00  0.00    -0.237 OA
ATOM    103  O   UNL A   1      45.313  24.136  35.115  1.00  0.00    -0.237 OA
ATOM    104  O   UNL A   1      43.475  24.320  33.486  1.00  0.00    -0.744 OA
ENDBRANCH 100 101
ENDBRANCH  68  93
BRANCH  80 105
ATOM    105  C   UNL A   1      44.193  35.456  35.958  1.00  0.00     0.058 A 
ATOM    106  C   UNL A   1      43.698  35.592  34.647  1.00  0.00     0.135 A 
ATOM    107  C   UNL A   1      45.365  36.157  36.275  1.00  0.00     0.135 A 
ATOM    108  F   UNL A   1      42.530  35.039  34.294  1.00  0.00    -0.206 F 
ATOM    109  C   UNL A   1      44.363  36.357  33.685  1.00  0.00     0.059 A 
ATOM    110  C   UNL A   1      46.027  36.948  35.341  1.00  0.00     0.059 A 
ATOM    111  F   UNL A   1      45.851  36.120  37.526  1.00  0.00    -0.206 F 
ATOM    112  C   UNL A   1      45.530  37.032  34.044  1.00  0.00     0.060 A 
BRANCH 112 113
ATOM    113  S   UNL A   1      46.357  38.074  32.822  1.00  0.00     0.124 S 
ATOM    114  O   UNL A   1      45.578  39.306  32.892  1.00  0.00    -0.237 OA
ATOM    115  O   UNL A   1      47.719  38.155  33.344  1.00  0.00    -0.237 OA
ATOM    116  O   UNL A   1      46.220  37.318  31.580  1.00  0.00    -0.744 OA
ENDBRANCH 112 113
ENDBRANCH  80 105
ENDBRANCH  54  55
ENDBRANCH  47  49
ENDBRANCH  46  47
ENDBRANCH  45  46
ENDBRANCH  44  45
ENDBRANCH  43  44
ENDBRANCH  42  43
ENDBRANCH  41  42
ENDBRANCH  40  41
ENDBRANCH  38  40
ENDBRANCH  37  38
ENDBRANCH   1  37
TORSDOF 32
ENDMDL
