MODEL 1
REMARK VINA RESULT:     -10.8      0.000      0.000
REMARK SMILES CN(C)S(=O)(=O)c1cccc(-c2cc(Cl)cc(C(=O)OCCOCCOC(=O)c3ccc(-c4c5nc(c(-c6c(F)cc(S(=O)(=O)[O-])cc6F)c6ccc([nH]6)c(-c6c(F)cc(S(=O)(=O)[O-])cc6F)c6nc(c(-c7c(F)cc(S(=O)(=O)[O-])cc7F)c7ccc4[nH]7)C=C6)C=C5)cc3)c2)c1
REMARK SMILES IDX 23 1 22 2 21 3 20 4 18 5 19 6 17 7 12 8 13 9 95 10 14 11
REMARK SMILES IDX 15 12 16 13 11 14 7 15 8 16 96 17 9 18 10 19 4 20 5 21 6 22
REMARK SMILES IDX 2 23 1 24 3 25 24 26 25 27 26 28 27 29 28 30 29 31 30 32
REMARK SMILES IDX 94 33 31 34 93 35 32 36 33 37 34 38 87 39 35 40 92 41 86 42
REMARK SMILES IDX 88 43 36 44 91 45 85 46 84 47 37 49 71 50 50 51 70 52 51 53
REMARK SMILES IDX 54 54 69 55 89 56 52 57 53 58 68 60 90 61 55 62 38 63 39 64
REMARK SMILES IDX 48 65 40 66 41 67 47 68 49 69 42 70 43 71 44 72 45 73 46 74
REMARK SMILES IDX 72 75 73 76 82 77 74 78 75 79 81 80 83 81 76 82 77 83 78 84
REMARK SMILES IDX 79 85 80 86 56 87 57 88 66 89 58 90 59 91 65 92 67 93 60 94
REMARK SMILES IDX 61 95 62 96 63 97 64 98
REMARK H PARENT 88 48 54 59
REMARK Flexibility Score: inf
ROOT
ATOM      1  O   UNL A   1      42.167  22.375  26.919  1.00  0.00    -0.374 OA
ENDROOT
BRANCH   1   2
ATOM      2  C   UNL A   1      41.117  21.968  26.040  1.00  0.00     0.202 C 
BRANCH   2   3
ATOM      3  C   UNL A   1      39.735  21.717  26.656  1.00  0.00     0.261 C 
BRANCH   3   4
ATOM      4  O   UNL A   1      38.686  21.869  25.686  1.00  0.00    -0.460 OA
BRANCH   4   5
ATOM      5  C   UNL A   1      37.905  22.965  25.848  1.00  0.00     0.338 C 
ATOM      6  O   UNL A   1      38.273  24.119  25.981  1.00  0.00    -0.246 OA
BRANCH   5   7
ATOM      7  C   UNL A   1      36.486  22.599  25.628  1.00  0.00     0.062 A 
ATOM      8  C   UNL A   1      34.097  23.108  25.646  1.00  0.00    -0.016 A 
ATOM      9  C   UNL A   1      33.853  21.780  25.249  1.00  0.00     0.029 A 
ATOM     10  C   UNL A   1      35.434  23.499  25.850  1.00  0.00     0.024 A 
ATOM     11  C   UNL A   1      34.903  20.881  25.057  1.00  0.00     0.042 A 
ATOM     12  Cl  UNL A   1      34.565  19.256  24.601  1.00  0.00    -0.084 Cl
ATOM     13  C   UNL A   1      36.218  21.285  25.233  1.00  0.00     0.036 A 
BRANCH   8  14
ATOM     14  C   UNL A   1      32.985  24.068  25.805  1.00  0.00    -0.017 A 
ATOM     15  C   UNL A   1      32.047  26.293  25.481  1.00  0.00     0.083 A 
ATOM     16  C   UNL A   1      30.827  25.888  26.023  1.00  0.00     0.022 A 
ATOM     17  C   UNL A   1      33.111  25.393  25.357  1.00  0.00     0.030 A 
ATOM     18  C   UNL A   1      30.689  24.583  26.487  1.00  0.00     0.002 A 
ATOM     19  C   UNL A   1      31.758  23.687  26.382  1.00  0.00     0.009 A 
BRANCH  15  20
ATOM     20  S   UNL A   1      32.241  27.953  24.873  1.00  0.00     0.242 S 
ATOM     21  O   UNL A   1      30.947  28.424  24.434  1.00  0.00    -0.207 OA
ATOM     22  O   UNL A   1      33.375  27.947  23.970  1.00  0.00    -0.207 OA
BRANCH  20  23
ATOM     23  N   UNL A   1      32.675  28.820  26.282  1.00  0.00    -0.204 NA
ATOM     24  C   UNL A   1      34.131  28.765  26.565  1.00  0.00     0.124 C 
ATOM     25  C   UNL A   1      32.170  30.210  26.351  1.00  0.00     0.124 C 
ENDBRANCH  20  23
ENDBRANCH  15  20
ENDBRANCH   8  14
ENDBRANCH   5   7
ENDBRANCH   4   5
ENDBRANCH   3   4
ENDBRANCH   2   3
ENDBRANCH   1   2
BRANCH   1  26
ATOM     26  C   UNL A   1      43.382  22.842  26.334  1.00  0.00     0.202 C 
BRANCH  26  27
ATOM     27  C   UNL A   1      43.294  23.824  25.160  1.00  0.00     0.261 C 
BRANCH  27  28
ATOM     28  O   UNL A   1      43.373  25.200  25.562  1.00  0.00    -0.460 OA
BRANCH  28  29
ATOM     29  C   UNL A   1      42.164  25.788  25.744  1.00  0.00     0.338 C 
ATOM     30  O   UNL A   1      41.186  25.693  25.023  1.00  0.00    -0.246 OA
BRANCH  29  31
ATOM     31  C   UNL A   1      42.106  26.446  27.062  1.00  0.00     0.060 A 
ATOM     32  C   UNL A   1      41.083  26.043  27.927  1.00  0.00     0.016 A 
ATOM     33  C   UNL A   1      42.963  27.492  27.412  1.00  0.00     0.016 A 
ATOM     34  C   UNL A   1      40.872  26.728  29.120  1.00  0.00     0.010 A 
ATOM     35  C   UNL A   1      42.749  28.178  28.615  1.00  0.00     0.010 A 
ATOM     36  C   UNL A   1      41.677  27.826  29.454  1.00  0.00    -0.014 A 
BRANCH  36  37
ATOM     37  C   UNL A   1      41.306  28.648  30.635  1.00  0.00     0.031 A 
ATOM     38  C   UNL A   1      42.123  28.557  31.896  1.00  0.00     0.074 A 
ATOM     39  C   UNL A   1      40.296  29.532  30.546  1.00  0.00     0.049 A 
ATOM     40  N   UNL A   1      42.017  29.247  33.002  1.00  0.00    -0.248 NA
ATOM     41  C   UNL A   1      43.201  27.556  31.916  1.00  0.00     0.031 C 
ATOM     42  C   UNL A   1      39.445  29.723  29.371  1.00  0.00     0.029 A 
ATOM     43  N   UNL A   1      39.823  30.445  31.454  1.00  0.00    -0.354 N 
ATOM     44  C   UNL A   1      43.012  28.768  33.849  1.00  0.00     0.074 A 
ATOM     45  C   UNL A   1      43.682  27.697  33.143  1.00  0.00     0.031 C 
ATOM     46  C   UNL A   1      38.565  30.705  29.624  1.00  0.00     0.029 A 
ATOM     47  C   UNL A   1      38.768  31.192  30.987  1.00  0.00     0.049 A 
ATOM     48  H   UNL A   1      40.204  30.556  32.355  1.00  0.00     0.167 HD
ATOM     49  C   UNL A   1      43.344  29.192  35.092  1.00  0.00     0.037 A 
ATOM     50  C   UNL A   1      38.045  32.156  31.590  1.00  0.00     0.037 A 
ATOM     51  C   UNL A   1      42.669  30.260  35.790  1.00  0.00     0.049 A 
ATOM     52  C   UNL A   1      38.410  32.582  32.987  1.00  0.00     0.074 A 
ATOM     53  C   UNL A   1      42.944  30.777  37.043  1.00  0.00     0.029 A 
ATOM     54  N   UNL A   1      41.583  30.969  35.298  1.00  0.00    -0.354 N 
ATOM     55  N   UNL A   1      39.374  32.141  33.761  1.00  0.00    -0.248 NA
ATOM     56  C   UNL A   1      37.599  33.650  33.585  1.00  0.00     0.031 C 
ATOM     57  C   UNL A   1      41.987  31.755  37.335  1.00  0.00     0.029 A 
ATOM     58  C   UNL A   1      41.157  31.899  36.235  1.00  0.00     0.049 A 
ATOM     59  H   UNL A   1      41.173  30.832  34.413  1.00  0.00     0.167 HD
ATOM     60  C   UNL A   1      39.301  32.898  34.927  1.00  0.00     0.074 A 
ATOM     61  C   UNL A   1      38.215  33.837  34.744  1.00  0.00     0.031 C 
ATOM     62  C   UNL A   1      40.066  32.824  36.047  1.00  0.00     0.037 A 
BRANCH  49  63
ATOM     63  C   UNL A   1      44.473  28.483  35.797  1.00  0.00     0.058 A 
ATOM     64  C   UNL A   1      44.250  27.370  36.625  1.00  0.00     0.135 A 
ATOM     65  C   UNL A   1      45.802  28.896  35.605  1.00  0.00     0.135 A 
ATOM     66  F   UNL A   1      43.000  26.939  36.859  1.00  0.00    -0.206 F 
ATOM     67  C   UNL A   1      45.301  26.712  37.260  1.00  0.00     0.059 A 
ATOM     68  C   UNL A   1      46.869  28.234  36.203  1.00  0.00     0.059 A 
ATOM     69  F   UNL A   1      46.075  29.953  34.825  1.00  0.00    -0.206 F 
ATOM     70  C   UNL A   1      46.608  27.150  37.040  1.00  0.00     0.060 A 
BRANCH  70  71
ATOM     71  S   UNL A   1      47.959  26.280  37.862  1.00  0.00     0.124 S 
ATOM     72  O   UNL A   1      48.344  25.309  36.842  1.00  0.00    -0.237 OA
ATOM     73  O   UNL A   1      48.916  27.354  38.108  1.00  0.00    -0.237 OA
ATOM     74  O   UNL A   1      47.329  25.720  39.053  1.00  0.00    -0.744 OA
ENDBRANCH  70  71
ENDBRANCH  49  63
BRANCH  50  75
ATOM     75  C   UNL A   1      36.905  32.786  30.871  1.00  0.00     0.058 A 
ATOM     76  C   UNL A   1      35.598  32.290  30.996  1.00  0.00     0.135 A 
ATOM     77  C   UNL A   1      37.104  33.903  30.044  1.00  0.00     0.135 A 
ATOM     78  F   UNL A   1      35.358  31.220  31.766  1.00  0.00    -0.206 F 
ATOM     79  C   UNL A   1      34.533  32.867  30.312  1.00  0.00     0.059 A 
ATOM     80  C   UNL A   1      36.049  34.516  29.377  1.00  0.00     0.059 A 
ATOM     81  F   UNL A   1      38.332  34.426  29.901  1.00  0.00    -0.206 F 
ATOM     82  C   UNL A   1      34.768  33.983  29.509  1.00  0.00     0.060 A 
BRANCH  82  83
ATOM     83  S   UNL A   1      33.371  34.758  28.667  1.00  0.00     0.124 S 
ATOM     84  O   UNL A   1      32.508  35.106  29.790  1.00  0.00    -0.237 OA
ATOM     85  O   UNL A   1      34.011  35.875  27.981  1.00  0.00    -0.237 OA
ATOM     86  O   UNL A   1      32.875  33.696  27.795  1.00  0.00    -0.744 OA
ENDBRANCH  82  83
ENDBRANCH  50  75
BRANCH  62  87
ATOM     87  C   UNL A   1      39.771  33.813  37.145  1.00  0.00     0.058 A 
ATOM     88  C   UNL A   1      40.300  35.114  37.138  1.00  0.00     0.135 A 
ATOM     89  C   UNL A   1      38.952  33.449  38.228  1.00  0.00     0.135 A 
ATOM     90  F   UNL A   1      41.088  35.518  36.128  1.00  0.00    -0.206 F 
ATOM     91  C   UNL A   1      40.079  35.996  38.191  1.00  0.00     0.059 A 
ATOM     92  C   UNL A   1      38.687  34.328  39.273  1.00  0.00     0.059 A 
ATOM     93  F   UNL A   1      38.403  32.224  38.281  1.00  0.00    -0.206 F 
ATOM     94  C   UNL A   1      39.278  35.589  39.260  1.00  0.00     0.060 A 
BRANCH  94  95
ATOM     95  S   UNL A   1      39.022  36.731  40.634  1.00  0.00     0.124 S 
ATOM     96  O   UNL A   1      38.472  37.896  39.948  1.00  0.00    -0.237 OA
ATOM     97  O   UNL A   1      38.090  35.997  41.484  1.00  0.00    -0.237 OA
ATOM     98  O   UNL A   1      40.363  36.904  41.186  1.00  0.00    -0.744 OA
ENDBRANCH  94  95
ENDBRANCH  62  87
ENDBRANCH  36  37
ENDBRANCH  29  31
ENDBRANCH  28  29
ENDBRANCH  27  28
ENDBRANCH  26  27
ENDBRANCH   1  26
TORSDOF 20
ENDMDL
MODEL 2
REMARK VINA RESULT:     -10.7      5.197     11.637
REMARK SMILES CN(C)S(=O)(=O)c1cccc(-c2cc(Cl)cc(C(=O)OCCOCCOC(=O)c3ccc(-c4c5nc(c(-c6c(F)cc(S(=O)(=O)[O-])cc6F)c6ccc([nH]6)c(-c6c(F)cc(S(=O)(=O)[O-])cc6F)c6nc(c(-c7c(F)cc(S(=O)(=O)[O-])cc7F)c7ccc4[nH]7)C=C6)C=C5)cc3)c2)c1
REMARK SMILES IDX 23 1 22 2 21 3 20 4 18 5 19 6 17 7 12 8 13 9 95 10 14 11
REMARK SMILES IDX 15 12 16 13 11 14 7 15 8 16 96 17 9 18 10 19 4 20 5 21 6 22
REMARK SMILES IDX 2 23 1 24 3 25 24 26 25 27 26 28 27 29 28 30 29 31 30 32
REMARK SMILES IDX 94 33 31 34 93 35 32 36 33 37 34 38 87 39 35 40 92 41 86 42
REMARK SMILES IDX 88 43 36 44 91 45 85 46 84 47 37 49 71 50 50 51 70 52 51 53
REMARK SMILES IDX 54 54 69 55 89 56 52 57 53 58 68 60 90 61 55 62 38 63 39 64
REMARK SMILES IDX 48 65 40 66 41 67 47 68 49 69 42 70 43 71 44 72 45 73 46 74
REMARK SMILES IDX 72 75 73 76 82 77 74 78 75 79 81 80 83 81 76 82 77 83 78 84
REMARK SMILES IDX 79 85 80 86 56 87 57 88 66 89 58 90 59 91 65 92 67 93 60 94
REMARK SMILES IDX 61 95 62 96 63 97 64 98
REMARK H PARENT 88 48 54 59
REMARK Flexibility Score: inf
ROOT
ATOM      1  O   UNL A   1      33.936  33.510  30.565  1.00  0.00    -0.374 OA
ENDROOT
BRANCH   1   2
ATOM      2  C   UNL A   1      34.963  33.761  31.526  1.00  0.00     0.202 C 
BRANCH   2   3
ATOM      3  C   UNL A   1      34.874  35.060  32.335  1.00  0.00     0.261 C 
BRANCH   3   4
ATOM      4  O   UNL A   1      35.956  35.177  33.273  1.00  0.00    -0.460 OA
BRANCH   4   5
ATOM      5  C   UNL A   1      36.026  34.190  34.199  1.00  0.00     0.338 C 
ATOM      6  O   UNL A   1      35.098  33.674  34.798  1.00  0.00    -0.246 OA
BRANCH   5   7
ATOM      7  C   UNL A   1      37.406  33.650  34.246  1.00  0.00     0.062 A 
ATOM      8  C   UNL A   1      39.029  31.844  33.976  1.00  0.00    -0.016 A 
ATOM      9  C   UNL A   1      40.024  32.725  34.439  1.00  0.00     0.029 A 
ATOM     10  C   UNL A   1      37.707  32.325  33.903  1.00  0.00     0.024 A 
ATOM     11  C   UNL A   1      39.712  34.036  34.806  1.00  0.00     0.042 A 
ATOM     12  Cl  UNL A   1      40.950  35.076  35.395  1.00  0.00    -0.084 Cl
ATOM     13  C   UNL A   1      38.412  34.507  34.702  1.00  0.00     0.036 A 
BRANCH   8  14
ATOM     14  C   UNL A   1      39.370  30.473  33.548  1.00  0.00    -0.017 A 
ATOM     15  C   UNL A   1      41.003  28.684  33.275  1.00  0.00     0.083 A 
ATOM     16  C   UNL A   1      40.014  27.814  32.815  1.00  0.00     0.022 A 
ATOM     17  C   UNL A   1      40.686  29.994  33.653  1.00  0.00     0.030 A 
ATOM     18  C   UNL A   1      38.707  28.275  32.690  1.00  0.00     0.002 A 
ATOM     19  C   UNL A   1      38.392  29.591  33.048  1.00  0.00     0.009 A 
BRANCH  15  20
ATOM     20  S   UNL A   1      42.676  28.111  33.452  1.00  0.00     0.242 S 
ATOM     21  O   UNL A   1      43.471  29.201  33.971  1.00  0.00    -0.207 OA
ATOM     22  O   UNL A   1      43.036  27.455  32.210  1.00  0.00    -0.207 OA
BRANCH  20  23
ATOM     23  N   UNL A   1      42.539  26.921  34.672  1.00  0.00    -0.204 NA
ATOM     24  C   UNL A   1      43.777  26.119  34.835  1.00  0.00     0.124 C 
ATOM     25  C   UNL A   1      42.042  27.407  35.980  1.00  0.00     0.124 C 
ENDBRANCH  20  23
ENDBRANCH  15  20
ENDBRANCH   8  14
ENDBRANCH   5   7
ENDBRANCH   4   5
ENDBRANCH   3   4
ENDBRANCH   2   3
ENDBRANCH   1   2
BRANCH   1  26
ATOM     26  C   UNL A   1      34.030  34.170  29.303  1.00  0.00     0.202 C 
BRANCH  26  27
ATOM     27  C   UNL A   1      33.722  33.363  28.036  1.00  0.00     0.261 C 
BRANCH  27  28
ATOM     28  O   UNL A   1      34.803  32.511  27.627  1.00  0.00    -0.460 OA
BRANCH  28  29
ATOM     29  C   UNL A   1      34.627  31.207  27.955  1.00  0.00     0.338 C 
ATOM     30  O   UNL A   1      33.591  30.566  27.886  1.00  0.00    -0.246 OA
BRANCH  29  31
ATOM     31  C   UNL A   1      35.923  30.571  28.255  1.00  0.00     0.060 A 
ATOM     32  C   UNL A   1      36.303  30.510  29.600  1.00  0.00     0.016 A 
ATOM     33  C   UNL A   1      36.788  30.132  27.250  1.00  0.00     0.016 A 
ATOM     34  C   UNL A   1      37.577  30.068  29.942  1.00  0.00     0.010 A 
ATOM     35  C   UNL A   1      38.069  29.685  27.599  1.00  0.00     0.010 A 
ATOM     36  C   UNL A   1      38.484  29.690  28.942  1.00  0.00    -0.014 A 
BRANCH  36  37
ATOM     37  C   UNL A   1      39.890  29.407  29.327  1.00  0.00     0.031 A 
ATOM     38  C   UNL A   1      40.503  28.073  28.992  1.00  0.00     0.074 A 
ATOM     39  C   UNL A   1      40.638  30.370  29.895  1.00  0.00     0.049 A 
ATOM     40  N   UNL A   1      41.732  27.660  29.165  1.00  0.00    -0.248 NA
ATOM     41  C   UNL A   1      39.614  27.070  28.385  1.00  0.00     0.031 C 
ATOM     42  C   UNL A   1      40.161  31.708  30.249  1.00  0.00     0.029 A 
ATOM     43  N   UNL A   1      41.961  30.379  30.260  1.00  0.00    -0.354 N 
ATOM     44  C   UNL A   1      41.767  26.353  28.688  1.00  0.00     0.074 A 
ATOM     45  C   UNL A   1      40.424  26.028  28.259  1.00  0.00     0.031 C 
ATOM     46  C   UNL A   1      41.180  32.413  30.766  1.00  0.00     0.029 A 
ATOM     47  C   UNL A   1      42.373  31.570  30.807  1.00  0.00     0.049 A 
ATOM     48  H   UNL A   1      42.558  29.605  30.141  1.00  0.00     0.167 HD
ATOM     49  C   UNL A   1      42.824  25.510  28.602  1.00  0.00     0.037 A 
ATOM     50  C   UNL A   1      43.576  31.940  31.290  1.00  0.00     0.037 A 
ATOM     51  C   UNL A   1      44.161  25.842  29.033  1.00  0.00     0.049 A 
ATOM     52  C   UNL A   1      44.725  30.970  31.218  1.00  0.00     0.074 A 
ATOM     53  C   UNL A   1      45.304  25.064  28.969  1.00  0.00     0.029 A 
ATOM     54  N   UNL A   1      44.533  27.046  29.614  1.00  0.00    -0.354 N 
ATOM     55  N   UNL A   1      44.750  29.750  30.735  1.00  0.00    -0.248 NA
ATOM     56  C   UNL A   1      46.016  31.435  31.743  1.00  0.00     0.031 C 
ATOM     57  C   UNL A   1      46.352  25.773  29.566  1.00  0.00     0.029 A 
ATOM     58  C   UNL A   1      45.881  27.021  29.940  1.00  0.00     0.049 A 
ATOM     59  H   UNL A   1      43.929  27.806  29.773  1.00  0.00     0.167 HD
ATOM     60  C   UNL A   1      46.064  29.312  30.872  1.00  0.00     0.074 A 
ATOM     61  C   UNL A   1      46.805  30.407  31.461  1.00  0.00     0.031 C 
ATOM     62  C   UNL A   1      46.609  28.114  30.538  1.00  0.00     0.037 A 
BRANCH  49  63
ATOM     63  C   UNL A   1      42.578  24.131  28.045  1.00  0.00     0.058 A 
ATOM     64  C   UNL A   1      42.480  23.001  28.873  1.00  0.00     0.135 A 
ATOM     65  C   UNL A   1      42.393  23.945  26.664  1.00  0.00     0.135 A 
ATOM     66  F   UNL A   1      42.664  23.113  30.198  1.00  0.00    -0.206 F 
ATOM     67  C   UNL A   1      42.237  21.732  28.350  1.00  0.00     0.059 A 
ATOM     68  C   UNL A   1      42.118  22.692  26.124  1.00  0.00     0.059 A 
ATOM     69  F   UNL A   1      42.476  24.988  25.825  1.00  0.00    -0.206 F 
ATOM     70  C   UNL A   1      42.054  21.589  26.974  1.00  0.00     0.060 A 
BRANCH  70  71
ATOM     71  S   UNL A   1      41.730  19.941  26.313  1.00  0.00     0.124 S 
ATOM     72  O   UNL A   1      42.067  19.097  27.456  1.00  0.00    -0.237 OA
ATOM     73  O   UNL A   1      40.313  20.014  25.975  1.00  0.00    -0.237 OA
ATOM     74  O   UNL A   1      42.639  19.845  25.176  1.00  0.00    -0.744 OA
ENDBRANCH  70  71
ENDBRANCH  49  63
BRANCH  50  75
ATOM     75  C   UNL A   1      43.753  33.294  31.881  1.00  0.00     0.058 A 
ATOM     76  C   UNL A   1      43.634  33.509  33.262  1.00  0.00     0.135 A 
ATOM     77  C   UNL A   1      44.049  34.400  31.070  1.00  0.00     0.135 A 
ATOM     78  F   UNL A   1      43.343  32.486  34.079  1.00  0.00    -0.206 F 
ATOM     79  C   UNL A   1      43.782  34.777  33.816  1.00  0.00     0.059 A 
ATOM     80  C   UNL A   1      44.234  35.670  31.605  1.00  0.00     0.059 A 
ATOM     81  F   UNL A   1      44.188  34.246  29.744  1.00  0.00    -0.206 F 
ATOM     82  C   UNL A   1      44.088  35.850  32.979  1.00  0.00     0.060 A 
BRANCH  82  83
ATOM     83  S   UNL A   1      44.331  37.482  33.713  1.00  0.00     0.124 S 
ATOM     84  O   UNL A   1      45.056  38.175  32.654  1.00  0.00    -0.237 OA
ATOM     85  O   UNL A   1      42.958  37.920  33.940  1.00  0.00    -0.237 OA
ATOM     86  O   UNL A   1      45.099  37.195  34.921  1.00  0.00    -0.744 OA
ENDBRANCH  82  83
ENDBRANCH  50  75
BRANCH  62  87
ATOM     87  C   UNL A   1      48.087  27.944  30.772  1.00  0.00     0.058 A 
ATOM     88  C   UNL A   1      49.034  28.176  29.761  1.00  0.00     0.135 A 
ATOM     89  C   UNL A   1      48.564  27.533  32.029  1.00  0.00     0.135 A 
ATOM     90  F   UNL A   1      48.637  28.572  28.541  1.00  0.00    -0.206 F 
ATOM     91  C   UNL A   1      50.391  27.948  29.968  1.00  0.00     0.059 A 
ATOM     92  C   UNL A   1      49.921  27.335  32.269  1.00  0.00     0.059 A 
ATOM     93  F   UNL A   1      47.708  27.313  33.040  1.00  0.00    -0.206 F 
ATOM     94  C   UNL A   1      50.824  27.518  31.224  1.00  0.00     0.060 A 
BRANCH  94  95
ATOM     95  S   UNL A   1      52.583  27.198  31.471  1.00  0.00     0.124 S 
ATOM     96  O   UNL A   1      52.820  26.118  30.518  1.00  0.00    -0.237 OA
ATOM     97  O   UNL A   1      53.186  28.484  31.136  1.00  0.00    -0.237 OA
ATOM     98  O   UNL A   1      52.665  26.821  32.879  1.00  0.00    -0.744 OA
ENDBRANCH  94  95
ENDBRANCH  62  87
ENDBRANCH  36  37
ENDBRANCH  29  31
ENDBRANCH  28  29
ENDBRANCH  27  28
ENDBRANCH  26  27
ENDBRANCH   1  26
TORSDOF 20
ENDMDL
MODEL 3
REMARK VINA RESULT:     -10.6      0.810      1.672
REMARK SMILES CN(C)S(=O)(=O)c1cccc(-c2cc(Cl)cc(C(=O)OCCOCCOC(=O)c3ccc(-c4c5nc(c(-c6c(F)cc(S(=O)(=O)[O-])cc6F)c6ccc([nH]6)c(-c6c(F)cc(S(=O)(=O)[O-])cc6F)c6nc(c(-c7c(F)cc(S(=O)(=O)[O-])cc7F)c7ccc4[nH]7)C=C6)C=C5)cc3)c2)c1
REMARK SMILES IDX 23 1 22 2 21 3 20 4 18 5 19 6 17 7 12 8 13 9 95 10 14 11
REMARK SMILES IDX 15 12 16 13 11 14 7 15 8 16 96 17 9 18 10 19 4 20 5 21 6 22
REMARK SMILES IDX 2 23 1 24 3 25 24 26 25 27 26 28 27 29 28 30 29 31 30 32
REMARK SMILES IDX 94 33 31 34 93 35 32 36 33 37 34 38 87 39 35 40 92 41 86 42
REMARK SMILES IDX 88 43 36 44 91 45 85 46 84 47 37 49 71 50 50 51 70 52 51 53
REMARK SMILES IDX 54 54 69 55 89 56 52 57 53 58 68 60 90 61 55 62 38 63 39 64
REMARK SMILES IDX 48 65 40 66 41 67 47 68 49 69 42 70 43 71 44 72 45 73 46 74
REMARK SMILES IDX 72 75 73 76 82 77 74 78 75 79 81 80 83 81 76 82 77 83 78 84
REMARK SMILES IDX 79 85 80 86 56 87 57 88 66 89 58 90 59 91 65 92 67 93 60 94
REMARK SMILES IDX 61 95 62 96 63 97 64 98
REMARK H PARENT 88 48 54 59
REMARK Flexibility Score: inf
ROOT
ATOM      1  O   UNL A   1      42.541  22.082  26.828  1.00  0.00    -0.374 OA
ENDROOT
BRANCH   1   2
ATOM      2  C   UNL A   1      41.316  22.089  26.095  1.00  0.00     0.202 C 
BRANCH   2   3
ATOM      3  C   UNL A   1      40.016  21.899  26.885  1.00  0.00     0.261 C 
BRANCH   3   4
ATOM      4  O   UNL A   1      38.861  21.964  26.033  1.00  0.00    -0.460 OA
BRANCH   4   5
ATOM      5  C   UNL A   1      38.164  23.126  26.094  1.00  0.00     0.338 C 
ATOM      6  O   UNL A   1      38.616  24.251  26.217  1.00  0.00    -0.246 OA
BRANCH   5   7
ATOM      7  C   UNL A   1      36.740  22.867  25.773  1.00  0.00     0.062 A 
ATOM      8  C   UNL A   1      34.411  23.571  25.563  1.00  0.00    -0.016 A 
ATOM      9  C   UNL A   1      34.085  22.248  25.213  1.00  0.00     0.029 A 
ATOM     10  C   UNL A   1      35.757  23.861  25.861  1.00  0.00     0.024 A 
ATOM     11  C   UNL A   1      35.066  21.256  25.155  1.00  0.00     0.042 A 
ATOM     12  Cl  UNL A   1      34.625  19.642  24.752  1.00  0.00    -0.084 Cl
ATOM     13  C   UNL A   1      36.392  21.559  25.422  1.00  0.00     0.036 A 
BRANCH   8  14
ATOM     14  C   UNL A   1      33.378  24.627  25.582  1.00  0.00    -0.017 A 
ATOM     15  C   UNL A   1      32.533  26.775  24.801  1.00  0.00     0.083 A 
ATOM     16  C   UNL A   1      31.359  26.613  25.539  1.00  0.00     0.022 A 
ATOM     17  C   UNL A   1      33.525  25.789  24.807  1.00  0.00     0.030 A 
ATOM     18  C   UNL A   1      31.202  25.475  26.324  1.00  0.00     0.002 A 
ATOM     19  C   UNL A   1      32.203  24.497  26.348  1.00  0.00     0.009 A 
BRANCH  15  20
ATOM     20  S   UNL A   1      32.748  28.217  23.783  1.00  0.00     0.242 S 
ATOM     21  O   UNL A   1      34.112  28.228  23.304  1.00  0.00    -0.207 OA
ATOM     22  O   UNL A   1      32.211  29.344  24.521  1.00  0.00    -0.207 OA
BRANCH  20  23
ATOM     23  N   UNL A   1      31.718  27.898  22.456  1.00  0.00    -0.204 NA
ATOM     24  C   UNL A   1      31.836  26.506  21.957  1.00  0.00     0.124 C 
ATOM     25  C   UNL A   1      30.299  28.278  22.649  1.00  0.00     0.124 C 
ENDBRANCH  20  23
ENDBRANCH  15  20
ENDBRANCH   8  14
ENDBRANCH   5   7
ENDBRANCH   4   5
ENDBRANCH   3   4
ENDBRANCH   2   3
ENDBRANCH   1   2
BRANCH   1  26
ATOM     26  C   UNL A   1      43.661  22.761  26.261  1.00  0.00     0.202 C 
BRANCH  26  27
ATOM     27  C   UNL A   1      43.412  23.725  25.095  1.00  0.00     0.261 C 
BRANCH  27  28
ATOM     28  O   UNL A   1      43.492  25.108  25.473  1.00  0.00    -0.460 OA
BRANCH  28  29
ATOM     29  C   UNL A   1      42.284  25.690  25.680  1.00  0.00     0.338 C 
ATOM     30  O   UNL A   1      41.288  25.581  24.985  1.00  0.00    -0.246 OA
BRANCH  29  31
ATOM     31  C   UNL A   1      42.255  26.362  26.992  1.00  0.00     0.060 A 
ATOM     32  C   UNL A   1      41.276  25.940  27.898  1.00  0.00     0.016 A 
ATOM     33  C   UNL A   1      43.094  27.435  27.299  1.00  0.00     0.016 A 
ATOM     34  C   UNL A   1      41.088  26.633  29.090  1.00  0.00     0.010 A 
ATOM     35  C   UNL A   1      42.904  28.129  28.502  1.00  0.00     0.010 A 
ATOM     36  C   UNL A   1      41.874  27.756  29.384  1.00  0.00    -0.014 A 
BRANCH  36  37
ATOM     37  C   UNL A   1      41.523  28.581  30.568  1.00  0.00     0.031 A 
ATOM     38  C   UNL A   1      42.363  28.497  31.814  1.00  0.00     0.074 A 
ATOM     39  C   UNL A   1      40.509  29.463  30.495  1.00  0.00     0.049 A 
ATOM     40  N   UNL A   1      42.276  29.191  32.920  1.00  0.00    -0.248 NA
ATOM     41  C   UNL A   1      43.444  27.498  31.817  1.00  0.00     0.031 C 
ATOM     42  C   UNL A   1      39.636  29.648  29.335  1.00  0.00     0.029 A 
ATOM     43  N   UNL A   1      40.051  30.378  31.409  1.00  0.00    -0.354 N 
ATOM     44  C   UNL A   1      43.288  28.717  33.749  1.00  0.00     0.074 A 
ATOM     45  C   UNL A   1      43.948  27.646  33.034  1.00  0.00     0.031 C 
ATOM     46  C   UNL A   1      38.758  30.629  29.601  1.00  0.00     0.029 A 
ATOM     47  C   UNL A   1      38.986  31.120  30.958  1.00  0.00     0.049 A 
ATOM     48  H   UNL A   1      40.448  30.493  32.302  1.00  0.00     0.167 HD
ATOM     49  C   UNL A   1      43.642  29.146  34.985  1.00  0.00     0.037 A 
ATOM     50  C   UNL A   1      38.271  32.085  31.571  1.00  0.00     0.037 A 
ATOM     51  C   UNL A   1      42.977  30.214  35.691  1.00  0.00     0.049 A 
ATOM     52  C   UNL A   1      38.661  32.516  32.960  1.00  0.00     0.074 A 
ATOM     53  C   UNL A   1      43.274  30.737  36.938  1.00  0.00     0.029 A 
ATOM     54  N   UNL A   1      41.880  30.919  35.217  1.00  0.00    -0.354 N 
ATOM     55  N   UNL A   1      39.640  32.080  33.718  1.00  0.00    -0.248 NA
ATOM     56  C   UNL A   1      37.858  33.585  33.570  1.00  0.00     0.031 C 
ATOM     57  C   UNL A   1      42.320  31.713  37.244  1.00  0.00     0.029 A 
ATOM     58  C   UNL A   1      41.470  31.851  36.159  1.00  0.00     0.049 A 
ATOM     59  H   UNL A   1      41.454  30.778  34.341  1.00  0.00     0.167 HD
ATOM     60  C   UNL A   1      39.587  32.841  34.883  1.00  0.00     0.074 A 
ATOM     61  C   UNL A   1      38.495  33.777  34.717  1.00  0.00     0.031 C 
ATOM     62  C   UNL A   1      40.373  32.773  35.988  1.00  0.00     0.037 A 
BRANCH  49  63
ATOM     63  C   UNL A   1      44.785  28.442  35.671  1.00  0.00     0.058 A 
ATOM     64  C   UNL A   1      44.582  27.324  36.497  1.00  0.00     0.135 A 
ATOM     65  C   UNL A   1      46.108  28.866  35.462  1.00  0.00     0.135 A 
ATOM     66  F   UNL A   1      43.338  26.883  36.746  1.00  0.00    -0.206 F 
ATOM     67  C   UNL A   1      45.646  26.671  37.114  1.00  0.00     0.059 A 
ATOM     68  C   UNL A   1      47.189  28.209  36.043  1.00  0.00     0.059 A 
ATOM     69  F   UNL A   1      46.363  29.928  34.684  1.00  0.00    -0.206 F 
ATOM     70  C   UNL A   1      46.947  27.119  36.878  1.00  0.00     0.060 A 
BRANCH  70  71
ATOM     71  S   UNL A   1      48.316  26.256  37.678  1.00  0.00     0.124 S 
ATOM     72  O   UNL A   1      49.409  27.205  37.490  1.00  0.00    -0.237 OA
ATOM     73  O   UNL A   1      47.832  26.108  39.047  1.00  0.00    -0.237 OA
ATOM     74  O   UNL A   1      48.427  25.015  36.918  1.00  0.00    -0.744 OA
ENDBRANCH  70  71
ENDBRANCH  49  63
BRANCH  50  75
ATOM     75  C   UNL A   1      37.116  32.710  30.872  1.00  0.00     0.058 A 
ATOM     76  C   UNL A   1      37.297  33.752  29.951  1.00  0.00     0.135 A 
ATOM     77  C   UNL A   1      35.805  32.270  31.112  1.00  0.00     0.135 A 
ATOM     78  F   UNL A   1      38.529  34.214  29.693  1.00  0.00    -0.206 F 
ATOM     79  C   UNL A   1      36.218  34.350  29.307  1.00  0.00     0.059 A 
ATOM     80  C   UNL A   1      34.714  32.830  30.456  1.00  0.00     0.059 A 
ATOM     81  F   UNL A   1      35.578  31.265  31.973  1.00  0.00    -0.206 F 
ATOM     82  C   UNL A   1      34.930  33.877  29.564  1.00  0.00     0.060 A 
BRANCH  82  83
ATOM     83  S   UNL A   1      33.541  34.624  28.684  1.00  0.00     0.124 S 
ATOM     84  O   UNL A   1      34.183  35.758  28.030  1.00  0.00    -0.237 OA
ATOM     85  O   UNL A   1      33.116  33.536  27.809  1.00  0.00    -0.237 OA
ATOM     86  O   UNL A   1      32.607  34.959  29.756  1.00  0.00    -0.744 OA
ENDBRANCH  82  83
ENDBRANCH  50  75
BRANCH  62  87
ATOM     87  C   UNL A   1      40.096  33.765  37.088  1.00  0.00     0.058 A 
ATOM     88  C   UNL A   1      39.130  33.528  38.080  1.00  0.00     0.135 A 
ATOM     89  C   UNL A   1      40.806  34.977  37.146  1.00  0.00     0.135 A 
ATOM     90  F   UNL A   1      38.422  32.387  38.075  1.00  0.00    -0.206 F 
ATOM     91  C   UNL A   1      38.834  34.481  39.050  1.00  0.00     0.059 A 
ATOM     92  C   UNL A   1      40.552  35.927  38.131  1.00  0.00     0.059 A 
ATOM     93  F   UNL A   1      41.755  35.251  36.237  1.00  0.00    -0.206 F 
ATOM     94  C   UNL A   1      39.545  35.683  39.061  1.00  0.00     0.060 A 
BRANCH  94  95
ATOM     95  S   UNL A   1      39.131  36.922  40.306  1.00  0.00     0.124 S 
ATOM     96  O   UNL A   1      38.561  37.985  39.483  1.00  0.00    -0.237 OA
ATOM     97  O   UNL A   1      38.189  36.207  41.161  1.00  0.00    -0.237 OA
ATOM     98  O   UNL A   1      40.419  37.229  40.921  1.00  0.00    -0.744 OA
ENDBRANCH  94  95
ENDBRANCH  62  87
ENDBRANCH  36  37
ENDBRANCH  29  31
ENDBRANCH  28  29
ENDBRANCH  27  28
ENDBRANCH  26  27
ENDBRANCH   1  26
TORSDOF 20
ENDMDL
