MODEL 1
REMARK VINA RESULT:     -10.3      0.000      0.000
REMARK SMILES O=C(OCCOCCOC(=O)[C@@H](Cc1ccccc1)Nc1ccc(Cl)c(Br)c1)c1ccc(-c2c3nc(c(-c4c(F)cc(S(=O)(=O)[O-])cc4F)c4ccc([nH]4)c(-c4c(F)cc(S(=O)(=O)[O-])cc4F)c4nc(c(-c5c(F)cc(S(=O)(=O)[O-])cc5F)c5ccc2[nH]5)C=C4)C=C3)cc1
REMARK SMILES IDX 5 1 4 2 3 3 2 4 1 5 29 6 30 7 94 8 31 9 93 10 32 11 33 12
REMARK SMILES IDX 34 13 87 14 35 15 92 16 86 17 88 18 36 19 91 20 85 21 84 22
REMARK SMILES IDX 37 24 71 25 50 26 70 27 51 28 54 29 69 30 89 31 52 32 53 33
REMARK SMILES IDX 68 35 90 36 55 37 38 38 39 39 48 40 40 41 41 42 47 43 49 44
REMARK SMILES IDX 42 45 43 46 44 47 45 48 46 49 72 50 73 51 82 52 74 53 75 54
REMARK SMILES IDX 81 55 83 56 76 57 77 58 78 59 79 60 80 61 56 62 57 63 66 64
REMARK SMILES IDX 58 65 59 66 65 67 67 68 60 69 61 70 62 71 63 72 64 73 6 74
REMARK SMILES IDX 7 75 8 76 9 77 10 78 11 79 12 80 13 81 14 82 15 83 19 84
REMARK SMILES IDX 16 85 18 86 17 87 20 88 21 90 22 91 28 92 23 93 26 94 24 95
REMARK SMILES IDX 27 96 25 97
REMARK H PARENT 88 23 54 34 20 89
REMARK Flexibility Score: inf
ROOT
ATOM      1  C   UNL A   1      35.643  21.638  24.997  1.00  0.00     0.202 C 
ENDROOT
BRANCH   1   2
ATOM      2  C   UNL A   1      37.118  22.033  24.830  1.00  0.00     0.261 C 
BRANCH   2   3
ATOM      3  O   UNL A   1      37.574  22.819  25.943  1.00  0.00    -0.460 OA
BRANCH   3   4
ATOM      4  C   UNL A   1      38.839  22.920  26.419  1.00  0.00     0.338 C 
ATOM      5  O   UNL A   1      39.536  21.908  26.463  1.00  0.00    -0.246 OA
BRANCH   4   6
ATOM      6  C   UNL A   1      39.423  24.209  26.885  1.00  0.00     0.060 A 
ATOM      7  C   UNL A   1      40.008  25.157  26.045  1.00  0.00     0.016 A 
ATOM      8  C   UNL A   1      39.321  24.515  28.249  1.00  0.00     0.016 A 
ATOM      9  C   UNL A   1      40.509  26.346  26.507  1.00  0.00     0.010 A 
ATOM     10  C   UNL A   1      39.827  25.719  28.740  1.00  0.00     0.010 A 
ATOM     11  C   UNL A   1      40.429  26.620  27.856  1.00  0.00    -0.014 A 
BRANCH  11  12
ATOM     12  C   UNL A   1      41.169  27.797  28.296  1.00  0.00     0.031 A 
ATOM     13  C   UNL A   1      40.387  28.876  28.961  1.00  0.00     0.074 A 
ATOM     14  C   UNL A   1      42.508  27.768  28.257  1.00  0.00     0.049 A 
ATOM     15  N   UNL A   1      40.771  30.061  29.328  1.00  0.00    -0.248 NA
ATOM     16  C   UNL A   1      38.976  28.570  29.268  1.00  0.00     0.031 C 
ATOM     17  C   UNL A   1      43.314  26.625  27.810  1.00  0.00     0.029 A 
ATOM     18  N   UNL A   1      43.428  28.710  28.610  1.00  0.00    -0.354 N 
ATOM     19  C   UNL A   1      39.637  30.669  29.846  1.00  0.00     0.074 A 
ATOM     20  C   UNL A   1      38.557  29.714  29.781  1.00  0.00     0.031 C 
ATOM     21  C   UNL A   1      44.613  26.950  27.890  1.00  0.00     0.029 A 
ATOM     22  C   UNL A   1      44.714  28.344  28.303  1.00  0.00     0.049 A 
ATOM     23  H   UNL A   1      43.193  29.564  29.041  1.00  0.00     0.167 HD
ATOM     24  C   UNL A   1      39.528  31.939  30.294  1.00  0.00     0.037 A 
ATOM     25  C   UNL A   1      45.827  29.096  28.284  1.00  0.00     0.037 A 
ATOM     26  C   UNL A   1      40.655  32.831  30.310  1.00  0.00     0.049 A 
ATOM     27  C   UNL A   1      45.676  30.536  28.686  1.00  0.00     0.074 A 
ATOM     28  C   UNL A   1      40.705  34.164  30.653  1.00  0.00     0.029 A 
ATOM     29  N   UNL A   1      41.948  32.454  29.948  1.00  0.00    -0.354 N 
ATOM     30  N   UNL A   1      44.587  31.165  29.073  1.00  0.00    -0.248 NA
ATOM     31  C   UNL A   1      46.875  31.374  28.640  1.00  0.00     0.031 C 
ATOM     32  C   UNL A   1      42.018  34.606  30.450  1.00  0.00     0.029 A 
ATOM     33  C   UNL A   1      42.802  33.533  30.040  1.00  0.00     0.049 A 
ATOM     34  H   UNL A   1      42.212  31.549  29.666  1.00  0.00     0.167 HD
ATOM     35  C   UNL A   1      44.970  32.471  29.337  1.00  0.00     0.074 A 
ATOM     36  C   UNL A   1      46.396  32.538  29.063  1.00  0.00     0.031 C 
ATOM     37  C   UNL A   1      44.223  33.519  29.768  1.00  0.00     0.037 A 
BRANCH  24  38
ATOM     38  C   UNL A   1      38.150  32.420  30.646  1.00  0.00     0.058 A 
ATOM     39  C   UNL A   1      37.265  32.947  29.690  1.00  0.00     0.135 A 
ATOM     40  C   UNL A   1      37.746  32.451  31.992  1.00  0.00     0.135 A 
ATOM     41  F   UNL A   1      37.613  32.982  28.394  1.00  0.00    -0.206 F 
ATOM     42  C   UNL A   1      36.057  33.534  30.060  1.00  0.00     0.059 A 
ATOM     43  C   UNL A   1      36.531  33.005  32.382  1.00  0.00     0.059 A 
ATOM     44  F   UNL A   1      38.558  31.978  32.951  1.00  0.00    -0.206 F 
ATOM     45  C   UNL A   1      35.706  33.570  31.411  1.00  0.00     0.060 A 
BRANCH  45  46
ATOM     46  S   UNL A   1      34.173  34.395  31.888  1.00  0.00     0.124 S 
ATOM     47  O   UNL A   1      34.681  35.582  32.569  1.00  0.00    -0.237 OA
ATOM     48  O   UNL A   1      33.530  34.631  30.600  1.00  0.00    -0.237 OA
ATOM     49  O   UNL A   1      33.511  33.416  32.746  1.00  0.00    -0.744 OA
ENDBRANCH  45  46
ENDBRANCH  24  38
BRANCH  25  50
ATOM     50  C   UNL A   1      47.099  28.508  27.791  1.00  0.00     0.058 A 
ATOM     51  C   UNL A   1      48.025  27.924  28.664  1.00  0.00     0.135 A 
ATOM     52  C   UNL A   1      47.365  28.427  26.411  1.00  0.00     0.135 A 
ATOM     53  F   UNL A   1      47.821  27.974  29.989  1.00  0.00    -0.206 F 
ATOM     54  C   UNL A   1      49.161  27.271  28.190  1.00  0.00     0.059 A 
ATOM     55  C   UNL A   1      48.478  27.758  25.913  1.00  0.00     0.059 A 
ATOM     56  F   UNL A   1      46.503  28.955  25.528  1.00  0.00    -0.206 F 
ATOM     57  C   UNL A   1      49.373  27.182  26.812  1.00  0.00     0.060 A 
BRANCH  57  58
ATOM     58  S   UNL A   1      50.801  26.255  26.208  1.00  0.00     0.124 S 
ATOM     59  O   UNL A   1      51.907  27.006  26.792  1.00  0.00    -0.237 OA
ATOM     60  O   UNL A   1      50.563  24.929  26.769  1.00  0.00    -0.237 OA
ATOM     61  O   UNL A   1      50.673  26.345  24.757  1.00  0.00    -0.744 OA
ENDBRANCH  57  58
ENDBRANCH  25  50
BRANCH  37  62
ATOM     62  C   UNL A   1      44.945  34.806  30.020  1.00  0.00     0.058 A 
ATOM     63  C   UNL A   1      45.062  35.788  29.028  1.00  0.00     0.135 A 
ATOM     64  C   UNL A   1      45.397  35.103  31.315  1.00  0.00     0.135 A 
ATOM     65  F   UNL A   1      44.651  35.538  27.775  1.00  0.00    -0.206 F 
ATOM     66  C   UNL A   1      45.597  37.036  29.316  1.00  0.00     0.059 A 
ATOM     67  C   UNL A   1      45.908  36.352  31.631  1.00  0.00     0.059 A 
ATOM     68  F   UNL A   1      45.291  34.190  32.295  1.00  0.00    -0.206 F 
ATOM     69  C   UNL A   1      46.001  37.313  30.625  1.00  0.00     0.060 A 
BRANCH  69  70
ATOM     70  S   UNL A   1      46.591  38.973  31.010  1.00  0.00     0.124 S 
ATOM     71  O   UNL A   1      45.435  39.542  31.696  1.00  0.00    -0.237 OA
ATOM     72  O   UNL A   1      47.756  38.703  31.845  1.00  0.00    -0.237 OA
ATOM     73  O   UNL A   1      46.886  39.542  29.697  1.00  0.00    -0.744 OA
ENDBRANCH  69  70
ENDBRANCH  37  62
ENDBRANCH  11  12
ENDBRANCH   4   6
ENDBRANCH   3   4
ENDBRANCH   2   3
ENDBRANCH   1   2
BRANCH   1  74
ATOM     74  O   UNL A   1      34.838  22.442  25.858  1.00  0.00    -0.374 OA
BRANCH  74  75
ATOM     75  C   UNL A   1      34.138  21.784  26.918  1.00  0.00     0.202 C 
BRANCH  75  76
ATOM     76  C   UNL A   1      32.898  22.579  27.321  1.00  0.00     0.261 C 
BRANCH  76  77
ATOM     77  O   UNL A   1      32.496  23.404  26.216  1.00  0.00    -0.462 OA
BRANCH  77  78
ATOM     78  C   UNL A   1      31.468  24.257  26.474  1.00  0.00     0.328 C 
ATOM     79  O   UNL A   1      30.521  24.018  27.204  1.00  0.00    -0.250 OA
BRANCH  78  80
ATOM     80  C   UNL A   1      31.596  25.554  25.659  1.00  0.00     0.194 C 
BRANCH  80  81
ATOM     81  C   UNL A   1      31.022  25.578  24.220  1.00  0.00     0.072 C 
BRANCH  81  82
ATOM     82  C   UNL A   1      30.558  26.891  23.628  1.00  0.00    -0.045 A 
ATOM     83  C   UNL A   1      29.192  27.209  23.555  1.00  0.00     0.004 A 
ATOM     84  C   UNL A   1      31.480  27.811  23.120  1.00  0.00     0.004 A 
ATOM     85  C   UNL A   1      28.766  28.446  23.066  1.00  0.00     0.000 A 
ATOM     86  C   UNL A   1      31.056  29.043  22.618  1.00  0.00     0.000 A 
ATOM     87  C   UNL A   1      29.701  29.367  22.604  1.00  0.00     0.000 A 
ENDBRANCH  81  82
ENDBRANCH  80  81
BRANCH  80  88
ATOM     88  N   UNL A   1      31.063  26.666  26.465  1.00  0.00    -0.372 N 
ATOM     89  H   UNL A   1      30.148  26.642  26.828  1.00  0.00     0.161 HD
BRANCH  88  90
ATOM     90  C   UNL A   1      31.901  27.750  26.693  1.00  0.00     0.036 A 
ATOM     91  C   UNL A   1      33.267  27.537  26.882  1.00  0.00     0.027 A 
ATOM     92  C   UNL A   1      31.419  29.063  26.673  1.00  0.00     0.043 A 
ATOM     93  C   UNL A   1      34.134  28.614  27.079  1.00  0.00     0.024 A 
ATOM     94  C   UNL A   1      32.279  30.147  26.871  1.00  0.00     0.038 A 
ATOM     95  C   UNL A   1      33.640  29.921  27.085  1.00  0.00     0.055 A 
ATOM     96  Br  UNL A   1      31.513  31.885  26.839  1.00  0.00    -0.049 Br
ATOM     97  Cl  UNL A   1      34.766  31.199  27.375  1.00  0.00    -0.083 Cl
ENDBRANCH  88  90
ENDBRANCH  80  88
ENDBRANCH  78  80
ENDBRANCH  77  78
ENDBRANCH  76  77
ENDBRANCH  75  76
ENDBRANCH  74  75
ENDBRANCH   1  74
TORSDOF 21
ENDMDL
MODEL 2
REMARK VINA RESULT:     -10.1      5.235      9.977
REMARK SMILES O=C(OCCOCCOC(=O)[C@@H](Cc1ccccc1)Nc1ccc(Cl)c(Br)c1)c1ccc(-c2c3nc(c(-c4c(F)cc(S(=O)(=O)[O-])cc4F)c4ccc([nH]4)c(-c4c(F)cc(S(=O)(=O)[O-])cc4F)c4nc(c(-c5c(F)cc(S(=O)(=O)[O-])cc5F)c5ccc2[nH]5)C=C4)C=C3)cc1
REMARK SMILES IDX 5 1 4 2 3 3 2 4 1 5 29 6 30 7 94 8 31 9 93 10 32 11 33 12
REMARK SMILES IDX 34 13 87 14 35 15 92 16 86 17 88 18 36 19 91 20 85 21 84 22
REMARK SMILES IDX 37 24 71 25 50 26 70 27 51 28 54 29 69 30 89 31 52 32 53 33
REMARK SMILES IDX 68 35 90 36 55 37 38 38 39 39 48 40 40 41 41 42 47 43 49 44
REMARK SMILES IDX 42 45 43 46 44 47 45 48 46 49 72 50 73 51 82 52 74 53 75 54
REMARK SMILES IDX 81 55 83 56 76 57 77 58 78 59 79 60 80 61 56 62 57 63 66 64
REMARK SMILES IDX 58 65 59 66 65 67 67 68 60 69 61 70 62 71 63 72 64 73 6 74
REMARK SMILES IDX 7 75 8 76 9 77 10 78 11 79 12 80 13 81 14 82 15 83 19 84
REMARK SMILES IDX 16 85 18 86 17 87 20 88 21 90 22 91 28 92 23 93 26 94 24 95
REMARK SMILES IDX 27 96 25 97
REMARK H PARENT 88 23 54 34 20 89
REMARK Flexibility Score: inf
ROOT
ATOM      1  C   UNL A   1      37.931  22.333  25.667  1.00  0.00     0.202 C 
ENDROOT
BRANCH   1   2
ATOM      2  C   UNL A   1      39.089  22.923  26.486  1.00  0.00     0.261 C 
BRANCH   2   3
ATOM      3  O   UNL A   1      39.061  24.360  26.465  1.00  0.00    -0.460 OA
BRANCH   3   4
ATOM      4  C   UNL A   1      40.109  25.208  26.603  1.00  0.00     0.338 C 
ATOM      5  O   UNL A   1      40.986  25.209  25.741  1.00  0.00    -0.246 OA
BRANCH   4   6
ATOM      6  C   UNL A   1      40.237  26.148  27.752  1.00  0.00     0.060 A 
ATOM      7  C   UNL A   1      39.389  26.158  28.859  1.00  0.00     0.016 A 
ATOM      8  C   UNL A   1      41.320  27.039  27.746  1.00  0.00     0.016 A 
ATOM      9  C   UNL A   1      39.557  27.020  29.912  1.00  0.00     0.010 A 
ATOM     10  C   UNL A   1      41.507  27.926  28.807  1.00  0.00     0.010 A 
ATOM     11  C   UNL A   1      40.609  27.912  29.878  1.00  0.00    -0.014 A 
BRANCH  11  12
ATOM     12  C   UNL A   1      40.594  28.930  30.922  1.00  0.00     0.031 A 
ATOM     13  C   UNL A   1      41.627  28.818  31.988  1.00  0.00     0.074 A 
ATOM     14  C   UNL A   1      39.797  29.997  30.771  1.00  0.00     0.049 A 
ATOM     15  N   UNL A   1      41.756  29.506  33.082  1.00  0.00    -0.248 NA
ATOM     16  C   UNL A   1      42.672  27.794  31.785  1.00  0.00     0.031 C 
ATOM     17  C   UNL A   1      38.926  30.241  29.614  1.00  0.00     0.029 A 
ATOM     18  N   UNL A   1      39.600  31.079  31.575  1.00  0.00    -0.354 N 
ATOM     19  C   UNL A   1      42.851  28.956  33.733  1.00  0.00     0.074 A 
ATOM     20  C   UNL A   1      43.376  27.903  32.899  1.00  0.00     0.031 C 
ATOM     21  C   UNL A   1      38.265  31.392  29.803  1.00  0.00     0.029 A 
ATOM     22  C   UNL A   1      38.600  31.905  31.125  1.00  0.00     0.049 A 
ATOM     23  H   UNL A   1      40.121  31.250  32.393  1.00  0.00     0.167 HD
ATOM     24  C   UNL A   1      43.331  29.300  34.949  1.00  0.00     0.037 A 
ATOM     25  C   UNL A   1      37.979  32.909  31.766  1.00  0.00     0.037 A 
ATOM     26  C   UNL A   1      42.736  30.355  35.722  1.00  0.00     0.049 A 
ATOM     27  C   UNL A   1      38.452  33.217  33.158  1.00  0.00     0.074 A 
ATOM     28  C   UNL A   1      43.041  30.778  36.997  1.00  0.00     0.029 A 
ATOM     29  N   UNL A   1      41.687  31.154  35.268  1.00  0.00    -0.354 N 
ATOM     30  N   UNL A   1      39.414  32.634  33.841  1.00  0.00    -0.248 NA
ATOM     31  C   UNL A   1      37.763  34.288  33.879  1.00  0.00     0.031 C 
ATOM     32  C   UNL A   1      42.143  31.799  37.333  1.00  0.00     0.029 A 
ATOM     33  C   UNL A   1      41.319  32.056  36.242  1.00  0.00     0.049 A 
ATOM     34  H   UNL A   1      41.270  31.083  34.379  1.00  0.00     0.167 HD
ATOM     35  C   UNL A   1      39.464  33.280  35.066  1.00  0.00     0.074 A 
ATOM     36  C   UNL A   1      38.428  34.300  35.028  1.00  0.00     0.031 C 
ATOM     37  C   UNL A   1      40.284  33.061  36.124  1.00  0.00     0.037 A 
BRANCH  24  38
ATOM     38  C   UNL A   1      44.424  28.440  35.516  1.00  0.00     0.058 A 
ATOM     39  C   UNL A   1      45.785  28.677  35.255  1.00  0.00     0.135 A 
ATOM     40  C   UNL A   1      44.093  27.290  36.252  1.00  0.00     0.135 A 
ATOM     41  F   UNL A   1      46.158  29.738  34.523  1.00  0.00    -0.206 F 
ATOM     42  C   UNL A   1      46.770  27.778  35.657  1.00  0.00     0.059 A 
ATOM     43  C   UNL A   1      45.063  26.393  36.689  1.00  0.00     0.059 A 
ATOM     44  F   UNL A   1      42.809  27.004  36.515  1.00  0.00    -0.206 F 
ATOM     45  C   UNL A   1      46.397  26.632  36.361  1.00  0.00     0.060 A 
BRANCH  45  46
ATOM     46  S   UNL A   1      47.673  25.437  36.815  1.00  0.00     0.124 S 
ATOM     47  O   UNL A   1      47.471  25.331  38.257  1.00  0.00    -0.237 OA
ATOM     48  O   UNL A   1      47.294  24.264  36.036  1.00  0.00    -0.237 OA
ATOM     49  O   UNL A   1      48.912  26.088  36.401  1.00  0.00    -0.744 OA
ENDBRANCH  45  46
ENDBRANCH  24  38
BRANCH  25  50
ATOM     50  C   UNL A   1      36.827  33.587  31.118  1.00  0.00     0.058 A 
ATOM     51  C   UNL A   1      36.992  34.402  29.992  1.00  0.00     0.135 A 
ATOM     52  C   UNL A   1      35.512  33.348  31.561  1.00  0.00     0.135 A 
ATOM     53  F   UNL A   1      38.224  34.664  29.529  1.00  0.00    -0.206 F 
ATOM     54  C   UNL A   1      35.899  34.943  29.317  1.00  0.00     0.059 A 
ATOM     55  C   UNL A   1      34.404  33.855  30.889  1.00  0.00     0.059 A 
ATOM     56  F   UNL A   1      35.294  32.561  32.627  1.00  0.00    -0.206 F 
ATOM     57  C   UNL A   1      34.608  34.654  29.767  1.00  0.00     0.060 A 
BRANCH  57  58
ATOM     58  S   UNL A   1      33.198  35.287  28.831  1.00  0.00     0.124 S 
ATOM     59  O   UNL A   1      33.837  36.276  27.970  1.00  0.00    -0.237 OA
ATOM     60  O   UNL A   1      32.707  34.084  28.168  1.00  0.00    -0.237 OA
ATOM     61  O   UNL A   1      32.321  35.825  29.867  1.00  0.00    -0.744 OA
ENDBRANCH  57  58
ENDBRANCH  25  50
BRANCH  37  62
ATOM     62  C   UNL A   1      40.130  33.975  37.301  1.00  0.00     0.058 A 
ATOM     63  C   UNL A   1      40.846  35.175  37.396  1.00  0.00     0.135 A 
ATOM     64  C   UNL A   1      39.148  33.700  38.266  1.00  0.00     0.135 A 
ATOM     65  F   UNL A   1      41.800  35.468  36.499  1.00  0.00    -0.206 F 
ATOM     66  C   UNL A   1      40.584  36.085  38.410  1.00  0.00     0.059 A 
ATOM     67  C   UNL A   1      38.851  34.608  39.271  1.00  0.00     0.059 A 
ATOM     68  F   UNL A   1      38.434  32.564  38.201  1.00  0.00    -0.206 F 
ATOM     69  C   UNL A   1      39.573  35.799  39.332  1.00  0.00     0.060 A 
BRANCH  69  70
ATOM     70  S   UNL A   1      39.168  37.040  40.578  1.00  0.00     0.124 S 
ATOM     71  O   UNL A   1      38.307  37.943  39.821  1.00  0.00    -0.237 OA
ATOM     72  O   UNL A   1      38.507  36.243  41.606  1.00  0.00    -0.237 OA
ATOM     73  O   UNL A   1      40.471  37.580  40.954  1.00  0.00    -0.744 OA
ENDBRANCH  69  70
ENDBRANCH  37  62
ENDBRANCH  11  12
ENDBRANCH   4   6
ENDBRANCH   3   4
ENDBRANCH   2   3
ENDBRANCH   1   2
BRANCH   1  74
ATOM     74  O   UNL A   1      36.940  23.237  25.180  1.00  0.00    -0.374 OA
BRANCH  74  75
ATOM     75  C   UNL A   1      35.715  23.336  25.912  1.00  0.00     0.202 C 
BRANCH  75  76
ATOM     76  C   UNL A   1      35.476  22.074  26.737  1.00  0.00     0.261 C 
BRANCH  76  77
ATOM     77  O   UNL A   1      34.251  21.461  26.304  1.00  0.00    -0.462 OA
BRANCH  77  78
ATOM     78  C   UNL A   1      34.306  20.852  25.088  1.00  0.00     0.328 C 
ATOM     79  O   UNL A   1      35.281  20.276  24.633  1.00  0.00    -0.250 OA
BRANCH  78  80
ATOM     80  C   UNL A   1      33.001  21.048  24.301  1.00  0.00     0.194 C 
BRANCH  80  81
ATOM     81  C   UNL A   1      32.359  19.813  23.621  1.00  0.00     0.072 C 
BRANCH  81  82
ATOM     82  C   UNL A   1      32.776  18.425  24.057  1.00  0.00    -0.045 A 
ATOM     83  C   UNL A   1      32.392  17.913  25.307  1.00  0.00     0.004 A 
ATOM     84  C   UNL A   1      33.571  17.625  23.230  1.00  0.00     0.004 A 
ATOM     85  C   UNL A   1      32.723  16.610  25.683  1.00  0.00     0.000 A 
ATOM     86  C   UNL A   1      33.914  16.327  23.610  1.00  0.00     0.000 A 
ATOM     87  C   UNL A   1      33.479  15.814  24.829  1.00  0.00     0.000 A 
ENDBRANCH  81  82
ENDBRANCH  80  81
BRANCH  80  88
ATOM     88  N   UNL A   1      32.033  21.743  25.168  1.00  0.00    -0.372 N 
ATOM     89  H   UNL A   1      31.670  21.313  25.976  1.00  0.00     0.161 HD
BRANCH  88  90
ATOM     90  C   UNL A   1      31.652  23.027  24.800  1.00  0.00     0.036 A 
ATOM     91  C   UNL A   1      30.995  23.229  23.585  1.00  0.00     0.027 A 
ATOM     92  C   UNL A   1      31.853  24.121  25.648  1.00  0.00     0.043 A 
ATOM     93  C   UNL A   1      30.573  24.505  23.209  1.00  0.00     0.024 A 
ATOM     94  C   UNL A   1      31.435  25.403  25.279  1.00  0.00     0.038 A 
ATOM     95  C   UNL A   1      30.802  25.597  24.050  1.00  0.00     0.055 A 
ATOM     96  Br  UNL A   1      31.774  26.816  26.502  1.00  0.00    -0.049 Br
ATOM     97  Cl  UNL A   1      30.287  27.151  23.500  1.00  0.00    -0.083 Cl
ENDBRANCH  88  90
ENDBRANCH  80  88
ENDBRANCH  78  80
ENDBRANCH  77  78
ENDBRANCH  76  77
ENDBRANCH  75  76
ENDBRANCH  74  75
ENDBRANCH   1  74
TORSDOF 21
ENDMDL
MODEL 3
REMARK VINA RESULT:     -10.0      5.087      6.247
REMARK SMILES O=C(OCCOCCOC(=O)[C@@H](Cc1ccccc1)Nc1ccc(Cl)c(Br)c1)c1ccc(-c2c3nc(c(-c4c(F)cc(S(=O)(=O)[O-])cc4F)c4ccc([nH]4)c(-c4c(F)cc(S(=O)(=O)[O-])cc4F)c4nc(c(-c5c(F)cc(S(=O)(=O)[O-])cc5F)c5ccc2[nH]5)C=C4)C=C3)cc1
REMARK SMILES IDX 5 1 4 2 3 3 2 4 1 5 29 6 30 7 94 8 31 9 93 10 32 11 33 12
REMARK SMILES IDX 34 13 87 14 35 15 92 16 86 17 88 18 36 19 91 20 85 21 84 22
REMARK SMILES IDX 37 24 71 25 50 26 70 27 51 28 54 29 69 30 89 31 52 32 53 33
REMARK SMILES IDX 68 35 90 36 55 37 38 38 39 39 48 40 40 41 41 42 47 43 49 44
REMARK SMILES IDX 42 45 43 46 44 47 45 48 46 49 72 50 73 51 82 52 74 53 75 54
REMARK SMILES IDX 81 55 83 56 76 57 77 58 78 59 79 60 80 61 56 62 57 63 66 64
REMARK SMILES IDX 58 65 59 66 65 67 67 68 60 69 61 70 62 71 63 72 64 73 6 74
REMARK SMILES IDX 7 75 8 76 9 77 10 78 11 79 12 80 13 81 14 82 15 83 19 84
REMARK SMILES IDX 16 85 18 86 17 87 20 88 21 90 22 91 28 92 23 93 26 94 24 95
REMARK SMILES IDX 27 96 25 97
REMARK H PARENT 88 23 54 34 20 89
REMARK Flexibility Score: inf
ROOT
ATOM      1  C   UNL A   1      37.612  22.589  25.749  1.00  0.00     0.202 C 
ENDROOT
BRANCH   1   2
ATOM      2  C   UNL A   1      38.337  23.931  25.932  1.00  0.00     0.261 C 
BRANCH   2   3
ATOM      3  O   UNL A   1      39.368  23.832  26.928  1.00  0.00    -0.460 OA
BRANCH   3   4
ATOM      4  C   UNL A   1      40.361  24.719  27.179  1.00  0.00     0.338 C 
ATOM      5  O   UNL A   1      41.392  24.657  26.513  1.00  0.00    -0.246 OA
BRANCH   4   6
ATOM      6  C   UNL A   1      40.251  25.775  28.225  1.00  0.00     0.060 A 
ATOM      7  C   UNL A   1      41.181  26.797  28.414  1.00  0.00     0.016 A 
ATOM      8  C   UNL A   1      39.103  25.775  29.032  1.00  0.00     0.016 A 
ATOM      9  C   UNL A   1      41.031  27.768  29.369  1.00  0.00     0.010 A 
ATOM     10  C   UNL A   1      38.932  26.754  30.011  1.00  0.00     0.010 A 
ATOM     11  C   UNL A   1      39.912  27.738  30.175  1.00  0.00    -0.014 A 
BRANCH  11  12
ATOM     12  C   UNL A   1      39.929  28.669  31.297  1.00  0.00     0.031 A 
ATOM     13  C   UNL A   1      38.924  29.767  31.278  1.00  0.00     0.074 A 
ATOM     14  C   UNL A   1      40.699  28.386  32.358  1.00  0.00     0.049 A 
ATOM     15  N   UNL A   1      38.806  30.786  32.075  1.00  0.00    -0.248 NA
ATOM     16  C   UNL A   1      37.898  29.699  30.219  1.00  0.00     0.031 C 
ATOM     17  C   UNL A   1      41.536  27.188  32.496  1.00  0.00     0.029 A 
ATOM     18  N   UNL A   1      40.891  29.067  33.522  1.00  0.00    -0.354 N 
ATOM     19  C   UNL A   1      37.739  31.520  31.576  1.00  0.00     0.074 A 
ATOM     20  C   UNL A   1      37.218  30.814  30.430  1.00  0.00     0.031 C 
ATOM     21  C   UNL A   1      42.176  27.238  33.673  1.00  0.00     0.029 A 
ATOM     22  C   UNL A   1      41.861  28.507  34.315  1.00  0.00     0.049 A 
ATOM     23  H   UNL A   1      40.386  29.876  33.768  1.00  0.00     0.167 HD
ATOM     24  C   UNL A   1      37.282  32.705  32.036  1.00  0.00     0.037 A 
ATOM     25  C   UNL A   1      42.475  29.023  35.394  1.00  0.00     0.037 A 
ATOM     26  C   UNL A   1      37.871  33.347  33.178  1.00  0.00     0.049 A 
ATOM     27  C   UNL A   1      42.029  30.388  35.836  1.00  0.00     0.074 A 
ATOM     28  C   UNL A   1      37.587  34.579  33.727  1.00  0.00     0.029 A 
ATOM     29  N   UNL A   1      38.891  32.785  33.945  1.00  0.00    -0.354 N 
ATOM     30  N   UNL A   1      41.096  31.152  35.311  1.00  0.00    -0.248 NA
ATOM     31  C   UNL A   1      42.711  30.974  36.991  1.00  0.00     0.031 C 
ATOM     32  C   UNL A   1      38.471  34.782  34.794  1.00  0.00     0.029 A 
ATOM     33  C   UNL A   1      39.263  33.650  34.951  1.00  0.00     0.049 A 
ATOM     34  H   UNL A   1      39.289  31.898  33.789  1.00  0.00     0.167 HD
ATOM     35  C   UNL A   1      41.062  32.303  36.081  1.00  0.00     0.074 A 
ATOM     36  C   UNL A   1      42.073  32.132  37.111  1.00  0.00     0.031 C 
ATOM     37  C   UNL A   1      40.272  33.400  35.958  1.00  0.00     0.037 A 
BRANCH  24  38
ATOM     38  C   UNL A   1      36.221  33.387  31.220  1.00  0.00     0.058 A 
ATOM     39  C   UNL A   1      36.500  34.032  30.004  1.00  0.00     0.135 A 
ATOM     40  C   UNL A   1      34.913  33.485  31.723  1.00  0.00     0.135 A 
ATOM     41  F   UNL A   1      37.743  34.007  29.494  1.00  0.00    -0.206 F 
ATOM     42  C   UNL A   1      35.538  34.793  29.345  1.00  0.00     0.059 A 
ATOM     43  C   UNL A   1      33.927  34.216  31.067  1.00  0.00     0.059 A 
ATOM     44  F   UNL A   1      34.592  32.904  32.890  1.00  0.00    -0.206 F 
ATOM     45  C   UNL A   1      34.257  34.890  29.893  1.00  0.00     0.060 A 
BRANCH  45  46
ATOM     46  S   UNL A   1      33.037  35.936  29.070  1.00  0.00     0.124 S 
ATOM     47  O   UNL A   1      32.360  34.970  28.210  1.00  0.00    -0.237 OA
ATOM     48  O   UNL A   1      32.253  36.443  30.190  1.00  0.00    -0.237 OA
ATOM     49  O   UNL A   1      33.852  36.930  28.377  1.00  0.00    -0.744 OA
ENDBRANCH  45  46
ENDBRANCH  24  38
BRANCH  25  50
ATOM     50  C   UNL A   1      43.596  28.278  36.022  1.00  0.00     0.058 A 
ATOM     51  C   UNL A   1      43.370  27.261  36.956  1.00  0.00     0.135 A 
ATOM     52  C   UNL A   1      44.925  28.507  35.617  1.00  0.00     0.135 A 
ATOM     53  F   UNL A   1      42.123  27.002  37.377  1.00  0.00    -0.206 F 
ATOM     54  C   UNL A   1      44.415  26.486  37.457  1.00  0.00     0.059 A 
ATOM     55  C   UNL A   1      45.981  27.730  36.083  1.00  0.00     0.059 A 
ATOM     56  F   UNL A   1      45.199  29.459  34.712  1.00  0.00    -0.206 F 
ATOM     57  C   UNL A   1      45.716  26.721  37.005  1.00  0.00     0.060 A 
BRANCH  57  58
ATOM     58  S   UNL A   1      47.048  25.651  37.594  1.00  0.00     0.124 S 
ATOM     59  O   UNL A   1      47.446  26.328  38.823  1.00  0.00    -0.237 OA
ATOM     60  O   UNL A   1      46.363  24.374  37.760  1.00  0.00    -0.237 OA
ATOM     61  O   UNL A   1      48.021  25.695  36.506  1.00  0.00    -0.744 OA
ENDBRANCH  57  58
ENDBRANCH  25  50
BRANCH  37  62
ATOM     62  C   UNL A   1      40.434  34.470  36.993  1.00  0.00     0.058 A 
ATOM     63  C   UNL A   1      39.701  34.453  38.187  1.00  0.00     0.135 A 
ATOM     64  C   UNL A   1      41.438  35.438  36.836  1.00  0.00     0.135 A 
ATOM     65  F   UNL A   1      38.725  33.550  38.370  1.00  0.00    -0.206 F 
ATOM     66  C   UNL A   1      39.968  35.360  39.203  1.00  0.00     0.059 A 
ATOM     67  C   UNL A   1      41.740  36.335  37.849  1.00  0.00     0.059 A 
ATOM     68  F   UNL A   1      42.169  35.479  35.709  1.00  0.00    -0.206 F 
ATOM     69  C   UNL A   1      41.001  36.286  39.030  1.00  0.00     0.060 A 
BRANCH  69  70
ATOM     70  S   UNL A   1      41.409  37.384  40.401  1.00  0.00     0.124 S 
ATOM     71  O   UNL A   1      40.388  38.417  40.262  1.00  0.00    -0.237 OA
ATOM     72  O   UNL A   1      41.270  36.505  41.556  1.00  0.00    -0.237 OA
ATOM     73  O   UNL A   1      42.775  37.806  40.102  1.00  0.00    -0.744 OA
ENDBRANCH  69  70
ENDBRANCH  37  62
ENDBRANCH  11  12
ENDBRANCH   4   6
ENDBRANCH   3   4
ENDBRANCH   2   3
ENDBRANCH   1   2
BRANCH   1  74
ATOM     74  O   UNL A   1      36.191  22.619  25.618  1.00  0.00    -0.374 OA
BRANCH  74  75
ATOM     75  C   UNL A   1      35.645  23.267  24.465  1.00  0.00     0.202 C 
BRANCH  75  76
ATOM     76  C   UNL A   1      34.235  23.780  24.752  1.00  0.00     0.261 C 
BRANCH  76  77
ATOM     77  O   UNL A   1      34.235  25.213  24.657  1.00  0.00    -0.462 OA
BRANCH  77  78
ATOM     78  C   UNL A   1      33.452  25.728  23.671  1.00  0.00     0.328 C 
ATOM     79  O   UNL A   1      33.609  25.536  22.476  1.00  0.00    -0.250 OA
BRANCH  78  80
ATOM     80  C   UNL A   1      32.376  26.666  24.238  1.00  0.00     0.194 C 
BRANCH  80  81
ATOM     81  C   UNL A   1      30.896  26.398  23.866  1.00  0.00     0.072 C 
BRANCH  81  82
ATOM     82  C   UNL A   1      30.032  27.541  23.382  1.00  0.00    -0.045 A 
ATOM     83  C   UNL A   1      30.605  28.694  22.820  1.00  0.00     0.004 A 
ATOM     84  C   UNL A   1      28.640  27.486  23.500  1.00  0.00     0.004 A 
ATOM     85  C   UNL A   1      29.807  29.722  22.315  1.00  0.00     0.000 A 
ATOM     86  C   UNL A   1      27.840  28.519  23.009  1.00  0.00     0.000 A 
ATOM     87  C   UNL A   1      28.422  29.630  22.405  1.00  0.00     0.000 A 
ENDBRANCH  81  82
ENDBRANCH  80  81
BRANCH  80  88
ATOM     88  N   UNL A   1      32.552  26.749  25.699  1.00  0.00    -0.372 N 
ATOM     89  H   UNL A   1      32.385  25.971  26.279  1.00  0.00     0.161 HD
BRANCH  88  90
ATOM     90  C   UNL A   1      32.960  27.968  26.225  1.00  0.00     0.036 A 
ATOM     91  C   UNL A   1      34.230  28.083  26.792  1.00  0.00     0.027 A 
ATOM     92  C   UNL A   1      32.151  29.107  26.145  1.00  0.00     0.043 A 
ATOM     93  C   UNL A   1      34.675  29.305  27.298  1.00  0.00     0.024 A 
ATOM     94  C   UNL A   1      32.588  30.335  26.650  1.00  0.00     0.038 A 
ATOM     95  C   UNL A   1      33.851  30.432  27.238  1.00  0.00     0.055 A 
ATOM     96  Br  UNL A   1      31.401  31.810  26.501  1.00  0.00    -0.049 Br
ATOM     97  Cl  UNL A   1      34.454  31.900  27.919  1.00  0.00    -0.083 Cl
ENDBRANCH  88  90
ENDBRANCH  80  88
ENDBRANCH  78  80
ENDBRANCH  77  78
ENDBRANCH  76  77
ENDBRANCH  75  76
ENDBRANCH  74  75
ENDBRANCH   1  74
TORSDOF 21
ENDMDL
