MODEL 1
REMARK VINA RESULT:     -10.4      0.000      0.000
REMARK SMILES CC(=O)N[C@@H](Cc1c(OCC(C)C)ccc2ccccc12)C(=O)OCCOCCOC(=O)c1ccc(-c2c3nc(c(-c4c(F)cc(S(=O)(=O)[O-])cc4F)c4ccc([nH]4)c(-c4c(F)cc(S(=O)(=O)[O-])cc4F)c4nc(c(-c5c(F)cc(S(=O)(=O)[O-])cc5F)c5ccc2[nH]5)C=C4)C=C3)cc1
REMARK SMILES IDX 26 1 25 2 24 3 22 4 23 5 5 6 4 7 1 8 2 9 3 10 6 12 7 13 8 14
REMARK SMILES IDX 21 15 14 16 16 17 20 18 15 19 17 20 19 21 18 22 9 23 10 24
REMARK SMILES IDX 11 25 12 26 13 27 27 28 28 29 29 30 30 31 31 32 32 33 33 34
REMARK SMILES IDX 34 35 98 36 35 37 97 38 36 39 37 40 38 41 91 42 39 43 96 44
REMARK SMILES IDX 90 45 92 46 40 47 95 48 89 49 88 50 41 52 75 53 54 54 74 55
REMARK SMILES IDX 55 56 58 57 73 58 93 59 56 60 57 61 72 63 94 64 59 65 42 66
REMARK SMILES IDX 43 67 52 68 44 69 45 70 51 71 53 72 46 73 47 74 48 75 49 76
REMARK SMILES IDX 50 77 76 78 77 79 86 80 78 81 79 82 85 83 87 84 80 85 81 86
REMARK SMILES IDX 82 87 83 88 84 89 60 90 61 91 70 92 62 93 63 94 69 95 71 96
REMARK SMILES IDX 64 97 65 98 66 99 67 100 68 101
REMARK H PARENT 4 11 92 51 58 62
REMARK Flexibility Score: inf
ROOT
ATOM      1  C   UNL A   1      31.583  27.249  25.883  1.00  0.00     0.202 C 
ENDROOT
BRANCH   1   2
ATOM      2  C   UNL A   1      31.361  25.869  25.261  1.00  0.00     0.261 C 
BRANCH   2   3
ATOM      3  O   UNL A   1      31.950  24.800  26.016  1.00  0.00    -0.462 OA
BRANCH   3   4
ATOM      4  C   UNL A   1      31.402  23.566  25.823  1.00  0.00     0.329 C 
ATOM      5  O   UNL A   1      30.278  23.229  26.185  1.00  0.00    -0.250 OA
BRANCH   4   6
ATOM      6  C   UNL A   1      32.377  22.582  25.159  1.00  0.00     0.196 C 
BRANCH   6   7
ATOM      7  N   UNL A   1      33.135  23.143  24.029  1.00  0.00    -0.343 N 
ATOM      8  C   UNL A   1      32.154  21.715  22.275  1.00  0.00     0.114 C 
ATOM      9  C   UNL A   1      33.049  22.843  22.703  1.00  0.00     0.217 C 
ATOM     10  O   UNL A   1      33.683  23.500  21.880  1.00  0.00    -0.275 OA
ATOM     11  H   UNL A   1      33.796  23.833  24.264  1.00  0.00     0.164 HD
ENDBRANCH   6   7
BRANCH   6  12
ATOM     12  C   UNL A   1      33.296  21.955  26.233  1.00  0.00     0.077 C 
BRANCH  12  13
ATOM     13  C   UNL A   1      34.592  21.376  25.669  1.00  0.00     0.005 A 
ATOM     14  C   UNL A   1      34.558  20.099  25.060  1.00  0.00     0.123 A 
ATOM     15  C   UNL A   1      35.840  22.067  25.813  1.00  0.00    -0.011 A 
ATOM     16  C   UNL A   1      35.748  19.462  24.730  1.00  0.00     0.047 A 
ATOM     17  C   UNL A   1      37.023  21.419  25.385  1.00  0.00    -0.018 A 
ATOM     18  C   UNL A   1      35.988  23.372  26.349  1.00  0.00     0.009 A 
ATOM     19  C   UNL A   1      36.966  20.116  24.886  1.00  0.00     0.012 A 
ATOM     20  C   UNL A   1      38.265  22.071  25.457  1.00  0.00     0.009 A 
ATOM     21  C   UNL A   1      37.229  24.014  26.411  1.00  0.00     0.001 A 
ATOM     22  C   UNL A   1      38.366  23.365  25.955  1.00  0.00     0.001 A 
BRANCH  14  23
ATOM     23  O   UNL A   1      33.313  19.595  24.796  1.00  0.00    -0.493 OA
BRANCH  23  24
ATOM     24  C   UNL A   1      32.970  18.260  25.171  1.00  0.00     0.232 C 
BRANCH  24  25
ATOM     25  C   UNL A   1      32.734  17.329  23.970  1.00  0.00     0.020 C 
ATOM     26  C   UNL A   1      32.467  18.066  22.658  1.00  0.00     0.011 C 
ATOM     27  C   UNL A   1      33.944  16.408  23.797  1.00  0.00     0.011 C 
ENDBRANCH  24  25
ENDBRANCH  23  24
ENDBRANCH  14  23
ENDBRANCH  12  13
ENDBRANCH   6  12
ENDBRANCH   4   6
ENDBRANCH   3   4
ENDBRANCH   2   3
ENDBRANCH   1   2
BRANCH   1  28
ATOM     28  O   UNL A   1      31.443  28.373  25.022  1.00  0.00    -0.374 OA
BRANCH  28  29
ATOM     29  C   UNL A   1      32.140  29.568  25.379  1.00  0.00     0.202 C 
BRANCH  29  30
ATOM     30  C   UNL A   1      33.384  29.433  26.267  1.00  0.00     0.261 C 
BRANCH  30  31
ATOM     31  O   UNL A   1      33.363  30.289  27.428  1.00  0.00    -0.460 OA
BRANCH  31  32
ATOM     32  C   UNL A   1      34.448  31.086  27.563  1.00  0.00     0.338 C 
ATOM     33  O   UNL A   1      34.482  32.310  27.463  1.00  0.00    -0.246 OA
BRANCH  32  34
ATOM     34  C   UNL A   1      35.627  30.321  27.998  1.00  0.00     0.060 A 
ATOM     35  C   UNL A   1      35.598  29.730  29.268  1.00  0.00     0.016 A 
ATOM     36  C   UNL A   1      36.806  30.339  27.251  1.00  0.00     0.016 A 
ATOM     37  C   UNL A   1      36.766  29.204  29.820  1.00  0.00     0.010 A 
ATOM     38  C   UNL A   1      37.978  29.818  27.811  1.00  0.00     0.010 A 
ATOM     39  C   UNL A   1      37.974  29.284  29.113  1.00  0.00    -0.014 A 
BRANCH  39  40
ATOM     40  C   UNL A   1      39.252  28.938  29.783  1.00  0.00     0.031 A 
ATOM     41  C   UNL A   1      39.695  29.730  30.985  1.00  0.00     0.074 A 
ATOM     42  C   UNL A   1      40.011  27.922  29.331  1.00  0.00     0.049 A 
ATOM     43  N   UNL A   1      40.803  29.642  31.673  1.00  0.00    -0.248 NA
ATOM     44  C   UNL A   1      38.763  30.759  31.474  1.00  0.00     0.031 C 
ATOM     45  C   UNL A   1      39.672  27.054  28.205  1.00  0.00     0.029 A 
ATOM     46  N   UNL A   1      41.228  27.460  29.760  1.00  0.00    -0.354 N 
ATOM     47  C   UNL A   1      40.710  30.607  32.670  1.00  0.00     0.074 A 
ATOM     48  C   UNL A   1      39.443  31.281  32.486  1.00  0.00     0.031 C 
ATOM     49  C   UNL A   1      40.670  26.173  28.019  1.00  0.00     0.029 A 
ATOM     50  C   UNL A   1      41.731  26.438  28.992  1.00  0.00     0.049 A 
ATOM     51  H   UNL A   1      41.699  27.827  30.544  1.00  0.00     0.167 HD
ATOM     52  C   UNL A   1      41.597  30.902  33.651  1.00  0.00     0.037 A 
ATOM     53  C   UNL A   1      42.920  25.807  29.048  1.00  0.00     0.037 A 
ATOM     54  C   UNL A   1      42.856  30.229  33.835  1.00  0.00     0.049 A 
ATOM     55  C   UNL A   1      43.920  26.194  30.107  1.00  0.00     0.074 A 
ATOM     56  C   UNL A   1      43.813  30.446  34.812  1.00  0.00     0.029 A 
ATOM     57  N   UNL A   1      43.338  29.215  33.022  1.00  0.00    -0.354 N 
ATOM     58  N   UNL A   1      43.811  27.098  31.052  1.00  0.00    -0.248 NA
ATOM     59  C   UNL A   1      45.206  25.480  30.105  1.00  0.00     0.031 C 
ATOM     60  C   UNL A   1      44.891  29.588  34.566  1.00  0.00     0.029 A 
ATOM     61  C   UNL A   1      44.588  28.809  33.460  1.00  0.00     0.049 A 
ATOM     62  H   UNL A   1      42.862  28.838  32.248  1.00  0.00     0.167 HD
ATOM     63  C   UNL A   1      45.001  27.044  31.770  1.00  0.00     0.074 A 
ATOM     64  C   UNL A   1      45.815  26.017  31.154  1.00  0.00     0.031 C 
ATOM     65  C   UNL A   1      45.383  27.778  32.844  1.00  0.00     0.037 A 
BRANCH  52  66
ATOM     66  C   UNL A   1      41.247  32.021  34.591  1.00  0.00     0.058 A 
ATOM     67  C   UNL A   1      41.616  33.349  34.326  1.00  0.00     0.135 A 
ATOM     68  C   UNL A   1      40.502  31.766  35.755  1.00  0.00     0.135 A 
ATOM     69  F   UNL A   1      42.340  33.644  33.235  1.00  0.00    -0.206 F 
ATOM     70  C   UNL A   1      41.279  34.383  35.194  1.00  0.00     0.059 A 
ATOM     71  C   UNL A   1      40.136  32.789  36.626  1.00  0.00     0.059 A 
ATOM     72  F   UNL A   1      40.124  30.514  36.055  1.00  0.00    -0.206 F 
ATOM     73  C   UNL A   1      40.542  34.093  36.344  1.00  0.00     0.060 A 
BRANCH  73  74
ATOM     74  S   UNL A   1      40.111  35.444  37.461  1.00  0.00     0.124 S 
ATOM     75  O   UNL A   1      38.914  34.916  38.107  1.00  0.00    -0.237 OA
ATOM     76  O   UNL A   1      41.296  35.543  38.307  1.00  0.00    -0.237 OA
ATOM     77  O   UNL A   1      39.893  36.572  36.560  1.00  0.00    -0.744 OA
ENDBRANCH  73  74
ENDBRANCH  52  66
BRANCH  53  78
ATOM     78  C   UNL A   1      43.241  24.749  28.056  1.00  0.00     0.058 A 
ATOM     79  C   UNL A   1      43.882  25.059  26.849  1.00  0.00     0.135 A 
ATOM     80  C   UNL A   1      42.920  23.405  28.303  1.00  0.00     0.135 A 
ATOM     81  F   UNL A   1      44.199  26.332  26.565  1.00  0.00    -0.206 F 
ATOM     82  C   UNL A   1      44.192  24.074  25.916  1.00  0.00     0.059 A 
ATOM     83  C   UNL A   1      43.237  22.400  27.395  1.00  0.00     0.059 A 
ATOM     84  F   UNL A   1      42.315  23.057  29.448  1.00  0.00    -0.206 F 
ATOM     85  C   UNL A   1      43.867  22.747  26.201  1.00  0.00     0.060 A 
BRANCH  85  86
ATOM     86  S   UNL A   1      44.330  21.467  25.013  1.00  0.00     0.124 S 
ATOM     87  O   UNL A   1      45.704  21.184  25.409  1.00  0.00    -0.237 OA
ATOM     88  O   UNL A   1      43.354  20.419  25.294  1.00  0.00    -0.237 OA
ATOM     89  O   UNL A   1      44.166  22.134  23.725  1.00  0.00    -0.744 OA
ENDBRANCH  85  86
ENDBRANCH  53  78
BRANCH  65  90
ATOM     90  C   UNL A   1      46.727  27.482  33.450  1.00  0.00     0.058 A 
ATOM     91  C   UNL A   1      47.878  28.186  33.065  1.00  0.00     0.135 A 
ATOM     92  C   UNL A   1      46.849  26.537  34.482  1.00  0.00     0.135 A 
ATOM     93  F   UNL A   1      47.817  29.094  32.078  1.00  0.00    -0.206 F 
ATOM     94  C   UNL A   1      49.108  27.955  33.675  1.00  0.00     0.059 A 
ATOM     95  C   UNL A   1      48.063  26.305  35.120  1.00  0.00     0.059 A 
ATOM     96  F   UNL A   1      45.775  25.845  34.893  1.00  0.00    -0.206 F 
ATOM     97  C   UNL A   1      49.189  27.015  34.704  1.00  0.00     0.060 A 
BRANCH  97  98
ATOM     98  S   UNL A   1      50.778  26.762  35.526  1.00  0.00     0.124 S 
ATOM     99  O   UNL A   1      50.405  26.890  36.931  1.00  0.00    -0.237 OA
ATOM    100  O   UNL A   1      51.148  25.421  35.088  1.00  0.00    -0.237 OA
ATOM    101  O   UNL A   1      51.609  27.839  34.997  1.00  0.00    -0.744 OA
ENDBRANCH  97  98
ENDBRANCH  65  90
ENDBRANCH  39  40
ENDBRANCH  32  34
ENDBRANCH  31  32
ENDBRANCH  30  31
ENDBRANCH  29  30
ENDBRANCH  28  29
ENDBRANCH   1  28
TORSDOF 23
ENDMDL
MODEL 2
REMARK VINA RESULT:     -10.2      3.176      8.772
REMARK SMILES CC(=O)N[C@@H](Cc1c(OCC(C)C)ccc2ccccc12)C(=O)OCCOCCOC(=O)c1ccc(-c2c3nc(c(-c4c(F)cc(S(=O)(=O)[O-])cc4F)c4ccc([nH]4)c(-c4c(F)cc(S(=O)(=O)[O-])cc4F)c4nc(c(-c5c(F)cc(S(=O)(=O)[O-])cc5F)c5ccc2[nH]5)C=C4)C=C3)cc1
REMARK SMILES IDX 26 1 25 2 24 3 22 4 23 5 5 6 4 7 1 8 2 9 3 10 6 12 7 13 8 14
REMARK SMILES IDX 21 15 14 16 16 17 20 18 15 19 17 20 19 21 18 22 9 23 10 24
REMARK SMILES IDX 11 25 12 26 13 27 27 28 28 29 29 30 30 31 31 32 32 33 33 34
REMARK SMILES IDX 34 35 98 36 35 37 97 38 36 39 37 40 38 41 91 42 39 43 96 44
REMARK SMILES IDX 90 45 92 46 40 47 95 48 89 49 88 50 41 52 75 53 54 54 74 55
REMARK SMILES IDX 55 56 58 57 73 58 93 59 56 60 57 61 72 63 94 64 59 65 42 66
REMARK SMILES IDX 43 67 52 68 44 69 45 70 51 71 53 72 46 73 47 74 48 75 49 76
REMARK SMILES IDX 50 77 76 78 77 79 86 80 78 81 79 82 85 83 87 84 80 85 81 86
REMARK SMILES IDX 82 87 83 88 84 89 60 90 61 91 70 92 62 93 63 94 69 95 71 96
REMARK SMILES IDX 64 97 65 98 66 99 67 100 68 101
REMARK H PARENT 4 11 92 51 58 62
REMARK Flexibility Score: inf
ROOT
ATOM      1  C   UNL A   1      39.224  23.468  26.878  1.00  0.00     0.202 C 
ENDROOT
BRANCH   1   2
ATOM      2  C   UNL A   1      38.051  24.093  26.120  1.00  0.00     0.261 C 
BRANCH   2   3
ATOM      3  O   UNL A   1      36.975  23.175  25.876  1.00  0.00    -0.462 OA
BRANCH   3   4
ATOM      4  C   UNL A   1      36.400  23.252  24.641  1.00  0.00     0.329 C 
ATOM      5  O   UNL A   1      36.861  22.759  23.616  1.00  0.00    -0.250 OA
BRANCH   4   6
ATOM      6  C   UNL A   1      35.122  24.105  24.636  1.00  0.00     0.196 C 
BRANCH   6   7
ATOM      7  N   UNL A   1      34.138  23.723  23.608  1.00  0.00    -0.343 N 
ATOM      8  C   UNL A   1      33.781  25.982  22.685  1.00  0.00     0.114 C 
ATOM      9  C   UNL A   1      33.537  24.499  22.664  1.00  0.00     0.217 C 
ATOM     10  O   UNL A   1      32.824  23.984  21.805  1.00  0.00    -0.275 OA
ATOM     11  H   UNL A   1      33.881  22.774  23.601  1.00  0.00     0.164 HD
ENDBRANCH   6   7
BRANCH   6  12
ATOM     12  C   UNL A   1      34.510  24.137  26.055  1.00  0.00     0.077 C 
BRANCH  12  13
ATOM     13  C   UNL A   1      33.121  24.769  26.110  1.00  0.00     0.005 A 
ATOM     14  C   UNL A   1      31.987  23.924  26.059  1.00  0.00     0.123 A 
ATOM     15  C   UNL A   1      32.952  26.193  26.137  1.00  0.00    -0.011 A 
ATOM     16  C   UNL A   1      30.723  24.478  25.897  1.00  0.00     0.047 A 
ATOM     17  C   UNL A   1      31.640  26.718  26.056  1.00  0.00    -0.018 A 
ATOM     18  C   UNL A   1      34.007  27.133  26.250  1.00  0.00     0.009 A 
ATOM     19  C   UNL A   1      30.550  25.859  25.900  1.00  0.00     0.012 A 
ATOM     20  C   UNL A   1      31.415  28.102  26.130  1.00  0.00     0.009 A 
ATOM     21  C   UNL A   1      33.772  28.510  26.327  1.00  0.00     0.001 A 
ATOM     22  C   UNL A   1      32.473  28.993  26.277  1.00  0.00     0.001 A 
BRANCH  14  23
ATOM     23  O   UNL A   1      32.229  22.587  26.223  1.00  0.00    -0.493 OA
BRANCH  23  24
ATOM     24  C   UNL A   1      31.636  21.624  25.350  1.00  0.00     0.232 C 
BRANCH  24  25
ATOM     25  C   UNL A   1      32.667  20.769  24.593  1.00  0.00     0.020 C 
ATOM     26  C   UNL A   1      32.849  19.366  25.170  1.00  0.00     0.011 C 
ATOM     27  C   UNL A   1      32.256  20.665  23.123  1.00  0.00     0.011 C 
ENDBRANCH  24  25
ENDBRANCH  23  24
ENDBRANCH  14  23
ENDBRANCH  12  13
ENDBRANCH   6  12
ENDBRANCH   4   6
ENDBRANCH   3   4
ENDBRANCH   2   3
ENDBRANCH   1   2
BRANCH   1  28
ATOM     28  O   UNL A   1      39.937  22.429  26.217  1.00  0.00    -0.374 OA
BRANCH  28  29
ATOM     29  C   UNL A   1      41.278  22.176  26.643  1.00  0.00     0.202 C 
BRANCH  29  30
ATOM     30  C   UNL A   1      42.404  22.980  25.980  1.00  0.00     0.261 C 
BRANCH  30  31
ATOM     31  O   UNL A   1      42.204  24.407  26.029  1.00  0.00    -0.460 OA
BRANCH  31  32
ATOM     32  C   UNL A   1      43.137  25.085  26.737  1.00  0.00     0.338 C 
ATOM     33  O   UNL A   1      44.357  25.014  26.610  1.00  0.00    -0.246 OA
BRANCH  32  34
ATOM     34  C   UNL A   1      42.518  26.073  27.635  1.00  0.00     0.060 A 
ATOM     35  C   UNL A   1      43.144  27.319  27.777  1.00  0.00     0.016 A 
ATOM     36  C   UNL A   1      41.450  25.718  28.461  1.00  0.00     0.016 A 
ATOM     37  C   UNL A   1      42.738  28.193  28.786  1.00  0.00     0.010 A 
ATOM     38  C   UNL A   1      41.052  26.593  29.478  1.00  0.00     0.010 A 
ATOM     39  C   UNL A   1      41.719  27.816  29.671  1.00  0.00    -0.014 A 
BRANCH  39  40
ATOM     40  C   UNL A   1      41.442  28.637  30.877  1.00  0.00     0.031 A 
ATOM     41  C   UNL A   1      40.310  29.630  30.851  1.00  0.00     0.074 A 
ATOM     42  C   UNL A   1      42.187  28.495  31.989  1.00  0.00     0.049 A 
ATOM     43  N   UNL A   1      39.942  30.491  31.763  1.00  0.00    -0.248 NA
ATOM     44  C   UNL A   1      39.483  29.653  29.633  1.00  0.00     0.031 C 
ATOM     45  C   UNL A   1      43.281  27.541  32.154  1.00  0.00     0.029 A 
ATOM     46  N   UNL A   1      42.139  29.166  33.185  1.00  0.00    -0.354 N 
ATOM     47  C   UNL A   1      38.850  31.168  31.231  1.00  0.00     0.074 A 
ATOM     48  C   UNL A   1      38.626  30.627  29.907  1.00  0.00     0.031 C 
ATOM     49  C   UNL A   1      43.816  27.700  33.378  1.00  0.00     0.029 A 
ATOM     50  C   UNL A   1      43.122  28.789  34.067  1.00  0.00     0.049 A 
ATOM     51  H   UNL A   1      41.464  29.853  33.391  1.00  0.00     0.167 HD
ATOM     52  C   UNL A   1      38.100  32.145  31.793  1.00  0.00     0.037 A 
ATOM     53  C   UNL A   1      43.444  29.282  35.279  1.00  0.00     0.037 A 
ATOM     54  C   UNL A   1      38.323  32.681  33.111  1.00  0.00     0.049 A 
ATOM     55  C   UNL A   1      42.638  30.415  35.860  1.00  0.00     0.074 A 
ATOM     56  C   UNL A   1      37.604  33.660  33.775  1.00  0.00     0.029 A 
ATOM     57  N   UNL A   1      39.343  32.287  33.964  1.00  0.00    -0.354 N 
ATOM     58  N   UNL A   1      41.599  31.034  35.350  1.00  0.00    -0.248 NA
ATOM     59  C   UNL A   1      43.050  30.921  37.178  1.00  0.00     0.031 C 
ATOM     60  C   UNL A   1      38.214  33.888  35.013  1.00  0.00     0.029 A 
ATOM     61  C   UNL A   1      39.288  33.020  35.138  1.00  0.00     0.049 A 
ATOM     62  H   UNL A   1      40.008  31.591  33.764  1.00  0.00     0.167 HD
ATOM     63  C   UNL A   1      41.220  31.982  36.294  1.00  0.00     0.074 A 
ATOM     64  C   UNL A   1      42.137  31.855  37.407  1.00  0.00     0.031 C 
ATOM     65  C   UNL A   1      40.201  32.877  36.243  1.00  0.00     0.037 A 
BRANCH  52  66
ATOM     66  C   UNL A   1      36.980  32.721  30.974  1.00  0.00     0.058 A 
ATOM     67  C   UNL A   1      37.214  33.682  29.978  1.00  0.00     0.135 A 
ATOM     68  C   UNL A   1      35.660  32.280  31.165  1.00  0.00     0.135 A 
ATOM     69  F   UNL A   1      38.454  34.147  29.765  1.00  0.00    -0.206 F 
ATOM     70  C   UNL A   1      36.173  34.203  29.214  1.00  0.00     0.059 A 
ATOM     71  C   UNL A   1      34.607  32.772  30.397  1.00  0.00     0.059 A 
ATOM     72  F   UNL A   1      35.382  31.363  32.104  1.00  0.00    -0.206 F 
ATOM     73  C   UNL A   1      34.873  33.744  29.433  1.00  0.00     0.060 A 
BRANCH  73  74
ATOM     74  S   UNL A   1      33.533  34.429  28.435  1.00  0.00     0.124 S 
ATOM     75  O   UNL A   1      32.578  34.826  29.464  1.00  0.00    -0.237 OA
ATOM     76  O   UNL A   1      34.194  35.521  27.728  1.00  0.00    -0.237 OA
ATOM     77  O   UNL A   1      33.124  33.303  27.600  1.00  0.00    -0.744 OA
ENDBRANCH  73  74
ENDBRANCH  52  66
BRANCH  53  78
ATOM     78  C   UNL A   1      44.600  28.718  36.020  1.00  0.00     0.058 A 
ATOM     79  C   UNL A   1      45.894  29.225  35.840  1.00  0.00     0.135 A 
ATOM     80  C   UNL A   1      44.429  27.666  36.934  1.00  0.00     0.135 A 
ATOM     81  F   UNL A   1      46.107  30.224  34.969  1.00  0.00    -0.206 F 
ATOM     82  C   UNL A   1      46.983  28.707  36.534  1.00  0.00     0.059 A 
ATOM     83  C   UNL A   1      45.497  27.145  37.656  1.00  0.00     0.059 A 
ATOM     84  F   UNL A   1      43.208  27.154  37.150  1.00  0.00    -0.206 F 
ATOM     85  C   UNL A   1      46.772  27.668  37.443  1.00  0.00     0.060 A 
BRANCH  85  86
ATOM     86  S   UNL A   1      48.180  27.044  38.388  1.00  0.00     0.124 S 
ATOM     87  O   UNL A   1      49.302  27.535  37.598  1.00  0.00    -0.237 OA
ATOM     88  O   UNL A   1      47.984  27.680  39.687  1.00  0.00    -0.237 OA
ATOM     89  O   UNL A   1      47.977  25.598  38.371  1.00  0.00    -0.744 OA
ENDBRANCH  85  86
ENDBRANCH  53  78
BRANCH  65  90
ATOM     90  C   UNL A   1      39.996  33.771  37.434  1.00  0.00     0.058 A 
ATOM     91  C   UNL A   1      40.727  34.957  37.597  1.00  0.00     0.135 A 
ATOM     92  C   UNL A   1      39.004  33.474  38.383  1.00  0.00     0.135 A 
ATOM     93  F   UNL A   1      41.692  35.282  36.722  1.00  0.00    -0.206 F 
ATOM     94  C   UNL A   1      40.488  35.816  38.667  1.00  0.00     0.059 A 
ATOM     95  C   UNL A   1      38.734  34.328  39.448  1.00  0.00     0.059 A 
ATOM     96  F   UNL A   1      38.272  32.355  38.267  1.00  0.00    -0.206 F 
ATOM     97  C   UNL A   1      39.487  35.494  39.585  1.00  0.00     0.060 A 
BRANCH  97  98
ATOM     98  S   UNL A   1      39.148  36.641  40.938  1.00  0.00     0.124 S 
ATOM     99  O   UNL A   1      38.404  35.792  41.862  1.00  0.00    -0.237 OA
ATOM    100  O   UNL A   1      40.489  37.024  41.368  1.00  0.00    -0.237 OA
ATOM    101  O   UNL A   1      38.375  37.702  40.298  1.00  0.00    -0.744 OA
ENDBRANCH  97  98
ENDBRANCH  65  90
ENDBRANCH  39  40
ENDBRANCH  32  34
ENDBRANCH  31  32
ENDBRANCH  30  31
ENDBRANCH  29  30
ENDBRANCH  28  29
ENDBRANCH   1  28
TORSDOF 23
ENDMDL
MODEL 3
REMARK VINA RESULT:     -10.1      1.126      2.928
REMARK SMILES CC(=O)N[C@@H](Cc1c(OCC(C)C)ccc2ccccc12)C(=O)OCCOCCOC(=O)c1ccc(-c2c3nc(c(-c4c(F)cc(S(=O)(=O)[O-])cc4F)c4ccc([nH]4)c(-c4c(F)cc(S(=O)(=O)[O-])cc4F)c4nc(c(-c5c(F)cc(S(=O)(=O)[O-])cc5F)c5ccc2[nH]5)C=C4)C=C3)cc1
REMARK SMILES IDX 26 1 25 2 24 3 22 4 23 5 5 6 4 7 1 8 2 9 3 10 6 12 7 13 8 14
REMARK SMILES IDX 21 15 14 16 16 17 20 18 15 19 17 20 19 21 18 22 9 23 10 24
REMARK SMILES IDX 11 25 12 26 13 27 27 28 28 29 29 30 30 31 31 32 32 33 33 34
REMARK SMILES IDX 34 35 98 36 35 37 97 38 36 39 37 40 38 41 91 42 39 43 96 44
REMARK SMILES IDX 90 45 92 46 40 47 95 48 89 49 88 50 41 52 75 53 54 54 74 55
REMARK SMILES IDX 55 56 58 57 73 58 93 59 56 60 57 61 72 63 94 64 59 65 42 66
REMARK SMILES IDX 43 67 52 68 44 69 45 70 51 71 53 72 46 73 47 74 48 75 49 76
REMARK SMILES IDX 50 77 76 78 77 79 86 80 78 81 79 82 85 83 87 84 80 85 81 86
REMARK SMILES IDX 82 87 83 88 84 89 60 90 61 91 70 92 62 93 63 94 69 95 71 96
REMARK SMILES IDX 64 97 65 98 66 99 67 100 68 101
REMARK H PARENT 4 11 92 51 58 62
REMARK Flexibility Score: inf
ROOT
ATOM      1  C   UNL A   1      32.759  27.381  26.514  1.00  0.00     0.202 C 
ENDROOT
BRANCH   1   2
ATOM      2  C   UNL A   1      33.059  26.108  25.721  1.00  0.00     0.261 C 
BRANCH   2   3
ATOM      3  O   UNL A   1      33.446  24.999  26.547  1.00  0.00    -0.462 OA
BRANCH   3   4
ATOM      4  C   UNL A   1      32.602  23.928  26.533  1.00  0.00     0.329 C 
ATOM      5  O   UNL A   1      31.564  23.839  27.183  1.00  0.00    -0.250 OA
BRANCH   4   6
ATOM      6  C   UNL A   1      33.123  22.774  25.662  1.00  0.00     0.196 C 
BRANCH   6   7
ATOM      7  N   UNL A   1      34.382  22.173  26.134  1.00  0.00    -0.343 N 
ATOM      8  C   UNL A   1      35.606  22.335  24.000  1.00  0.00     0.114 C 
ATOM      9  C   UNL A   1      35.553  21.995  25.463  1.00  0.00     0.217 C 
ATOM     10  O   UNL A   1      36.546  21.578  26.056  1.00  0.00    -0.275 OA
ATOM     11  H   UNL A   1      34.377  21.859  27.067  1.00  0.00     0.164 HD
ENDBRANCH   6   7
BRANCH   6  12
ATOM     12  C   UNL A   1      32.005  21.724  25.466  1.00  0.00     0.077 C 
BRANCH  12  13
ATOM     13  C   UNL A   1      32.197  20.849  24.229  1.00  0.00     0.005 A 
ATOM     14  C   UNL A   1      32.005  21.426  22.951  1.00  0.00     0.123 A 
ATOM     15  C   UNL A   1      32.491  19.450  24.346  1.00  0.00    -0.011 A 
ATOM     16  C   UNL A   1      31.967  20.611  21.826  1.00  0.00     0.047 A 
ATOM     17  C   UNL A   1      32.527  18.668  23.166  1.00  0.00    -0.018 A 
ATOM     18  C   UNL A   1      32.762  18.777  25.564  1.00  0.00     0.009 A 
ATOM     19  C   UNL A   1      32.230  19.248  21.931  1.00  0.00     0.012 A 
ATOM     20  C   UNL A   1      32.860  17.305  23.219  1.00  0.00     0.009 A 
ATOM     21  C   UNL A   1      33.097  17.419  25.605  1.00  0.00     0.001 A 
ATOM     22  C   UNL A   1      33.156  16.686  24.429  1.00  0.00     0.001 A 
BRANCH  14  23
ATOM     23  O   UNL A   1      31.915  22.792  22.919  1.00  0.00    -0.493 OA
BRANCH  23  24
ATOM     24  C   UNL A   1      32.894  23.572  22.230  1.00  0.00     0.232 C 
BRANCH  24  25
ATOM     25  C   UNL A   1      32.533  25.064  22.140  1.00  0.00     0.020 C 
ATOM     26  C   UNL A   1      32.537  25.617  20.715  1.00  0.00     0.011 C 
ATOM     27  C   UNL A   1      31.156  25.291  22.769  1.00  0.00     0.011 C 
ENDBRANCH  24  25
ENDBRANCH  23  24
ENDBRANCH  14  23
ENDBRANCH  12  13
ENDBRANCH   6  12
ENDBRANCH   4   6
ENDBRANCH   3   4
ENDBRANCH   2   3
ENDBRANCH   1   2
BRANCH   1  28
ATOM     28  O   UNL A   1      31.808  28.279  25.953  1.00  0.00    -0.374 OA
BRANCH  28  29
ATOM     29  C   UNL A   1      32.263  29.589  25.608  1.00  0.00     0.202 C 
BRANCH  29  30
ATOM     30  C   UNL A   1      32.310  30.647  26.720  1.00  0.00     0.261 C 
BRANCH  30  31
ATOM     31  O   UNL A   1      33.385  30.451  27.660  1.00  0.00    -0.460 OA
BRANCH  31  32
ATOM     32  C   UNL A   1      34.317  31.433  27.666  1.00  0.00     0.338 C 
ATOM     33  O   UNL A   1      34.118  32.641  27.567  1.00  0.00    -0.246 OA
BRANCH  32  34
ATOM     34  C   UNL A   1      35.658  30.900  27.953  1.00  0.00     0.060 A 
ATOM     35  C   UNL A   1      35.775  29.538  28.260  1.00  0.00     0.016 A 
ATOM     36  C   UNL A   1      36.751  31.756  28.101  1.00  0.00     0.016 A 
ATOM     37  C   UNL A   1      36.973  29.038  28.770  1.00  0.00     0.010 A 
ATOM     38  C   UNL A   1      37.949  31.254  28.620  1.00  0.00     0.010 A 
ATOM     39  C   UNL A   1      38.054  29.901  28.995  1.00  0.00    -0.014 A 
BRANCH  39  40
ATOM     40  C   UNL A   1      39.243  29.424  29.745  1.00  0.00     0.031 A 
ATOM     41  C   UNL A   1      39.634  30.114  31.025  1.00  0.00     0.074 A 
ATOM     42  C   UNL A   1      39.965  28.382  29.295  1.00  0.00     0.049 A 
ATOM     43  N   UNL A   1      40.671  29.906  31.795  1.00  0.00    -0.248 NA
ATOM     44  C   UNL A   1      38.737  31.180  31.499  1.00  0.00     0.031 C 
ATOM     45  C   UNL A   1      39.666  27.605  28.094  1.00  0.00     0.029 A 
ATOM     46  N   UNL A   1      41.107  27.807  29.793  1.00  0.00    -0.354 N 
ATOM     47  C   UNL A   1      40.560  30.819  32.839  1.00  0.00     0.074 A 
ATOM     48  C   UNL A   1      39.362  31.594  32.593  1.00  0.00     0.031 C 
ATOM     49  C   UNL A   1      40.612  26.663  27.937  1.00  0.00     0.029 A 
ATOM     50  C   UNL A   1      41.601  26.795  29.008  1.00  0.00     0.049 A 
ATOM     51  H   UNL A   1      41.533  28.095  30.634  1.00  0.00     0.167 HD
ATOM     52  C   UNL A   1      41.376  30.992  33.905  1.00  0.00     0.037 A 
ATOM     53  C   UNL A   1      42.735  26.074  29.123  1.00  0.00     0.037 A 
ATOM     54  C   UNL A   1      42.565  30.219  34.150  1.00  0.00     0.049 A 
ATOM     55  C   UNL A   1      43.664  26.328  30.281  1.00  0.00     0.074 A 
ATOM     56  C   UNL A   1      43.447  30.309  35.214  1.00  0.00     0.029 A 
ATOM     57  N   UNL A   1      43.044  29.217  33.319  1.00  0.00    -0.354 N 
ATOM     58  N   UNL A   1      43.537  27.184  31.268  1.00  0.00    -0.248 NA
ATOM     59  C   UNL A   1      44.892  25.522  30.341  1.00  0.00     0.031 C 
ATOM     60  C   UNL A   1      44.481  29.389  35.004  1.00  0.00     0.029 A 
ATOM     61  C   UNL A   1      44.220  28.696  33.832  1.00  0.00     0.049 A 
ATOM     62  H   UNL A   1      42.611  28.920  32.486  1.00  0.00     0.167 HD
ATOM     63  C   UNL A   1      44.655  27.002  32.076  1.00  0.00     0.074 A 
ATOM     64  C   UNL A   1      45.445  25.953  31.467  1.00  0.00     0.031 C 
ATOM     65  C   UNL A   1      44.993  27.645  33.221  1.00  0.00     0.037 A 
BRANCH  52  66
ATOM     66  C   UNL A   1      41.026  32.080  34.880  1.00  0.00     0.058 A 
ATOM     67  C   UNL A   1      41.499  33.392  34.722  1.00  0.00     0.135 A 
ATOM     68  C   UNL A   1      40.176  31.815  35.967  1.00  0.00     0.135 A 
ATOM     69  F   UNL A   1      42.326  33.695  33.710  1.00  0.00    -0.206 F 
ATOM     70  C   UNL A   1      41.161  34.399  35.622  1.00  0.00     0.059 A 
ATOM     71  C   UNL A   1      39.808  32.812  36.867  1.00  0.00     0.059 A 
ATOM     72  F   UNL A   1      39.695  30.578  36.163  1.00  0.00    -0.206 F 
ATOM     73  C   UNL A   1      40.318  34.098  36.693  1.00  0.00     0.060 A 
BRANCH  73  74
ATOM     74  S   UNL A   1      39.887  35.414  37.852  1.00  0.00     0.124 S 
ATOM     75  O   UNL A   1      41.071  35.448  38.705  1.00  0.00    -0.237 OA
ATOM     76  O   UNL A   1      39.708  36.563  36.971  1.00  0.00    -0.237 OA
ATOM     77  O   UNL A   1      38.670  34.921  38.488  1.00  0.00    -0.744 OA
ENDBRANCH  73  74
ENDBRANCH  52  66
BRANCH  53  78
ATOM     78  C   UNL A   1      43.065  25.053  28.097  1.00  0.00     0.058 A 
ATOM     79  C   UNL A   1      43.650  25.415  26.875  1.00  0.00     0.135 A 
ATOM     80  C   UNL A   1      42.812  23.691  28.325  1.00  0.00     0.135 A 
ATOM     81  F   UNL A   1      43.901  26.706  26.609  1.00  0.00    -0.206 F 
ATOM     82  C   UNL A   1      43.968  24.464  25.911  1.00  0.00     0.059 A 
ATOM     83  C   UNL A   1      43.140  22.720  27.385  1.00  0.00     0.059 A 
ATOM     84  F   UNL A   1      42.263  23.293  29.483  1.00  0.00    -0.206 F 
ATOM     85  C   UNL A   1      43.712  23.118  26.178  1.00  0.00     0.060 A 
BRANCH  85  86
ATOM     86  S   UNL A   1      44.188  21.884  24.947  1.00  0.00     0.124 S 
ATOM     87  O   UNL A   1      43.237  20.814  25.223  1.00  0.00    -0.237 OA
ATOM     88  O   UNL A   1      43.992  22.607  23.695  1.00  0.00    -0.237 OA
ATOM     89  O   UNL A   1      45.579  21.597  25.284  1.00  0.00    -0.744 OA
ENDBRANCH  85  86
ENDBRANCH  53  78
BRANCH  65  90
ATOM     90  C   UNL A   1      46.256  27.217  33.916  1.00  0.00     0.058 A 
ATOM     91  C   UNL A   1      46.262  26.170  34.850  1.00  0.00     0.135 A 
ATOM     92  C   UNL A   1      47.485  27.811  33.587  1.00  0.00     0.135 A 
ATOM     93  F   UNL A   1      45.112  25.575  35.205  1.00  0.00    -0.206 F 
ATOM     94  C   UNL A   1      47.443  25.733  35.442  1.00  0.00     0.059 A 
ATOM     95  C   UNL A   1      48.680  27.377  34.150  1.00  0.00     0.059 A 
ATOM     96  F   UNL A   1      47.533  28.811  32.692  1.00  0.00    -0.206 F 
ATOM     97  C   UNL A   1      48.648  26.340  35.083  1.00  0.00     0.060 A 
BRANCH  97  98
ATOM     98  S   UNL A   1      50.181  25.729  35.817  1.00  0.00     0.124 S 
ATOM     99  O   UNL A   1      50.207  26.451  37.085  1.00  0.00    -0.237 OA
ATOM    100  O   UNL A   1      49.935  24.294  35.910  1.00  0.00    -0.237 OA
ATOM    101  O   UNL A   1      51.200  26.122  34.849  1.00  0.00    -0.744 OA
ENDBRANCH  97  98
ENDBRANCH  65  90
ENDBRANCH  39  40
ENDBRANCH  32  34
ENDBRANCH  31  32
ENDBRANCH  30  31
ENDBRANCH  29  30
ENDBRANCH  28  29
ENDBRANCH   1  28
TORSDOF 23
ENDMDL
