MODEL 1
REMARK VINA RESULT:     -11.3      0.000      0.000
REMARK SMILES NS(=O)(=O)c1ccc(NS(=O)(=O)c2cccc(C(=O)OCCOCCOC(=O)c3ccc(-c4c5nc(c(-c6c(F)cc(S(=O)(=O)[O-])cc6F)c6ccc([nH]6)c(-c6c(F)cc(S(=O)(=O)[O-])cc6F)c6nc(c(-c7c(F)cc(S(=O)(=O)[O-])cc7F)c7ccc4[nH]7)C=C6)C=C5)cc3)c2)cc1
REMARK SMILES IDX 22 1 21 2 20 3 18 4 19 5 17 6 13 7 14 8 95 9 15 10 16 11
REMARK SMILES IDX 10 12 11 13 12 14 9 15 8 17 5 18 6 19 97 20 7 21 96 22 2 23
REMARK SMILES IDX 3 24 4 25 1 26 23 29 24 30 25 31 26 32 27 33 28 34 29 35
REMARK SMILES IDX 30 36 94 37 31 38 93 39 32 40 33 41 34 42 87 43 35 44 92 45
REMARK SMILES IDX 86 46 88 47 36 48 91 49 85 50 84 51 37 53 71 54 50 55 70 56
REMARK SMILES IDX 51 57 54 58 69 59 89 60 52 61 53 62 68 64 90 65 55 66 38 67
REMARK SMILES IDX 39 68 48 69 40 70 41 71 47 72 49 73 42 74 43 75 44 76 45 77
REMARK SMILES IDX 46 78 72 79 73 80 82 81 74 82 75 83 81 84 83 85 76 86 77 87
REMARK SMILES IDX 78 88 79 89 80 90 56 91 57 92 66 93 58 94 59 95 65 96 67 97
REMARK SMILES IDX 60 98 61 99 62 100 63 101 64 102
REMARK H PARENT 9 16 1 27 1 28 88 52 54 63
REMARK Flexibility Score: inf
ROOT
ATOM      1  C   UNL A   1      34.631  31.100  27.639  1.00  0.00     0.202 C 
ENDROOT
BRANCH   1   2
ATOM      2  C   UNL A   1      33.268  30.551  27.184  1.00  0.00     0.261 C 
BRANCH   2   3
ATOM      3  O   UNL A   1      33.271  29.858  25.927  1.00  0.00    -0.460 OA
BRANCH   3   4
ATOM      4  C   UNL A   1      33.088  28.517  26.030  1.00  0.00     0.338 C 
ATOM      5  O   UNL A   1      32.764  27.893  27.028  1.00  0.00    -0.246 OA
BRANCH   4   6
ATOM      6  C   UNL A   1      33.167  27.888  24.693  1.00  0.00     0.061 A 
ATOM      7  C   UNL A   1      32.859  26.070  23.145  1.00  0.00     0.088 A 
ATOM      8  C   UNL A   1      33.429  26.840  22.119  1.00  0.00     0.022 A 
ATOM      9  C   UNL A   1      32.715  26.587  24.440  1.00  0.00     0.038 A 
ATOM     10  C   UNL A   1      33.881  28.129  22.384  1.00  0.00     0.002 A 
ATOM     11  C   UNL A   1      33.749  28.653  23.668  1.00  0.00     0.016 A 
BRANCH   7  12
ATOM     12  S   UNL A   1      32.495  24.361  22.795  1.00  0.00     0.261 S 
ATOM     13  O   UNL A   1      33.198  23.996  21.584  1.00  0.00    -0.201 OA
ATOM     14  O   UNL A   1      31.060  24.220  22.903  1.00  0.00    -0.201 OA
BRANCH  12  15
ATOM     15  N   UNL A   1      33.164  23.490  24.067  1.00  0.00    -0.280 N 
ATOM     16  H   UNL A   1      33.388  23.979  24.891  1.00  0.00     0.180 HD
BRANCH  15  17
ATOM     17  C   UNL A   1      33.427  22.088  24.031  1.00  0.00     0.049 A 
ATOM     18  C   UNL A   1      33.656  19.301  24.363  1.00  0.00     0.082 A 
ATOM     19  C   UNL A   1      34.699  20.144  24.739  1.00  0.00     0.024 A 
ATOM     20  C   UNL A   1      32.520  19.835  23.751  1.00  0.00     0.024 A 
ATOM     21  C   UNL A   1      34.583  21.524  24.568  1.00  0.00     0.028 A 
ATOM     22  C   UNL A   1      32.398  21.230  23.613  1.00  0.00     0.028 A 
BRANCH  18  23
ATOM     23  S   UNL A   1      33.818  17.552  24.649  1.00  0.00     0.238 S 
ATOM     24  O   UNL A   1      35.223  17.275  24.872  1.00  0.00    -0.207 OA
ATOM     25  O   UNL A   1      33.044  16.884  23.636  1.00  0.00    -0.207 OA
BRANCH  23  26
ATOM     26  N   UNL A   1      33.078  17.302  26.125  1.00  0.00    -0.225 NA
ATOM     27  H   UNL A   1      32.333  16.613  26.019  1.00  0.00     0.137 HD
ATOM     28  H   UNL A   1      32.684  18.181  26.460  1.00  0.00     0.137 HD
ENDBRANCH  23  26
ENDBRANCH  18  23
ENDBRANCH  15  17
ENDBRANCH  12  15
ENDBRANCH   7  12
ENDBRANCH   4   6
ENDBRANCH   3   4
ENDBRANCH   2   3
ENDBRANCH   1   2
BRANCH   1  29
ATOM     29  O   UNL A   1      34.772  32.505  27.792  1.00  0.00    -0.374 OA
BRANCH  29  30
ATOM     30  C   UNL A   1      35.559  32.993  28.878  1.00  0.00     0.202 C 
BRANCH  30  31
ATOM     31  C   UNL A   1      35.226  32.488  30.282  1.00  0.00     0.261 C 
BRANCH  31  32
ATOM     32  O   UNL A   1      35.904  31.250  30.597  1.00  0.00    -0.460 OA
BRANCH  32  33
ATOM     33  C   UNL A   1      37.132  31.438  31.134  1.00  0.00     0.338 C 
ATOM     34  O   UNL A   1      37.427  32.268  31.983  1.00  0.00    -0.246 OA
BRANCH  33  35
ATOM     35  C   UNL A   1      38.185  30.571  30.580  1.00  0.00     0.060 A 
ATOM     36  C   UNL A   1      39.248  30.251  31.426  1.00  0.00     0.016 A 
ATOM     37  C   UNL A   1      38.307  30.393  29.202  1.00  0.00     0.016 A 
ATOM     38  C   UNL A   1      40.477  29.893  30.882  1.00  0.00     0.010 A 
ATOM     39  C   UNL A   1      39.550  30.072  28.651  1.00  0.00     0.010 A 
ATOM     40  C   UNL A   1      40.655  29.866  29.489  1.00  0.00    -0.014 A 
BRANCH  40  41
ATOM     41  C   UNL A   1      41.974  29.486  28.938  1.00  0.00     0.031 A 
ATOM     42  C   UNL A   1      43.115  30.459  28.835  1.00  0.00     0.074 A 
ATOM     43  C   UNL A   1      42.119  28.208  28.546  1.00  0.00     0.049 A 
ATOM     44  N   UNL A   1      44.354  30.235  28.475  1.00  0.00    -0.248 NA
ATOM     45  C   UNL A   1      42.831  31.866  29.157  1.00  0.00     0.031 C 
ATOM     46  C   UNL A   1      41.049  27.208  28.570  1.00  0.00     0.029 A 
ATOM     47  N   UNL A   1      43.204  27.533  28.064  1.00  0.00    -0.354 N 
ATOM     48  C   UNL A   1      45.005  31.464  28.534  1.00  0.00     0.074 A 
ATOM     49  C   UNL A   1      44.009  32.439  28.930  1.00  0.00     0.031 C 
ATOM     50  C   UNL A   1      41.537  26.038  28.137  1.00  0.00     0.029 A 
ATOM     51  C   UNL A   1      42.944  26.213  27.791  1.00  0.00     0.049 A 
ATOM     52  H   UNL A   1      44.085  27.951  27.926  1.00  0.00     0.167 HD
ATOM     53  C   UNL A   1      46.312  31.738  28.288  1.00  0.00     0.037 A 
ATOM     54  C   UNL A   1      43.751  25.247  27.320  1.00  0.00     0.037 A 
ATOM     55  C   UNL A   1      47.277  30.739  27.883  1.00  0.00     0.049 A 
ATOM     56  C   UNL A   1      45.195  25.571  27.077  1.00  0.00     0.074 A 
ATOM     57  C   UNL A   1      48.637  30.890  27.668  1.00  0.00     0.029 A 
ATOM     58  N   UNL A   1      46.982  29.408  27.615  1.00  0.00    -0.354 N 
ATOM     59  N   UNL A   1      45.816  26.716  27.228  1.00  0.00    -0.248 NA
ATOM     60  C   UNL A   1      46.049  24.471  26.616  1.00  0.00     0.031 C 
ATOM     61  C   UNL A   1      49.150  29.668  27.217  1.00  0.00     0.029 A 
ATOM     62  C   UNL A   1      48.124  28.736  27.207  1.00  0.00     0.049 A 
ATOM     63  H   UNL A   1      46.090  29.001  27.702  1.00  0.00     0.167 HD
ATOM     64  C   UNL A   1      47.142  26.474  26.891  1.00  0.00     0.074 A 
ATOM     65  C   UNL A   1      47.233  25.065  26.559  1.00  0.00     0.031 C 
ATOM     66  C   UNL A   1      48.188  27.338  26.856  1.00  0.00     0.037 A 
BRANCH  53  67
ATOM     67  C   UNL A   1      46.791  33.162  28.440  1.00  0.00     0.058 A 
ATOM     68  C   UNL A   1      47.282  33.653  29.661  1.00  0.00     0.135 A 
ATOM     69  C   UNL A   1      46.842  34.027  27.331  1.00  0.00     0.135 A 
ATOM     70  F   UNL A   1      47.260  32.879  30.758  1.00  0.00    -0.206 F 
ATOM     71  C   UNL A   1      47.782  34.948  29.784  1.00  0.00     0.059 A 
ATOM     72  C   UNL A   1      47.363  35.317  27.424  1.00  0.00     0.059 A 
ATOM     73  F   UNL A   1      46.396  33.614  26.134  1.00  0.00    -0.206 F 
ATOM     74  C   UNL A   1      47.820  35.773  28.658  1.00  0.00     0.060 A 
BRANCH  74  75
ATOM     75  S   UNL A   1      48.485  37.445  28.833  1.00  0.00     0.124 S 
ATOM     76  O   UNL A   1      47.882  37.868  30.093  1.00  0.00    -0.237 OA
ATOM     77  O   UNL A   1      49.925  37.205  28.870  1.00  0.00    -0.237 OA
ATOM     78  O   UNL A   1      47.998  38.133  27.642  1.00  0.00    -0.744 OA
ENDBRANCH  74  75
ENDBRANCH  53  67
BRANCH  54  79
ATOM     79  C   UNL A   1      43.199  23.888  27.095  1.00  0.00     0.058 A 
ATOM     80  C   UNL A   1      42.860  23.449  25.809  1.00  0.00     0.135 A 
ATOM     81  C   UNL A   1      43.067  22.979  28.157  1.00  0.00     0.135 A 
ATOM     82  F   UNL A   1      42.978  24.282  24.763  1.00  0.00    -0.206 F 
ATOM     83  C   UNL A   1      42.401  22.158  25.581  1.00  0.00     0.059 A 
ATOM     84  C   UNL A   1      42.639  21.674  27.951  1.00  0.00     0.059 A 
ATOM     85  F   UNL A   1      43.411  23.344  29.402  1.00  0.00    -0.206 F 
ATOM     86  C   UNL A   1      42.299  21.276  26.659  1.00  0.00     0.060 A 
BRANCH  86  87
ATOM     87  S   UNL A   1      41.764  19.581  26.342  1.00  0.00     0.124 S 
ATOM     88  O   UNL A   1      42.174  18.910  27.570  1.00  0.00    -0.237 OA
ATOM     89  O   UNL A   1      40.326  19.747  26.152  1.00  0.00    -0.237 OA
ATOM     90  O   UNL A   1      42.509  19.214  25.142  1.00  0.00    -0.744 OA
ENDBRANCH  86  87
ENDBRANCH  54  79
BRANCH  66  91
ATOM     91  C   UNL A   1      49.518  26.768  26.440  1.00  0.00     0.058 A 
ATOM     92  C   UNL A   1      50.364  26.129  27.361  1.00  0.00     0.135 A 
ATOM     93  C   UNL A   1      49.950  26.860  25.107  1.00  0.00     0.135 A 
ATOM     94  F   UNL A   1      50.002  26.023  28.649  1.00  0.00    -0.206 F 
ATOM     95  C   UNL A   1      51.611  25.642  26.985  1.00  0.00     0.059 A 
ATOM     96  C   UNL A   1      51.180  26.351  24.702  1.00  0.00     0.059 A 
ATOM     97  F   UNL A   1      49.176  27.453  24.184  1.00  0.00    -0.206 F 
ATOM     98  C   UNL A   1      52.012  25.761  25.654  1.00  0.00     0.060 A 
BRANCH  98  99
ATOM     99  S   UNL A   1      53.632  25.125  25.179  1.00  0.00     0.124 S 
ATOM    100  O   UNL A   1      53.733  25.582  23.797  1.00  0.00    -0.237 OA
ATOM    101  O   UNL A   1      54.519  25.787  26.132  1.00  0.00    -0.237 OA
ATOM    102  O   UNL A   1      53.497  23.682  25.356  1.00  0.00    -0.744 OA
ENDBRANCH  98  99
ENDBRANCH  66  91
ENDBRANCH  40  41
ENDBRANCH  33  35
ENDBRANCH  32  33
ENDBRANCH  31  32
ENDBRANCH  30  31
ENDBRANCH  29  30
ENDBRANCH   1  29
TORSDOF 22
ENDMDL
MODEL 2
REMARK VINA RESULT:     -10.9      1.492      8.304
REMARK SMILES NS(=O)(=O)c1ccc(NS(=O)(=O)c2cccc(C(=O)OCCOCCOC(=O)c3ccc(-c4c5nc(c(-c6c(F)cc(S(=O)(=O)[O-])cc6F)c6ccc([nH]6)c(-c6c(F)cc(S(=O)(=O)[O-])cc6F)c6nc(c(-c7c(F)cc(S(=O)(=O)[O-])cc7F)c7ccc4[nH]7)C=C6)C=C5)cc3)c2)cc1
REMARK SMILES IDX 22 1 21 2 20 3 18 4 19 5 17 6 13 7 14 8 95 9 15 10 16 11
REMARK SMILES IDX 10 12 11 13 12 14 9 15 8 17 5 18 6 19 97 20 7 21 96 22 2 23
REMARK SMILES IDX 3 24 4 25 1 26 23 29 24 30 25 31 26 32 27 33 28 34 29 35
REMARK SMILES IDX 30 36 94 37 31 38 93 39 32 40 33 41 34 42 87 43 35 44 92 45
REMARK SMILES IDX 86 46 88 47 36 48 91 49 85 50 84 51 37 53 71 54 50 55 70 56
REMARK SMILES IDX 51 57 54 58 69 59 89 60 52 61 53 62 68 64 90 65 55 66 38 67
REMARK SMILES IDX 39 68 48 69 40 70 41 71 47 72 49 73 42 74 43 75 44 76 45 77
REMARK SMILES IDX 46 78 72 79 73 80 82 81 74 82 75 83 81 84 83 85 76 86 77 87
REMARK SMILES IDX 78 88 79 89 80 90 56 91 57 92 66 93 58 94 59 95 65 96 67 97
REMARK SMILES IDX 60 98 61 99 62 100 63 101 64 102
REMARK H PARENT 9 16 1 27 1 28 88 52 54 63
REMARK Flexibility Score: inf
ROOT
ATOM      1  C   UNL A   1      31.789  30.121  25.718  1.00  0.00     0.202 C 
ENDROOT
BRANCH   1   2
ATOM      2  C   UNL A   1      32.548  29.277  24.678  1.00  0.00     0.261 C 
BRANCH   2   3
ATOM      3  O   UNL A   1      31.929  28.032  24.325  1.00  0.00    -0.460 OA
BRANCH   3   4
ATOM      4  C   UNL A   1      32.738  27.182  23.643  1.00  0.00     0.338 C 
ATOM      5  O   UNL A   1      33.197  27.342  22.524  1.00  0.00    -0.246 OA
BRANCH   4   6
ATOM      6  C   UNL A   1      33.152  26.061  24.518  1.00  0.00     0.061 A 
ATOM      7  C   UNL A   1      34.629  24.280  25.183  1.00  0.00     0.088 A 
ATOM      8  C   UNL A   1      33.762  23.948  26.237  1.00  0.00     0.022 A 
ATOM      9  C   UNL A   1      34.338  25.343  24.318  1.00  0.00     0.038 A 
ATOM     10  C   UNL A   1      32.583  24.664  26.422  1.00  0.00     0.002 A 
ATOM     11  C   UNL A   1      32.279  25.719  25.564  1.00  0.00     0.016 A 
BRANCH   7  12
ATOM     12  S   UNL A   1      36.010  23.198  24.873  1.00  0.00     0.261 S 
ATOM     13  O   UNL A   1      37.211  23.872  25.318  1.00  0.00    -0.201 OA
ATOM     14  O   UNL A   1      35.868  22.737  23.510  1.00  0.00    -0.201 OA
BRANCH  12  15
ATOM     15  N   UNL A   1      35.765  21.863  25.864  1.00  0.00    -0.280 N 
ATOM     16  H   UNL A   1      36.070  21.922  26.798  1.00  0.00     0.180 HD
BRANCH  15  17
ATOM     17  C   UNL A   1      35.143  20.651  25.440  1.00  0.00     0.049 A 
ATOM     18  C   UNL A   1      34.062  18.394  24.149  1.00  0.00     0.082 A 
ATOM     19  C   UNL A   1      33.233  19.434  24.562  1.00  0.00     0.024 A 
ATOM     20  C   UNL A   1      35.427  18.437  24.442  1.00  0.00     0.024 A 
ATOM     21  C   UNL A   1      33.773  20.549  25.206  1.00  0.00     0.028 A 
ATOM     22  C   UNL A   1      35.966  19.579  25.061  1.00  0.00     0.028 A 
BRANCH  18  23
ATOM     23  S   UNL A   1      33.344  17.016  23.281  1.00  0.00     0.238 S 
ATOM     24  O   UNL A   1      34.431  16.237  22.725  1.00  0.00    -0.207 OA
ATOM     25  O   UNL A   1      32.268  17.535  22.479  1.00  0.00    -0.207 OA
BRANCH  23  26
ATOM     26  N   UNL A   1      32.688  16.063  24.486  1.00  0.00    -0.225 NA
ATOM     27  H   UNL A   1      33.020  16.386  25.394  1.00  0.00     0.137 HD
ATOM     28  H   UNL A   1      32.971  15.093  24.344  1.00  0.00     0.137 HD
ENDBRANCH  23  26
ENDBRANCH  18  23
ENDBRANCH  15  17
ENDBRANCH  12  15
ENDBRANCH   7  12
ENDBRANCH   4   6
ENDBRANCH   3   4
ENDBRANCH   2   3
ENDBRANCH   1   2
BRANCH   1  29
ATOM     29  O   UNL A   1      32.494  30.556  26.872  1.00  0.00    -0.374 OA
BRANCH  29  30
ATOM     30  C   UNL A   1      33.903  30.331  26.931  1.00  0.00     0.202 C 
BRANCH  30  31
ATOM     31  C   UNL A   1      34.730  31.228  27.851  1.00  0.00     0.261 C 
BRANCH  31  32
ATOM     32  O   UNL A   1      35.422  30.477  28.876  1.00  0.00    -0.460 OA
BRANCH  32  33
ATOM     33  C   UNL A   1      36.645  30.977  29.167  1.00  0.00     0.338 C 
ATOM     34  O   UNL A   1      36.883  32.107  29.572  1.00  0.00    -0.246 OA
BRANCH  33  35
ATOM     35  C   UNL A   1      37.764  30.054  28.911  1.00  0.00     0.060 A 
ATOM     36  C   UNL A   1      38.642  29.820  29.970  1.00  0.00     0.016 A 
ATOM     37  C   UNL A   1      38.137  29.734  27.606  1.00  0.00     0.016 A 
ATOM     38  C   UNL A   1      39.943  29.404  29.707  1.00  0.00     0.010 A 
ATOM     39  C   UNL A   1      39.454  29.355  27.334  1.00  0.00     0.010 A 
ATOM     40  C   UNL A   1      40.378  29.233  28.382  1.00  0.00    -0.014 A 
BRANCH  40  41
ATOM     41  C   UNL A   1      41.768  28.794  28.131  1.00  0.00     0.031 A 
ATOM     42  C   UNL A   1      42.115  27.372  27.790  1.00  0.00     0.074 A 
ATOM     43  C   UNL A   1      42.721  29.739  28.204  1.00  0.00     0.049 A 
ATOM     44  N   UNL A   1      43.274  26.872  27.440  1.00  0.00    -0.248 NA
ATOM     45  C   UNL A   1      41.033  26.378  27.866  1.00  0.00     0.031 C 
ATOM     46  C   UNL A   1      42.478  31.135  28.573  1.00  0.00     0.029 A 
ATOM     47  N   UNL A   1      44.066  29.680  27.969  1.00  0.00    -0.354 N 
ATOM     48  C   UNL A   1      43.066  25.510  27.245  1.00  0.00     0.074 A 
ATOM     49  C   UNL A   1      41.673  25.256  27.552  1.00  0.00     0.031 C 
ATOM     50  C   UNL A   1      43.636  31.807  28.524  1.00  0.00     0.029 A 
ATOM     51  C   UNL A   1      44.699  30.886  28.137  1.00  0.00     0.049 A 
ATOM     52  H   UNL A   1      44.534  28.855  27.706  1.00  0.00     0.167 HD
ATOM     53  C   UNL A   1      43.960  24.571  26.838  1.00  0.00     0.037 A 
ATOM     54  C   UNL A   1      45.994  31.216  27.990  1.00  0.00     0.037 A 
ATOM     55  C   UNL A   1      45.348  24.858  26.550  1.00  0.00     0.049 A 
ATOM     56  C   UNL A   1      46.955  30.167  27.520  1.00  0.00     0.074 A 
ATOM     57  C   UNL A   1      46.326  24.002  26.072  1.00  0.00     0.029 A 
ATOM     58  N   UNL A   1      45.960  26.093  26.730  1.00  0.00    -0.354 N 
ATOM     59  N   UNL A   1      46.724  28.904  27.248  1.00  0.00    -0.248 NA
ATOM     60  C   UNL A   1      48.346  30.587  27.320  1.00  0.00     0.031 C 
ATOM     61  C   UNL A   1      47.537  24.702  26.018  1.00  0.00     0.029 A 
ATOM     62  C   UNL A   1      47.306  26.013  26.404  1.00  0.00     0.049 A 
ATOM     63  H   UNL A   1      45.504  26.907  27.044  1.00  0.00     0.167 HD
ATOM     64  C   UNL A   1      47.942  28.379  26.833  1.00  0.00     0.074 A 
ATOM     65  C   UNL A   1      48.894  29.471  26.861  1.00  0.00     0.031 C 
ATOM     66  C   UNL A   1      48.244  27.108  26.465  1.00  0.00     0.037 A 
BRANCH  53  67
ATOM     67  C   UNL A   1      43.485  23.146  26.678  1.00  0.00     0.058 A 
ATOM     68  C   UNL A   1      43.371  22.539  25.416  1.00  0.00     0.135 A 
ATOM     69  C   UNL A   1      43.224  22.344  27.804  1.00  0.00     0.135 A 
ATOM     70  F   UNL A   1      43.606  23.250  24.302  1.00  0.00    -0.206 F 
ATOM     71  C   UNL A   1      42.994  21.206  25.274  1.00  0.00     0.059 A 
ATOM     72  C   UNL A   1      42.871  21.000  27.687  1.00  0.00     0.059 A 
ATOM     73  F   UNL A   1      43.324  22.862  29.038  1.00  0.00    -0.206 F 
ATOM     74  C   UNL A   1      42.747  20.442  26.417  1.00  0.00     0.060 A 
BRANCH  74  75
ATOM     75  S   UNL A   1      42.274  18.710  26.214  1.00  0.00     0.124 S 
ATOM     76  O   UNL A   1      43.198  18.274  25.171  1.00  0.00    -0.237 OA
ATOM     77  O   UNL A   1      42.517  18.162  27.545  1.00  0.00    -0.237 OA
ATOM     78  O   UNL A   1      40.871  18.783  25.818  1.00  0.00    -0.744 OA
ENDBRANCH  74  75
ENDBRANCH  53  67
BRANCH  54  79
ATOM     79  C   UNL A   1      46.419  32.612  28.259  1.00  0.00     0.058 A 
ATOM     80  C   UNL A   1      46.330  33.600  27.269  1.00  0.00     0.135 A 
ATOM     81  C   UNL A   1      46.856  32.998  29.536  1.00  0.00     0.135 A 
ATOM     82  F   UNL A   1      45.909  33.277  26.036  1.00  0.00    -0.206 F 
ATOM     83  C   UNL A   1      46.668  34.921  27.531  1.00  0.00     0.059 A 
ATOM     84  C   UNL A   1      47.172  34.319  29.831  1.00  0.00     0.059 A 
ATOM     85  F   UNL A   1      46.926  32.094  30.525  1.00  0.00    -0.206 F 
ATOM     86  C   UNL A   1      47.082  35.272  28.817  1.00  0.00     0.060 A 
BRANCH  86  87
ATOM     87  S   UNL A   1      47.455  37.004  29.163  1.00  0.00     0.124 S 
ATOM     88  O   UNL A   1      46.387  37.683  28.439  1.00  0.00    -0.237 OA
ATOM     89  O   UNL A   1      47.370  37.048  30.620  1.00  0.00    -0.237 OA
ATOM     90  O   UNL A   1      48.798  37.173  28.617  1.00  0.00    -0.744 OA
ENDBRANCH  86  87
ENDBRANCH  54  79
BRANCH  66  91
ATOM     91  C   UNL A   1      49.672  26.845  26.066  1.00  0.00     0.058 A 
ATOM     92  C   UNL A   1      50.102  26.987  24.737  1.00  0.00     0.135 A 
ATOM     93  C   UNL A   1      50.619  26.447  27.023  1.00  0.00     0.135 A 
ATOM     94  F   UNL A   1      49.233  27.354  23.782  1.00  0.00    -0.206 F 
ATOM     95  C   UNL A   1      51.410  26.701  24.362  1.00  0.00     0.059 A 
ATOM     96  C   UNL A   1      51.942  26.187  26.676  1.00  0.00     0.059 A 
ATOM     97  F   UNL A   1      50.264  26.305  28.309  1.00  0.00    -0.206 F 
ATOM     98  C   UNL A   1      52.322  26.298  25.339  1.00  0.00     0.060 A 
BRANCH  98  99
ATOM     99  S   UNL A   1      54.016  25.931  24.839  1.00  0.00     0.124 S 
ATOM    100  O   UNL A   1      54.782  26.716  25.803  1.00  0.00    -0.237 OA
ATOM    101  O   UNL A   1      54.084  24.482  25.006  1.00  0.00    -0.237 OA
ATOM    102  O   UNL A   1      54.074  26.401  23.458  1.00  0.00    -0.744 OA
ENDBRANCH  98  99
ENDBRANCH  66  91
ENDBRANCH  40  41
ENDBRANCH  33  35
ENDBRANCH  32  33
ENDBRANCH  31  32
ENDBRANCH  30  31
ENDBRANCH  29  30
ENDBRANCH   1  29
TORSDOF 22
ENDMDL
MODEL 3
REMARK VINA RESULT:     -10.6      1.068      2.015
REMARK SMILES NS(=O)(=O)c1ccc(NS(=O)(=O)c2cccc(C(=O)OCCOCCOC(=O)c3ccc(-c4c5nc(c(-c6c(F)cc(S(=O)(=O)[O-])cc6F)c6ccc([nH]6)c(-c6c(F)cc(S(=O)(=O)[O-])cc6F)c6nc(c(-c7c(F)cc(S(=O)(=O)[O-])cc7F)c7ccc4[nH]7)C=C6)C=C5)cc3)c2)cc1
REMARK SMILES IDX 22 1 21 2 20 3 18 4 19 5 17 6 13 7 14 8 95 9 15 10 16 11
REMARK SMILES IDX 10 12 11 13 12 14 9 15 8 17 5 18 6 19 97 20 7 21 96 22 2 23
REMARK SMILES IDX 3 24 4 25 1 26 23 29 24 30 25 31 26 32 27 33 28 34 29 35
REMARK SMILES IDX 30 36 94 37 31 38 93 39 32 40 33 41 34 42 87 43 35 44 92 45
REMARK SMILES IDX 86 46 88 47 36 48 91 49 85 50 84 51 37 53 71 54 50 55 70 56
REMARK SMILES IDX 51 57 54 58 69 59 89 60 52 61 53 62 68 64 90 65 55 66 38 67
REMARK SMILES IDX 39 68 48 69 40 70 41 71 47 72 49 73 42 74 43 75 44 76 45 77
REMARK SMILES IDX 46 78 72 79 73 80 82 81 74 82 75 83 81 84 83 85 76 86 77 87
REMARK SMILES IDX 78 88 79 89 80 90 56 91 57 92 66 93 58 94 59 95 65 96 67 97
REMARK SMILES IDX 60 98 61 99 62 100 63 101 64 102
REMARK H PARENT 9 16 1 27 1 28 88 52 54 63
REMARK Flexibility Score: inf
ROOT
ATOM      1  C   UNL A   1      33.763  31.227  27.977  1.00  0.00     0.202 C 
ENDROOT
BRANCH   1   2
ATOM      2  C   UNL A   1      33.944  30.423  26.677  1.00  0.00     0.261 C 
BRANCH   2   3
ATOM      3  O   UNL A   1      32.729  30.006  26.037  1.00  0.00    -0.460 OA
BRANCH   3   4
ATOM      4  C   UNL A   1      32.912  29.149  25.001  1.00  0.00     0.338 C 
ATOM      5  O   UNL A   1      33.453  29.388  23.934  1.00  0.00    -0.246 OA
BRANCH   4   6
ATOM      6  C   UNL A   1      32.507  27.780  25.395  1.00  0.00     0.061 A 
ATOM      7  C   UNL A   1      32.926  25.446  25.813  1.00  0.00     0.088 A 
ATOM      8  C   UNL A   1      31.569  25.252  26.119  1.00  0.00     0.022 A 
ATOM      9  C   UNL A   1      33.411  26.712  25.456  1.00  0.00     0.038 A 
ATOM     10  C   UNL A   1      30.679  26.320  26.048  1.00  0.00     0.002 A 
ATOM     11  C   UNL A   1      31.148  27.582  25.688  1.00  0.00     0.016 A 
BRANCH   7  12
ATOM     12  S   UNL A   1      33.968  24.005  25.717  1.00  0.00     0.261 S 
ATOM     13  O   UNL A   1      33.838  23.279  26.962  1.00  0.00    -0.201 OA
ATOM     14  O   UNL A   1      35.256  24.464  25.246  1.00  0.00    -0.201 OA
BRANCH  12  15
ATOM     15  N   UNL A   1      33.314  23.058  24.493  1.00  0.00    -0.280 N 
ATOM     16  H   UNL A   1      32.736  23.500  23.830  1.00  0.00     0.180 HD
BRANCH  15  17
ATOM     17  C   UNL A   1      33.543  21.657  24.351  1.00  0.00     0.049 A 
ATOM     18  C   UNL A   1      33.674  18.846  24.448  1.00  0.00     0.082 A 
ATOM     19  C   UNL A   1      34.707  19.618  24.974  1.00  0.00     0.024 A 
ATOM     20  C   UNL A   1      32.602  19.467  23.804  1.00  0.00     0.024 A 
ATOM     21  C   UNL A   1      34.640  21.011  24.920  1.00  0.00     0.028 A 
ATOM     22  C   UNL A   1      32.527  20.872  23.783  1.00  0.00     0.028 A 
BRANCH  18  23
ATOM     23  S   UNL A   1      33.769  17.074  24.587  1.00  0.00     0.238 S 
ATOM     24  O   UNL A   1      35.171  16.714  24.627  1.00  0.00    -0.207 OA
ATOM     25  O   UNL A   1      32.851  16.524  23.624  1.00  0.00    -0.207 OA
BRANCH  23  26
ATOM     26  N   UNL A   1      33.184  16.746  26.116  1.00  0.00    -0.225 NA
ATOM     27  H   UNL A   1      32.636  17.539  26.448  1.00  0.00     0.137 HD
ATOM     28  H   UNL A   1      33.965  16.581  26.751  1.00  0.00     0.137 HD
ENDBRANCH  23  26
ENDBRANCH  18  23
ENDBRANCH  15  17
ENDBRANCH  12  15
ENDBRANCH   7  12
ENDBRANCH   4   6
ENDBRANCH   3   4
ENDBRANCH   2   3
ENDBRANCH   1   2
BRANCH   1  29
ATOM     29  O   UNL A   1      34.928  31.687  28.649  1.00  0.00    -0.374 OA
BRANCH  29  30
ATOM     30  C   UNL A   1      34.781  32.705  29.639  1.00  0.00     0.202 C 
BRANCH  30  31
ATOM     31  C   UNL A   1      35.115  32.344  31.086  1.00  0.00     0.261 C 
BRANCH  31  32
ATOM     32  O   UNL A   1      35.990  31.195  31.180  1.00  0.00    -0.460 OA
BRANCH  32  33
ATOM     33  C   UNL A   1      37.270  31.523  31.468  1.00  0.00     0.338 C 
ATOM     34  O   UNL A   1      37.634  32.459  32.167  1.00  0.00    -0.246 OA
BRANCH  33  35
ATOM     35  C   UNL A   1      38.283  30.675  30.819  1.00  0.00     0.060 A 
ATOM     36  C   UNL A   1      39.315  30.194  31.627  1.00  0.00     0.016 A 
ATOM     37  C   UNL A   1      38.415  30.661  29.430  1.00  0.00     0.016 A 
ATOM     38  C   UNL A   1      40.531  29.838  31.053  1.00  0.00     0.010 A 
ATOM     39  C   UNL A   1      39.648  30.343  28.853  1.00  0.00     0.010 A 
ATOM     40  C   UNL A   1      40.727  29.975  29.668  1.00  0.00    -0.014 A 
BRANCH  40  41
ATOM     41  C   UNL A   1      42.033  29.593  29.085  1.00  0.00     0.031 A 
ATOM     42  C   UNL A   1      43.174  30.563  28.962  1.00  0.00     0.074 A 
ATOM     43  C   UNL A   1      42.163  28.318  28.682  1.00  0.00     0.049 A 
ATOM     44  N   UNL A   1      44.404  30.336  28.573  1.00  0.00    -0.248 NA
ATOM     45  C   UNL A   1      42.903  31.968  29.300  1.00  0.00     0.031 C 
ATOM     46  C   UNL A   1      41.091  27.321  28.723  1.00  0.00     0.029 A 
ATOM     47  N   UNL A   1      43.235  27.642  28.171  1.00  0.00    -0.354 N 
ATOM     48  C   UNL A   1      45.061  31.562  28.625  1.00  0.00     0.074 A 
ATOM     49  C   UNL A   1      44.078  32.539  29.050  1.00  0.00     0.031 C 
ATOM     50  C   UNL A   1      41.564  26.152  28.272  1.00  0.00     0.029 A 
ATOM     51  C   UNL A   1      42.963  26.324  27.895  1.00  0.00     0.049 A 
ATOM     52  H   UNL A   1      44.114  28.057  28.015  1.00  0.00     0.167 HD
ATOM     53  C   UNL A   1      46.363  31.833  28.352  1.00  0.00     0.037 A 
ATOM     54  C   UNL A   1      43.756  25.359  27.400  1.00  0.00     0.037 A 
ATOM     55  C   UNL A   1      47.315  30.834  27.918  1.00  0.00     0.049 A 
ATOM     56  C   UNL A   1      45.195  25.678  27.126  1.00  0.00     0.074 A 
ATOM     57  C   UNL A   1      48.670  30.980  27.673  1.00  0.00     0.029 A 
ATOM     58  N   UNL A   1      47.008  29.506  27.649  1.00  0.00    -0.354 N 
ATOM     59  N   UNL A   1      45.824  26.821  27.270  1.00  0.00    -0.248 NA
ATOM     60  C   UNL A   1      46.035  24.579  26.639  1.00  0.00     0.031 C 
ATOM     61  C   UNL A   1      49.168  29.760  27.202  1.00  0.00     0.029 A 
ATOM     62  C   UNL A   1      48.139  28.832  27.210  1.00  0.00     0.049 A 
ATOM     63  H   UNL A   1      46.117  29.101  27.753  1.00  0.00     0.167 HD
ATOM     64  C   UNL A   1      47.141  26.575  26.902  1.00  0.00     0.074 A 
ATOM     65  C   UNL A   1      47.219  25.169  26.559  1.00  0.00     0.031 C 
ATOM     66  C   UNL A   1      48.189  27.436  26.848  1.00  0.00     0.037 A 
BRANCH  53  67
ATOM     67  C   UNL A   1      46.851  33.255  28.502  1.00  0.00     0.058 A 
ATOM     68  C   UNL A   1      46.895  34.143  27.415  1.00  0.00     0.135 A 
ATOM     69  C   UNL A   1      47.197  33.766  29.767  1.00  0.00     0.135 A 
ATOM     70  F   UNL A   1      46.578  33.717  26.182  1.00  0.00    -0.206 F 
ATOM     71  C   UNL A   1      47.286  35.472  27.568  1.00  0.00     0.059 A 
ATOM     72  C   UNL A   1      47.565  35.099  29.948  1.00  0.00     0.059 A 
ATOM     73  F   UNL A   1      47.167  32.971  30.847  1.00  0.00    -0.206 F 
ATOM     74  C   UNL A   1      47.618  35.942  28.841  1.00  0.00     0.060 A 
BRANCH  74  75
ATOM     75  S   UNL A   1      48.108  37.672  29.023  1.00  0.00     0.124 S 
ATOM     76  O   UNL A   1      48.913  37.621  30.239  1.00  0.00    -0.237 OA
ATOM     77  O   UNL A   1      48.843  37.919  27.786  1.00  0.00    -0.237 OA
ATOM     78  O   UNL A   1      46.836  38.377  29.142  1.00  0.00    -0.744 OA
ENDBRANCH  74  75
ENDBRANCH  53  67
BRANCH  54  79
ATOM     79  C   UNL A   1      43.193  24.003  27.179  1.00  0.00     0.058 A 
ATOM     80  C   UNL A   1      43.160  23.056  28.210  1.00  0.00     0.135 A 
ATOM     81  C   UNL A   1      42.612  23.657  25.948  1.00  0.00     0.135 A 
ATOM     82  F   UNL A   1      43.696  23.347  29.405  1.00  0.00    -0.206 F 
ATOM     83  C   UNL A   1      42.579  21.807  28.029  1.00  0.00     0.059 A 
ATOM     84  C   UNL A   1      41.999  22.427  25.751  1.00  0.00     0.059 A 
ATOM     85  F   UNL A   1      42.590  24.544  24.941  1.00  0.00    -0.206 F 
ATOM     86  C   UNL A   1      41.996  21.504  26.797  1.00  0.00     0.060 A 
BRANCH  86  87
ATOM     87  S   UNL A   1      41.186  19.904  26.594  1.00  0.00     0.124 S 
ATOM     88  O   UNL A   1      40.890  19.549  27.977  1.00  0.00    -0.237 OA
ATOM     89  O   UNL A   1      40.038  20.247  25.761  1.00  0.00    -0.237 OA
ATOM     90  O   UNL A   1      42.207  19.093  25.937  1.00  0.00    -0.744 OA
ENDBRANCH  86  87
ENDBRANCH  54  79
BRANCH  66  91
ATOM     91  C   UNL A   1      49.507  26.863  26.399  1.00  0.00     0.058 A 
ATOM     92  C   UNL A   1      49.907  26.911  25.053  1.00  0.00     0.135 A 
ATOM     93  C   UNL A   1      50.377  26.261  27.321  1.00  0.00     0.135 A 
ATOM     94  F   UNL A   1      49.107  27.466  24.129  1.00  0.00    -0.206 F 
ATOM     95  C   UNL A   1      51.104  26.343  24.631  1.00  0.00     0.059 A 
ATOM     96  C   UNL A   1      51.594  25.715  26.926  1.00  0.00     0.059 A 
ATOM     97  F   UNL A   1      50.047  26.197  28.620  1.00  0.00    -0.206 F 
ATOM     98  C   UNL A   1      51.940  25.744  25.575  1.00  0.00     0.060 A 
BRANCH  98  99
ATOM     99  S   UNL A   1      53.490  25.010  25.015  1.00  0.00     0.124 S 
ATOM    100  O   UNL A   1      53.165  23.587  25.035  1.00  0.00    -0.237 OA
ATOM    101  O   UNL A   1      53.656  25.603  23.691  1.00  0.00    -0.237 OA
ATOM    102  O   UNL A   1      54.456  25.448  26.018  1.00  0.00    -0.744 OA
ENDBRANCH  98  99
ENDBRANCH  66  91
ENDBRANCH  40  41
ENDBRANCH  33  35
ENDBRANCH  32  33
ENDBRANCH  31  32
ENDBRANCH  30  31
ENDBRANCH  29  30
ENDBRANCH   1  29
TORSDOF 22
ENDMDL
