MODEL 1
REMARK VINA RESULT:     -11.6      0.000      0.000
REMARK SMILES Cc1onc(-c2ccccc2Cl)c1C(=O)N1CCCC[C@@H]1C(=O)OCCOCCOC(=O)c1ccc(-c2c3nc(c(-c4c(F)cc(S(=O)(=O)[O-])cc4F)c4ccc([nH]4)c(-c4c(F)cc(S(=O)(=O)[O-])cc4F)c4nc(c(-c5c(F)cc(S(=O)(=O)[O-])cc5F)c5ccc2[nH]5)C=C4)C=C3)cc1
REMARK SMILES IDX 27 1 26 2 25 3 24 4 22 5 23 6 21 7 16 8 17 9 18 10 20 11
REMARK SMILES IDX 19 12 14 13 15 14 13 15 1 16 2 17 3 18 4 19 5 20 6 21 7 22
REMARK SMILES IDX 11 23 8 24 10 25 12 26 9 27 28 28 29 29 30 30 31 31 32 32
REMARK SMILES IDX 33 33 34 34 98 35 35 36 97 37 36 38 37 39 38 40 91 41 39 42
REMARK SMILES IDX 96 43 90 44 92 45 40 46 95 47 89 48 88 49 41 51 75 52 54 53
REMARK SMILES IDX 74 54 55 55 58 56 73 57 93 58 56 59 57 60 72 62 94 63 59 64
REMARK SMILES IDX 42 65 43 66 52 67 44 68 45 69 51 70 53 71 46 72 47 73 48 74
REMARK SMILES IDX 49 75 50 76 76 77 77 78 86 79 78 80 79 81 85 82 87 83 80 84
REMARK SMILES IDX 81 85 82 86 83 87 84 88 60 89 61 90 70 91 62 92 63 93 69 94
REMARK SMILES IDX 71 95 64 96 65 97 66 98 67 99 68 100
REMARK H PARENT 92 50 58 61
REMARK Flexibility Score: inf
ROOT
ATOM      1  O   UNL A   1      34.864  31.575  27.606  1.00  0.00    -0.374 OA
ENDROOT
BRANCH   1   2
ATOM      2  C   UNL A   1      34.224  30.328  27.353  1.00  0.00     0.202 C 
BRANCH   2   3
ATOM      3  C   UNL A   1      32.699  30.346  27.222  1.00  0.00     0.261 C 
BRANCH   3   4
ATOM      4  O   UNL A   1      32.131  29.079  26.861  1.00  0.00    -0.462 OA
BRANCH   4   5
ATOM      5  C   UNL A   1      31.975  28.878  25.525  1.00  0.00     0.328 C 
ATOM      6  O   UNL A   1      32.404  29.621  24.649  1.00  0.00    -0.250 OA
BRANCH   5   7
ATOM      7  C   UNL A   1      31.173  27.606  25.218  1.00  0.00     0.195 C 
ATOM      8  N   UNL A   1      31.822  26.274  25.283  1.00  0.00    -0.325 N 
ATOM      9  C   UNL A   1      30.881  25.156  25.252  1.00  0.00     0.121 C 
ATOM     10  C   UNL A   1      29.935  25.231  24.053  1.00  0.00     0.022 C 
ATOM     11  C   UNL A   1      30.270  27.721  23.980  1.00  0.00     0.037 C 
ATOM     12  C   UNL A   1      29.239  26.589  23.979  1.00  0.00     0.005 C 
BRANCH   8  13
ATOM     13  C   UNL A   1      33.106  26.027  24.778  1.00  0.00     0.260 C 
ATOM     14  O   UNL A   1      34.112  26.224  25.454  1.00  0.00    -0.269 OA
BRANCH  13  15
ATOM     15  C   UNL A   1      33.213  25.695  23.368  1.00  0.00     0.110 A 
ATOM     16  C   UNL A   1      33.735  28.016  22.183  1.00  0.00     0.092 C 
ATOM     17  C   UNL A   1      33.469  26.568  22.321  1.00  0.00     0.147 A 
ATOM     18  O   UNL A   1      33.534  25.875  21.158  1.00  0.00    -0.360 OA
ATOM     19  N   UNL A   1      33.438  24.532  21.415  1.00  0.00    -0.079 NA
ATOM     20  C   UNL A   1      33.317  24.407  22.747  1.00  0.00     0.128 A 
BRANCH  20  21
ATOM     21  C   UNL A   1      33.416  23.074  23.338  1.00  0.00     0.023 A 
ATOM     22  C   UNL A   1      32.277  22.247  23.248  1.00  0.00     0.012 A 
ATOM     23  C   UNL A   1      34.542  22.592  24.017  1.00  0.00     0.050 A 
ATOM     24  C   UNL A   1      32.261  20.975  23.820  1.00  0.00     0.001 A 
ATOM     25  C   UNL A   1      34.520  21.315  24.595  1.00  0.00     0.021 A 
ATOM     26  Cl  UNL A   1      35.977  23.531  24.224  1.00  0.00    -0.084 Cl
ATOM     27  C   UNL A   1      33.384  20.509  24.497  1.00  0.00     0.002 A 
ENDBRANCH  20  21
ENDBRANCH  13  15
ENDBRANCH   8  13
ENDBRANCH   5   7
ENDBRANCH   4   5
ENDBRANCH   3   4
ENDBRANCH   2   3
ENDBRANCH   1   2
BRANCH   1  28
ATOM     28  C   UNL A   1      34.265  32.458  28.554  1.00  0.00     0.202 C 
BRANCH  28  29
ATOM     29  C   UNL A   1      35.014  32.665  29.872  1.00  0.00     0.261 C 
BRANCH  29  30
ATOM     30  O   UNL A   1      36.364  32.163  29.796  1.00  0.00    -0.460 OA
BRANCH  30  31
ATOM     31  C   UNL A   1      36.633  31.152  30.653  1.00  0.00     0.338 C 
ATOM     32  O   UNL A   1      36.039  30.897  31.694  1.00  0.00    -0.246 OA
BRANCH  31  33
ATOM     33  C   UNL A   1      37.666  30.252  30.112  1.00  0.00     0.060 A 
ATOM     34  C   UNL A   1      38.533  29.646  31.029  1.00  0.00     0.016 A 
ATOM     35  C   UNL A   1      37.889  30.138  28.738  1.00  0.00     0.016 A 
ATOM     36  C   UNL A   1      39.681  29.001  30.580  1.00  0.00     0.010 A 
ATOM     37  C   UNL A   1      39.048  29.494  28.288  1.00  0.00     0.010 A 
ATOM     38  C   UNL A   1      39.976  28.977  29.211  1.00  0.00    -0.014 A 
BRANCH  38  39
ATOM     39  C   UNL A   1      41.347  28.608  28.781  1.00  0.00     0.031 A 
ATOM     40  C   UNL A   1      42.419  29.668  28.806  1.00  0.00     0.074 A 
ATOM     41  C   UNL A   1      41.650  27.346  28.434  1.00  0.00     0.049 A 
ATOM     42  N   UNL A   1      43.685  29.575  28.489  1.00  0.00    -0.248 NA
ATOM     43  C   UNL A   1      42.008  31.010  29.252  1.00  0.00     0.031 C 
ATOM     44  C   UNL A   1      40.711  26.226  28.412  1.00  0.00     0.029 A 
ATOM     45  N   UNL A   1      42.843  26.796  28.038  1.00  0.00    -0.354 N 
ATOM     46  C   UNL A   1      44.219  30.844  28.692  1.00  0.00     0.074 A 
ATOM     47  C   UNL A   1      43.137  31.694  29.135  1.00  0.00     0.031 C 
ATOM     48  C   UNL A   1      41.364  25.121  28.013  1.00  0.00     0.029 A 
ATOM     49  C   UNL A   1      42.760  25.459  27.737  1.00  0.00     0.049 A 
ATOM     50  H   UNL A   1      43.680  27.311  27.977  1.00  0.00     0.167 HD
ATOM     51  C   UNL A   1      45.497  31.261  28.533  1.00  0.00     0.037 A 
ATOM     52  C   UNL A   1      43.700  24.611  27.279  1.00  0.00     0.037 A 
ATOM     53  C   UNL A   1      46.576  30.416  28.097  1.00  0.00     0.049 A 
ATOM     54  C   UNL A   1      45.108  25.104  27.071  1.00  0.00     0.074 A 
ATOM     55  C   UNL A   1      47.907  30.744  27.904  1.00  0.00     0.029 A 
ATOM     56  N   UNL A   1      46.447  29.071  27.784  1.00  0.00    -0.354 N 
ATOM     57  N   UNL A   1      45.600  26.304  27.273  1.00  0.00    -0.248 NA
ATOM     58  C   UNL A   1      46.090  24.128  26.579  1.00  0.00     0.031 C 
ATOM     59  C   UNL A   1      48.576  29.603  27.447  1.00  0.00     0.029 A 
ATOM     60  C   UNL A   1      47.668  28.556  27.388  1.00  0.00     0.049 A 
ATOM     61  H   UNL A   1      45.608  28.557  27.836  1.00  0.00     0.167 HD
ATOM     62  C   UNL A   1      46.952  26.220  26.959  1.00  0.00     0.074 A 
ATOM     63  C   UNL A   1      47.203  24.851  26.556  1.00  0.00     0.031 C 
ATOM     64  C   UNL A   1      47.901  27.188  27.001  1.00  0.00     0.037 A 
BRANCH  51  65
ATOM     65  C   UNL A   1      45.788  32.708  28.816  1.00  0.00     0.058 A 
ATOM     66  C   UNL A   1      46.187  33.144  30.089  1.00  0.00     0.135 A 
ATOM     67  C   UNL A   1      45.676  33.668  27.797  1.00  0.00     0.135 A 
ATOM     68  F   UNL A   1      46.291  32.268  31.101  1.00  0.00    -0.206 F 
ATOM     69  C   UNL A   1      46.436  34.487  30.352  1.00  0.00     0.059 A 
ATOM     70  C   UNL A   1      45.940  35.014  28.033  1.00  0.00     0.059 A 
ATOM     71  F   UNL A   1      45.295  33.303  26.563  1.00  0.00    -0.206 F 
ATOM     72  C   UNL A   1      46.303  35.416  29.317  1.00  0.00     0.060 A 
BRANCH  72  73
ATOM     73  S   UNL A   1      46.615  37.159  29.670  1.00  0.00     0.124 S 
ATOM     74  O   UNL A   1      45.258  37.692  29.724  1.00  0.00    -0.237 OA
ATOM     75  O   UNL A   1      47.324  37.102  30.945  1.00  0.00    -0.237 OA
ATOM     76  O   UNL A   1      47.417  37.596  28.532  1.00  0.00    -0.744 OA
ENDBRANCH  72  73
ENDBRANCH  51  65
BRANCH  52  77
ATOM     77  C   UNL A   1      43.340  23.200  26.986  1.00  0.00     0.058 A 
ATOM     78  C   UNL A   1      43.235  22.736  25.667  1.00  0.00     0.135 A 
ATOM     79  C   UNL A   1      43.109  22.284  28.024  1.00  0.00     0.135 A 
ATOM     80  F   UNL A   1      43.437  23.579  24.642  1.00  0.00    -0.206 F 
ATOM     81  C   UNL A   1      42.910  21.414  25.385  1.00  0.00     0.059 A 
ATOM     82  C   UNL A   1      42.802  20.953  27.768  1.00  0.00     0.059 A 
ATOM     83  F   UNL A   1      43.207  22.679  29.303  1.00  0.00    -0.206 F 
ATOM     84  C   UNL A   1      42.698  20.528  26.444  1.00  0.00     0.060 A 
BRANCH  84  85
ATOM     85  S   UNL A   1      42.348  18.795  26.075  1.00  0.00     0.124 S 
ATOM     86  O   UNL A   1      43.315  18.518  25.019  1.00  0.00    -0.237 OA
ATOM     87  O   UNL A   1      42.599  18.147  27.358  1.00  0.00    -0.237 OA
ATOM     88  O   UNL A   1      40.948  18.821  25.662  1.00  0.00    -0.744 OA
ENDBRANCH  84  85
ENDBRANCH  52  77
BRANCH  64  89
ATOM     89  C   UNL A   1      49.305  26.795  26.638  1.00  0.00     0.058 A 
ATOM     90  C   UNL A   1      49.786  26.915  25.325  1.00  0.00     0.135 A 
ATOM     91  C   UNL A   1      50.193  26.341  27.626  1.00  0.00     0.135 A 
ATOM     92  F   UNL A   1      48.974  27.341  24.344  1.00  0.00    -0.206 F 
ATOM     93  C   UNL A   1      51.096  26.578  24.999  1.00  0.00     0.059 A 
ATOM     94  C   UNL A   1      51.513  26.018  27.327  1.00  0.00     0.059 A 
ATOM     95  F   UNL A   1      49.784  26.221  28.898  1.00  0.00    -0.206 F 
ATOM     96  C   UNL A   1      51.952  26.128  26.007  1.00  0.00     0.060 A 
BRANCH  96  97
ATOM     97  S   UNL A   1      53.659  25.721  25.583  1.00  0.00     0.124 S 
ATOM     98  O   UNL A   1      54.223  27.044  25.335  1.00  0.00    -0.237 OA
ATOM     99  O   UNL A   1      54.132  25.047  26.787  1.00  0.00    -0.237 OA
ATOM    100  O   UNL A   1      53.520  24.866  24.408  1.00  0.00    -0.744 OA
ENDBRANCH  96  97
ENDBRANCH  64  89
ENDBRANCH  38  39
ENDBRANCH  31  33
ENDBRANCH  30  31
ENDBRANCH  29  30
ENDBRANCH  28  29
ENDBRANCH   1  28
TORSDOF 20
ENDMDL
MODEL 2
REMARK VINA RESULT:     -11.4      6.173     11.670
REMARK SMILES Cc1onc(-c2ccccc2Cl)c1C(=O)N1CCCC[C@@H]1C(=O)OCCOCCOC(=O)c1ccc(-c2c3nc(c(-c4c(F)cc(S(=O)(=O)[O-])cc4F)c4ccc([nH]4)c(-c4c(F)cc(S(=O)(=O)[O-])cc4F)c4nc(c(-c5c(F)cc(S(=O)(=O)[O-])cc5F)c5ccc2[nH]5)C=C4)C=C3)cc1
REMARK SMILES IDX 27 1 26 2 25 3 24 4 22 5 23 6 21 7 16 8 17 9 18 10 20 11
REMARK SMILES IDX 19 12 14 13 15 14 13 15 1 16 2 17 3 18 4 19 5 20 6 21 7 22
REMARK SMILES IDX 11 23 8 24 10 25 12 26 9 27 28 28 29 29 30 30 31 31 32 32
REMARK SMILES IDX 33 33 34 34 98 35 35 36 97 37 36 38 37 39 38 40 91 41 39 42
REMARK SMILES IDX 96 43 90 44 92 45 40 46 95 47 89 48 88 49 41 51 75 52 54 53
REMARK SMILES IDX 74 54 55 55 58 56 73 57 93 58 56 59 57 60 72 62 94 63 59 64
REMARK SMILES IDX 42 65 43 66 52 67 44 68 45 69 51 70 53 71 46 72 47 73 48 74
REMARK SMILES IDX 49 75 50 76 76 77 77 78 86 79 78 80 79 81 85 82 87 83 80 84
REMARK SMILES IDX 81 85 82 86 83 87 84 88 60 89 61 90 70 91 62 92 63 93 69 94
REMARK SMILES IDX 71 95 64 96 65 97 66 98 67 99 68 100
REMARK H PARENT 92 50 58 61
REMARK Flexibility Score: inf
ROOT
ATOM      1  O   UNL A   1      39.968  21.801  26.931  1.00  0.00    -0.374 OA
ENDROOT
BRANCH   1   2
ATOM      2  C   UNL A   1      38.879  22.536  26.380  1.00  0.00     0.202 C 
BRANCH   2   3
ATOM      3  C   UNL A   1      38.019  21.818  25.337  1.00  0.00     0.261 C 
BRANCH   3   4
ATOM      4  O   UNL A   1      36.863  22.563  24.924  1.00  0.00    -0.462 OA
BRANCH   4   5
ATOM      5  C   UNL A   1      35.674  22.067  25.356  1.00  0.00     0.328 C 
ATOM      6  O   UNL A   1      35.506  21.468  26.412  1.00  0.00    -0.250 OA
BRANCH   5   7
ATOM      7  C   UNL A   1      34.539  22.323  24.355  1.00  0.00     0.195 C 
ATOM      8  N   UNL A   1      33.973  23.684  24.193  1.00  0.00    -0.325 N 
ATOM      9  C   UNL A   1      33.115  23.831  23.018  1.00  0.00     0.121 C 
ATOM     10  C   UNL A   1      32.003  22.782  22.980  1.00  0.00     0.022 C 
ATOM     11  C   UNL A   1      33.428  21.262  24.386  1.00  0.00     0.037 C 
ATOM     12  C   UNL A   1      32.567  21.370  23.123  1.00  0.00     0.005 C 
BRANCH   8  13
ATOM     13  C   UNL A   1      33.701  24.530  25.276  1.00  0.00     0.260 C 
ATOM     14  O   UNL A   1      34.570  25.245  25.767  1.00  0.00    -0.269 OA
BRANCH  13  15
ATOM     15  C   UNL A   1      32.400  24.404  25.910  1.00  0.00     0.110 A 
ATOM     16  C   UNL A   1      32.728  22.476  27.709  1.00  0.00     0.092 C 
ATOM     17  C   UNL A   1      32.044  23.521  26.917  1.00  0.00     0.147 A 
ATOM     18  O   UNL A   1      30.753  23.734  27.272  1.00  0.00    -0.360 OA
ATOM     19  N   UNL A   1      30.263  24.823  26.599  1.00  0.00    -0.079 NA
ATOM     20  C   UNL A   1      31.266  25.278  25.830  1.00  0.00     0.128 A 
BRANCH  20  21
ATOM     21  C   UNL A   1      31.108  26.568  25.161  1.00  0.00     0.023 A 
ATOM     22  C   UNL A   1      30.665  26.545  23.822  1.00  0.00     0.012 A 
ATOM     23  C   UNL A   1      31.408  27.804  25.746  1.00  0.00     0.050 A 
ATOM     24  C   UNL A   1      30.525  27.722  23.087  1.00  0.00     0.001 A 
ATOM     25  C   UNL A   1      31.271  28.984  25.002  1.00  0.00     0.021 A 
ATOM     26  Cl  UNL A   1      31.996  27.950  27.364  1.00  0.00    -0.084 Cl
ATOM     27  C   UNL A   1      30.832  28.944  23.677  1.00  0.00     0.002 A 
ENDBRANCH  20  21
ENDBRANCH  13  15
ENDBRANCH   8  13
ENDBRANCH   5   7
ENDBRANCH   4   5
ENDBRANCH   3   4
ENDBRANCH   2   3
ENDBRANCH   1   2
BRANCH   1  28
ATOM     28  C   UNL A   1      41.245  22.437  26.994  1.00  0.00     0.202 C 
BRANCH  28  29
ATOM     29  C   UNL A   1      41.690  23.213  25.753  1.00  0.00     0.261 C 
BRANCH  29  30
ATOM     30  O   UNL A   1      42.458  24.381  26.109  1.00  0.00    -0.460 OA
BRANCH  30  31
ATOM     31  C   UNL A   1      41.732  25.518  26.208  1.00  0.00     0.338 C 
ATOM     32  O   UNL A   1      40.978  25.981  25.361  1.00  0.00    -0.246 OA
BRANCH  31  33
ATOM     33  C   UNL A   1      41.826  26.096  27.559  1.00  0.00     0.060 A 
ATOM     34  C   UNL A   1      40.749  25.878  28.426  1.00  0.00     0.016 A 
ATOM     35  C   UNL A   1      42.858  26.969  27.911  1.00  0.00     0.016 A 
ATOM     36  C   UNL A   1      40.651  26.602  29.610  1.00  0.00     0.010 A 
ATOM     37  C   UNL A   1      42.754  27.702  29.099  1.00  0.00     0.010 A 
ATOM     38  C   UNL A   1      41.621  27.564  29.921  1.00  0.00    -0.014 A 
BRANCH  38  39
ATOM     39  C   UNL A   1      41.327  28.559  30.981  1.00  0.00     0.031 A 
ATOM     40  C   UNL A   1      42.182  28.563  32.223  1.00  0.00     0.074 A 
ATOM     41  C   UNL A   1      40.362  29.480  30.821  1.00  0.00     0.049 A 
ATOM     42  N   UNL A   1      42.120  29.343  33.271  1.00  0.00    -0.248 NA
ATOM     43  C   UNL A   1      43.252  27.552  32.288  1.00  0.00     0.031 C 
ATOM     44  C   UNL A   1      39.498  29.604  29.649  1.00  0.00     0.029 A 
ATOM     45  N   UNL A   1      39.952  30.491  31.653  1.00  0.00    -0.354 N 
ATOM     46  C   UNL A   1      43.137  28.917  34.119  1.00  0.00     0.074 A 
ATOM     47  C   UNL A   1      43.783  27.794  33.478  1.00  0.00     0.031 C 
ATOM     48  C   UNL A   1      38.651  30.631  29.841  1.00  0.00     0.029 A 
ATOM     49  C   UNL A   1      38.904  31.224  31.154  1.00  0.00     0.049 A 
ATOM     50  H   UNL A   1      40.370  30.674  32.525  1.00  0.00     0.167 HD
ATOM     51  C   UNL A   1      43.505  29.421  35.321  1.00  0.00     0.037 A 
ATOM     52  C   UNL A   1      38.220  32.247  31.701  1.00  0.00     0.037 A 
ATOM     53  C   UNL A   1      42.866  30.540  35.959  1.00  0.00     0.049 A 
ATOM     54  C   UNL A   1      38.620  32.767  33.057  1.00  0.00     0.074 A 
ATOM     55  C   UNL A   1      43.164  31.126  37.177  1.00  0.00     0.029 A 
ATOM     56  N   UNL A   1      41.795  31.244  35.429  1.00  0.00    -0.354 N 
ATOM     57  N   UNL A   1      39.586  32.359  33.845  1.00  0.00    -0.248 NA
ATOM     58  C   UNL A   1      37.841  33.892  33.595  1.00  0.00     0.031 C 
ATOM     59  C   UNL A   1      42.255  32.167  37.396  1.00  0.00     0.029 A 
ATOM     60  C   UNL A   1      41.413  32.250  36.298  1.00  0.00     0.049 A 
ATOM     61  H   UNL A   1      41.370  31.056  34.561  1.00  0.00     0.167 HD
ATOM     62  C   UNL A   1      39.549  33.192  34.958  1.00  0.00     0.074 A 
ATOM     63  C   UNL A   1      38.466  34.130  34.741  1.00  0.00     0.031 C 
ATOM     64  C   UNL A   1      40.339  33.182  36.060  1.00  0.00     0.037 A 
BRANCH  51  65
ATOM     65  C   UNL A   1      44.643  28.744  36.031  1.00  0.00     0.058 A 
ATOM     66  C   UNL A   1      44.429  27.671  36.910  1.00  0.00     0.135 A 
ATOM     67  C   UNL A   1      45.965  29.167  35.821  1.00  0.00     0.135 A 
ATOM     68  F   UNL A   1      43.182  27.241  37.160  1.00  0.00    -0.206 F 
ATOM     69  C   UNL A   1      45.483  27.060  37.582  1.00  0.00     0.059 A 
ATOM     70  C   UNL A   1      47.037  28.557  36.466  1.00  0.00     0.059 A 
ATOM     71  F   UNL A   1      46.224  30.190  34.992  1.00  0.00    -0.206 F 
ATOM     72  C   UNL A   1      46.784  27.515  37.357  1.00  0.00     0.060 A 
BRANCH  72  73
ATOM     73  S   UNL A   1      48.145  26.725  38.242  1.00  0.00     0.124 S 
ATOM     74  O   UNL A   1      48.821  26.016  37.160  1.00  0.00    -0.237 OA
ATOM     75  O   UNL A   1      48.866  27.865  38.799  1.00  0.00    -0.237 OA
ATOM     76  O   UNL A   1      47.468  25.880  39.220  1.00  0.00    -0.744 OA
ENDBRANCH  72  73
ENDBRANCH  51  65
BRANCH  52  77
ATOM     77  C   UNL A   1      37.082  32.850  30.962  1.00  0.00     0.058 A 
ATOM     78  C   UNL A   1      35.755  32.530  31.285  1.00  0.00     0.135 A 
ATOM     79  C   UNL A   1      37.301  33.774  29.929  1.00  0.00     0.135 A 
ATOM     80  F   UNL A   1      35.497  31.644  32.259  1.00  0.00    -0.206 F 
ATOM     81  C   UNL A   1      34.684  33.101  30.605  1.00  0.00     0.059 A 
ATOM     82  C   UNL A   1      36.247  34.373  29.248  1.00  0.00     0.059 A 
ATOM     83  F   UNL A   1      38.554  34.120  29.590  1.00  0.00    -0.206 F 
ATOM     84  C   UNL A   1      34.940  34.025  29.589  1.00  0.00     0.060 A 
BRANCH  84  85
ATOM     85  S   UNL A   1      33.547  34.818  28.759  1.00  0.00     0.124 S 
ATOM     86  O   UNL A   1      33.213  33.832  27.738  1.00  0.00    -0.237 OA
ATOM     87  O   UNL A   1      32.583  34.968  29.844  1.00  0.00    -0.237 OA
ATOM     88  O   UNL A   1      34.121  36.068  28.270  1.00  0.00    -0.744 OA
ENDBRANCH  84  85
ENDBRANCH  52  77
BRANCH  64  89
ATOM     89  C   UNL A   1      40.089  34.237  37.099  1.00  0.00     0.058 A 
ATOM     90  C   UNL A   1      40.657  35.517  37.000  1.00  0.00     0.135 A 
ATOM     91  C   UNL A   1      39.230  33.980  38.179  1.00  0.00     0.135 A 
ATOM     92  F   UNL A   1      41.488  35.810  35.988  1.00  0.00    -0.206 F 
ATOM     93  C   UNL A   1      40.398  36.500  37.950  1.00  0.00     0.059 A 
ATOM     94  C   UNL A   1      38.941  34.954  39.130  1.00  0.00     0.059 A 
ATOM     95  F   UNL A   1      38.653  32.776  38.312  1.00  0.00    -0.206 F 
ATOM     96  C   UNL A   1      39.541  36.208  39.013  1.00  0.00     0.060 A 
BRANCH  96  97
ATOM     97  S   UNL A   1      39.186  37.499  40.226  1.00  0.00     0.124 S 
ATOM     98  O   UNL A   1      38.201  38.306  39.514  1.00  0.00    -0.237 OA
ATOM     99  O   UNL A   1      38.678  36.735  41.361  1.00  0.00    -0.237 OA
ATOM    100  O   UNL A   1      40.485  38.130  40.436  1.00  0.00    -0.744 OA
ENDBRANCH  96  97
ENDBRANCH  64  89
ENDBRANCH  38  39
ENDBRANCH  31  33
ENDBRANCH  30  31
ENDBRANCH  29  30
ENDBRANCH  28  29
ENDBRANCH   1  28
TORSDOF 20
ENDMDL
MODEL 3
REMARK VINA RESULT:     -11.3      1.191      2.058
REMARK SMILES Cc1onc(-c2ccccc2Cl)c1C(=O)N1CCCC[C@@H]1C(=O)OCCOCCOC(=O)c1ccc(-c2c3nc(c(-c4c(F)cc(S(=O)(=O)[O-])cc4F)c4ccc([nH]4)c(-c4c(F)cc(S(=O)(=O)[O-])cc4F)c4nc(c(-c5c(F)cc(S(=O)(=O)[O-])cc5F)c5ccc2[nH]5)C=C4)C=C3)cc1
REMARK SMILES IDX 27 1 26 2 25 3 24 4 22 5 23 6 21 7 16 8 17 9 18 10 20 11
REMARK SMILES IDX 19 12 14 13 15 14 13 15 1 16 2 17 3 18 4 19 5 20 6 21 7 22
REMARK SMILES IDX 11 23 8 24 10 25 12 26 9 27 28 28 29 29 30 30 31 31 32 32
REMARK SMILES IDX 33 33 34 34 98 35 35 36 97 37 36 38 37 39 38 40 91 41 39 42
REMARK SMILES IDX 96 43 90 44 92 45 40 46 95 47 89 48 88 49 41 51 75 52 54 53
REMARK SMILES IDX 74 54 55 55 58 56 73 57 93 58 56 59 57 60 72 62 94 63 59 64
REMARK SMILES IDX 42 65 43 66 52 67 44 68 45 69 51 70 53 71 46 72 47 73 48 74
REMARK SMILES IDX 49 75 50 76 76 77 77 78 86 79 78 80 79 81 85 82 87 83 80 84
REMARK SMILES IDX 81 85 82 86 83 87 84 88 60 89 61 90 70 91 62 92 63 93 69 94
REMARK SMILES IDX 71 95 64 96 65 97 66 98 67 99 68 100
REMARK H PARENT 92 50 58 61
REMARK Flexibility Score: inf
ROOT
ATOM      1  O   UNL A   1      34.192  30.899  27.258  1.00  0.00    -0.374 OA
ENDROOT
BRANCH   1   2
ATOM      2  C   UNL A   1      32.885  30.571  26.796  1.00  0.00     0.202 C 
BRANCH   2   3
ATOM      3  C   UNL A   1      32.767  29.378  25.845  1.00  0.00     0.261 C 
BRANCH   3   4
ATOM      4  O   UNL A   1      32.256  28.188  26.464  1.00  0.00    -0.462 OA
BRANCH   4   5
ATOM      5  C   UNL A   1      31.446  27.431  25.678  1.00  0.00     0.328 C 
ATOM      6  O   UNL A   1      30.706  27.871  24.805  1.00  0.00    -0.250 OA
BRANCH   5   7
ATOM      7  C   UNL A   1      31.541  25.937  26.013  1.00  0.00     0.195 C 
ATOM      8  N   UNL A   1      32.857  25.254  26.040  1.00  0.00    -0.325 N 
ATOM      9  C   UNL A   1      32.820  23.925  26.649  1.00  0.00     0.121 C 
ATOM     10  C   UNL A   1      31.764  23.024  26.007  1.00  0.00     0.022 C 
ATOM     11  C   UNL A   1      30.482  25.071  25.310  1.00  0.00     0.037 C 
ATOM     12  C   UNL A   1      30.395  23.701  25.989  1.00  0.00     0.005 C 
BRANCH   8  13
ATOM     13  C   UNL A   1      33.849  25.474  25.076  1.00  0.00     0.260 C 
ATOM     14  O   UNL A   1      34.738  26.304  25.246  1.00  0.00    -0.269 OA
BRANCH  13  15
ATOM     15  C   UNL A   1      33.690  24.810  23.793  1.00  0.00     0.110 A 
ATOM     16  C   UNL A   1      32.576  26.651  22.233  1.00  0.00     0.092 C 
ATOM     17  C   UNL A   1      33.142  25.346  22.638  1.00  0.00     0.147 A 
ATOM     18  O   UNL A   1      33.205  24.431  21.640  1.00  0.00    -0.360 OA
ATOM     19  N   UNL A   1      33.889  23.324  22.070  1.00  0.00    -0.079 NA
ATOM     20  C   UNL A   1      34.249  23.569  23.342  1.00  0.00     0.128 A 
BRANCH  20  21
ATOM     21  C   UNL A   1      35.184  22.656  23.995  1.00  0.00     0.023 A 
ATOM     22  C   UNL A   1      36.512  23.106  24.155  1.00  0.00     0.012 A 
ATOM     23  C   UNL A   1      34.858  21.365  24.425  1.00  0.00     0.050 A 
ATOM     24  C   UNL A   1      37.487  22.289  24.726  1.00  0.00     0.001 A 
ATOM     25  C   UNL A   1      35.843  20.545  24.995  1.00  0.00     0.021 A 
ATOM     26  Cl  UNL A   1      33.276  20.694  24.244  1.00  0.00    -0.084 Cl
ATOM     27  C   UNL A   1      37.152  21.005  25.145  1.00  0.00     0.002 A 
ENDBRANCH  20  21
ENDBRANCH  13  15
ENDBRANCH   8  13
ENDBRANCH   5   7
ENDBRANCH   4   5
ENDBRANCH   3   4
ENDBRANCH   2   3
ENDBRANCH   1   2
BRANCH   1  28
ATOM     28  C   UNL A   1      34.317  31.909  28.259  1.00  0.00     0.202 C 
BRANCH  28  29
ATOM     29  C   UNL A   1      35.276  31.617  29.415  1.00  0.00     0.261 C 
BRANCH  29  30
ATOM     30  O   UNL A   1      35.877  30.312  29.287  1.00  0.00    -0.460 OA
BRANCH  30  31
ATOM     31  C   UNL A   1      36.696  29.972  30.307  1.00  0.00     0.338 C 
ATOM     32  O   UNL A   1      36.363  29.499  31.387  1.00  0.00    -0.246 OA
BRANCH  31  33
ATOM     33  C   UNL A   1      38.112  30.091  29.919  1.00  0.00     0.060 A 
ATOM     34  C   UNL A   1      38.406  30.052  28.550  1.00  0.00     0.016 A 
ATOM     35  C   UNL A   1      39.136  30.069  30.868  1.00  0.00     0.016 A 
ATOM     36  C   UNL A   1      39.722  29.897  28.126  1.00  0.00     0.010 A 
ATOM     37  C   UNL A   1      40.459  29.906  30.440  1.00  0.00     0.010 A 
ATOM     38  C   UNL A   1      40.747  29.760  29.071  1.00  0.00    -0.014 A 
BRANCH  38  39
ATOM     39  C   UNL A   1      42.067  29.250  28.625  1.00  0.00     0.031 A 
ATOM     40  C   UNL A   1      43.233  30.205  28.583  1.00  0.00     0.074 A 
ATOM     41  C   UNL A   1      42.244  27.953  28.322  1.00  0.00     0.049 A 
ATOM     42  N   UNL A   1      44.475  29.984  28.240  1.00  0.00    -0.248 NA
ATOM     43  C   UNL A   1      42.958  31.595  28.984  1.00  0.00     0.031 C 
ATOM     44  C   UNL A   1      41.206  26.925  28.366  1.00  0.00     0.029 A 
ATOM     45  N   UNL A   1      43.370  27.280  27.921  1.00  0.00    -0.354 N 
ATOM     46  C   UNL A   1      45.129  31.204  28.381  1.00  0.00     0.074 A 
ATOM     47  C   UNL A   1      44.141  32.167  28.814  1.00  0.00     0.031 C 
ATOM     48  C   UNL A   1      41.743  25.749  27.996  1.00  0.00     0.029 A 
ATOM     49  C   UNL A   1      43.157  25.946  27.674  1.00  0.00     0.049 A 
ATOM     50  H   UNL A   1      44.249  27.712  27.819  1.00  0.00     0.167 HD
ATOM     51  C   UNL A   1      46.435  31.494  28.176  1.00  0.00     0.037 A 
ATOM     52  C   UNL A   1      44.003  24.997  27.229  1.00  0.00     0.037 A 
ATOM     53  C   UNL A   1      47.420  30.537  27.749  1.00  0.00     0.049 A 
ATOM     54  C   UNL A   1      45.444  25.350  26.969  1.00  0.00     0.074 A 
ATOM     55  C   UNL A   1      48.770  30.732  27.512  1.00  0.00     0.029 A 
ATOM     56  N   UNL A   1      47.160  29.199  27.493  1.00  0.00    -0.354 N 
ATOM     57  N   UNL A   1      46.049  26.506  27.112  1.00  0.00    -0.248 NA
ATOM     58  C   UNL A   1      46.319  24.269  26.495  1.00  0.00     0.031 C 
ATOM     59  C   UNL A   1      49.318  29.518  27.086  1.00  0.00     0.029 A 
ATOM     60  C   UNL A   1      48.318  28.559  27.090  1.00  0.00     0.049 A 
ATOM     61  H   UNL A   1      46.279  28.767  27.585  1.00  0.00     0.167 HD
ATOM     62  C   UNL A   1      47.379  26.285  26.771  1.00  0.00     0.074 A 
ATOM     63  C   UNL A   1      47.492  24.884  26.417  1.00  0.00     0.031 C 
ATOM     64  C   UNL A   1      48.413  27.161  26.753  1.00  0.00     0.037 A 
BRANCH  51  65
ATOM     65  C   UNL A   1      46.866  32.917  28.394  1.00  0.00     0.058 A 
ATOM     66  C   UNL A   1      46.893  33.847  27.343  1.00  0.00     0.135 A 
ATOM     67  C   UNL A   1      47.245  33.359  29.671  1.00  0.00     0.135 A 
ATOM     68  F   UNL A   1      46.558  33.470  26.099  1.00  0.00    -0.206 F 
ATOM     69  C   UNL A   1      47.312  35.159  27.544  1.00  0.00     0.059 A 
ATOM     70  C   UNL A   1      47.648  34.671  29.899  1.00  0.00     0.059 A 
ATOM     71  F   UNL A   1      47.239  32.508  30.710  1.00  0.00    -0.206 F 
ATOM     72  C   UNL A   1      47.694  35.559  28.826  1.00  0.00     0.060 A 
BRANCH  72  73
ATOM     73  S   UNL A   1      48.247  37.259  29.076  1.00  0.00     0.124 S 
ATOM     74  O   UNL A   1      47.072  38.012  28.650  1.00  0.00    -0.237 OA
ATOM     75  O   UNL A   1      48.536  37.292  30.507  1.00  0.00    -0.237 OA
ATOM     76  O   UNL A   1      49.413  37.368  28.204  1.00  0.00    -0.744 OA
ENDBRANCH  72  73
ENDBRANCH  51  65
BRANCH  52  77
ATOM     77  C   UNL A   1      43.506  23.616  27.001  1.00  0.00     0.058 A 
ATOM     78  C   UNL A   1      43.243  22.753  28.073  1.00  0.00     0.135 A 
ATOM     79  C   UNL A   1      43.269  23.141  25.702  1.00  0.00     0.135 A 
ATOM     80  F   UNL A   1      43.465  23.160  29.333  1.00  0.00    -0.206 F 
ATOM     81  C   UNL A   1      42.766  21.462  27.868  1.00  0.00     0.059 A 
ATOM     82  C   UNL A   1      42.774  21.862  25.472  1.00  0.00     0.059 A 
ATOM     83  F   UNL A   1      43.497  23.934  24.643  1.00  0.00    -0.206 F 
ATOM     84  C   UNL A   1      42.531  21.027  26.561  1.00  0.00     0.060 A 
BRANCH  84  85
ATOM     85  S   UNL A   1      41.843  19.378  26.301  1.00  0.00     0.124 S 
ATOM     86  O   UNL A   1      42.457  19.000  25.033  1.00  0.00    -0.237 OA
ATOM     87  O   UNL A   1      42.312  18.656  27.479  1.00  0.00    -0.237 OA
ATOM     88  O   UNL A   1      40.404  19.622  26.261  1.00  0.00    -0.744 OA
ENDBRANCH  84  85
ENDBRANCH  52  77
BRANCH  64  89
ATOM     89  C   UNL A   1      49.765  26.627  26.373  1.00  0.00     0.058 A 
ATOM     90  C   UNL A   1      50.226  26.666  25.048  1.00  0.00     0.135 A 
ATOM     91  C   UNL A   1      50.628  26.116  27.356  1.00  0.00     0.135 A 
ATOM     92  F   UNL A   1      49.436  27.141  24.072  1.00  0.00    -0.206 F 
ATOM     93  C   UNL A   1      51.490  26.196  24.706  1.00  0.00     0.059 A 
ATOM     94  C   UNL A   1      51.904  25.660  27.040  1.00  0.00     0.059 A 
ATOM     95  F   UNL A   1      50.238  26.068  28.639  1.00  0.00    -0.206 F 
ATOM     96  C   UNL A   1      52.322  25.693  25.709  1.00  0.00     0.060 A 
BRANCH  96  97
ATOM     97  S   UNL A   1      53.972  25.113  25.263  1.00  0.00     0.124 S 
ATOM     98  O   UNL A   1      53.710  23.719  24.921  1.00  0.00    -0.237 OA
ATOM     99  O   UNL A   1      54.323  25.984  24.146  1.00  0.00    -0.237 OA
ATOM    100  O   UNL A   1      54.746  25.327  26.483  1.00  0.00    -0.744 OA
ENDBRANCH  96  97
ENDBRANCH  64  89
ENDBRANCH  38  39
ENDBRANCH  31  33
ENDBRANCH  30  31
ENDBRANCH  29  30
ENDBRANCH  28  29
ENDBRANCH   1  28
TORSDOF 20
ENDMDL
