MODEL 1
REMARK VINA RESULT:     -10.1      0.000      0.000
REMARK SMILES COCCN1C(=O)C[C@H](C(=O)OCCOCCOC(=O)c2ccc(-c3c4nc(c(-c5c(F)cc(S(=O)(=O)[O-])cc5F)c5ccc([nH]5)c(-c5c(F)cc(S(=O)(=O)[O-])cc5F)c5nc(c(-c6c(F)cc(S(=O)(=O)[O-])cc6F)c6ccc3[nH]6)C=C5)C=C4)cc2)[C@@H]1c1ccccc1N1CCOCC1
REMARK SMILES IDX 15 1 14 2 13 3 12 4 10 5 11 6 9 7 5 8 6 9 87 10 7 11 8 12
REMARK SMILES IDX 4 13 3 14 2 15 1 16 88 17 89 18 93 19 90 20 92 21 91 22
REMARK SMILES IDX 94 23 95 24 99 25 96 26 98 27 97 28 16 29 17 30 18 31 19 32
REMARK SMILES IDX 20 33 21 34 22 35 86 36 23 37 85 38 24 39 25 40 26 41 79 42
REMARK SMILES IDX 27 43 84 44 78 45 80 46 28 47 83 48 77 49 76 50 29 52 63 53
REMARK SMILES IDX 42 54 62 55 43 56 46 57 61 58 81 59 44 60 45 61 60 63 82 64
REMARK SMILES IDX 47 65 30 66 31 67 40 68 32 69 33 70 39 71 41 72 34 73 35 74
REMARK SMILES IDX 36 75 37 76 38 77 64 78 65 79 74 80 66 81 67 82 73 83 75 84
REMARK SMILES IDX 68 85 69 86 70 87 71 88 72 89 48 90 49 91 58 92 50 93 51 94
REMARK SMILES IDX 57 95 59 96 52 97 53 98 54 99 55 100 56 101
REMARK H PARENT 80 51 46 62
REMARK Flexibility Score: inf
ROOT
ATOM      1  O   UNL A   1      32.764  28.627  26.240  1.00  0.00    -0.374 OA
ENDROOT
BRANCH   1   2
ATOM      2  C   UNL A   1      31.622  27.931  26.714  1.00  0.00     0.202 C 
BRANCH   2   3
ATOM      3  C   UNL A   1      30.800  26.958  25.843  1.00  0.00     0.261 C 
BRANCH   3   4
ATOM      4  O   UNL A   1      30.305  25.746  26.405  1.00  0.00    -0.463 OA
BRANCH   4   5
ATOM      5  C   UNL A   1      30.958  24.632  26.001  1.00  0.00     0.312 C 
ATOM      6  O   UNL A   1      30.577  23.885  25.111  1.00  0.00    -0.252 OA
BRANCH   5   7
ATOM      7  C   UNL A   1      32.294  24.455  26.633  1.00  0.00     0.136 C 
ATOM      8  N   UNL A   1      34.524  23.788  26.343  1.00  0.00    -0.332 N 
ATOM      9  C   UNL A   1      33.952  23.036  27.364  1.00  0.00     0.224 C 
ATOM     10  C   UNL A   1      33.544  24.771  25.806  1.00  0.00     0.132 C 
ATOM     11  O   UNL A   1      34.509  22.446  28.274  1.00  0.00    -0.275 OA
ATOM     12  C   UNL A   1      32.482  23.041  27.144  1.00  0.00     0.118 C 
BRANCH   8  13
ATOM     13  C   UNL A   1      35.974  23.952  26.209  1.00  0.00     0.148 C 
BRANCH  13  14
ATOM     14  C   UNL A   1      36.743  22.789  25.542  1.00  0.00     0.181 C 
BRANCH  14  15
ATOM     15  O   UNL A   1      38.152  23.007  25.423  1.00  0.00    -0.383 OA
ATOM     16  C   UNL A   1      38.939  22.181  26.273  1.00  0.00     0.194 C 
ENDBRANCH  14  15
ENDBRANCH  13  14
ENDBRANCH   8  13
BRANCH  10  17
ATOM     17  C   UNL A   1      33.393  24.916  24.295  1.00  0.00    -0.001 A 
ATOM     18  C   UNL A   1      33.496  26.216  23.740  1.00  0.00     0.008 A 
ATOM     19  C   UNL A   1      33.193  23.803  23.407  1.00  0.00     0.042 A 
ATOM     20  C   UNL A   1      33.379  26.454  22.372  1.00  0.00     0.001 A 
ATOM     21  C   UNL A   1      33.070  24.100  22.027  1.00  0.00     0.026 A 
ATOM     22  C   UNL A   1      33.162  25.394  21.514  1.00  0.00     0.002 A 
BRANCH  19  23
ATOM     23  N   UNL A   1      33.222  22.454  23.798  1.00  0.00    -0.367 N 
ATOM     24  C   UNL A   1      32.081  21.540  23.596  1.00  0.00     0.145 C 
ATOM     25  C   UNL A   1      34.511  21.700  23.708  1.00  0.00     0.145 C 
ATOM     26  C   UNL A   1      32.172  20.338  24.565  1.00  0.00     0.181 C 
ATOM     27  C   UNL A   1      34.528  20.489  24.657  1.00  0.00     0.181 C 
ATOM     28  O   UNL A   1      33.408  19.621  24.426  1.00  0.00    -0.378 OA
ENDBRANCH  19  23
ENDBRANCH  10  17
ENDBRANCH   5   7
ENDBRANCH   4   5
ENDBRANCH   3   4
ENDBRANCH   2   3
ENDBRANCH   1   2
BRANCH   1  29
ATOM     29  C   UNL A   1      32.713  30.014  25.949  1.00  0.00     0.202 C 
BRANCH  29  30
ATOM     30  C   UNL A   1      33.090  31.020  27.030  1.00  0.00     0.261 C 
BRANCH  30  31
ATOM     31  O   UNL A   1      33.733  30.406  28.153  1.00  0.00    -0.460 OA
BRANCH  31  32
ATOM     32  C   UNL A   1      34.777  31.114  28.643  1.00  0.00     0.338 C 
ATOM     33  O   UNL A   1      34.740  32.217  29.172  1.00  0.00    -0.246 OA
BRANCH  32  34
ATOM     34  C   UNL A   1      35.991  30.288  28.632  1.00  0.00     0.060 A 
ATOM     35  C   UNL A   1      36.400  29.719  29.846  1.00  0.00     0.016 A 
ATOM     36  C   UNL A   1      36.765  30.158  27.478  1.00  0.00     0.016 A 
ATOM     37  C   UNL A   1      37.624  29.073  29.930  1.00  0.00     0.010 A 
ATOM     38  C   UNL A   1      38.006  29.530  27.570  1.00  0.00     0.010 A 
ATOM     39  C   UNL A   1      38.458  29.037  28.808  1.00  0.00    -0.014 A 
BRANCH  39  40
ATOM     40  C   UNL A   1      39.888  28.714  28.993  1.00  0.00     0.031 A 
ATOM     41  C   UNL A   1      40.786  29.789  29.541  1.00  0.00     0.074 A 
ATOM     42  C   UNL A   1      40.361  27.488  28.716  1.00  0.00     0.049 A 
ATOM     43  N   UNL A   1      42.078  29.774  29.731  1.00  0.00    -0.248 NA
ATOM     44  C   UNL A   1      40.136  31.055  29.925  1.00  0.00     0.031 C 
ATOM     45  C   UNL A   1      39.561  26.362  28.241  1.00  0.00     0.029 A 
ATOM     46  N   UNL A   1      41.637  26.994  28.788  1.00  0.00    -0.354 N 
ATOM     47  C   UNL A   1      42.398  31.028  30.241  1.00  0.00     0.074 A 
ATOM     48  C   UNL A   1      41.171  31.788  30.306  1.00  0.00     0.031 C 
ATOM     49  C   UNL A   1      40.372  25.309  28.043  1.00  0.00     0.029 A 
ATOM     50  C   UNL A   1      41.749  25.701  28.342  1.00  0.00     0.049 A 
ATOM     51  H   UNL A   1      42.399  27.516  29.127  1.00  0.00     0.167 HD
ATOM     52  C   UNL A   1      43.609  31.496  30.623  1.00  0.00     0.037 A 
ATOM     53  C   UNL A   1      42.845  24.938  28.168  1.00  0.00     0.037 A 
ATOM     54  C   UNL A   1      44.820  30.724  30.548  1.00  0.00     0.049 A 
ATOM     55  C   UNL A   1      44.193  25.507  28.529  1.00  0.00     0.074 A 
ATOM     56  C   UNL A   1      46.101  31.094  30.915  1.00  0.00     0.029 A 
ATOM     57  N   UNL A   1      44.900  29.425  30.064  1.00  0.00    -0.354 N 
ATOM     58  N   UNL A   1      44.487  26.690  29.017  1.00  0.00    -0.248 NA
ATOM     59  C   UNL A   1      45.359  24.638  28.318  1.00  0.00     0.031 C 
ATOM     60  C   UNL A   1      46.965  30.041  30.599  1.00  0.00     0.029 A 
ATOM     61  C   UNL A   1      46.213  28.988  30.097  1.00  0.00     0.049 A 
ATOM     62  H   UNL A   1      44.136  28.893  29.744  1.00  0.00     0.167 HD
ATOM     63  C   UNL A   1      45.866  26.695  29.203  1.00  0.00     0.074 A 
ATOM     64  C   UNL A   1      46.345  25.394  28.782  1.00  0.00     0.031 C 
ATOM     65  C   UNL A   1      46.664  27.683  29.681  1.00  0.00     0.037 A 
BRANCH  52  66
ATOM     66  C   UNL A   1      43.684  32.915  31.116  1.00  0.00     0.058 A 
ATOM     67  C   UNL A   1      43.753  34.008  30.235  1.00  0.00     0.135 A 
ATOM     68  C   UNL A   1      43.665  33.188  32.493  1.00  0.00     0.135 A 
ATOM     69  F   UNL A   1      43.796  33.806  28.908  1.00  0.00    -0.206 F 
ATOM     70  C   UNL A   1      43.826  35.316  30.703  1.00  0.00     0.059 A 
ATOM     71  C   UNL A   1      43.707  34.490  32.984  1.00  0.00     0.059 A 
ATOM     72  F   UNL A   1      43.609  32.182  33.381  1.00  0.00    -0.206 F 
ATOM     73  C   UNL A   1      43.801  35.548  32.080  1.00  0.00     0.060 A 
BRANCH  73  74
ATOM     74  S   UNL A   1      43.887  37.251  32.670  1.00  0.00     0.124 S 
ATOM     75  O   UNL A   1      42.796  37.278  33.640  1.00  0.00    -0.237 OA
ATOM     76  O   UNL A   1      45.233  37.319  33.229  1.00  0.00    -0.237 OA
ATOM     77  O   UNL A   1      43.672  38.042  31.463  1.00  0.00    -0.744 OA
ENDBRANCH  73  74
ENDBRANCH  52  66
BRANCH  53  78
ATOM     78  C   UNL A   1      42.712  23.565  27.613  1.00  0.00     0.058 A 
ATOM     79  C   UNL A   1      42.442  22.470  28.444  1.00  0.00     0.135 A 
ATOM     80  C   UNL A   1      42.846  23.323  26.236  1.00  0.00     0.135 A 
ATOM     81  F   UNL A   1      42.316  22.647  29.769  1.00  0.00    -0.206 F 
ATOM     82  C   UNL A   1      42.319  21.181  27.935  1.00  0.00     0.059 A 
ATOM     83  C   UNL A   1      42.699  22.048  25.699  1.00  0.00     0.059 A 
ATOM     84  F   UNL A   1      43.093  24.338  25.394  1.00  0.00    -0.206 F 
ATOM     85  C   UNL A   1      42.444  20.981  26.559  1.00  0.00     0.060 A 
BRANCH  85  86
ATOM     86  S   UNL A   1      42.223  19.313  25.904  1.00  0.00     0.124 S 
ATOM     87  O   UNL A   1      40.777  19.253  25.731  1.00  0.00    -0.237 OA
ATOM     88  O   UNL A   1      43.013  19.362  24.677  1.00  0.00    -0.237 OA
ATOM     89  O   UNL A   1      42.771  18.464  26.959  1.00  0.00    -0.744 OA
ENDBRANCH  85  86
ENDBRANCH  53  78
BRANCH  65  90
ATOM     90  C   UNL A   1      48.133  27.382  29.818  1.00  0.00     0.058 A 
ATOM     91  C   UNL A   1      49.062  27.748  28.832  1.00  0.00     0.135 A 
ATOM     92  C   UNL A   1      48.622  26.771  30.986  1.00  0.00     0.135 A 
ATOM     93  F   UNL A   1      48.648  28.329  27.696  1.00  0.00    -0.206 F 
ATOM     94  C   UNL A   1      50.421  27.493  28.986  1.00  0.00     0.059 A 
ATOM     95  C   UNL A   1      49.980  26.538  31.174  1.00  0.00     0.059 A 
ATOM     96  F   UNL A   1      47.779  26.414  31.967  1.00  0.00    -0.206 F 
ATOM     97  C   UNL A   1      50.871  26.890  30.162  1.00  0.00     0.060 A 
BRANCH  97  98
ATOM     98  S   UNL A   1      52.640  26.594  30.361  1.00  0.00     0.124 S 
ATOM     99  O   UNL A   1      53.028  26.210  29.008  1.00  0.00    -0.237 OA
ATOM    100  O   UNL A   1      53.123  27.894  30.815  1.00  0.00    -0.237 OA
ATOM    101  O   UNL A   1      52.698  25.527  31.356  1.00  0.00    -0.744 OA
ENDBRANCH  97  98
ENDBRANCH  65  90
ENDBRANCH  39  40
ENDBRANCH  32  34
ENDBRANCH  31  32
ENDBRANCH  30  31
ENDBRANCH  29  30
ENDBRANCH   1  29
TORSDOF 22
ENDMDL
MODEL 2
REMARK VINA RESULT:      -9.9      2.604      4.206
REMARK SMILES COCCN1C(=O)C[C@H](C(=O)OCCOCCOC(=O)c2ccc(-c3c4nc(c(-c5c(F)cc(S(=O)(=O)[O-])cc5F)c5ccc([nH]5)c(-c5c(F)cc(S(=O)(=O)[O-])cc5F)c5nc(c(-c6c(F)cc(S(=O)(=O)[O-])cc6F)c6ccc3[nH]6)C=C5)C=C4)cc2)[C@@H]1c1ccccc1N1CCOCC1
REMARK SMILES IDX 15 1 14 2 13 3 12 4 10 5 11 6 9 7 5 8 6 9 87 10 7 11 8 12
REMARK SMILES IDX 4 13 3 14 2 15 1 16 88 17 89 18 93 19 90 20 92 21 91 22
REMARK SMILES IDX 94 23 95 24 99 25 96 26 98 27 97 28 16 29 17 30 18 31 19 32
REMARK SMILES IDX 20 33 21 34 22 35 86 36 23 37 85 38 24 39 25 40 26 41 79 42
REMARK SMILES IDX 27 43 84 44 78 45 80 46 28 47 83 48 77 49 76 50 29 52 63 53
REMARK SMILES IDX 42 54 62 55 43 56 46 57 61 58 81 59 44 60 45 61 60 63 82 64
REMARK SMILES IDX 47 65 30 66 31 67 40 68 32 69 33 70 39 71 41 72 34 73 35 74
REMARK SMILES IDX 36 75 37 76 38 77 64 78 65 79 74 80 66 81 67 82 73 83 75 84
REMARK SMILES IDX 68 85 69 86 70 87 71 88 72 89 48 90 49 91 58 92 50 93 51 94
REMARK SMILES IDX 57 95 59 96 52 97 53 98 54 99 55 100 56 101
REMARK H PARENT 80 51 46 62
REMARK Flexibility Score: inf
ROOT
ATOM      1  O   UNL A   1      33.254  31.006  26.885  1.00  0.00    -0.374 OA
ENDROOT
BRANCH   1   2
ATOM      2  C   UNL A   1      33.401  29.741  26.261  1.00  0.00     0.202 C 
BRANCH   2   3
ATOM      3  C   UNL A   1      32.683  29.352  24.952  1.00  0.00     0.261 C 
BRANCH   3   4
ATOM      4  O   UNL A   1      32.220  28.018  24.763  1.00  0.00    -0.463 OA
BRANCH   4   5
ATOM      5  C   UNL A   1      33.169  27.148  24.347  1.00  0.00     0.312 C 
ATOM      6  O   UNL A   1      34.258  26.998  24.881  1.00  0.00    -0.252 OA
BRANCH   5   7
ATOM      7  C   UNL A   1      32.722  26.250  23.247  1.00  0.00     0.136 C 
ATOM      8  N   UNL A   1      33.155  24.306  22.009  1.00  0.00    -0.332 N 
ATOM      9  C   UNL A   1      33.075  25.392  21.142  1.00  0.00     0.224 C 
ATOM     10  C   UNL A   1      32.912  24.739  23.411  1.00  0.00     0.132 C 
ATOM     11  O   UNL A   1      32.828  25.391  19.948  1.00  0.00    -0.275 OA
ATOM     12  C   UNL A   1      33.384  26.612  21.933  1.00  0.00     0.118 C 
BRANCH   8  13
ATOM     13  C   UNL A   1      32.965  22.926  21.555  1.00  0.00     0.148 C 
BRANCH  13  14
ATOM     14  C   UNL A   1      32.151  21.997  22.484  1.00  0.00     0.181 C 
BRANCH  14  15
ATOM     15  O   UNL A   1      32.029  20.653  22.012  1.00  0.00    -0.383 OA
ATOM     16  C   UNL A   1      32.232  19.666  23.017  1.00  0.00     0.194 C 
ENDBRANCH  14  15
ENDBRANCH  13  14
ENDBRANCH   8  13
BRANCH  10  17
ATOM     17  C   UNL A   1      33.845  24.244  24.511  1.00  0.00    -0.001 A 
ATOM     18  C   UNL A   1      35.241  24.287  24.266  1.00  0.00     0.008 A 
ATOM     19  C   UNL A   1      33.385  23.776  25.791  1.00  0.00     0.042 A 
ATOM     20  C   UNL A   1      36.176  23.864  25.208  1.00  0.00     0.001 A 
ATOM     21  C   UNL A   1      34.377  23.348  26.709  1.00  0.00     0.026 A 
ATOM     22  C   UNL A   1      35.743  23.389  26.431  1.00  0.00     0.002 A 
BRANCH  19  23
ATOM     23  N   UNL A   1      32.050  23.820  26.224  1.00  0.00    -0.367 N 
ATOM     24  C   UNL A   1      31.441  22.753  27.041  1.00  0.00     0.145 C 
ATOM     25  C   UNL A   1      31.441  25.143  26.565  1.00  0.00     0.145 C 
ATOM     26  C   UNL A   1      29.900  22.784  26.912  1.00  0.00     0.181 C 
ATOM     27  C   UNL A   1      29.906  25.104  26.465  1.00  0.00     0.181 C 
ATOM     28  O   UNL A   1      29.351  24.059  27.279  1.00  0.00    -0.378 OA
ENDBRANCH  19  23
ENDBRANCH  10  17
ENDBRANCH   5   7
ENDBRANCH   4   5
ENDBRANCH   3   4
ENDBRANCH   2   3
ENDBRANCH   1   2
BRANCH   1  29
ATOM     29  C   UNL A   1      34.072  31.389  27.978  1.00  0.00     0.202 C 
BRANCH  29  30
ATOM     30  C   UNL A   1      35.301  30.555  28.320  1.00  0.00     0.261 C 
BRANCH  30  31
ATOM     31  O   UNL A   1      36.023  31.074  29.444  1.00  0.00    -0.460 OA
BRANCH  31  32
ATOM     32  C   UNL A   1      36.716  30.136  30.131  1.00  0.00     0.338 C 
ATOM     33  O   UNL A   1      36.261  29.273  30.869  1.00  0.00    -0.246 OA
BRANCH  32  34
ATOM     34  C   UNL A   1      38.126  30.160  29.726  1.00  0.00     0.060 A 
ATOM     35  C   UNL A   1      38.422  29.872  28.386  1.00  0.00     0.016 A 
ATOM     36  C   UNL A   1      39.143  30.360  30.661  1.00  0.00     0.016 A 
ATOM     37  C   UNL A   1      39.740  29.713  27.986  1.00  0.00     0.010 A 
ATOM     38  C   UNL A   1      40.467  30.177  30.263  1.00  0.00     0.010 A 
ATOM     39  C   UNL A   1      40.760  29.800  28.940  1.00  0.00    -0.014 A 
BRANCH  39  40
ATOM     40  C   UNL A   1      42.092  29.251  28.609  1.00  0.00     0.031 A 
ATOM     41  C   UNL A   1      43.260  30.198  28.601  1.00  0.00     0.074 A 
ATOM     42  C   UNL A   1      42.257  27.942  28.361  1.00  0.00     0.049 A 
ATOM     43  N   UNL A   1      44.506  29.975  28.281  1.00  0.00    -0.248 NA
ATOM     44  C   UNL A   1      42.983  31.586  29.009  1.00  0.00     0.031 C 
ATOM     45  C   UNL A   1      41.200  26.934  28.405  1.00  0.00     0.029 A 
ATOM     46  N   UNL A   1      43.381  27.242  28.011  1.00  0.00    -0.354 N 
ATOM     47  C   UNL A   1      45.157  31.195  28.434  1.00  0.00     0.074 A 
ATOM     48  C   UNL A   1      44.166  32.160  28.849  1.00  0.00     0.031 C 
ATOM     49  C   UNL A   1      41.725  25.742  28.073  1.00  0.00     0.029 A 
ATOM     50  C   UNL A   1      43.143  25.914  27.758  1.00  0.00     0.049 A 
ATOM     51  H   UNL A   1      44.275  27.651  27.949  1.00  0.00     0.167 HD
ATOM     52  C   UNL A   1      46.468  31.478  28.246  1.00  0.00     0.037 A 
ATOM     53  C   UNL A   1      43.973  24.959  27.294  1.00  0.00     0.037 A 
ATOM     54  C   UNL A   1      47.440  30.503  27.831  1.00  0.00     0.049 A 
ATOM     55  C   UNL A   1      45.411  25.315  27.020  1.00  0.00     0.074 A 
ATOM     56  C   UNL A   1      48.796  30.675  27.618  1.00  0.00     0.029 A 
ATOM     57  N   UNL A   1      47.157  29.172  27.555  1.00  0.00    -0.354 N 
ATOM     58  N   UNL A   1      46.021  26.468  27.174  1.00  0.00    -0.248 NA
ATOM     59  C   UNL A   1      46.276  24.241  26.513  1.00  0.00     0.031 C 
ATOM     60  C   UNL A   1      49.321  29.464  27.158  1.00  0.00     0.029 A 
ATOM     61  C   UNL A   1      48.307  28.518  27.148  1.00  0.00     0.049 A 
ATOM     62  H   UNL A   1      46.269  28.754  27.637  1.00  0.00     0.167 HD
ATOM     63  C   UNL A   1      47.348  26.249  26.813  1.00  0.00     0.074 A 
ATOM     64  C   UNL A   1      47.450  24.852  26.443  1.00  0.00     0.031 C 
ATOM     65  C   UNL A   1      48.386  27.122  26.793  1.00  0.00     0.037 A 
BRANCH  52  66
ATOM     66  C   UNL A   1      46.911  32.900  28.452  1.00  0.00     0.058 A 
ATOM     67  C   UNL A   1      47.377  33.363  29.694  1.00  0.00     0.135 A 
ATOM     68  C   UNL A   1      46.888  33.810  27.384  1.00  0.00     0.135 A 
ATOM     69  F   UNL A   1      47.400  32.543  30.757  1.00  0.00    -0.206 F 
ATOM     70  C   UNL A   1      47.780  34.683  29.874  1.00  0.00     0.059 A 
ATOM     71  C   UNL A   1      47.314  35.127  27.533  1.00  0.00     0.059 A 
ATOM     72  F   UNL A   1      46.444  33.425  26.176  1.00  0.00    -0.206 F 
ATOM     73  C   UNL A   1      47.747  35.557  28.786  1.00  0.00     0.060 A 
BRANCH  73  74
ATOM     74  S   UNL A   1      48.282  37.263  29.034  1.00  0.00     0.124 S 
ATOM     75  O   UNL A   1      49.004  37.525  27.792  1.00  0.00    -0.237 OA
ATOM     76  O   UNL A   1      47.014  37.968  29.189  1.00  0.00    -0.237 OA
ATOM     77  O   UNL A   1      49.108  37.192  30.235  1.00  0.00    -0.744 OA
ENDBRANCH  73  74
ENDBRANCH  52  66
BRANCH  53  78
ATOM     78  C   UNL A   1      43.458  23.587  27.047  1.00  0.00     0.058 A 
ATOM     79  C   UNL A   1      43.147  23.150  25.752  1.00  0.00     0.135 A 
ATOM     80  C   UNL A   1      43.275  22.679  28.104  1.00  0.00     0.135 A 
ATOM     81  F   UNL A   1      43.296  23.982  24.709  1.00  0.00    -0.206 F 
ATOM     82  C   UNL A   1      42.663  21.869  25.511  1.00  0.00     0.059 A 
ATOM     83  C   UNL A   1      42.819  21.383  27.885  1.00  0.00     0.059 A 
ATOM     84  F   UNL A   1      43.568  23.042  29.362  1.00  0.00    -0.206 F 
ATOM     85  C   UNL A   1      42.507  20.990  26.585  1.00  0.00     0.060 A 
BRANCH  85  86
ATOM     86  S   UNL A   1      41.934  19.311  26.251  1.00  0.00     0.124 S 
ATOM     87  O   UNL A   1      40.492  19.505  26.154  1.00  0.00    -0.237 OA
ATOM     88  O   UNL A   1      42.623  18.997  25.004  1.00  0.00    -0.237 OA
ATOM     89  O   UNL A   1      42.394  18.562  27.418  1.00  0.00    -0.744 OA
ENDBRANCH  85  86
ENDBRANCH  53  78
BRANCH  65  90
ATOM     90  C   UNL A   1      49.737  26.584  26.401  1.00  0.00     0.058 A 
ATOM     91  C   UNL A   1      50.188  26.607  25.073  1.00  0.00     0.135 A 
ATOM     92  C   UNL A   1      50.613  26.092  27.383  1.00  0.00     0.135 A 
ATOM     93  F   UNL A   1      49.390  27.062  24.095  1.00  0.00    -0.206 F 
ATOM     94  C   UNL A   1      51.452  26.137  24.727  1.00  0.00     0.059 A 
ATOM     95  C   UNL A   1      51.892  25.647  27.065  1.00  0.00     0.059 A 
ATOM     96  F   UNL A   1      50.237  26.060  28.671  1.00  0.00    -0.206 F 
ATOM     97  C   UNL A   1      52.297  25.661  25.731  1.00  0.00     0.060 A 
BRANCH  97  98
ATOM     98  S   UNL A   1      53.944  25.082  25.274  1.00  0.00     0.124 S 
ATOM     99  O   UNL A   1      53.669  23.710  24.860  1.00  0.00    -0.237 OA
ATOM    100  O   UNL A   1      54.311  26.005  24.204  1.00  0.00    -0.237 OA
ATOM    101  O   UNL A   1      54.711  25.224  26.508  1.00  0.00    -0.744 OA
ENDBRANCH  97  98
ENDBRANCH  65  90
ENDBRANCH  39  40
ENDBRANCH  32  34
ENDBRANCH  31  32
ENDBRANCH  30  31
ENDBRANCH  29  30
ENDBRANCH   1  29
TORSDOF 22
ENDMDL
MODEL 3
REMARK VINA RESULT:      -9.7      3.005      3.712
REMARK SMILES COCCN1C(=O)C[C@H](C(=O)OCCOCCOC(=O)c2ccc(-c3c4nc(c(-c5c(F)cc(S(=O)(=O)[O-])cc5F)c5ccc([nH]5)c(-c5c(F)cc(S(=O)(=O)[O-])cc5F)c5nc(c(-c6c(F)cc(S(=O)(=O)[O-])cc6F)c6ccc3[nH]6)C=C5)C=C4)cc2)[C@@H]1c1ccccc1N1CCOCC1
REMARK SMILES IDX 15 1 14 2 13 3 12 4 10 5 11 6 9 7 5 8 6 9 87 10 7 11 8 12
REMARK SMILES IDX 4 13 3 14 2 15 1 16 88 17 89 18 93 19 90 20 92 21 91 22
REMARK SMILES IDX 94 23 95 24 99 25 96 26 98 27 97 28 16 29 17 30 18 31 19 32
REMARK SMILES IDX 20 33 21 34 22 35 86 36 23 37 85 38 24 39 25 40 26 41 79 42
REMARK SMILES IDX 27 43 84 44 78 45 80 46 28 47 83 48 77 49 76 50 29 52 63 53
REMARK SMILES IDX 42 54 62 55 43 56 46 57 61 58 81 59 44 60 45 61 60 63 82 64
REMARK SMILES IDX 47 65 30 66 31 67 40 68 32 69 33 70 39 71 41 72 34 73 35 74
REMARK SMILES IDX 36 75 37 76 38 77 64 78 65 79 74 80 66 81 67 82 73 83 75 84
REMARK SMILES IDX 68 85 69 86 70 87 71 88 72 89 48 90 49 91 58 92 50 93 51 94
REMARK SMILES IDX 57 95 59 96 52 97 53 98 54 99 55 100 56 101
REMARK H PARENT 80 51 46 62
REMARK Flexibility Score: inf
ROOT
ATOM      1  O   UNL A   1      32.772  28.512  26.338  1.00  0.00    -0.374 OA
ENDROOT
BRANCH   1   2
ATOM      2  C   UNL A   1      31.741  27.704  26.883  1.00  0.00     0.202 C 
BRANCH   2   3
ATOM      3  C   UNL A   1      30.832  26.797  26.028  1.00  0.00     0.261 C 
BRANCH   3   4
ATOM      4  O   UNL A   1      30.386  25.546  26.545  1.00  0.00    -0.463 OA
BRANCH   4   5
ATOM      5  C   UNL A   1      31.046  24.470  26.056  1.00  0.00     0.312 C 
ATOM      6  O   UNL A   1      30.666  23.789  25.114  1.00  0.00    -0.252 OA
BRANCH   5   7
ATOM      7  C   UNL A   1      32.384  24.256  26.670  1.00  0.00     0.136 C 
ATOM      8  N   UNL A   1      34.605  23.577  26.335  1.00  0.00    -0.332 N 
ATOM      9  C   UNL A   1      34.033  22.793  27.333  1.00  0.00     0.224 C 
ATOM     10  C   UNL A   1      33.631  24.589  25.844  1.00  0.00     0.132 C 
ATOM     11  O   UNL A   1      34.591  22.163  28.215  1.00  0.00    -0.275 OA
ATOM     12  C   UNL A   1      32.561  22.821  27.127  1.00  0.00     0.118 C 
BRANCH   8  13
ATOM     13  C   UNL A   1      36.055  23.730  26.195  1.00  0.00     0.148 C 
BRANCH  13  14
ATOM     14  C   UNL A   1      36.864  22.441  25.919  1.00  0.00     0.181 C 
BRANCH  14  15
ATOM     15  O   UNL A   1      38.269  22.653  25.757  1.00  0.00    -0.383 OA
ATOM     16  C   UNL A   1      38.782  23.739  26.520  1.00  0.00     0.194 C 
ENDBRANCH  14  15
ENDBRANCH  13  14
ENDBRANCH   8  13
BRANCH  10  17
ATOM     17  C   UNL A   1      33.469  24.792  24.341  1.00  0.00    -0.001 A 
ATOM     18  C   UNL A   1      33.582  26.111  23.834  1.00  0.00     0.008 A 
ATOM     19  C   UNL A   1      33.248  23.714  23.414  1.00  0.00     0.042 A 
ATOM     20  C   UNL A   1      33.456  26.401  22.477  1.00  0.00     0.001 A 
ATOM     21  C   UNL A   1      33.117  24.065  22.047  1.00  0.00     0.026 A 
ATOM     22  C   UNL A   1      33.219  25.376  21.582  1.00  0.00     0.002 A 
BRANCH  19  23
ATOM     23  N   UNL A   1      33.266  22.352  23.754  1.00  0.00    -0.367 N 
ATOM     24  C   UNL A   1      32.166  21.430  23.412  1.00  0.00     0.145 C 
ATOM     25  C   UNL A   1      34.571  21.621  23.757  1.00  0.00     0.145 C 
ATOM     26  C   UNL A   1      32.188  20.192  24.338  1.00  0.00     0.181 C 
ATOM     27  C   UNL A   1      34.522  20.374  24.657  1.00  0.00     0.181 C 
ATOM     28  O   UNL A   1      33.445  19.499  24.288  1.00  0.00    -0.378 OA
ENDBRANCH  19  23
ENDBRANCH  10  17
ENDBRANCH   5   7
ENDBRANCH   4   5
ENDBRANCH   3   4
ENDBRANCH   2   3
ENDBRANCH   1   2
BRANCH   1  29
ATOM     29  C   UNL A   1      32.512  29.829  25.881  1.00  0.00     0.202 C 
BRANCH  29  30
ATOM     30  C   UNL A   1      32.556  30.986  26.872  1.00  0.00     0.261 C 
BRANCH  30  31
ATOM     31  O   UNL A   1      33.540  30.799  27.895  1.00  0.00    -0.460 OA
BRANCH  31  32
ATOM     32  C   UNL A   1      34.474  31.777  27.945  1.00  0.00     0.338 C 
ATOM     33  O   UNL A   1      34.279  32.984  27.976  1.00  0.00    -0.246 OA
BRANCH  32  34
ATOM     34  C   UNL A   1      35.803  31.189  28.155  1.00  0.00     0.060 A 
ATOM     35  C   UNL A   1      35.877  29.803  28.343  1.00  0.00     0.016 A 
ATOM     36  C   UNL A   1      36.938  31.994  28.265  1.00  0.00     0.016 A 
ATOM     37  C   UNL A   1      37.079  29.217  28.713  1.00  0.00     0.010 A 
ATOM     38  C   UNL A   1      38.140  31.408  28.660  1.00  0.00     0.010 A 
ATOM     39  C   UNL A   1      38.196  30.030  28.937  1.00  0.00    -0.014 A 
BRANCH  39  40
ATOM     40  C   UNL A   1      39.337  29.478  29.696  1.00  0.00     0.031 A 
ATOM     41  C   UNL A   1      39.676  30.113  31.016  1.00  0.00     0.074 A 
ATOM     42  C   UNL A   1      40.025  28.419  29.238  1.00  0.00     0.049 A 
ATOM     43  N   UNL A   1      40.663  29.855  31.832  1.00  0.00    -0.248 NA
ATOM     44  C   UNL A   1      38.779  31.187  31.478  1.00  0.00     0.031 C 
ATOM     45  C   UNL A   1      39.736  27.695  28.002  1.00  0.00     0.029 A 
ATOM     46  N   UNL A   1      41.117  27.778  29.761  1.00  0.00    -0.354 N 
ATOM     47  C   UNL A   1      40.515  30.742  32.893  1.00  0.00     0.074 A 
ATOM     48  C   UNL A   1      39.360  31.562  32.607  1.00  0.00     0.031 C 
ATOM     49  C   UNL A   1      40.645  26.717  27.851  1.00  0.00     0.029 A 
ATOM     50  C   UNL A   1      41.598  26.774  28.959  1.00  0.00     0.049 A 
ATOM     51  H   UNL A   1      41.517  28.015  30.629  1.00  0.00     0.167 HD
ATOM     52  C   UNL A   1      41.275  30.855  34.007  1.00  0.00     0.037 A 
ATOM     53  C   UNL A   1      42.701  26.012  29.095  1.00  0.00     0.037 A 
ATOM     54  C   UNL A   1      42.423  30.030  34.274  1.00  0.00     0.049 A 
ATOM     55  C   UNL A   1      43.575  26.207  30.306  1.00  0.00     0.074 A 
ATOM     56  C   UNL A   1      43.262  30.051  35.373  1.00  0.00     0.029 A 
ATOM     57  N   UNL A   1      42.898  29.040  33.424  1.00  0.00    -0.354 N 
ATOM     58  N   UNL A   1      43.425  27.042  31.309  1.00  0.00    -0.248 NA
ATOM     59  C   UNL A   1      44.768  25.355  30.408  1.00  0.00     0.031 C 
ATOM     60  C   UNL A   1      44.278  29.114  35.162  1.00  0.00     0.029 A 
ATOM     61  C   UNL A   1      44.035  28.462  33.962  1.00  0.00     0.049 A 
ATOM     62  H   UNL A   1      42.488  28.787  32.566  1.00  0.00     0.167 HD
ATOM     63  C   UNL A   1      44.486  26.793  32.176  1.00  0.00     0.074 A 
ATOM     64  C   UNL A   1      45.263  25.724  31.582  1.00  0.00     0.031 C 
ATOM     65  C   UNL A   1      44.788  27.390  33.356  1.00  0.00     0.037 A 
BRANCH  52  66
ATOM     66  C   UNL A   1      40.911  31.930  34.994  1.00  0.00     0.058 A 
ATOM     67  C   UNL A   1      39.910  31.745  35.962  1.00  0.00     0.135 A 
ATOM     68  C   UNL A   1      41.590  33.159  34.985  1.00  0.00     0.135 A 
ATOM     69  F   UNL A   1      39.212  30.598  36.004  1.00  0.00    -0.206 F 
ATOM     70  C   UNL A   1      39.578  32.748  36.868  1.00  0.00     0.059 A 
ATOM     71  C   UNL A   1      41.296  34.166  35.900  1.00  0.00     0.059 A 
ATOM     72  F   UNL A   1      42.550  33.394  34.076  1.00  0.00    -0.206 F 
ATOM     73  C   UNL A   1      40.279  33.955  36.830  1.00  0.00     0.060 A 
BRANCH  73  74
ATOM     74  S   UNL A   1      39.844  35.244  38.017  1.00  0.00     0.124 S 
ATOM     75  O   UNL A   1      41.072  35.345  38.800  1.00  0.00    -0.237 OA
ATOM     76  O   UNL A   1      39.549  36.379  37.150  1.00  0.00    -0.237 OA
ATOM     77  O   UNL A   1      38.697  34.683  38.724  1.00  0.00    -0.744 OA
ENDBRANCH  73  74
ENDBRANCH  52  66
BRANCH  53  78
ATOM     78  C   UNL A   1      43.043  25.011  28.050  1.00  0.00     0.058 A 
ATOM     79  C   UNL A   1      43.788  25.370  26.919  1.00  0.00     0.135 A 
ATOM     80  C   UNL A   1      42.638  23.671  28.168  1.00  0.00     0.135 A 
ATOM     81  F   UNL A   1      44.191  26.640  26.754  1.00  0.00    -0.206 F 
ATOM     82  C   UNL A   1      44.112  24.441  25.934  1.00  0.00     0.059 A 
ATOM     83  C   UNL A   1      42.974  22.718  27.212  1.00  0.00     0.059 A 
ATOM     84  F   UNL A   1      41.933  23.272  29.237  1.00  0.00    -0.206 F 
ATOM     85  C   UNL A   1      43.704  23.116  26.093  1.00  0.00     0.060 A 
BRANCH  85  86
ATOM     86  S   UNL A   1      44.180  21.908  24.838  1.00  0.00     0.124 S 
ATOM     87  O   UNL A   1      43.773  22.583  23.611  1.00  0.00    -0.237 OA
ATOM     88  O   UNL A   1      45.619  21.793  25.058  1.00  0.00    -0.237 OA
ATOM     89  O   UNL A   1      43.402  20.726  25.198  1.00  0.00    -0.744 OA
ENDBRANCH  85  86
ENDBRANCH  53  78
BRANCH  65  90
ATOM     90  C   UNL A   1      45.984  26.873  34.109  1.00  0.00     0.058 A 
ATOM     91  C   UNL A   1      47.256  27.447  33.967  1.00  0.00     0.135 A 
ATOM     92  C   UNL A   1      45.837  25.822  35.032  1.00  0.00     0.135 A 
ATOM     93  F   UNL A   1      47.453  28.449  33.097  1.00  0.00    -0.206 F 
ATOM     94  C   UNL A   1      48.348  26.980  34.693  1.00  0.00     0.059 A 
ATOM     95  C   UNL A   1      46.907  25.363  35.792  1.00  0.00     0.059 A 
ATOM     96  F   UNL A   1      44.638  25.247  35.217  1.00  0.00    -0.206 F 
ATOM     97  C   UNL A   1      48.162  25.939  35.606  1.00  0.00     0.060 A 
BRANCH  97  98
ATOM     98  S   UNL A   1      49.580  25.365  36.563  1.00  0.00     0.124 S 
ATOM     99  O   UNL A   1      50.246  26.622  36.886  1.00  0.00    -0.237 OA
ATOM    100  O   UNL A   1      48.941  24.679  37.682  1.00  0.00    -0.237 OA
ATOM    101  O   UNL A   1      50.294  24.498  35.629  1.00  0.00    -0.744 OA
ENDBRANCH  97  98
ENDBRANCH  65  90
ENDBRANCH  39  40
ENDBRANCH  32  34
ENDBRANCH  31  32
ENDBRANCH  30  31
ENDBRANCH  29  30
ENDBRANCH   1  29
TORSDOF 22
ENDMDL
