MODEL 1
REMARK VINA RESULT:     -10.2      0.000      0.000
REMARK SMILES CCN(CC)c1ccc(NS(=O)(=O)c2ccc(Cl)s2)cc1C(=O)OCCOCCOC(=O)c1ccc(-c2c3nc(c(-c4c(F)cc(S(=O)(=O)[O-])cc4F)c4ccc([nH]4)c(-c4c(F)cc(S(=O)(=O)[O-])cc4F)c4nc(c(-c5c(F)cc(S(=O)(=O)[O-])cc5F)c5ccc2[nH]5)C=C4)C=C3)cc1
REMARK SMILES IDX 27 1 26 2 25 3 24 4 22 5 23 6 21 7 6 8 7 9 8 10 20 11 9 12
REMARK SMILES IDX 3 13 2 14 1 15 4 16 5 17 10 18 11 20 12 21 13 22 14 23 15 24
REMARK SMILES IDX 19 25 16 26 17 27 18 28 28 29 29 30 30 31 31 32 32 33 33 34
REMARK SMILES IDX 34 35 98 36 35 37 97 38 36 39 37 40 38 41 91 42 39 43 96 44
REMARK SMILES IDX 90 45 92 46 40 47 95 48 89 49 88 50 41 52 75 53 54 54 74 55
REMARK SMILES IDX 55 56 58 57 73 58 93 59 56 60 57 61 72 63 94 64 59 65 42 66
REMARK SMILES IDX 43 67 52 68 44 69 45 70 51 71 53 72 46 73 47 74 48 75 49 76
REMARK SMILES IDX 50 77 76 78 77 79 86 80 78 81 79 82 85 83 87 84 80 85 81 86
REMARK SMILES IDX 82 87 83 88 84 89 60 90 61 91 70 92 62 93 63 94 69 95 71 96
REMARK SMILES IDX 64 97 65 98 66 99 67 100 68 101
REMARK H PARENT 10 19 92 51 58 62
REMARK Flexibility Score: inf
ROOT
ATOM      1  O   UNL A   1      36.962  23.486  24.382  1.00  0.00    -0.374 OA
ENDROOT
BRANCH   1   2
ATOM      2  C   UNL A   1      35.711  24.139  24.599  1.00  0.00     0.202 C 
BRANCH   2   3
ATOM      3  C   UNL A   1      34.795  24.269  23.381  1.00  0.00     0.261 C 
BRANCH   3   4
ATOM      4  O   UNL A   1      33.893  25.384  23.515  1.00  0.00    -0.460 OA
BRANCH   4   5
ATOM      5  C   UNL A   1      32.589  25.070  23.325  1.00  0.00     0.340 C 
ATOM      6  O   UNL A   1      31.952  25.232  22.293  1.00  0.00    -0.246 OA
BRANCH   5   7
ATOM      7  C   UNL A   1      32.017  24.304  24.450  1.00  0.00     0.085 A 
ATOM      8  C   UNL A   1      31.243  24.864  25.480  1.00  0.00     0.051 A 
ATOM      9  C   UNL A   1      30.571  23.954  26.302  1.00  0.00     0.029 A 
ATOM     10  C   UNL A   1      30.800  22.581  26.243  1.00  0.00     0.029 A 
ATOM     11  C   UNL A   1      32.249  22.905  24.387  1.00  0.00     0.044 A 
ATOM     12  C   UNL A   1      31.666  22.039  25.310  1.00  0.00     0.050 A 
BRANCH   8  13
ATOM     13  N   UNL A   1      31.147  26.212  25.775  1.00  0.00    -0.371 N 
BRANCH  13  14
ATOM     14  C   UNL A   1      32.078  26.835  26.716  1.00  0.00     0.113 C 
ATOM     15  C   UNL A   1      31.416  27.974  27.474  1.00  0.00     0.027 C 
ENDBRANCH  13  14
BRANCH  13  16
ATOM     16  C   UNL A   1      30.394  27.088  24.856  1.00  0.00     0.113 C 
ATOM     17  C   UNL A   1      29.120  26.453  24.300  1.00  0.00     0.027 C 
ENDBRANCH  13  16
ENDBRANCH   8  13
BRANCH  12  18
ATOM     18  N   UNL A   1      32.119  20.680  25.402  1.00  0.00    -0.279 N 
ATOM     19  H   UNL A   1      31.711  20.077  26.065  1.00  0.00     0.180 HD
BRANCH  18  20
ATOM     20  S   UNL A   1      33.343  20.093  24.387  1.00  0.00     0.271 S 
ATOM     21  O   UNL A   1      32.881  20.218  23.022  1.00  0.00    -0.200 OA
ATOM     22  O   UNL A   1      34.576  20.726  24.807  1.00  0.00    -0.200 OA
BRANCH  20  23
ATOM     23  C   UNL A   1      33.589  18.350  24.623  1.00  0.00     0.141 A 
ATOM     24  C   UNL A   1      34.460  17.460  24.014  1.00  0.00     0.036 A 
ATOM     25  S   UNL A   1      32.529  17.548  25.709  1.00  0.00    -0.110 S 
ATOM     26  C   UNL A   1      34.148  16.104  24.327  1.00  0.00     0.034 A 
ATOM     27  C   UNL A   1      33.098  16.033  25.205  1.00  0.00     0.094 A 
ATOM     28  Cl  UNL A   1      32.341  14.601  25.775  1.00  0.00    -0.072 Cl
ENDBRANCH  20  23
ENDBRANCH  18  20
ENDBRANCH  12  18
ENDBRANCH   5   7
ENDBRANCH   4   5
ENDBRANCH   3   4
ENDBRANCH   2   3
ENDBRANCH   1   2
BRANCH   1  29
ATOM     29  C   UNL A   1      37.655  22.996  25.526  1.00  0.00     0.202 C 
BRANCH  29  30
ATOM     30  C   UNL A   1      38.246  24.032  26.494  1.00  0.00     0.261 C 
BRANCH  30  31
ATOM     31  O   UNL A   1      39.544  24.537  26.130  1.00  0.00    -0.460 OA
BRANCH  31  32
ATOM     32  C   UNL A   1      40.438  24.569  27.149  1.00  0.00     0.338 C 
ATOM     33  O   UNL A   1      41.370  23.805  27.337  1.00  0.00    -0.246 OA
BRANCH  32  34
ATOM     34  C   UNL A   1      40.207  25.739  28.016  1.00  0.00     0.060 A 
ATOM     35  C   UNL A   1      41.191  26.732  28.072  1.00  0.00     0.016 A 
ATOM     36  C   UNL A   1      39.126  25.762  28.898  1.00  0.00     0.016 A 
ATOM     37  C   UNL A   1      41.117  27.734  29.041  1.00  0.00     0.010 A 
ATOM     38  C   UNL A   1      39.056  26.765  29.873  1.00  0.00     0.010 A 
ATOM     39  C   UNL A   1      40.070  27.736  29.973  1.00  0.00    -0.014 A 
BRANCH  39  40
ATOM     40  C   UNL A   1      40.097  28.677  31.122  1.00  0.00     0.031 A 
ATOM     41  C   UNL A   1      39.159  29.854  31.142  1.00  0.00     0.074 A 
ATOM     42  C   UNL A   1      40.949  28.482  32.146  1.00  0.00     0.049 A 
ATOM     43  N   UNL A   1      39.060  30.820  32.020  1.00  0.00    -0.248 NA
ATOM     44  C   UNL A   1      38.207  29.959  30.025  1.00  0.00     0.031 C 
ATOM     45  C   UNL A   1      41.888  27.367  32.262  1.00  0.00     0.029 A 
ATOM     46  N   UNL A   1      41.166  29.225  33.279  1.00  0.00    -0.354 N 
ATOM     47  C   UNL A   1      38.045  31.651  31.559  1.00  0.00     0.074 A 
ATOM     48  C   UNL A   1      37.574  31.088  30.311  1.00  0.00     0.031 C 
ATOM     49  C   UNL A   1      42.592  27.508  33.397  1.00  0.00     0.029 A 
ATOM     50  C   UNL A   1      42.175  28.736  34.074  1.00  0.00     0.049 A 
ATOM     51  H   UNL A   1      40.648  30.031  33.502  1.00  0.00     0.167 HD
ATOM     52  C   UNL A   1      37.546  32.777  32.126  1.00  0.00     0.037 A 
ATOM     53  C   UNL A   1      42.716  29.231  35.205  1.00  0.00     0.037 A 
ATOM     54  C   UNL A   1      38.005  33.333  33.372  1.00  0.00     0.049 A 
ATOM     55  C   UNL A   1      42.176  30.509  35.792  1.00  0.00     0.074 A 
ATOM     56  C   UNL A   1      37.539  34.453  34.038  1.00  0.00     0.029 A 
ATOM     57  N   UNL A   1      39.039  32.816  34.138  1.00  0.00    -0.354 N 
ATOM     58  N   UNL A   1      41.203  31.271  35.355  1.00  0.00    -0.248 NA
ATOM     59  C   UNL A   1      42.810  30.992  37.027  1.00  0.00     0.031 C 
ATOM     60  C   UNL A   1      38.316  34.635  35.188  1.00  0.00     0.029 A 
ATOM     61  C   UNL A   1      39.240  33.606  35.259  1.00  0.00     0.049 A 
ATOM     62  H   UNL A   1      39.554  32.006  33.918  1.00  0.00     0.167 HD
ATOM     63  C   UNL A   1      41.092  32.310  36.272  1.00  0.00     0.074 A 
ATOM     64  C   UNL A   1      42.092  32.075  37.293  1.00  0.00     0.031 C 
ATOM     65  C   UNL A   1      40.237  33.362  36.270  1.00  0.00     0.037 A 
BRANCH  52  66
ATOM     66  C   UNL A   1      36.450  33.498  31.392  1.00  0.00     0.058 A 
ATOM     67  C   UNL A   1      36.693  34.181  30.190  1.00  0.00     0.135 A 
ATOM     68  C   UNL A   1      35.133  33.471  31.876  1.00  0.00     0.135 A 
ATOM     69  F   UNL A   1      37.938  34.248  29.692  1.00  0.00    -0.206 F 
ATOM     70  C   UNL A   1      35.672  34.830  29.504  1.00  0.00     0.059 A 
ATOM     71  C   UNL A   1      34.092  34.095  31.195  1.00  0.00     0.059 A 
ATOM     72  F   UNL A   1      34.847  32.832  33.021  1.00  0.00    -0.206 F 
ATOM     73  C   UNL A   1      34.374  34.784  30.017  1.00  0.00     0.060 A 
BRANCH  73  74
ATOM     74  S   UNL A   1      33.057  35.628  29.116  1.00  0.00     0.124 S 
ATOM     75  O   UNL A   1      32.482  34.530  28.345  1.00  0.00    -0.237 OA
ATOM     76  O   UNL A   1      32.223  36.151  30.193  1.00  0.00    -0.237 OA
ATOM     77  O   UNL A   1      33.771  36.636  28.336  1.00  0.00    -0.744 OA
ENDBRANCH  73  74
ENDBRANCH  52  66
BRANCH  53  78
ATOM     78  C   UNL A   1      43.848  28.520  35.850  1.00  0.00     0.058 A 
ATOM     79  C   UNL A   1      45.177  28.859  35.559  1.00  0.00     0.135 A 
ATOM     80  C   UNL A   1      43.621  27.492  36.779  1.00  0.00     0.135 A 
ATOM     81  F   UNL A   1      45.442  29.827  34.668  1.00  0.00    -0.206 F 
ATOM     82  C   UNL A   1      46.244  28.200  36.160  1.00  0.00     0.059 A 
ATOM     83  C   UNL A   1      44.670  26.833  37.409  1.00  0.00     0.059 A 
ATOM     84  F   UNL A   1      42.366  27.139  37.098  1.00  0.00    -0.206 F 
ATOM     85  C   UNL A   1      45.980  27.190  37.087  1.00  0.00     0.060 A 
BRANCH  85  86
ATOM     86  S   UNL A   1      47.368  26.382  37.914  1.00  0.00     0.124 S 
ATOM     87  O   UNL A   1      48.490  27.193  37.460  1.00  0.00    -0.237 OA
ATOM     88  O   UNL A   1      47.009  26.515  39.322  1.00  0.00    -0.237 OA
ATOM     89  O   UNL A   1      47.318  25.019  37.390  1.00  0.00    -0.744 OA
ENDBRANCH  85  86
ENDBRANCH  53  78
BRANCH  65  90
ATOM     90  C   UNL A   1      40.321  34.328  37.419  1.00  0.00     0.058 A 
ATOM     91  C   UNL A   1      41.111  35.485  37.350  1.00  0.00     0.135 A 
ATOM     92  C   UNL A   1      39.562  34.120  38.583  1.00  0.00     0.135 A 
ATOM     93  F   UNL A   1      41.860  35.728  36.263  1.00  0.00    -0.206 F 
ATOM     94  C   UNL A   1      41.163  36.394  38.404  1.00  0.00     0.059 A 
ATOM     95  C   UNL A   1      39.581  35.026  39.639  1.00  0.00     0.059 A 
ATOM     96  F   UNL A   1      38.782  33.033  38.695  1.00  0.00    -0.206 F 
ATOM     97  C   UNL A   1      40.394  36.156  39.545  1.00  0.00     0.060 A 
BRANCH  97  98
ATOM     98  S   UNL A   1      40.442  37.356  40.892  1.00  0.00     0.124 S 
ATOM     99  O   UNL A   1      39.060  37.822  40.919  1.00  0.00    -0.237 OA
ATOM    100  O   UNL A   1      40.856  36.538  42.029  1.00  0.00    -0.237 OA
ATOM    101  O   UNL A   1      41.427  38.335  40.441  1.00  0.00    -0.744 OA
ENDBRANCH  97  98
ENDBRANCH  65  90
ENDBRANCH  39  40
ENDBRANCH  32  34
ENDBRANCH  31  32
ENDBRANCH  30  31
ENDBRANCH  29  30
ENDBRANCH   1  29
TORSDOF 23
ENDMDL
MODEL 2
REMARK VINA RESULT:      -9.9      0.693      8.023
REMARK SMILES CCN(CC)c1ccc(NS(=O)(=O)c2ccc(Cl)s2)cc1C(=O)OCCOCCOC(=O)c1ccc(-c2c3nc(c(-c4c(F)cc(S(=O)(=O)[O-])cc4F)c4ccc([nH]4)c(-c4c(F)cc(S(=O)(=O)[O-])cc4F)c4nc(c(-c5c(F)cc(S(=O)(=O)[O-])cc5F)c5ccc2[nH]5)C=C4)C=C3)cc1
REMARK SMILES IDX 27 1 26 2 25 3 24 4 22 5 23 6 21 7 6 8 7 9 8 10 20 11 9 12
REMARK SMILES IDX 3 13 2 14 1 15 4 16 5 17 10 18 11 20 12 21 13 22 14 23 15 24
REMARK SMILES IDX 19 25 16 26 17 27 18 28 28 29 29 30 30 31 31 32 32 33 33 34
REMARK SMILES IDX 34 35 98 36 35 37 97 38 36 39 37 40 38 41 91 42 39 43 96 44
REMARK SMILES IDX 90 45 92 46 40 47 95 48 89 49 88 50 41 52 75 53 54 54 74 55
REMARK SMILES IDX 55 56 58 57 73 58 93 59 56 60 57 61 72 63 94 64 59 65 42 66
REMARK SMILES IDX 43 67 52 68 44 69 45 70 51 71 53 72 46 73 47 74 48 75 49 76
REMARK SMILES IDX 50 77 76 78 77 79 86 80 78 81 79 82 85 83 87 84 80 85 81 86
REMARK SMILES IDX 82 87 83 88 84 89 60 90 61 91 70 92 62 93 63 94 69 95 71 96
REMARK SMILES IDX 64 97 65 98 66 99 67 100 68 101
REMARK H PARENT 10 19 92 51 58 62
REMARK Flexibility Score: inf
ROOT
ATOM      1  O   UNL A   1      37.071  23.284  24.328  1.00  0.00    -0.374 OA
ENDROOT
BRANCH   1   2
ATOM      2  C   UNL A   1      35.895  24.044  24.608  1.00  0.00     0.202 C 
BRANCH   2   3
ATOM      3  C   UNL A   1      34.921  24.235  23.445  1.00  0.00     0.261 C 
BRANCH   3   4
ATOM      4  O   UNL A   1      34.085  25.391  23.641  1.00  0.00    -0.460 OA
BRANCH   4   5
ATOM      5  C   UNL A   1      32.767  25.168  23.422  1.00  0.00     0.340 C 
ATOM      6  O   UNL A   1      32.154  25.421  22.394  1.00  0.00    -0.246 OA
BRANCH   5   7
ATOM      7  C   UNL A   1      32.135  24.381  24.499  1.00  0.00     0.085 A 
ATOM      8  C   UNL A   1      31.301  24.921  25.493  1.00  0.00     0.051 A 
ATOM      9  C   UNL A   1      30.587  23.995  26.259  1.00  0.00     0.029 A 
ATOM     10  C   UNL A   1      30.825  22.624  26.192  1.00  0.00     0.029 A 
ATOM     11  C   UNL A   1      32.377  22.984  24.427  1.00  0.00     0.044 A 
ATOM     12  C   UNL A   1      31.746  22.100  25.301  1.00  0.00     0.050 A 
BRANCH   8  13
ATOM     13  N   UNL A   1      31.182  26.264  25.804  1.00  0.00    -0.371 N 
BRANCH  13  14
ATOM     14  C   UNL A   1      32.247  26.955  26.530  1.00  0.00     0.113 C 
ATOM     15  C   UNL A   1      31.678  27.898  27.578  1.00  0.00     0.027 C 
ENDBRANCH  13  14
BRANCH  13  16
ATOM     16  C   UNL A   1      30.198  27.079  25.064  1.00  0.00     0.113 C 
ATOM     17  C   UNL A   1      30.825  28.145  24.168  1.00  0.00     0.027 C 
ENDBRANCH  13  16
ENDBRANCH   8  13
BRANCH  12  18
ATOM     18  N   UNL A   1      32.199  20.742  25.396  1.00  0.00    -0.279 N 
ATOM     19  H   UNL A   1      31.872  20.172  26.129  1.00  0.00     0.180 HD
BRANCH  18  20
ATOM     20  S   UNL A   1      33.289  20.100  24.267  1.00  0.00     0.271 S 
ATOM     21  O   UNL A   1      32.669  20.180  22.962  1.00  0.00    -0.200 OA
ATOM     22  O   UNL A   1      34.569  20.730  24.514  1.00  0.00    -0.200 OA
BRANCH  20  23
ATOM     23  C   UNL A   1      33.544  18.364  24.540  1.00  0.00     0.141 A 
ATOM     24  C   UNL A   1      34.360  17.448  23.896  1.00  0.00     0.036 A 
ATOM     25  S   UNL A   1      32.566  17.605  25.730  1.00  0.00    -0.110 S 
ATOM     26  C   UNL A   1      34.068  16.105  24.276  1.00  0.00     0.034 A 
ATOM     27  C   UNL A   1      33.087  16.071  25.233  1.00  0.00     0.094 A 
ATOM     28  Cl  UNL A   1      32.370  14.663  25.906  1.00  0.00    -0.072 Cl
ENDBRANCH  20  23
ENDBRANCH  18  20
ENDBRANCH  12  18
ENDBRANCH   5   7
ENDBRANCH   4   5
ENDBRANCH   3   4
ENDBRANCH   2   3
ENDBRANCH   1   2
BRANCH   1  29
ATOM     29  C   UNL A   1      37.837  22.826  25.439  1.00  0.00     0.202 C 
BRANCH  29  30
ATOM     30  C   UNL A   1      38.167  23.845  26.540  1.00  0.00     0.261 C 
BRANCH  30  31
ATOM     31  O   UNL A   1      39.281  24.711  26.257  1.00  0.00    -0.460 OA
BRANCH  31  32
ATOM     32  C   UNL A   1      40.214  24.763  27.241  1.00  0.00     0.338 C 
ATOM     33  O   UNL A   1      41.166  24.016  27.395  1.00  0.00    -0.246 OA
BRANCH  32  34
ATOM     34  C   UNL A   1      39.996  25.931  28.113  1.00  0.00     0.060 A 
ATOM     35  C   UNL A   1      40.922  26.979  28.066  1.00  0.00     0.016 A 
ATOM     36  C   UNL A   1      39.001  25.907  29.092  1.00  0.00     0.016 A 
ATOM     37  C   UNL A   1      40.880  27.992  29.027  1.00  0.00     0.010 A 
ATOM     38  C   UNL A   1      38.964  26.920  30.057  1.00  0.00     0.010 A 
ATOM     39  C   UNL A   1      39.924  27.949  30.052  1.00  0.00    -0.014 A 
BRANCH  39  40
ATOM     40  C   UNL A   1      40.003  28.908  31.184  1.00  0.00     0.031 A 
ATOM     41  C   UNL A   1      41.056  28.723  32.244  1.00  0.00     0.074 A 
ATOM     42  C   UNL A   1      39.145  29.942  31.264  1.00  0.00     0.049 A 
ATOM     43  N   UNL A   1      41.261  29.413  33.337  1.00  0.00    -0.248 NA
ATOM     44  C   UNL A   1      42.003  27.614  32.047  1.00  0.00     0.031 C 
ATOM     45  C   UNL A   1      38.100  30.249  30.291  1.00  0.00     0.029 A 
ATOM     46  N   UNL A   1      39.015  30.920  32.219  1.00  0.00    -0.354 N 
ATOM     47  C   UNL A   1      42.350  28.819  33.964  1.00  0.00     0.074 A 
ATOM     48  C   UNL A   1      42.750  27.697  33.139  1.00  0.00     0.031 C 
ATOM     49  C   UNL A   1      37.423  31.333  30.706  1.00  0.00     0.029 A 
ATOM     50  C   UNL A   1      37.969  31.780  31.986  1.00  0.00     0.049 A 
ATOM     51  H   UNL A   1      39.615  30.998  32.995  1.00  0.00     0.167 HD
ATOM     52  C   UNL A   1      42.967  29.177  35.117  1.00  0.00     0.037 A 
ATOM     53  C   UNL A   1      37.492  32.798  32.731  1.00  0.00     0.037 A 
ATOM     54  C   UNL A   1      42.577  30.297  35.933  1.00  0.00     0.049 A 
ATOM     55  C   UNL A   1      38.163  33.150  34.032  1.00  0.00     0.074 A 
ATOM     56  C   UNL A   1      43.161  30.754  37.103  1.00  0.00     0.029 A 
ATOM     57  N   UNL A   1      41.503  31.135  35.672  1.00  0.00    -0.354 N 
ATOM     58  N   UNL A   1      39.205  32.591  34.599  1.00  0.00    -0.248 NA
ATOM     59  C   UNL A   1      37.594  34.271  34.792  1.00  0.00     0.031 C 
ATOM     60  C   UNL A   1      42.417  31.845  37.568  1.00  0.00     0.029 A 
ATOM     61  C   UNL A   1      41.394  32.092  36.667  1.00  0.00     0.049 A 
ATOM     62  H   UNL A   1      40.907  31.060  34.892  1.00  0.00     0.167 HD
ATOM     63  C   UNL A   1      39.430  33.306  35.771  1.00  0.00     0.074 A 
ATOM     64  C   UNL A   1      38.421  34.343  35.827  1.00  0.00     0.031 C 
ATOM     65  C   UNL A   1      40.387  33.122  36.713  1.00  0.00     0.037 A 
BRANCH  52  66
ATOM     66  C   UNL A   1      44.122  28.335  35.579  1.00  0.00     0.058 A 
ATOM     67  C   UNL A   1      43.942  27.248  36.449  1.00  0.00     0.135 A 
ATOM     68  C   UNL A   1      45.421  28.594  35.112  1.00  0.00     0.135 A 
ATOM     69  F   UNL A   1      42.723  26.967  36.934  1.00  0.00    -0.206 F 
ATOM     70  C   UNL A   1      45.013  26.459  36.857  1.00  0.00     0.059 A 
ATOM     71  C   UNL A   1      46.504  27.805  35.491  1.00  0.00     0.059 A 
ATOM     72  F   UNL A   1      45.648  29.621  34.279  1.00  0.00    -0.206 F 
ATOM     73  C   UNL A   1      46.291  26.748  36.375  1.00  0.00     0.060 A 
BRANCH  73  74
ATOM     74  S   UNL A   1      47.672  25.715  36.910  1.00  0.00     0.124 S 
ATOM     75  O   UNL A   1      47.812  26.119  38.306  1.00  0.00    -0.237 OA
ATOM     76  O   UNL A   1      47.161  24.366  36.689  1.00  0.00    -0.237 OA
ATOM     77  O   UNL A   1      48.762  26.122  36.027  1.00  0.00    -0.744 OA
ENDBRANCH  73  74
ENDBRANCH  52  66
BRANCH  53  78
ATOM     78  C   UNL A   1      36.299  33.551  32.266  1.00  0.00     0.058 A 
ATOM     79  C   UNL A   1      35.076  33.460  32.945  1.00  0.00     0.135 A 
ATOM     80  C   UNL A   1      36.364  34.384  31.138  1.00  0.00     0.135 A 
ATOM     81  F   UNL A   1      34.963  32.667  34.021  1.00  0.00    -0.206 F 
ATOM     82  C   UNL A   1      33.954  34.163  32.520  1.00  0.00     0.059 A 
ATOM     83  C   UNL A   1      35.263  35.114  30.706  1.00  0.00     0.059 A 
ATOM     84  F   UNL A   1      37.516  34.512  30.462  1.00  0.00    -0.206 F 
ATOM     85  C   UNL A   1      34.059  34.991  31.399  1.00  0.00     0.060 A 
BRANCH  85  86
ATOM     86  S   UNL A   1      32.617  35.952  30.889  1.00  0.00     0.124 S 
ATOM     87  O   UNL A   1      31.629  35.544  31.879  1.00  0.00    -0.237 OA
ATOM     88  O   UNL A   1      33.106  37.323  30.999  1.00  0.00    -0.237 OA
ATOM     89  O   UNL A   1      32.377  35.490  29.524  1.00  0.00    -0.744 OA
ENDBRANCH  85  86
ENDBRANCH  53  78
BRANCH  65  90
ATOM     90  C   UNL A   1      40.412  34.076  37.874  1.00  0.00     0.058 A 
ATOM     91  C   UNL A   1      39.612  33.874  39.009  1.00  0.00     0.135 A 
ATOM     92  C   UNL A   1      41.283  35.178  37.874  1.00  0.00     0.135 A 
ATOM     93  F   UNL A   1      38.758  32.840  39.058  1.00  0.00    -0.206 F 
ATOM     94  C   UNL A   1      39.660  34.742  40.096  1.00  0.00     0.059 A 
ATOM     95  C   UNL A   1      41.365  36.046  38.959  1.00  0.00     0.059 A 
ATOM     96  F   UNL A   1      42.077  35.410  36.816  1.00  0.00    -0.206 F 
ATOM     97  C   UNL A   1      40.539  35.826  40.062  1.00  0.00     0.060 A 
BRANCH  97  98
ATOM     98  S   UNL A   1      40.619  36.928  41.490  1.00  0.00     0.124 S 
ATOM     99  O   UNL A   1      40.587  38.239  40.851  1.00  0.00    -0.237 OA
ATOM    100  O   UNL A   1      39.421  36.559  42.239  1.00  0.00    -0.237 OA
ATOM    101  O   UNL A   1      41.883  36.569  42.125  1.00  0.00    -0.744 OA
ENDBRANCH  97  98
ENDBRANCH  65  90
ENDBRANCH  39  40
ENDBRANCH  32  34
ENDBRANCH  31  32
ENDBRANCH  30  31
ENDBRANCH  29  30
ENDBRANCH   1  29
TORSDOF 23
ENDMDL
MODEL 3
REMARK VINA RESULT:      -9.9      5.902     10.139
REMARK SMILES CCN(CC)c1ccc(NS(=O)(=O)c2ccc(Cl)s2)cc1C(=O)OCCOCCOC(=O)c1ccc(-c2c3nc(c(-c4c(F)cc(S(=O)(=O)[O-])cc4F)c4ccc([nH]4)c(-c4c(F)cc(S(=O)(=O)[O-])cc4F)c4nc(c(-c5c(F)cc(S(=O)(=O)[O-])cc5F)c5ccc2[nH]5)C=C4)C=C3)cc1
REMARK SMILES IDX 27 1 26 2 25 3 24 4 22 5 23 6 21 7 6 8 7 9 8 10 20 11 9 12
REMARK SMILES IDX 3 13 2 14 1 15 4 16 5 17 10 18 11 20 12 21 13 22 14 23 15 24
REMARK SMILES IDX 19 25 16 26 17 27 18 28 28 29 29 30 30 31 31 32 32 33 33 34
REMARK SMILES IDX 34 35 98 36 35 37 97 38 36 39 37 40 38 41 91 42 39 43 96 44
REMARK SMILES IDX 90 45 92 46 40 47 95 48 89 49 88 50 41 52 75 53 54 54 74 55
REMARK SMILES IDX 55 56 58 57 73 58 93 59 56 60 57 61 72 63 94 64 59 65 42 66
REMARK SMILES IDX 43 67 52 68 44 69 45 70 51 71 53 72 46 73 47 74 48 75 49 76
REMARK SMILES IDX 50 77 76 78 77 79 86 80 78 81 79 82 85 83 87 84 80 85 81 86
REMARK SMILES IDX 82 87 83 88 84 89 60 90 61 91 70 92 62 93 63 94 69 95 71 96
REMARK SMILES IDX 64 97 65 98 66 99 67 100 68 101
REMARK H PARENT 10 19 92 51 58 62
REMARK Flexibility Score: inf
ROOT
ATOM      1  O   UNL A   1      37.448  21.193  23.815  1.00  0.00    -0.374 OA
ENDROOT
BRANCH   1   2
ATOM      2  C   UNL A   1      37.030  22.490  24.241  1.00  0.00     0.202 C 
BRANCH   2   3
ATOM      3  C   UNL A   1      35.521  22.737  24.276  1.00  0.00     0.261 C 
BRANCH   3   4
ATOM      4  O   UNL A   1      35.184  23.828  25.154  1.00  0.00    -0.460 OA
BRANCH   4   5
ATOM      5  C   UNL A   1      34.254  23.522  26.090  1.00  0.00     0.340 C 
ATOM      6  O   UNL A   1      34.470  23.015  27.182  1.00  0.00    -0.246 OA
BRANCH   5   7
ATOM      7  C   UNL A   1      32.915  24.048  25.757  1.00  0.00     0.085 A 
ATOM      8  C   UNL A   1      31.920  23.318  25.085  1.00  0.00     0.051 A 
ATOM      9  C   UNL A   1      30.640  23.880  25.095  1.00  0.00     0.029 A 
ATOM     10  C   UNL A   1      30.392  25.170  25.561  1.00  0.00     0.029 A 
ATOM     11  C   UNL A   1      32.664  25.361  26.234  1.00  0.00     0.044 A 
ATOM     12  C   UNL A   1      31.403  25.942  26.105  1.00  0.00     0.050 A 
BRANCH   8  13
ATOM     13  N   UNL A   1      32.118  22.145  24.378  1.00  0.00    -0.371 N 
BRANCH  13  14
ATOM     14  C   UNL A   1      32.110  20.854  25.065  1.00  0.00     0.113 C 
ATOM     15  C   UNL A   1      32.841  19.795  24.257  1.00  0.00     0.027 C 
ENDBRANCH  13  14
BRANCH  13  16
ATOM     16  C   UNL A   1      31.929  22.159  22.914  1.00  0.00     0.113 C 
ATOM     17  C   UNL A   1      32.870  23.111  22.177  1.00  0.00     0.027 C 
ENDBRANCH  13  16
ENDBRANCH   8  13
BRANCH  12  18
ATOM     18  N   UNL A   1      31.236  27.347  26.341  1.00  0.00    -0.279 N 
ATOM     19  H   UNL A   1      30.695  27.649  27.107  1.00  0.00     0.180 HD
BRANCH  18  20
ATOM     20  S   UNL A   1      31.954  28.499  25.325  1.00  0.00     0.271 S 
ATOM     21  O   UNL A   1      32.714  27.787  24.321  1.00  0.00    -0.200 OA
ATOM     22  O   UNL A   1      30.911  29.427  24.939  1.00  0.00    -0.200 OA
BRANCH  20  23
ATOM     23  C   UNL A   1      33.159  29.464  26.203  1.00  0.00     0.141 A 
ATOM     24  C   UNL A   1      34.441  29.156  26.629  1.00  0.00     0.036 A 
ATOM     25  S   UNL A   1      32.679  31.025  26.733  1.00  0.00    -0.110 S 
ATOM     26  C   UNL A   1      34.964  30.141  27.518  1.00  0.00     0.034 A 
ATOM     27  C   UNL A   1      34.079  31.177  27.675  1.00  0.00     0.094 A 
ATOM     28  Cl  UNL A   1      34.265  32.526  28.722  1.00  0.00    -0.072 Cl
ENDBRANCH  20  23
ENDBRANCH  18  20
ENDBRANCH  12  18
ENDBRANCH   5   7
ENDBRANCH   4   5
ENDBRANCH   3   4
ENDBRANCH   2   3
ENDBRANCH   1   2
BRANCH   1  29
ATOM     29  C   UNL A   1      37.916  20.292  24.815  1.00  0.00     0.202 C 
BRANCH  29  30
ATOM     30  C   UNL A   1      38.464  20.899  26.115  1.00  0.00     0.261 C 
BRANCH  30  31
ATOM     31  O   UNL A   1      39.709  21.608  25.981  1.00  0.00    -0.460 OA
BRANCH  31  32
ATOM     32  C   UNL A   1      40.485  21.594  27.094  1.00  0.00     0.338 C 
ATOM     33  O   UNL A   1      41.015  20.625  27.611  1.00  0.00    -0.246 OA
BRANCH  32  34
ATOM     34  C   UNL A   1      40.702  22.960  27.602  1.00  0.00     0.060 A 
ATOM     35  C   UNL A   1      40.134  24.030  26.900  1.00  0.00     0.016 A 
ATOM     36  C   UNL A   1      41.604  23.193  28.641  1.00  0.00     0.016 A 
ATOM     37  C   UNL A   1      40.499  25.341  27.212  1.00  0.00     0.010 A 
ATOM     38  C   UNL A   1      41.972  24.509  28.949  1.00  0.00     0.010 A 
ATOM     39  C   UNL A   1      41.450  25.588  28.213  1.00  0.00    -0.014 A 
BRANCH  39  40
ATOM     40  C   UNL A   1      41.985  26.960  28.408  1.00  0.00     0.031 A 
ATOM     41  C   UNL A   1      43.415  27.259  28.044  1.00  0.00     0.074 A 
ATOM     42  C   UNL A   1      41.202  27.936  28.902  1.00  0.00     0.049 A 
ATOM     43  N   UNL A   1      44.091  28.370  28.186  1.00  0.00    -0.248 NA
ATOM     44  C   UNL A   1      44.186  26.160  27.441  1.00  0.00     0.031 C 
ATOM     45  C   UNL A   1      39.795  27.785  29.268  1.00  0.00     0.029 A 
ATOM     46  N   UNL A   1      41.486  29.248  29.190  1.00  0.00    -0.354 N 
ATOM     47  C   UNL A   1      45.367  28.105  27.701  1.00  0.00     0.074 A 
ATOM     48  C   UNL A   1      45.378  26.719  27.281  1.00  0.00     0.031 C 
ATOM     49  C   UNL A   1      39.341  28.956  29.746  1.00  0.00     0.029 A 
ATOM     50  C   UNL A   1      40.432  29.930  29.747  1.00  0.00     0.049 A 
ATOM     51  H   UNL A   1      42.362  29.660  29.013  1.00  0.00     0.167 HD
ATOM     52  C   UNL A   1      46.431  28.940  27.607  1.00  0.00     0.037 A 
ATOM     53  C   UNL A   1      40.359  31.189  30.224  1.00  0.00     0.037 A 
ATOM     54  C   UNL A   1      46.420  30.321  28.015  1.00  0.00     0.049 A 
ATOM     55  C   UNL A   1      41.567  32.085  30.153  1.00  0.00     0.074 A 
ATOM     56  C   UNL A   1      47.441  31.251  27.930  1.00  0.00     0.029 A 
ATOM     57  N   UNL A   1      45.337  30.970  28.589  1.00  0.00    -0.354 N 
ATOM     58  N   UNL A   1      42.759  31.825  29.673  1.00  0.00    -0.248 NA
ATOM     59  C   UNL A   1      41.418  33.446  30.688  1.00  0.00     0.031 C 
ATOM     60  C   UNL A   1      46.988  32.453  28.488  1.00  0.00     0.029 A 
ATOM     61  C   UNL A   1      45.672  32.282  28.883  1.00  0.00     0.049 A 
ATOM     62  H   UNL A   1      44.459  30.559  28.761  1.00  0.00     0.167 HD
ATOM     63  C   UNL A   1      43.495  32.995  29.826  1.00  0.00     0.074 A 
ATOM     64  C   UNL A   1      42.612  33.967  30.437  1.00  0.00     0.031 C 
ATOM     65  C   UNL A   1      44.785  33.242  29.489  1.00  0.00     0.037 A 
BRANCH  52  66
ATOM     66  C   UNL A   1      47.710  28.377  27.056  1.00  0.00     0.058 A 
ATOM     67  C   UNL A   1      47.893  28.172  25.680  1.00  0.00     0.135 A 
ATOM     68  C   UNL A   1      48.782  28.077  27.912  1.00  0.00     0.135 A 
ATOM     69  F   UNL A   1      46.895  28.430  24.820  1.00  0.00    -0.206 F 
ATOM     70  C   UNL A   1      49.087  27.669  25.172  1.00  0.00     0.059 A 
ATOM     71  C   UNL A   1      49.993  27.593  27.424  1.00  0.00     0.059 A 
ATOM     72  F   UNL A   1      48.659  28.254  29.236  1.00  0.00    -0.206 F 
ATOM     73  C   UNL A   1      50.130  27.380  26.053  1.00  0.00     0.060 A 
BRANCH  73  74
ATOM     74  S   UNL A   1      51.676  26.731  25.382  1.00  0.00     0.124 S 
ATOM     75  O   UNL A   1      51.645  27.257  24.021  1.00  0.00    -0.237 OA
ATOM     76  O   UNL A   1      52.676  27.319  26.267  1.00  0.00    -0.237 OA
ATOM     77  O   UNL A   1      51.515  25.284  25.500  1.00  0.00    -0.744 OA
ENDBRANCH  73  74
ENDBRANCH  52  66
BRANCH  53  78
ATOM     78  C   UNL A   1      39.092  31.673  30.829  1.00  0.00     0.058 A 
ATOM     79  C   UNL A   1      38.796  31.433  32.178  1.00  0.00     0.135 A 
ATOM     80  C   UNL A   1      38.157  32.394  30.070  1.00  0.00     0.135 A 
ATOM     81  F   UNL A   1      39.654  30.738  32.940  1.00  0.00    -0.206 F 
ATOM     82  C   UNL A   1      37.613  31.884  32.754  1.00  0.00     0.059 A 
ATOM     83  C   UNL A   1      36.978  32.874  30.628  1.00  0.00     0.059 A 
ATOM     84  F   UNL A   1      38.401  32.658  28.777  1.00  0.00    -0.206 F 
ATOM     85  C   UNL A   1      36.711  32.608  31.970  1.00  0.00     0.060 A 
BRANCH  85  86
ATOM     86  S   UNL A   1      35.207  33.247  32.740  1.00  0.00     0.124 S 
ATOM     87  O   UNL A   1      35.235  34.642  32.320  1.00  0.00    -0.237 OA
ATOM     88  O   UNL A   1      34.173  32.416  32.132  1.00  0.00    -0.237 OA
ATOM     89  O   UNL A   1      35.434  33.008  34.163  1.00  0.00    -0.744 OA
ENDBRANCH  85  86
ENDBRANCH  53  78
BRANCH  65  90
ATOM     90  C   UNL A   1      45.317  34.625  29.746  1.00  0.00     0.058 A 
ATOM     91  C   UNL A   1      45.187  35.651  28.797  1.00  0.00     0.135 A 
ATOM     92  C   UNL A   1      45.917  34.941  30.976  1.00  0.00     0.135 A 
ATOM     93  F   UNL A   1      44.626  35.400  27.604  1.00  0.00    -0.206 F 
ATOM     94  C   UNL A   1      45.653  36.938  29.051  1.00  0.00     0.059 A 
ATOM     95  C   UNL A   1      46.370  36.226  31.260  1.00  0.00     0.059 A 
ATOM     96  F   UNL A   1      46.056  33.997  31.921  1.00  0.00    -0.206 F 
ATOM     97  C   UNL A   1      46.244  37.216  30.285  1.00  0.00     0.060 A 
BRANCH  97  98
ATOM     98  S   UNL A   1      46.815  38.896  30.617  1.00  0.00     0.124 S 
ATOM     99  O   UNL A   1      45.668  39.463  31.318  1.00  0.00    -0.237 OA
ATOM    100  O   UNL A   1      48.006  38.668  31.432  1.00  0.00    -0.237 OA
ATOM    101  O   UNL A   1      47.069  39.438  29.286  1.00  0.00    -0.744 OA
ENDBRANCH  97  98
ENDBRANCH  65  90
ENDBRANCH  39  40
ENDBRANCH  32  34
ENDBRANCH  31  32
ENDBRANCH  30  31
ENDBRANCH  29  30
ENDBRANCH   1  29
TORSDOF 23
ENDMDL
