MODEL 1
REMARK VINA RESULT:     -12.4      0.000      0.000
REMARK SMILES CS(=O)(=O)c1ccc(C2=NN(c3ccc(C(=O)OCCOCCOC(=O)c4ccc(-c5c6nc(c(-c7c(F)cc(S(=O)(=O)[O-])cc7F)c7ccc([nH]7)c(-c7c(F)cc(S(=O)(=O)[O-])cc7F)c7nc(c(-c8c(F)cc(S(=O)(=O)[O-])cc8F)c8ccc5[nH]8)C=C7)C=C6)cc4)cc3)[C@H](c3ccc(F)cc3)C2)cc1
REMARK SMILES IDX 21 1 20 2 19 3 18 4 16 5 17 6 15 7 12 8 13 9 94 10 14 11
REMARK SMILES IDX 93 12 11 13 9 14 10 15 103 16 95 17 8 18 5 19 6 20 105 21
REMARK SMILES IDX 7 22 104 23 2 24 1 25 3 26 4 27 96 28 97 29 102 30 98 31
REMARK SMILES IDX 101 32 99 33 100 34 22 35 23 36 24 37 25 38 26 39 27 40
REMARK SMILES IDX 28 41 92 42 29 43 91 44 30 45 31 46 32 47 85 48 33 49 90 50
REMARK SMILES IDX 84 51 86 52 34 53 89 54 83 55 82 56 35 58 69 59 48 60 68 61
REMARK SMILES IDX 49 62 52 63 67 64 87 65 50 66 51 67 66 69 88 70 53 71 36 72
REMARK SMILES IDX 37 73 46 74 38 75 39 76 45 77 47 78 40 79 41 80 42 81 43 82
REMARK SMILES IDX 44 83 70 84 71 85 80 86 72 87 73 88 79 89 81 90 74 91 75 92
REMARK SMILES IDX 76 93 77 94 78 95 54 96 55 97 64 98 56 99 57 100 63 101
REMARK SMILES IDX 65 102 58 103 59 104 60 105 61 106 62 107
REMARK H PARENT 86 57 52 68
REMARK Flexibility Score: inf
ROOT
ATOM      1  O   UNL A   1      34.848  34.555  29.908  1.00  0.00    -0.374 OA
ENDROOT
BRANCH   1   2
ATOM      2  C   UNL A   1      33.634  34.138  29.279  1.00  0.00     0.202 C 
BRANCH   2   3
ATOM      3  C   UNL A   1      33.785  33.503  27.894  1.00  0.00     0.261 C 
BRANCH   3   4
ATOM      4  O   UNL A   1      33.347  32.134  27.914  1.00  0.00    -0.460 OA
BRANCH   4   5
ATOM      5  C   UNL A   1      34.297  31.212  27.646  1.00  0.00     0.338 C 
ATOM      6  O   UNL A   1      35.500  31.317  27.850  1.00  0.00    -0.246 OA
BRANCH   5   7
ATOM      7  C   UNL A   1      33.674  29.953  27.164  1.00  0.00     0.060 A 
ATOM      8  C   UNL A   1      32.595  27.590  26.089  1.00  0.00     0.060 A 
ATOM      9  C   UNL A   1      33.968  27.843  26.005  1.00  0.00     0.029 A 
ATOM     10  C   UNL A   1      31.788  28.486  26.804  1.00  0.00     0.029 A 
ATOM     11  C   UNL A   1      34.504  29.019  26.529  1.00  0.00     0.018 A 
ATOM     12  C   UNL A   1      32.315  29.666  27.335  1.00  0.00     0.018 A 
BRANCH   8  13
ATOM     13  N   UNL A   1      32.005  26.542  25.366  1.00  0.00    -0.257 N 
ATOM     14  C   UNL A   1      32.312  24.581  24.572  1.00  0.00     0.071 C 
ATOM     15  N   UNL A   1      32.351  25.260  25.674  1.00  0.00    -0.176 NA
ATOM     16  C   UNL A   1      32.024  25.361  23.322  1.00  0.00     0.091 C 
ATOM     17  C   UNL A   1      31.829  26.763  23.916  1.00  0.00     0.144 C 
BRANCH  14  18
ATOM     18  C   UNL A   1      32.508  23.122  24.537  1.00  0.00    -0.002 A 
ATOM     19  C   UNL A   1      32.875  20.360  24.583  1.00  0.00     0.067 A 
ATOM     20  C   UNL A   1      33.128  21.106  25.735  1.00  0.00     0.021 A 
ATOM     21  C   UNL A   1      32.451  20.992  23.404  1.00  0.00     0.021 A 
ATOM     22  C   UNL A   1      32.956  22.492  25.705  1.00  0.00     0.011 A 
ATOM     23  C   UNL A   1      32.256  22.376  23.384  1.00  0.00     0.011 A 
BRANCH  19  24
ATOM     24  S   UNL A   1      33.082  18.595  24.543  1.00  0.00     0.175 S 
ATOM     25  C   UNL A   1      32.379  18.014  23.025  1.00  0.00     0.163 C 
ATOM     26  O   UNL A   1      32.273  18.061  25.622  1.00  0.00    -0.224 OA
ATOM     27  O   UNL A   1      34.512  18.355  24.491  1.00  0.00    -0.224 OA
ENDBRANCH  19  24
ENDBRANCH  14  18
BRANCH  17  28
ATOM     28  C   UNL A   1      30.516  27.481  23.638  1.00  0.00    -0.023 A 
ATOM     29  C   UNL A   1      30.431  28.713  22.970  1.00  0.00     0.009 A 
ATOM     30  C   UNL A   1      29.311  26.833  23.991  1.00  0.00     0.009 A 
ATOM     31  C   UNL A   1      29.185  29.274  22.667  1.00  0.00     0.039 A 
ATOM     32  C   UNL A   1      28.070  27.375  23.654  1.00  0.00     0.039 A 
ATOM     33  C   UNL A   1      28.019  28.594  22.999  1.00  0.00     0.123 A 
ATOM     34  F   UNL A   1      26.832  29.119  22.669  1.00  0.00    -0.207 F 
ENDBRANCH  17  28
ENDBRANCH   8  13
ENDBRANCH   5   7
ENDBRANCH   4   5
ENDBRANCH   3   4
ENDBRANCH   2   3
ENDBRANCH   1   2
BRANCH   1  35
ATOM     35  C   UNL A   1      35.194  33.912  31.135  1.00  0.00     0.202 C 
BRANCH  35  36
ATOM     36  C   UNL A   1      35.363  32.390  31.083  1.00  0.00     0.261 C 
BRANCH  36  37
ATOM     37  O   UNL A   1      36.746  32.000  31.005  1.00  0.00    -0.460 OA
BRANCH  37  38
ATOM     38  C   UNL A   1      37.013  30.764  31.487  1.00  0.00     0.338 C 
ATOM     39  O   UNL A   1      36.335  30.119  32.275  1.00  0.00    -0.246 OA
BRANCH  38  40
ATOM     40  C   UNL A   1      38.184  30.190  30.797  1.00  0.00     0.060 A 
ATOM     41  C   UNL A   1      39.180  29.611  31.595  1.00  0.00     0.016 A 
ATOM     42  C   UNL A   1      38.344  30.274  29.412  1.00  0.00     0.016 A 
ATOM     43  C   UNL A   1      40.364  29.164  31.015  1.00  0.00     0.010 A 
ATOM     44  C   UNL A   1      39.538  29.829  28.834  1.00  0.00     0.010 A 
ATOM     45  C   UNL A   1      40.568  29.305  29.637  1.00  0.00    -0.014 A 
BRANCH  45  46
ATOM     46  C   UNL A   1      41.911  29.037  29.066  1.00  0.00     0.031 A 
ATOM     47  C   UNL A   1      42.222  27.659  28.546  1.00  0.00     0.074 A 
ATOM     48  C   UNL A   1      42.829  30.017  28.978  1.00  0.00     0.049 A 
ATOM     49  N   UNL A   1      43.329  27.202  28.021  1.00  0.00    -0.248 NA
ATOM     50  C   UNL A   1      41.140  26.665  28.629  1.00  0.00     0.031 C 
ATOM     51  C   UNL A   1      42.632  31.399  29.416  1.00  0.00     0.029 A 
ATOM     52  N   UNL A   1      44.112  29.996  28.493  1.00  0.00    -0.354 N 
ATOM     53  C   UNL A   1      43.081  25.869  27.716  1.00  0.00     0.074 A 
ATOM     54  C   UNL A   1      41.728  25.582  28.142  1.00  0.00     0.031 C 
ATOM     55  C   UNL A   1      43.760  32.092  29.187  1.00  0.00     0.029 A 
ATOM     56  C   UNL A   1      44.765  31.200  28.612  1.00  0.00     0.049 A 
ATOM     57  H   UNL A   1      44.525  29.196  28.097  1.00  0.00     0.167 HD
ATOM     58  C   UNL A   1      43.902  24.968  27.123  1.00  0.00     0.037 A 
ATOM     59  C   UNL A   1      46.034  31.536  28.308  1.00  0.00     0.037 A 
ATOM     60  C   UNL A   1      45.246  25.258  26.700  1.00  0.00     0.049 A 
ATOM     61  C   UNL A   1      46.948  30.502  27.703  1.00  0.00     0.074 A 
ATOM     62  C   UNL A   1      46.153  24.417  26.076  1.00  0.00     0.029 A 
ATOM     63  N   UNL A   1      45.882  26.481  26.860  1.00  0.00    -0.354 N 
ATOM     64  N   UNL A   1      46.692  29.251  27.400  1.00  0.00    -0.248 NA
ATOM     65  C   UNL A   1      48.321  30.926  27.395  1.00  0.00     0.031 C 
ATOM     66  C   UNL A   1      47.351  25.119  25.900  1.00  0.00     0.029 A 
ATOM     67  C   UNL A   1      47.175  26.412  26.368  1.00  0.00     0.049 A 
ATOM     68  H   UNL A   1      45.474  27.280  27.265  1.00  0.00     0.167 HD
ATOM     69  C   UNL A   1      47.863  28.747  26.840  1.00  0.00     0.074 A 
ATOM     70  C   UNL A   1      48.824  29.832  26.838  1.00  0.00     0.031 C 
ATOM     71  C   UNL A   1      48.118  27.503  26.368  1.00  0.00     0.037 A 
BRANCH  58  72
ATOM     72  C   UNL A   1      43.373  23.574  26.921  1.00  0.00     0.058 A 
ATOM     73  C   UNL A   1      42.910  23.135  25.670  1.00  0.00     0.135 A 
ATOM     74  C   UNL A   1      43.356  22.658  27.984  1.00  0.00     0.135 A 
ATOM     75  F   UNL A   1      42.888  23.975  24.624  1.00  0.00    -0.206 F 
ATOM     76  C   UNL A   1      42.424  21.843  25.488  1.00  0.00     0.059 A 
ATOM     77  C   UNL A   1      42.897  21.354  27.819  1.00  0.00     0.059 A 
ATOM     78  F   UNL A   1      43.785  23.027  29.202  1.00  0.00    -0.206 F 
ATOM     79  C   UNL A   1      42.419  20.961  26.570  1.00  0.00     0.060 A 
BRANCH  79  80
ATOM     80  S   UNL A   1      41.785  19.290  26.319  1.00  0.00     0.124 S 
ATOM     81  O   UNL A   1      42.494  18.888  25.108  1.00  0.00    -0.237 OA
ATOM     82  O   UNL A   1      42.192  18.612  27.547  1.00  0.00    -0.237 OA
ATOM     83  O   UNL A   1      40.348  19.490  26.166  1.00  0.00    -0.744 OA
ENDBRANCH  79  80
ENDBRANCH  58  72
BRANCH  59  84
ATOM     84  C   UNL A   1      46.520  32.916  28.576  1.00  0.00     0.058 A 
ATOM     85  C   UNL A   1      46.451  33.913  27.593  1.00  0.00     0.135 A 
ATOM     86  C   UNL A   1      47.062  33.263  29.823  1.00  0.00     0.135 A 
ATOM     87  F   UNL A   1      45.952  33.627  26.381  1.00  0.00    -0.206 F 
ATOM     88  C   UNL A   1      46.912  35.204  27.831  1.00  0.00     0.059 A 
ATOM     89  C   UNL A   1      47.507  34.553  30.094  1.00  0.00     0.059 A 
ATOM     90  F   UNL A   1      47.141  32.348  30.801  1.00  0.00    -0.206 F 
ATOM     91  C   UNL A   1      47.437  35.514  29.088  1.00  0.00     0.060 A 
BRANCH  91  92
ATOM     92  S   UNL A   1      47.985  37.206  29.405  1.00  0.00     0.124 S 
ATOM     93  O   UNL A   1      46.723  37.936  29.367  1.00  0.00    -0.237 OA
ATOM     94  O   UNL A   1      48.613  37.084  30.718  1.00  0.00    -0.237 OA
ATOM     95  O   UNL A   1      48.903  37.473  28.303  1.00  0.00    -0.744 OA
ENDBRANCH  91  92
ENDBRANCH  59  84
BRANCH  71  96
ATOM     96  C   UNL A   1      49.478  27.252  25.774  1.00  0.00     0.058 A 
ATOM     97  C   UNL A   1      50.572  26.869  26.566  1.00  0.00     0.135 A 
ATOM     98  C   UNL A   1      49.676  27.350  24.387  1.00  0.00     0.135 A 
ATOM     99  F   UNL A   1      50.437  26.764  27.898  1.00  0.00    -0.206 F 
ATOM    100  C   UNL A   1      51.821  26.618  26.007  1.00  0.00     0.059 A 
ATOM    101  C   UNL A   1      50.910  27.078  23.804  1.00  0.00     0.059 A 
ATOM    102  F   UNL A   1      48.661  27.700  23.582  1.00  0.00    -0.206 F 
ATOM    103  C   UNL A   1      51.981  26.726  24.625  1.00  0.00     0.060 A 
BRANCH 103 104
ATOM    104  S   UNL A   1      53.600  26.374  23.908  1.00  0.00     0.124 S 
ATOM    105  O   UNL A   1      53.998  25.184  24.653  1.00  0.00    -0.237 OA
ATOM    106  O   UNL A   1      53.281  26.161  22.500  1.00  0.00    -0.237 OA
ATOM    107  O   UNL A   1      54.369  27.581  24.194  1.00  0.00    -0.744 OA
ENDBRANCH 103 104
ENDBRANCH  71  96
ENDBRANCH  45  46
ENDBRANCH  38  40
ENDBRANCH  37  38
ENDBRANCH  36  37
ENDBRANCH  35  36
ENDBRANCH   1  35
TORSDOF 21
ENDMDL
MODEL 2
REMARK VINA RESULT:     -11.9      6.043     10.353
REMARK SMILES CS(=O)(=O)c1ccc(C2=NN(c3ccc(C(=O)OCCOCCOC(=O)c4ccc(-c5c6nc(c(-c7c(F)cc(S(=O)(=O)[O-])cc7F)c7ccc([nH]7)c(-c7c(F)cc(S(=O)(=O)[O-])cc7F)c7nc(c(-c8c(F)cc(S(=O)(=O)[O-])cc8F)c8ccc5[nH]8)C=C7)C=C6)cc4)cc3)[C@H](c3ccc(F)cc3)C2)cc1
REMARK SMILES IDX 21 1 20 2 19 3 18 4 16 5 17 6 15 7 12 8 13 9 94 10 14 11
REMARK SMILES IDX 93 12 11 13 9 14 10 15 103 16 95 17 8 18 5 19 6 20 105 21
REMARK SMILES IDX 7 22 104 23 2 24 1 25 3 26 4 27 96 28 97 29 102 30 98 31
REMARK SMILES IDX 101 32 99 33 100 34 22 35 23 36 24 37 25 38 26 39 27 40
REMARK SMILES IDX 28 41 92 42 29 43 91 44 30 45 31 46 32 47 85 48 33 49 90 50
REMARK SMILES IDX 84 51 86 52 34 53 89 54 83 55 82 56 35 58 69 59 48 60 68 61
REMARK SMILES IDX 49 62 52 63 67 64 87 65 50 66 51 67 66 69 88 70 53 71 36 72
REMARK SMILES IDX 37 73 46 74 38 75 39 76 45 77 47 78 40 79 41 80 42 81 43 82
REMARK SMILES IDX 44 83 70 84 71 85 80 86 72 87 73 88 79 89 81 90 74 91 75 92
REMARK SMILES IDX 76 93 77 94 78 95 54 96 55 97 64 98 56 99 57 100 63 101
REMARK SMILES IDX 65 102 58 103 59 104 60 105 61 106 62 107
REMARK H PARENT 86 57 52 68
REMARK Flexibility Score: inf
ROOT
ATOM      1  O   UNL A   1      35.234  33.706  29.126  1.00  0.00    -0.374 OA
ENDROOT
BRANCH   1   2
ATOM      2  C   UNL A   1      35.971  32.706  28.419  1.00  0.00     0.202 C 
BRANCH   2   3
ATOM      3  C   UNL A   1      35.590  31.255  28.726  1.00  0.00     0.261 C 
BRANCH   3   4
ATOM      4  O   UNL A   1      35.076  30.608  27.550  1.00  0.00    -0.460 OA
BRANCH   4   5
ATOM      5  C   UNL A   1      33.739  30.688  27.375  1.00  0.00     0.338 C 
ATOM      6  O   UNL A   1      33.040  31.684  27.514  1.00  0.00    -0.246 OA
BRANCH   5   7
ATOM      7  C   UNL A   1      33.206  29.403  26.856  1.00  0.00     0.060 A 
ATOM      8  C   UNL A   1      32.231  27.036  25.694  1.00  0.00     0.060 A 
ATOM      9  C   UNL A   1      33.436  27.597  25.255  1.00  0.00     0.029 A 
ATOM     10  C   UNL A   1      31.576  27.621  26.787  1.00  0.00     0.029 A 
ATOM     11  C   UNL A   1      33.916  28.777  25.823  1.00  0.00     0.018 A 
ATOM     12  C   UNL A   1      32.051  28.801  27.365  1.00  0.00     0.018 A 
BRANCH   8  13
ATOM     13  N   UNL A   1      31.613  25.996  24.983  1.00  0.00    -0.257 N 
ATOM     14  C   UNL A   1      31.898  24.058  24.127  1.00  0.00     0.071 C 
ATOM     15  N   UNL A   1      31.994  24.713  25.240  1.00  0.00    -0.176 NA
ATOM     16  C   UNL A   1      31.526  24.862  22.915  1.00  0.00     0.091 C 
ATOM     17  C   UNL A   1      31.349  26.247  23.551  1.00  0.00     0.144 C 
BRANCH  14  18
ATOM     18  C   UNL A   1      32.111  22.604  24.047  1.00  0.00    -0.002 A 
ATOM     19  C   UNL A   1      32.481  19.842  24.001  1.00  0.00     0.067 A 
ATOM     20  C   UNL A   1      32.436  20.509  25.226  1.00  0.00     0.021 A 
ATOM     21  C   UNL A   1      32.354  20.553  22.798  1.00  0.00     0.021 A 
ATOM     22  C   UNL A   1      32.263  21.895  25.245  1.00  0.00     0.011 A 
ATOM     23  C   UNL A   1      32.157  21.937  22.821  1.00  0.00     0.011 A 
BRANCH  19  24
ATOM     24  S   UNL A   1      32.709  18.082  23.898  1.00  0.00     0.175 S 
ATOM     25  C   UNL A   1      34.430  17.755  24.160  1.00  0.00     0.163 C 
ATOM     26  O   UNL A   1      32.404  17.707  22.530  1.00  0.00    -0.224 OA
ATOM     27  O   UNL A   1      31.974  17.512  25.011  1.00  0.00    -0.224 OA
ENDBRANCH  19  24
ENDBRANCH  14  18
BRANCH  17  28
ATOM     28  C   UNL A   1      30.012  26.953  23.368  1.00  0.00    -0.023 A 
ATOM     29  C   UNL A   1      28.796  26.451  23.857  1.00  0.00     0.009 A 
ATOM     30  C   UNL A   1      30.005  28.224  22.752  1.00  0.00     0.009 A 
ATOM     31  C   UNL A   1      27.617  27.195  23.732  1.00  0.00     0.039 A 
ATOM     32  C   UNL A   1      28.837  28.982  22.664  1.00  0.00     0.039 A 
ATOM     33  C   UNL A   1      27.652  28.457  23.151  1.00  0.00     0.123 A 
ATOM     34  F   UNL A   1      26.526  29.179  23.073  1.00  0.00    -0.207 F 
ENDBRANCH  17  28
ENDBRANCH   8  13
ENDBRANCH   5   7
ENDBRANCH   4   5
ENDBRANCH   3   4
ENDBRANCH   2   3
ENDBRANCH   1   2
BRANCH   1  35
ATOM     35  C   UNL A   1      34.403  34.568  28.347  1.00  0.00     0.202 C 
BRANCH  35  36
ATOM     36  C   UNL A   1      33.417  35.448  29.123  1.00  0.00     0.261 C 
BRANCH  36  37
ATOM     37  O   UNL A   1      32.847  34.759  30.250  1.00  0.00    -0.460 OA
BRANCH  37  38
ATOM     38  C   UNL A   1      33.021  35.381  31.439  1.00  0.00     0.338 C 
ATOM     39  O   UNL A   1      32.296  36.229  31.941  1.00  0.00    -0.246 OA
BRANCH  38  40
ATOM     40  C   UNL A   1      34.150  34.773  32.170  1.00  0.00     0.060 A 
ATOM     41  C   UNL A   1      35.343  35.506  32.235  1.00  0.00     0.016 A 
ATOM     42  C   UNL A   1      34.074  33.492  32.720  1.00  0.00     0.016 A 
ATOM     43  C   UNL A   1      36.480  34.937  32.802  1.00  0.00     0.010 A 
ATOM     44  C   UNL A   1      35.221  32.921  33.284  1.00  0.00     0.010 A 
ATOM     45  C   UNL A   1      36.438  33.626  33.295  1.00  0.00    -0.014 A 
BRANCH  45  46
ATOM     46  C   UNL A   1      37.700  32.953  33.687  1.00  0.00     0.031 A 
ATOM     47  C   UNL A   1      38.290  33.237  35.042  1.00  0.00     0.074 A 
ATOM     48  C   UNL A   1      38.294  32.071  32.861  1.00  0.00     0.049 A 
ATOM     49  N   UNL A   1      39.387  32.774  35.583  1.00  0.00    -0.248 NA
ATOM     50  C   UNL A   1      37.544  34.171  35.901  1.00  0.00     0.031 C 
ATOM     51  C   UNL A   1      37.799  31.688  31.539  1.00  0.00     0.029 A 
ATOM     52  N   UNL A   1      39.446  31.342  33.015  1.00  0.00    -0.354 N 
ATOM     53  C   UNL A   1      39.466  33.359  36.841  1.00  0.00     0.074 A 
ATOM     54  C   UNL A   1      38.323  34.237  36.972  1.00  0.00     0.031 C 
ATOM     55  C   UNL A   1      38.648  30.798  30.998  1.00  0.00     0.029 A 
ATOM     56  C   UNL A   1      39.758  30.570  31.922  1.00  0.00     0.049 A 
ATOM     57  H   UNL A   1      39.995  31.368  33.831  1.00  0.00     0.167 HD
ATOM     58  C   UNL A   1      40.401  33.174  37.804  1.00  0.00     0.037 A 
ATOM     59  C   UNL A   1      40.827  29.783  31.688  1.00  0.00     0.037 A 
ATOM     60  C   UNL A   1      41.536  32.299  37.670  1.00  0.00     0.049 A 
ATOM     61  C   UNL A   1      41.884  29.637  32.751  1.00  0.00     0.074 A 
ATOM     62  C   UNL A   1      42.531  32.031  38.595  1.00  0.00     0.029 A 
ATOM     63  N   UNL A   1      41.833  31.553  36.538  1.00  0.00    -0.354 N 
ATOM     64  N   UNL A   1      41.934  30.180  33.945  1.00  0.00    -0.248 NA
ATOM     65  C   UNL A   1      43.028  28.768  32.439  1.00  0.00     0.031 C 
ATOM     66  C   UNL A   1      43.452  31.159  38.007  1.00  0.00     0.029 A 
ATOM     67  C   UNL A   1      43.007  30.843  36.733  1.00  0.00     0.049 A 
ATOM     68  H   UNL A   1      41.290  31.532  35.718  1.00  0.00     0.167 HD
ATOM     69  C   UNL A   1      43.099  29.696  34.536  1.00  0.00     0.074 A 
ATOM     70  C   UNL A   1      43.718  28.810  33.571  1.00  0.00     0.031 C 
ATOM     71  C   UNL A   1      43.607  29.959  35.764  1.00  0.00     0.037 A 
BRANCH  58  72
ATOM     72  C   UNL A   1      40.246  33.953  39.081  1.00  0.00     0.058 A 
ATOM     73  C   UNL A   1      40.800  35.234  39.236  1.00  0.00     0.135 A 
ATOM     74  C   UNL A   1      39.510  33.425  40.153  1.00  0.00     0.135 A 
ATOM     75  F   UNL A   1      41.527  35.780  38.250  1.00  0.00    -0.206 F 
ATOM     76  C   UNL A   1      40.652  35.952  40.420  1.00  0.00     0.059 A 
ATOM     77  C   UNL A   1      39.328  34.134  41.337  1.00  0.00     0.059 A 
ATOM     78  F   UNL A   1      38.961  32.203  40.059  1.00  0.00    -0.206 F 
ATOM     79  C   UNL A   1      39.916  35.392  41.466  1.00  0.00     0.060 A 
BRANCH  79  80
ATOM     80  S   UNL A   1      39.733  36.334  42.994  1.00  0.00     0.124 S 
ATOM     81  O   UNL A   1      40.876  35.859  43.767  1.00  0.00    -0.237 OA
ATOM     82  O   UNL A   1      39.815  37.714  42.524  1.00  0.00    -0.237 OA
ATOM     83  O   UNL A   1      38.425  35.923  43.493  1.00  0.00    -0.744 OA
ENDBRANCH  79  80
ENDBRANCH  58  72
BRANCH  59  84
ATOM     84  C   UNL A   1      40.956  29.075  30.386  1.00  0.00     0.058 A 
ATOM     85  C   UNL A   1      41.837  29.532  29.396  1.00  0.00     0.135 A 
ATOM     86  C   UNL A   1      40.202  27.924  30.110  1.00  0.00     0.135 A 
ATOM     87  F   UNL A   1      42.571  30.635  29.608  1.00  0.00    -0.206 F 
ATOM     88  C   UNL A   1      41.957  28.882  28.172  1.00  0.00     0.059 A 
ATOM     89  C   UNL A   1      40.322  27.242  28.904  1.00  0.00     0.059 A 
ATOM     90  F   UNL A   1      39.352  27.439  31.029  1.00  0.00    -0.206 F 
ATOM     91  C   UNL A   1      41.196  27.735  27.936  1.00  0.00     0.060 A 
BRANCH  91  92
ATOM     92  S   UNL A   1      41.398  26.868  26.365  1.00  0.00     0.124 S 
ATOM     93  O   UNL A   1      42.743  26.323  26.500  1.00  0.00    -0.237 OA
ATOM     94  O   UNL A   1      40.308  25.897  26.408  1.00  0.00    -0.237 OA
ATOM     95  O   UNL A   1      41.242  27.929  25.375  1.00  0.00    -0.744 OA
ENDBRANCH  91  92
ENDBRANCH  59  84
BRANCH  71  96
ATOM     96  C   UNL A   1      44.877  29.253  36.155  1.00  0.00     0.058 A 
ATOM     97  C   UNL A   1      44.862  27.993  36.773  1.00  0.00     0.135 A 
ATOM     98  C   UNL A   1      46.126  29.825  35.865  1.00  0.00     0.135 A 
ATOM     99  F   UNL A   1      43.694  27.403  37.076  1.00  0.00    -0.206 F 
ATOM    100  C   UNL A   1      46.041  27.336  37.114  1.00  0.00     0.059 A 
ATOM    101  C   UNL A   1      47.318  29.174  36.172  1.00  0.00     0.059 A 
ATOM    102  F   UNL A   1      46.198  31.023  35.263  1.00  0.00    -0.206 F 
ATOM    103  C   UNL A   1      47.264  27.936  36.810  1.00  0.00     0.060 A 
BRANCH 103 104
ATOM    104  S   UNL A   1      48.787  27.064  37.233  1.00  0.00     0.124 S 
ATOM    105  O   UNL A   1      48.301  25.701  37.424  1.00  0.00    -0.237 OA
ATOM    106  O   UNL A   1      49.613  27.280  36.049  1.00  0.00    -0.237 OA
ATOM    107  O   UNL A   1      49.244  27.743  38.441  1.00  0.00    -0.744 OA
ENDBRANCH 103 104
ENDBRANCH  71  96
ENDBRANCH  45  46
ENDBRANCH  38  40
ENDBRANCH  37  38
ENDBRANCH  36  37
ENDBRANCH  35  36
ENDBRANCH   1  35
TORSDOF 21
ENDMDL
MODEL 3
REMARK VINA RESULT:     -11.8      1.242      7.831
REMARK SMILES CS(=O)(=O)c1ccc(C2=NN(c3ccc(C(=O)OCCOCCOC(=O)c4ccc(-c5c6nc(c(-c7c(F)cc(S(=O)(=O)[O-])cc7F)c7ccc([nH]7)c(-c7c(F)cc(S(=O)(=O)[O-])cc7F)c7nc(c(-c8c(F)cc(S(=O)(=O)[O-])cc8F)c8ccc5[nH]8)C=C7)C=C6)cc4)cc3)[C@H](c3ccc(F)cc3)C2)cc1
REMARK SMILES IDX 21 1 20 2 19 3 18 4 16 5 17 6 15 7 12 8 13 9 94 10 14 11
REMARK SMILES IDX 93 12 11 13 9 14 10 15 103 16 95 17 8 18 5 19 6 20 105 21
REMARK SMILES IDX 7 22 104 23 2 24 1 25 3 26 4 27 96 28 97 29 102 30 98 31
REMARK SMILES IDX 101 32 99 33 100 34 22 35 23 36 24 37 25 38 26 39 27 40
REMARK SMILES IDX 28 41 92 42 29 43 91 44 30 45 31 46 32 47 85 48 33 49 90 50
REMARK SMILES IDX 84 51 86 52 34 53 89 54 83 55 82 56 35 58 69 59 48 60 68 61
REMARK SMILES IDX 49 62 52 63 67 64 87 65 50 66 51 67 66 69 88 70 53 71 36 72
REMARK SMILES IDX 37 73 46 74 38 75 39 76 45 77 47 78 40 79 41 80 42 81 43 82
REMARK SMILES IDX 44 83 70 84 71 85 80 86 72 87 73 88 79 89 81 90 74 91 75 92
REMARK SMILES IDX 76 93 77 94 78 95 54 96 55 97 64 98 56 99 57 100 63 101
REMARK SMILES IDX 65 102 58 103 59 104 60 105 61 106 62 107
REMARK H PARENT 86 57 52 68
REMARK Flexibility Score: inf
ROOT
ATOM      1  O   UNL A   1      34.842  34.506  29.113  1.00  0.00    -0.374 OA
ENDROOT
BRANCH   1   2
ATOM      2  C   UNL A   1      34.081  34.134  27.962  1.00  0.00     0.202 C 
BRANCH   2   3
ATOM      3  C   UNL A   1      33.156  32.926  28.135  1.00  0.00     0.261 C 
BRANCH   3   4
ATOM      4  O   UNL A   1      33.454  31.917  27.156  1.00  0.00    -0.460 OA
BRANCH   4   5
ATOM      5  C   UNL A   1      34.146  30.849  27.609  1.00  0.00     0.338 C 
ATOM      6  O   UNL A   1      35.083  30.863  28.397  1.00  0.00    -0.246 OA
BRANCH   5   7
ATOM      7  C   UNL A   1      33.536  29.588  27.114  1.00  0.00     0.060 A 
ATOM      8  C   UNL A   1      32.464  27.238  26.007  1.00  0.00     0.060 A 
ATOM      9  C   UNL A   1      33.810  27.563  25.809  1.00  0.00     0.029 A 
ATOM     10  C   UNL A   1      31.691  28.052  26.847  1.00  0.00     0.029 A 
ATOM     11  C   UNL A   1      34.341  28.734  26.350  1.00  0.00     0.018 A 
ATOM     12  C   UNL A   1      32.214  29.225  27.395  1.00  0.00     0.018 A 
BRANCH   8  13
ATOM     13  N   UNL A   1      31.854  26.203  25.281  1.00  0.00    -0.257 N 
ATOM     14  C   UNL A   1      32.142  24.263  24.430  1.00  0.00     0.071 C 
ATOM     15  N   UNL A   1      32.220  24.916  25.545  1.00  0.00    -0.176 NA
ATOM     16  C   UNL A   1      31.803  25.071  23.211  1.00  0.00     0.091 C 
ATOM     17  C   UNL A   1      31.622  26.457  23.845  1.00  0.00     0.144 C 
BRANCH  14  18
ATOM     18  C   UNL A   1      32.347  22.808  24.352  1.00  0.00    -0.002 A 
ATOM     19  C   UNL A   1      32.724  20.047  24.317  1.00  0.00     0.067 A 
ATOM     20  C   UNL A   1      32.935  20.754  25.502  1.00  0.00     0.021 A 
ATOM     21  C   UNL A   1      32.338  20.717  23.146  1.00  0.00     0.021 A 
ATOM     22  C   UNL A   1      32.757  22.139  25.513  1.00  0.00     0.011 A 
ATOM     23  C   UNL A   1      32.137  22.101  23.166  1.00  0.00     0.011 A 
BRANCH  19  24
ATOM     24  S   UNL A   1      32.941  18.285  24.224  1.00  0.00     0.175 S 
ATOM     25  C   UNL A   1      32.478  17.780  22.591  1.00  0.00     0.163 C 
ATOM     26  O   UNL A   1      31.979  17.703  25.142  1.00  0.00    -0.224 OA
ATOM     27  O   UNL A   1      34.363  18.042  24.378  1.00  0.00    -0.224 OA
ENDBRANCH  19  24
ENDBRANCH  14  18
BRANCH  17  28
ATOM     28  C   UNL A   1      30.294  27.172  23.634  1.00  0.00    -0.023 A 
ATOM     29  C   UNL A   1      30.169  28.390  22.946  1.00  0.00     0.009 A 
ATOM     30  C   UNL A   1      29.113  26.535  24.075  1.00  0.00     0.009 A 
ATOM     31  C   UNL A   1      28.907  28.947  22.710  1.00  0.00     0.039 A 
ATOM     32  C   UNL A   1      27.854  27.072  23.805  1.00  0.00     0.039 A 
ATOM     33  C   UNL A   1      27.764  28.277  23.128  1.00  0.00     0.123 A 
ATOM     34  F   UNL A   1      26.559  28.798  22.862  1.00  0.00    -0.207 F 
ENDBRANCH  17  28
ENDBRANCH   8  13
ENDBRANCH   5   7
ENDBRANCH   4   5
ENDBRANCH   3   4
ENDBRANCH   2   3
ENDBRANCH   1   2
BRANCH   1  35
ATOM     35  C   UNL A   1      34.118  34.715  30.326  1.00  0.00     0.202 C 
BRANCH  35  36
ATOM     36  C   UNL A   1      34.687  34.049  31.583  1.00  0.00     0.261 C 
BRANCH  36  37
ATOM     37  O   UNL A   1      35.155  32.713  31.324  1.00  0.00    -0.460 OA
BRANCH  37  38
ATOM     38  C   UNL A   1      36.048  32.243  32.225  1.00  0.00     0.338 C 
ATOM     39  O   UNL A   1      35.931  32.234  33.443  1.00  0.00    -0.246 OA
BRANCH  38  40
ATOM     40  C   UNL A   1      37.159  31.562  31.533  1.00  0.00     0.060 A 
ATOM     41  C   UNL A   1      38.035  30.800  32.318  1.00  0.00     0.016 A 
ATOM     42  C   UNL A   1      37.385  31.716  30.163  1.00  0.00     0.016 A 
ATOM     43  C   UNL A   1      39.171  30.234  31.745  1.00  0.00     0.010 A 
ATOM     44  C   UNL A   1      38.532  31.151  29.592  1.00  0.00     0.010 A 
ATOM     45  C   UNL A   1      39.448  30.439  30.387  1.00  0.00    -0.014 A 
BRANCH  45  46
ATOM     46  C   UNL A   1      40.765  30.029  29.841  1.00  0.00     0.031 A 
ATOM     47  C   UNL A   1      41.883  31.035  29.794  1.00  0.00     0.074 A 
ATOM     48  C   UNL A   1      40.974  28.766  29.426  1.00  0.00     0.049 A 
ATOM     49  N   UNL A   1      43.104  30.898  29.347  1.00  0.00    -0.248 NA
ATOM     50  C   UNL A   1      41.583  32.377  30.321  1.00  0.00     0.031 C 
ATOM     51  C   UNL A   1      39.980  27.693  29.455  1.00  0.00     0.029 A 
ATOM     52  N   UNL A   1      42.093  28.174  28.897  1.00  0.00    -0.354 N 
ATOM     53  C   UNL A   1      43.717  32.132  29.533  1.00  0.00     0.074 A 
ATOM     54  C   UNL A   1      42.724  33.015  30.105  1.00  0.00     0.031 C 
ATOM     55  C   UNL A   1      40.532  26.575  28.956  1.00  0.00     0.029 A 
ATOM     56  C   UNL A   1      41.907  26.858  28.548  1.00  0.00     0.049 A 
ATOM     57  H   UNL A   1      42.947  28.647  28.779  1.00  0.00     0.167 HD
ATOM     58  C   UNL A   1      44.995  32.493  29.262  1.00  0.00     0.037 A 
ATOM     59  C   UNL A   1      42.747  25.988  27.953  1.00  0.00     0.037 A 
ATOM     60  C   UNL A   1      45.980  31.611  28.694  1.00  0.00     0.049 A 
ATOM     61  C   UNL A   1      44.145  26.428  27.607  1.00  0.00     0.074 A 
ATOM     62  C   UNL A   1      47.305  31.877  28.396  1.00  0.00     0.029 A 
ATOM     63  N   UNL A   1      45.747  30.292  28.330  1.00  0.00    -0.354 N 
ATOM     64  N   UNL A   1      44.718  27.591  27.810  1.00  0.00    -0.248 NA
ATOM     65  C   UNL A   1      45.014  25.437  26.957  1.00  0.00     0.031 C 
ATOM     66  C   UNL A   1      47.861  30.734  27.812  1.00  0.00     0.029 A 
ATOM     67  C   UNL A   1      46.898  29.738  27.791  1.00  0.00     0.049 A 
ATOM     68  H   UNL A   1      44.891  29.819  28.439  1.00  0.00     0.167 HD
ATOM     69  C   UNL A   1      46.021  27.463  27.338  1.00  0.00     0.074 A 
ATOM     70  C   UNL A   1      46.154  26.106  26.848  1.00  0.00     0.031 C 
ATOM     71  C   UNL A   1      47.016  28.382  27.314  1.00  0.00     0.037 A 
BRANCH  58  72
ATOM     72  C   UNL A   1      45.392  33.913  29.556  1.00  0.00     0.058 A 
ATOM     73  C   UNL A   1      45.238  34.935  28.605  1.00  0.00     0.135 A 
ATOM     74  C   UNL A   1      45.908  34.263  30.814  1.00  0.00     0.135 A 
ATOM     75  F   UNL A   1      44.766  34.654  27.381  1.00  0.00    -0.206 F 
ATOM     76  C   UNL A   1      45.606  36.248  28.883  1.00  0.00     0.059 A 
ATOM     77  C   UNL A   1      46.259  35.574  31.123  1.00  0.00     0.059 A 
ATOM     78  F   UNL A   1      46.079  33.325  31.759  1.00  0.00    -0.206 F 
ATOM     79  C   UNL A   1      46.118  36.558  30.145  1.00  0.00     0.060 A 
BRANCH  79  80
ATOM     80  S   UNL A   1      46.591  38.264  30.491  1.00  0.00     0.124 S 
ATOM     81  O   UNL A   1      47.997  38.262  30.098  1.00  0.00    -0.237 OA
ATOM     82  O   UNL A   1      45.693  39.021  29.624  1.00  0.00    -0.237 OA
ATOM     83  O   UNL A   1      46.341  38.404  31.921  1.00  0.00    -0.744 OA
ENDBRANCH  79  80
ENDBRANCH  58  72
BRANCH  59  84
ATOM     84  C   UNL A   1      42.285  24.609  27.638  1.00  0.00     0.058 A 
ATOM     85  C   UNL A   1      41.587  24.331  26.453  1.00  0.00     0.135 A 
ATOM     86  C   UNL A   1      42.536  23.543  28.515  1.00  0.00     0.135 A 
ATOM     87  F   UNL A   1      41.313  25.319  25.588  1.00  0.00    -0.206 F 
ATOM     88  C   UNL A   1      41.143  23.047  26.155  1.00  0.00     0.059 A 
ATOM     89  C   UNL A   1      42.123  22.246  28.227  1.00  0.00     0.059 A 
ATOM     90  F   UNL A   1      43.208  23.755  29.657  1.00  0.00    -0.206 F 
ATOM     91  C   UNL A   1      41.418  22.010  27.048  1.00  0.00     0.060 A 
BRANCH  91  92
ATOM     92  S   UNL A   1      40.883  20.337  26.627  1.00  0.00     0.124 S 
ATOM     93  O   UNL A   1      39.595  20.591  25.994  1.00  0.00    -0.237 OA
ATOM     94  O   UNL A   1      41.953  19.887  25.741  1.00  0.00    -0.237 OA
ATOM     95  O   UNL A   1      40.830  19.667  27.922  1.00  0.00    -0.744 OA
ENDBRANCH  91  92
ENDBRANCH  59  84
BRANCH  71  96
ATOM     96  C   UNL A   1      48.352  27.946  26.776  1.00  0.00     0.058 A 
ATOM     97  C   UNL A   1      48.610  27.887  25.397  1.00  0.00     0.135 A 
ATOM     98  C   UNL A   1      49.401  27.626  27.652  1.00  0.00     0.135 A 
ATOM     99  F   UNL A   1      47.640  28.178  24.515  1.00  0.00    -0.206 F 
ATOM    100  C   UNL A   1      49.854  27.501  24.907  1.00  0.00     0.059 A 
ATOM    101  C   UNL A   1      50.661  27.264  27.184  1.00  0.00     0.059 A 
ATOM    102  F   UNL A   1      49.212  27.678  28.981  1.00  0.00    -0.206 F 
ATOM    103  C   UNL A   1      50.873  27.191  25.809  1.00  0.00     0.060 A 
BRANCH 103 104
ATOM    104  S   UNL A   1      52.490  26.717  25.161  1.00  0.00     0.124 S 
ATOM    105  O   UNL A   1      53.378  27.596  25.916  1.00  0.00    -0.237 OA
ATOM    106  O   UNL A   1      52.563  25.300  25.502  1.00  0.00    -0.237 OA
ATOM    107  O   UNL A   1      52.384  27.007  23.735  1.00  0.00    -0.744 OA
ENDBRANCH 103 104
ENDBRANCH  71  96
ENDBRANCH  45  46
ENDBRANCH  38  40
ENDBRANCH  37  38
ENDBRANCH  36  37
ENDBRANCH  35  36
ENDBRANCH   1  35
TORSDOF 21
ENDMDL
