MODEL 1
REMARK VINA RESULT:     -10.1      0.000      0.000
REMARK SMILES C[C@H](O)[C@@H](NS(=O)(=O)c1ccc(F)cc1)C(=O)OCCOCCOC(=O)c1ccc(-c2c3nc(c(-c4c(F)cc(S(=O)(=O)[O-])cc4F)c4ccc([nH]4)c(-c4c(F)cc(S(=O)(=O)[O-])cc4F)c4nc(c(-c5c(F)cc(S(=O)(=O)[O-])cc5F)c5ccc2[nH]5)C=C4)C=C3)cc1
REMARK SMILES IDX 21 1 20 2 19 3 18 4 16 5 17 6 4 7 2 8 1 9 3 10 5 12 6 14
REMARK SMILES IDX 7 15 8 16 9 17 10 18 15 19 11 20 14 21 12 22 13 23 22 24
REMARK SMILES IDX 23 25 24 26 25 27 26 28 27 29 28 30 92 31 29 32 91 33 30 34
REMARK SMILES IDX 31 35 32 36 85 37 33 38 90 39 84 40 86 41 34 42 89 43 83 44
REMARK SMILES IDX 82 45 35 47 69 48 48 49 68 50 49 51 52 52 67 53 87 54 50 55
REMARK SMILES IDX 51 56 66 58 88 59 53 60 36 61 37 62 46 63 38 64 39 65 45 66
REMARK SMILES IDX 47 67 40 68 41 69 42 70 43 71 44 72 70 73 71 74 80 75 72 76
REMARK SMILES IDX 73 77 79 78 81 79 74 80 75 81 76 82 77 83 78 84 54 85 55 86
REMARK SMILES IDX 64 87 56 88 57 89 63 90 65 91 58 92 59 93 60 94 61 95 62 96
REMARK H PARENT 3 11 5 13 86 46 52 57
REMARK Flexibility Score: inf
ROOT
ATOM      1  O   UNL A   1      39.170  22.416  26.605  1.00  0.00    -0.374 OA
ENDROOT
BRANCH   1   2
ATOM      2  C   UNL A   1      38.686  21.466  25.673  1.00  0.00     0.202 C 
BRANCH   2   3
ATOM      3  C   UNL A   1      37.207  21.419  25.272  1.00  0.00     0.261 C 
BRANCH   3   4
ATOM      4  O   UNL A   1      36.561  22.609  24.823  1.00  0.00    -0.462 OA
BRANCH   4   5
ATOM      5  C   UNL A   1      35.383  22.893  25.448  1.00  0.00     0.326 C 
ATOM      6  O   UNL A   1      35.245  23.020  26.657  1.00  0.00    -0.250 OA
BRANCH   5   7
ATOM      7  C   UNL A   1      34.220  22.945  24.484  1.00  0.00     0.208 C 
BRANCH   7   8
ATOM      8  C   UNL A   1      34.444  24.022  23.397  1.00  0.00     0.140 C 
ATOM      9  C   UNL A   1      33.982  25.415  23.846  1.00  0.00     0.040 C 
BRANCH   8  10
ATOM     10  O   UNL A   1      33.704  23.657  22.221  1.00  0.00    -0.391 OA
ATOM     11  H   UNL A   1      33.045  22.983  22.449  1.00  0.00     0.211 HD
ENDBRANCH   8  10
ENDBRANCH   7   8
BRANCH   7  12
ATOM     12  N   UNL A   1      34.039  21.590  23.873  1.00  0.00    -0.194 NA
ATOM     13  H   UNL A   1      34.644  20.945  24.382  1.00  0.00     0.142 HD
BRANCH  12  14
ATOM     14  S   UNL A   1      32.482  20.923  23.868  1.00  0.00     0.241 S 
ATOM     15  O   UNL A   1      31.747  21.499  24.969  1.00  0.00    -0.207 OA
ATOM     16  O   UNL A   1      32.003  21.046  22.505  1.00  0.00    -0.207 OA
BRANCH  14  17
ATOM     17  C   UNL A   1      32.715  19.181  24.174  1.00  0.00     0.082 A 
ATOM     18  C   UNL A   1      32.648  18.691  25.487  1.00  0.00     0.025 A 
ATOM     19  C   UNL A   1      32.962  18.307  23.110  1.00  0.00     0.025 A 
ATOM     20  C   UNL A   1      32.963  17.356  25.750  1.00  0.00     0.040 A 
ATOM     21  C   UNL A   1      33.232  16.959  23.377  1.00  0.00     0.040 A 
ATOM     22  C   UNL A   1      33.258  16.503  24.694  1.00  0.00     0.123 A 
ATOM     23  F   UNL A   1      33.613  15.237  24.950  1.00  0.00    -0.207 F 
ENDBRANCH  14  17
ENDBRANCH  12  14
ENDBRANCH   7  12
ENDBRANCH   5   7
ENDBRANCH   4   5
ENDBRANCH   3   4
ENDBRANCH   2   3
ENDBRANCH   1   2
BRANCH   1  24
ATOM     24  C   UNL A   1      40.556  22.475  26.910  1.00  0.00     0.202 C 
BRANCH  24  25
ATOM     25  C   UNL A   1      41.367  23.720  26.554  1.00  0.00     0.261 C 
BRANCH  25  26
ATOM     26  O   UNL A   1      40.556  24.817  26.109  1.00  0.00    -0.460 OA
BRANCH  26  27
ATOM     27  C   UNL A   1      41.206  26.007  26.100  1.00  0.00     0.338 C 
ATOM     28  O   UNL A   1      41.534  26.661  25.124  1.00  0.00    -0.246 OA
BRANCH  27  29
ATOM     29  C   UNL A   1      41.321  26.526  27.471  1.00  0.00     0.060 A 
ATOM     30  C   UNL A   1      40.297  26.212  28.377  1.00  0.00     0.016 A 
ATOM     31  C   UNL A   1      42.351  27.400  27.820  1.00  0.00     0.016 A 
ATOM     32  C   UNL A   1      40.263  26.829  29.622  1.00  0.00     0.010 A 
ATOM     33  C   UNL A   1      42.306  28.026  29.065  1.00  0.00     0.010 A 
ATOM     34  C   UNL A   1      41.238  27.778  29.946  1.00  0.00    -0.014 A 
BRANCH  34  35
ATOM     35  C   UNL A   1      41.044  28.661  31.115  1.00  0.00     0.031 A 
ATOM     36  C   UNL A   1      39.967  29.708  31.045  1.00  0.00     0.074 A 
ATOM     37  C   UNL A   1      41.810  28.529  32.211  1.00  0.00     0.049 A 
ATOM     38  N   UNL A   1      39.700  30.677  31.878  1.00  0.00    -0.248 NA
ATOM     39  C   UNL A   1      39.074  29.657  29.873  1.00  0.00     0.031 C 
ATOM     40  C   UNL A   1      42.831  27.502  32.406  1.00  0.00     0.029 A 
ATOM     41  N   UNL A   1      41.855  29.274  33.360  1.00  0.00    -0.354 N 
ATOM     42  C   UNL A   1      38.621  31.359  31.327  1.00  0.00     0.074 A 
ATOM     43  C   UNL A   1      38.299  30.713  30.075  1.00  0.00     0.031 C 
ATOM     44  C   UNL A   1      43.416  27.692  33.600  1.00  0.00     0.029 A 
ATOM     45  C   UNL A   1      42.844  28.881  34.229  1.00  0.00     0.049 A 
ATOM     46  H   UNL A   1      41.239  30.019  33.545  1.00  0.00     0.167 HD
ATOM     47  C   UNL A   1      37.958  32.425  31.831  1.00  0.00     0.037 A 
ATOM     48  C   UNL A   1      43.261  29.443  35.381  1.00  0.00     0.037 A 
ATOM     49  C   UNL A   1      38.292  33.048  33.084  1.00  0.00     0.049 A 
ATOM     50  C   UNL A   1      42.571  30.687  35.877  1.00  0.00     0.074 A 
ATOM     51  C   UNL A   1      37.686  34.132  33.691  1.00  0.00     0.029 A 
ATOM     52  N   UNL A   1      39.323  32.643  33.920  1.00  0.00    -0.354 N 
ATOM     53  N   UNL A   1      41.560  31.334  35.346  1.00  0.00    -0.248 NA
ATOM     54  C   UNL A   1      43.077  31.284  37.122  1.00  0.00     0.031 C 
ATOM     55  C   UNL A   1      38.387  34.420  34.865  1.00  0.00     0.029 A 
ATOM     56  C   UNL A   1      39.388  33.473  35.024  1.00  0.00     0.049 A 
ATOM     57  H   UNL A   1      39.921  31.879  33.751  1.00  0.00     0.167 HD
ATOM     58  C   UNL A   1      41.288  32.393  36.207  1.00  0.00     0.074 A 
ATOM     59  C   UNL A   1      42.242  32.301  37.293  1.00  0.00     0.031 C 
ATOM     60  C   UNL A   1      40.333  33.350  36.108  1.00  0.00     0.037 A 
BRANCH  47  61
ATOM     61  C   UNL A   1      36.823  32.999  31.029  1.00  0.00     0.058 A 
ATOM     62  C   UNL A   1      37.079  33.884  29.970  1.00  0.00     0.135 A 
ATOM     63  C   UNL A   1      35.482  32.730  31.348  1.00  0.00     0.135 A 
ATOM     64  F   UNL A   1      38.342  34.170  29.615  1.00  0.00    -0.206 F 
ATOM     65  C   UNL A   1      36.047  34.500  29.269  1.00  0.00     0.059 A 
ATOM     66  C   UNL A   1      34.433  33.313  30.641  1.00  0.00     0.059 A 
ATOM     67  F   UNL A   1      35.182  31.872  32.335  1.00  0.00    -0.206 F 
ATOM     68  C   UNL A   1      34.726  34.208  29.614  1.00  0.00     0.060 A 
BRANCH  68  69
ATOM     69  S   UNL A   1      33.400  35.001  28.679  1.00  0.00     0.124 S 
ATOM     70  O   UNL A   1      32.837  33.876  27.942  1.00  0.00    -0.237 OA
ATOM     71  O   UNL A   1      32.564  35.548  29.744  1.00  0.00    -0.237 OA
ATOM     72  O   UNL A   1      34.102  35.995  27.873  1.00  0.00    -0.744 OA
ENDBRANCH  68  69
ENDBRANCH  47  61
BRANCH  48  73
ATOM     73  C   UNL A   1      44.388  28.830  36.132  1.00  0.00     0.058 A 
ATOM     74  C   UNL A   1      44.180  27.759  37.015  1.00  0.00     0.135 A 
ATOM     75  C   UNL A   1      45.691  29.333  36.013  1.00  0.00     0.135 A 
ATOM     76  F   UNL A   1      42.950  27.243  37.173  1.00  0.00    -0.206 F 
ATOM     77  C   UNL A   1      45.216  27.230  37.778  1.00  0.00     0.059 A 
ATOM     78  C   UNL A   1      46.751  28.804  36.745  1.00  0.00     0.059 A 
ATOM     79  F   UNL A   1      45.943  30.348  35.171  1.00  0.00    -0.206 F 
ATOM     80  C   UNL A   1      46.498  27.764  37.638  1.00  0.00     0.060 A 
BRANCH  80  81
ATOM     81  S   UNL A   1      47.823  27.080  38.657  1.00  0.00     0.124 S 
ATOM     82  O   UNL A   1      47.424  25.680  38.752  1.00  0.00    -0.237 OA
ATOM     83  O   UNL A   1      49.002  27.351  37.841  1.00  0.00    -0.237 OA
ATOM     84  O   UNL A   1      47.727  27.847  39.895  1.00  0.00    -0.744 OA
ENDBRANCH  80  81
ENDBRANCH  48  73
BRANCH  60  85
ATOM     85  C   UNL A   1      40.225  34.366  37.211  1.00  0.00     0.058 A 
ATOM     86  C   UNL A   1      39.293  34.182  38.247  1.00  0.00     0.135 A 
ATOM     87  C   UNL A   1      40.924  35.579  37.163  1.00  0.00     0.135 A 
ATOM     88  F   UNL A   1      38.593  33.039  38.332  1.00  0.00    -0.206 F 
ATOM     89  C   UNL A   1      39.027  35.185  39.170  1.00  0.00     0.059 A 
ATOM     90  C   UNL A   1      40.694  36.588  38.096  1.00  0.00     0.059 A 
ATOM     91  F   UNL A   1      41.833  35.798  36.200  1.00  0.00    -0.206 F 
ATOM     92  C   UNL A   1      39.723  36.391  39.078  1.00  0.00     0.060 A 
BRANCH  92  93
ATOM     93  S   UNL A   1      39.326  37.701  40.255  1.00  0.00     0.124 S 
ATOM     94  O   UNL A   1      40.589  38.428  40.330  1.00  0.00    -0.237 OA
ATOM     95  O   UNL A   1      38.233  38.395  39.581  1.00  0.00    -0.237 OA
ATOM     96  O   UNL A   1      38.950  36.971  41.461  1.00  0.00    -0.744 OA
ENDBRANCH  92  93
ENDBRANCH  60  85
ENDBRANCH  34  35
ENDBRANCH  27  29
ENDBRANCH  26  27
ENDBRANCH  25  26
ENDBRANCH  24  25
ENDBRANCH   1  24
TORSDOF 22
ENDMDL
MODEL 2
REMARK VINA RESULT:     -10.0      6.626     11.998
REMARK SMILES C[C@H](O)[C@@H](NS(=O)(=O)c1ccc(F)cc1)C(=O)OCCOCCOC(=O)c1ccc(-c2c3nc(c(-c4c(F)cc(S(=O)(=O)[O-])cc4F)c4ccc([nH]4)c(-c4c(F)cc(S(=O)(=O)[O-])cc4F)c4nc(c(-c5c(F)cc(S(=O)(=O)[O-])cc5F)c5ccc2[nH]5)C=C4)C=C3)cc1
REMARK SMILES IDX 21 1 20 2 19 3 18 4 16 5 17 6 4 7 2 8 1 9 3 10 5 12 6 14
REMARK SMILES IDX 7 15 8 16 9 17 10 18 15 19 11 20 14 21 12 22 13 23 22 24
REMARK SMILES IDX 23 25 24 26 25 27 26 28 27 29 28 30 92 31 29 32 91 33 30 34
REMARK SMILES IDX 31 35 32 36 85 37 33 38 90 39 84 40 86 41 34 42 89 43 83 44
REMARK SMILES IDX 82 45 35 47 69 48 48 49 68 50 49 51 52 52 67 53 87 54 50 55
REMARK SMILES IDX 51 56 66 58 88 59 53 60 36 61 37 62 46 63 38 64 39 65 45 66
REMARK SMILES IDX 47 67 40 68 41 69 42 70 43 71 44 72 70 73 71 74 80 75 72 76
REMARK SMILES IDX 73 77 79 78 81 79 74 80 75 81 76 82 77 83 78 84 54 85 55 86
REMARK SMILES IDX 64 87 56 88 57 89 63 90 65 91 58 92 59 93 60 94 61 95 62 96
REMARK H PARENT 3 11 5 13 86 46 52 57
REMARK Flexibility Score: inf
ROOT
ATOM      1  O   UNL A   1      35.133  30.749  27.347  1.00  0.00    -0.374 OA
ENDROOT
BRANCH   1   2
ATOM      2  C   UNL A   1      34.339  29.692  26.841  1.00  0.00     0.202 C 
BRANCH   2   3
ATOM      3  C   UNL A   1      32.838  29.604  27.139  1.00  0.00     0.261 C 
BRANCH   3   4
ATOM      4  O   UNL A   1      31.985  28.880  26.254  1.00  0.00    -0.462 OA
BRANCH   4   5
ATOM      5  C   UNL A   1      31.526  27.693  26.742  1.00  0.00     0.326 C 
ATOM      6  O   UNL A   1      31.099  27.520  27.877  1.00  0.00    -0.250 OA
BRANCH   5   7
ATOM      7  C   UNL A   1      31.687  26.564  25.750  1.00  0.00     0.208 C 
BRANCH   7   8
ATOM      8  C   UNL A   1      30.637  25.455  25.992  1.00  0.00     0.140 C 
ATOM      9  C   UNL A   1      31.272  24.136  26.456  1.00  0.00     0.040 C 
BRANCH   8  10
ATOM     10  O   UNL A   1      29.928  25.209  24.767  1.00  0.00    -0.391 OA
ATOM     11  H   UNL A   1      30.368  25.677  24.040  1.00  0.00     0.211 HD
ENDBRANCH   8  10
ENDBRANCH   7   8
BRANCH   7  12
ATOM     12  N   UNL A   1      31.576  27.120  24.365  1.00  0.00    -0.194 NA
ATOM     13  H   UNL A   1      31.413  28.124  24.453  1.00  0.00     0.142 HD
BRANCH  12  14
ATOM     14  S   UNL A   1      32.892  26.912  23.319  1.00  0.00     0.241 S 
ATOM     15  O   UNL A   1      32.411  27.053  21.965  1.00  0.00    -0.207 OA
ATOM     16  O   UNL A   1      33.944  27.767  23.830  1.00  0.00    -0.207 OA
BRANCH  14  17
ATOM     17  C   UNL A   1      33.431  25.229  23.570  1.00  0.00     0.082 A 
ATOM     18  C   UNL A   1      32.853  24.195  22.819  1.00  0.00     0.025 A 
ATOM     19  C   UNL A   1      34.427  24.943  24.510  1.00  0.00     0.025 A 
ATOM     20  C   UNL A   1      33.170  22.865  23.104  1.00  0.00     0.040 A 
ATOM     21  C   UNL A   1      34.774  23.610  24.758  1.00  0.00     0.040 A 
ATOM     22  C   UNL A   1      34.123  22.583  24.075  1.00  0.00     0.123 A 
ATOM     23  F   UNL A   1      34.388  21.308  24.387  1.00  0.00    -0.207 F 
ENDBRANCH  14  17
ENDBRANCH  12  14
ENDBRANCH   7  12
ENDBRANCH   5   7
ENDBRANCH   4   5
ENDBRANCH   3   4
ENDBRANCH   2   3
ENDBRANCH   1   2
BRANCH   1  24
ATOM     24  C   UNL A   1      34.540  31.777  28.127  1.00  0.00     0.202 C 
BRANCH  24  25
ATOM     25  C   UNL A   1      35.044  32.052  29.543  1.00  0.00     0.261 C 
BRANCH  25  26
ATOM     26  O   UNL A   1      36.462  31.890  29.682  1.00  0.00    -0.460 OA
BRANCH  26  27
ATOM     27  C   UNL A   1      36.817  30.918  30.557  1.00  0.00     0.338 C 
ATOM     28  O   UNL A   1      36.212  30.568  31.557  1.00  0.00    -0.246 OA
BRANCH  27  29
ATOM     29  C   UNL A   1      37.980  30.179  30.042  1.00  0.00     0.060 A 
ATOM     30  C   UNL A   1      38.900  29.676  30.974  1.00  0.00     0.016 A 
ATOM     31  C   UNL A   1      38.220  30.090  28.671  1.00  0.00     0.016 A 
ATOM     32  C   UNL A   1      40.103  29.138  30.535  1.00  0.00     0.010 A 
ATOM     33  C   UNL A   1      39.434  29.562  28.236  1.00  0.00     0.010 A 
ATOM     34  C   UNL A   1      40.396  29.130  29.167  1.00  0.00    -0.014 A 
BRANCH  34  35
ATOM     35  C   UNL A   1      41.775  28.859  28.711  1.00  0.00     0.031 A 
ATOM     36  C   UNL A   1      42.118  27.462  28.274  1.00  0.00     0.074 A 
ATOM     37  C   UNL A   1      42.696  29.836  28.688  1.00  0.00     0.049 A 
ATOM     38  N   UNL A   1      43.280  26.953  27.968  1.00  0.00    -0.248 NA
ATOM     39  C   UNL A   1      40.997  26.508  28.176  1.00  0.00     0.031 C 
ATOM     40  C   UNL A   1      42.446  31.237  29.023  1.00  0.00     0.029 A 
ATOM     41  N   UNL A   1      44.031  29.794  28.381  1.00  0.00    -0.354 N 
ATOM     42  C   UNL A   1      43.036  25.621  27.654  1.00  0.00     0.074 A 
ATOM     43  C   UNL A   1      41.620  25.390  27.834  1.00  0.00     0.031 C 
ATOM     44  C   UNL A   1      43.597  31.921  28.919  1.00  0.00     0.029 A 
ATOM     45  C   UNL A   1      44.672  30.996  28.559  1.00  0.00     0.049 A 
ATOM     46  H   UNL A   1      44.487  28.981  28.064  1.00  0.00     0.167 HD
ATOM     47  C   UNL A   1      43.919  24.681  27.246  1.00  0.00     0.037 A 
ATOM     48  C   UNL A   1      45.982  31.302  28.475  1.00  0.00     0.037 A 
ATOM     49  C   UNL A   1      45.324  24.935  27.067  1.00  0.00     0.049 A 
ATOM     50  C   UNL A   1      46.962  30.218  28.111  1.00  0.00     0.074 A 
ATOM     51  C   UNL A   1      46.308  24.056  26.654  1.00  0.00     0.029 A 
ATOM     52  N   UNL A   1      45.942  26.157  27.290  1.00  0.00    -0.354 N 
ATOM     53  N   UNL A   1      46.727  28.957  27.828  1.00  0.00    -0.248 NA
ATOM     54  C   UNL A   1      48.384  30.588  28.061  1.00  0.00     0.031 C 
ATOM     55  C   UNL A   1      47.531  24.730  26.685  1.00  0.00     0.029 A 
ATOM     56  C   UNL A   1      47.300  26.048  27.051  1.00  0.00     0.049 A 
ATOM     57  H   UNL A   1      45.482  26.979  27.578  1.00  0.00     0.167 HD
ATOM     58  C   UNL A   1      47.964  28.394  27.535  1.00  0.00     0.074 A 
ATOM     59  C   UNL A   1      48.946  29.449  27.676  1.00  0.00     0.031 C 
ATOM     60  C   UNL A   1      48.259  27.120  27.177  1.00  0.00     0.037 A 
BRANCH  47  61
ATOM     61  C   UNL A   1      43.406  23.292  26.982  1.00  0.00     0.058 A 
ATOM     62  C   UNL A   1      43.111  22.430  28.050  1.00  0.00     0.135 A 
ATOM     63  C   UNL A   1      43.270  22.789  25.678  1.00  0.00     0.135 A 
ATOM     64  F   UNL A   1      43.213  22.861  29.317  1.00  0.00    -0.206 F 
ATOM     65  C   UNL A   1      42.722  21.111  27.836  1.00  0.00     0.059 A 
ATOM     66  C   UNL A   1      42.854  21.481  25.440  1.00  0.00     0.059 A 
ATOM     67  F   UNL A   1      43.516  23.579  24.621  1.00  0.00    -0.206 F 
ATOM     68  C   UNL A   1      42.597  20.646  26.526  1.00  0.00     0.060 A 
BRANCH  68  69
ATOM     69  S   UNL A   1      42.069  18.939  26.268  1.00  0.00     0.124 S 
ATOM     70  O   UNL A   1      42.215  18.373  27.604  1.00  0.00    -0.237 OA
ATOM     71  O   UNL A   1      40.699  19.114  25.795  1.00  0.00    -0.237 OA
ATOM     72  O   UNL A   1      43.008  18.442  25.267  1.00  0.00    -0.744 OA
ENDBRANCH  68  69
ENDBRANCH  47  61
BRANCH  48  73
ATOM     73  C   UNL A   1      46.430  32.694  28.746  1.00  0.00     0.058 A 
ATOM     74  C   UNL A   1      46.721  33.127  30.049  1.00  0.00     0.135 A 
ATOM     75  C   UNL A   1      46.536  33.631  27.709  1.00  0.00     0.135 A 
ATOM     76  F   UNL A   1      46.628  32.272  31.081  1.00  0.00    -0.206 F 
ATOM     77  C   UNL A   1      47.066  34.446  30.320  1.00  0.00     0.059 A 
ATOM     78  C   UNL A   1      46.907  34.951  27.949  1.00  0.00     0.059 A 
ATOM     79  F   UNL A   1      46.282  33.261  26.444  1.00  0.00    -0.206 F 
ATOM     80  C   UNL A   1      47.152  35.353  29.262  1.00  0.00     0.060 A 
BRANCH  80  81
ATOM     81  S   UNL A   1      47.577  37.067  29.638  1.00  0.00     0.124 S 
ATOM     82  O   UNL A   1      48.315  36.915  30.888  1.00  0.00    -0.237 OA
ATOM     83  O   UNL A   1      48.371  37.444  28.473  1.00  0.00    -0.237 OA
ATOM     84  O   UNL A   1      46.278  37.720  29.749  1.00  0.00    -0.744 OA
ENDBRANCH  80  81
ENDBRANCH  48  73
BRANCH  60  85
ATOM     85  C   UNL A   1      49.690  26.779  26.868  1.00  0.00     0.058 A 
ATOM     86  C   UNL A   1      50.132  26.740  25.535  1.00  0.00     0.135 A 
ATOM     87  C   UNL A   1      50.573  26.346  27.867  1.00  0.00     0.135 A 
ATOM     88  F   UNL A   1      49.321  27.137  24.541  1.00  0.00    -0.206 F 
ATOM     89  C   UNL A   1      51.384  26.241  25.200  1.00  0.00     0.059 A 
ATOM     90  C   UNL A   1      51.845  25.870  27.556  1.00  0.00     0.059 A 
ATOM     91  F   UNL A   1      50.202  26.376  29.157  1.00  0.00    -0.206 F 
ATOM     92  C   UNL A   1      52.229  25.795  26.217  1.00  0.00     0.060 A 
BRANCH  92  93
ATOM     93  S   UNL A   1      53.831  25.103  25.757  1.00  0.00     0.124 S 
ATOM     94  O   UNL A   1      53.457  23.776  25.278  1.00  0.00    -0.237 OA
ATOM     95  O   UNL A   1      54.288  26.041  24.736  1.00  0.00    -0.237 OA
ATOM     96  O   UNL A   1      54.584  25.130  27.007  1.00  0.00    -0.744 OA
ENDBRANCH  92  93
ENDBRANCH  60  85
ENDBRANCH  34  35
ENDBRANCH  27  29
ENDBRANCH  26  27
ENDBRANCH  25  26
ENDBRANCH  24  25
ENDBRANCH   1  24
TORSDOF 22
ENDMDL
MODEL 3
REMARK VINA RESULT:     -10.0      4.744      9.629
REMARK SMILES C[C@H](O)[C@@H](NS(=O)(=O)c1ccc(F)cc1)C(=O)OCCOCCOC(=O)c1ccc(-c2c3nc(c(-c4c(F)cc(S(=O)(=O)[O-])cc4F)c4ccc([nH]4)c(-c4c(F)cc(S(=O)(=O)[O-])cc4F)c4nc(c(-c5c(F)cc(S(=O)(=O)[O-])cc5F)c5ccc2[nH]5)C=C4)C=C3)cc1
REMARK SMILES IDX 21 1 20 2 19 3 18 4 16 5 17 6 4 7 2 8 1 9 3 10 5 12 6 14
REMARK SMILES IDX 7 15 8 16 9 17 10 18 15 19 11 20 14 21 12 22 13 23 22 24
REMARK SMILES IDX 23 25 24 26 25 27 26 28 27 29 28 30 92 31 29 32 91 33 30 34
REMARK SMILES IDX 31 35 32 36 85 37 33 38 90 39 84 40 86 41 34 42 89 43 83 44
REMARK SMILES IDX 82 45 35 47 69 48 48 49 68 50 49 51 52 52 67 53 87 54 50 55
REMARK SMILES IDX 51 56 66 58 88 59 53 60 36 61 37 62 46 63 38 64 39 65 45 66
REMARK SMILES IDX 47 67 40 68 41 69 42 70 43 71 44 72 70 73 71 74 80 75 72 76
REMARK SMILES IDX 73 77 79 78 81 79 74 80 75 81 76 82 77 83 78 84 54 85 55 86
REMARK SMILES IDX 64 87 56 88 57 89 63 90 65 91 58 92 59 93 60 94 61 95 62 96
REMARK H PARENT 3 11 5 13 86 46 52 57
REMARK Flexibility Score: inf
ROOT
ATOM      1  O   UNL A   1      35.609  21.582  24.404  1.00  0.00    -0.374 OA
ENDROOT
BRANCH   1   2
ATOM      2  C   UNL A   1      34.316  21.954  24.842  1.00  0.00     0.202 C 
BRANCH   2   3
ATOM      3  C   UNL A   1      33.188  22.254  23.848  1.00  0.00     0.261 C 
BRANCH   3   4
ATOM      4  O   UNL A   1      32.641  23.569  23.779  1.00  0.00    -0.462 OA
BRANCH   4   5
ATOM      5  C   UNL A   1      33.299  24.421  22.942  1.00  0.00     0.326 C 
ATOM      6  O   UNL A   1      33.837  24.095  21.892  1.00  0.00    -0.250 OA
BRANCH   5   7
ATOM      7  C   UNL A   1      33.379  25.824  23.499  1.00  0.00     0.208 C 
BRANCH   7   8
ATOM      8  C   UNL A   1      33.532  26.866  22.366  1.00  0.00     0.140 C 
ATOM      9  C   UNL A   1      33.555  28.307  22.893  1.00  0.00     0.040 C 
BRANCH   8  10
ATOM     10  O   UNL A   1      32.426  26.733  21.459  1.00  0.00    -0.391 OA
ATOM     11  H   UNL A   1      32.738  26.856  20.549  1.00  0.00     0.211 HD
ENDBRANCH   8  10
ENDBRANCH   7   8
BRANCH   7  12
ATOM     12  N   UNL A   1      32.153  26.090  24.315  1.00  0.00    -0.194 NA
ATOM     13  H   UNL A   1      31.473  25.363  24.087  1.00  0.00     0.142 HD
BRANCH  12  14
ATOM     14  S   UNL A   1      32.313  26.121  26.001  1.00  0.00     0.241 S 
ATOM     15  O   UNL A   1      31.030  25.791  26.577  1.00  0.00    -0.207 OA
ATOM     16  O   UNL A   1      33.491  25.331  26.301  1.00  0.00    -0.207 OA
BRANCH  14  17
ATOM     17  C   UNL A   1      32.712  27.812  26.405  1.00  0.00     0.082 A 
ATOM     18  C   UNL A   1      34.055  28.195  26.541  1.00  0.00     0.025 A 
ATOM     19  C   UNL A   1      31.691  28.752  26.584  1.00  0.00     0.025 A 
ATOM     20  C   UNL A   1      34.371  29.480  26.989  1.00  0.00     0.040 A 
ATOM     21  C   UNL A   1      32.018  30.052  26.988  1.00  0.00     0.040 A 
ATOM     22  C   UNL A   1      33.350  30.395  27.214  1.00  0.00     0.123 A 
ATOM     23  F   UNL A   1      33.649  31.609  27.696  1.00  0.00    -0.207 F 
ENDBRANCH  14  17
ENDBRANCH  12  14
ENDBRANCH   7  12
ENDBRANCH   5   7
ENDBRANCH   4   5
ENDBRANCH   3   4
ENDBRANCH   2   3
ENDBRANCH   1   2
BRANCH   1  24
ATOM     24  C   UNL A   1      36.555  22.578  24.041  1.00  0.00     0.202 C 
BRANCH  24  25
ATOM     25  C   UNL A   1      37.358  23.302  25.121  1.00  0.00     0.261 C 
BRANCH  25  26
ATOM     26  O   UNL A   1      37.979  22.411  26.059  1.00  0.00    -0.460 OA
BRANCH  26  27
ATOM     27  C   UNL A   1      39.292  22.672  26.272  1.00  0.00     0.338 C 
ATOM     28  O   UNL A   1      40.242  21.969  25.969  1.00  0.00    -0.246 OA
BRANCH  27  29
ATOM     29  C   UNL A   1      39.456  24.044  26.776  1.00  0.00     0.060 A 
ATOM     30  C   UNL A   1      40.098  24.973  25.944  1.00  0.00     0.016 A 
ATOM     31  C   UNL A   1      39.093  24.374  28.081  1.00  0.00     0.016 A 
ATOM     32  C   UNL A   1      40.443  26.224  26.443  1.00  0.00     0.010 A 
ATOM     33  C   UNL A   1      39.452  25.624  28.582  1.00  0.00     0.010 A 
ATOM     34  C   UNL A   1      40.169  26.531  27.780  1.00  0.00    -0.014 A 
BRANCH  34  35
ATOM     35  C   UNL A   1      40.798  27.712  28.407  1.00  0.00     0.031 A 
ATOM     36  C   UNL A   1      42.295  27.729  28.548  1.00  0.00     0.074 A 
ATOM     37  C   UNL A   1      40.051  28.741  28.838  1.00  0.00     0.049 A 
ATOM     38  N   UNL A   1      43.056  28.581  29.179  1.00  0.00    -0.248 NA
ATOM     39  C   UNL A   1      43.032  26.634  27.891  1.00  0.00     0.031 C 
ATOM     40  C   UNL A   1      38.602  28.853  28.683  1.00  0.00     0.029 A 
ATOM     41  N   UNL A   1      40.409  29.883  29.506  1.00  0.00    -0.354 N 
ATOM     42  C   UNL A   1      44.356  28.120  29.010  1.00  0.00     0.074 A 
ATOM     43  C   UNL A   1      44.282  26.898  28.241  1.00  0.00     0.031 C 
ATOM     44  C   UNL A   1      38.190  29.995  29.258  1.00  0.00     0.029 A 
ATOM     45  C   UNL A   1      39.339  30.668  29.861  1.00  0.00     0.049 A 
ATOM     46  H   UNL A   1      41.343  30.118  29.712  1.00  0.00     0.167 HD
ATOM     47  C   UNL A   1      45.507  28.676  29.454  1.00  0.00     0.037 A 
ATOM     48  C   UNL A   1      39.294  31.783  30.617  1.00  0.00     0.037 A 
ATOM     49  C   UNL A   1      45.558  29.898  30.212  1.00  0.00     0.049 A 
ATOM     50  C   UNL A   1      40.577  32.334  31.182  1.00  0.00     0.074 A 
ATOM     51  C   UNL A   1      46.670  30.552  30.710  1.00  0.00     0.029 A 
ATOM     52  N   UNL A   1      44.450  30.647  30.582  1.00  0.00    -0.354 N 
ATOM     53  N   UNL A   1      41.802  31.886  31.029  1.00  0.00    -0.248 NA
ATOM     54  C   UNL A   1      40.479  33.533  32.027  1.00  0.00     0.031 C 
ATOM     55  C   UNL A   1      46.231  31.665  31.431  1.00  0.00     0.029 A 
ATOM     56  C   UNL A   1      44.850  31.742  31.326  1.00  0.00     0.049 A 
ATOM     57  H   UNL A   1      43.518  30.430  30.350  1.00  0.00     0.167 HD
ATOM     58  C   UNL A   1      42.621  32.766  31.729  1.00  0.00     0.074 A 
ATOM     59  C   UNL A   1      41.754  33.771  32.308  1.00  0.00     0.031 C 
ATOM     60  C   UNL A   1      43.969  32.745  31.875  1.00  0.00     0.037 A 
BRANCH  47  61
ATOM     61  C   UNL A   1      46.800  27.969  29.152  1.00  0.00     0.058 A 
ATOM     62  C   UNL A   1      47.457  28.185  27.930  1.00  0.00     0.135 A 
ATOM     63  C   UNL A   1      47.354  27.031  30.037  1.00  0.00     0.135 A 
ATOM     64  F   UNL A   1      46.978  29.078  27.050  1.00  0.00    -0.206 F 
ATOM     65  C   UNL A   1      48.606  27.478  27.586  1.00  0.00     0.059 A 
ATOM     66  C   UNL A   1      48.519  26.334  29.726  1.00  0.00     0.059 A 
ATOM     67  F   UNL A   1      46.779  26.805  31.229  1.00  0.00    -0.206 F 
ATOM     68  C   UNL A   1      49.128  26.554  28.492  1.00  0.00     0.060 A 
BRANCH  68  69
ATOM     69  S   UNL A   1      50.632  25.663  28.037  1.00  0.00     0.124 S 
ATOM     70  O   UNL A   1      51.438  25.796  29.245  1.00  0.00    -0.237 OA
ATOM     71  O   UNL A   1      50.118  24.325  27.757  1.00  0.00    -0.237 OA
ATOM     72  O   UNL A   1      51.118  26.394  26.871  1.00  0.00    -0.744 OA
ENDBRANCH  68  69
ENDBRANCH  47  61
BRANCH  48  73
ATOM     73  C   UNL A   1      37.986  32.440  30.881  1.00  0.00     0.058 A 
ATOM     74  C   UNL A   1      37.459  33.396  29.998  1.00  0.00     0.135 A 
ATOM     75  C   UNL A   1      37.258  32.155  32.045  1.00  0.00     0.135 A 
ATOM     76  F   UNL A   1      38.118  33.712  28.872  1.00  0.00    -0.206 F 
ATOM     77  C   UNL A   1      36.274  34.070  30.276  1.00  0.00     0.059 A 
ATOM     78  C   UNL A   1      36.057  32.796  32.332  1.00  0.00     0.059 A 
ATOM     79  F   UNL A   1      37.715  31.239  32.912  1.00  0.00    -0.206 F 
ATOM     80  C   UNL A   1      35.582  33.765  31.449  1.00  0.00     0.060 A 
BRANCH  80  81
ATOM     81  S   UNL A   1      34.061  34.670  31.803  1.00  0.00     0.124 S 
ATOM     82  O   UNL A   1      34.586  35.935  32.305  1.00  0.00    -0.237 OA
ATOM     83  O   UNL A   1      33.427  34.722  30.489  1.00  0.00    -0.237 OA
ATOM     84  O   UNL A   1      33.390  33.831  32.790  1.00  0.00    -0.744 OA
ENDBRANCH  80  81
ENDBRANCH  48  73
BRANCH  60  85
ATOM     85  C   UNL A   1      44.619  33.854  32.655  1.00  0.00     0.058 A 
ATOM     86  C   UNL A   1      44.746  33.751  34.050  1.00  0.00     0.135 A 
ATOM     87  C   UNL A   1      44.973  35.068  32.050  1.00  0.00     0.135 A 
ATOM     88  F   UNL A   1      44.413  32.612  34.678  1.00  0.00    -0.206 F 
ATOM     89  C   UNL A   1      45.158  34.830  34.823  1.00  0.00     0.059 A 
ATOM     90  C   UNL A   1      45.416  36.153  32.802  1.00  0.00     0.059 A 
ATOM     91  F   UNL A   1      44.881  35.212  30.718  1.00  0.00    -0.206 F 
ATOM     92  C   UNL A   1      45.478  36.032  34.191  1.00  0.00     0.060 A 
BRANCH  92  93
ATOM     93  S   UNL A   1      45.961  37.436  35.216  1.00  0.00     0.124 S 
ATOM     94  O   UNL A   1      44.687  37.822  35.814  1.00  0.00    -0.237 OA
ATOM     95  O   UNL A   1      46.931  36.832  36.124  1.00  0.00    -0.237 OA
ATOM     96  O   UNL A   1      46.516  38.384  34.255  1.00  0.00    -0.744 OA
ENDBRANCH  92  93
ENDBRANCH  60  85
ENDBRANCH  34  35
ENDBRANCH  27  29
ENDBRANCH  26  27
ENDBRANCH  25  26
ENDBRANCH  24  25
ENDBRANCH   1  24
TORSDOF 22
ENDMDL
