MODEL 1
REMARK VINA RESULT:      -9.6      0.000      0.000
REMARK SMILES O=C(OCCOCCOC(=O)[C@@H](CCOCCO)c1cccc(F)c1)c1ccc(-c2c3nc(c(-c4c(F)cc(S(=O)(=O)[O-])cc4F)c4ccc([nH]4)c(-c4c(F)cc(S(=O)(=O)[O-])cc4F)c4nc(c(-c5c(F)cc(S(=O)(=O)[O-])cc5F)c5ccc2[nH]5)C=C4)C=C3)cc1
REMARK SMILES IDX 7 1 6 2 5 3 4 4 3 5 2 6 1 7 26 8 27 9 91 10 28 11 90 12
REMARK SMILES IDX 29 13 30 14 31 15 84 16 32 17 89 18 83 19 85 20 33 21 88 22
REMARK SMILES IDX 82 23 81 24 34 26 68 27 47 28 67 29 48 30 51 31 66 32 86 33
REMARK SMILES IDX 49 34 50 35 65 37 87 38 52 39 35 40 36 41 45 42 37 43 38 44
REMARK SMILES IDX 44 45 46 46 39 47 40 48 41 49 42 50 43 51 69 52 70 53 79 54
REMARK SMILES IDX 71 55 72 56 78 57 80 58 73 59 74 60 75 61 76 62 77 63 53 64
REMARK SMILES IDX 54 65 63 66 55 67 56 68 62 69 64 70 57 71 58 72 59 73 60 74
REMARK SMILES IDX 61 75 8 76 9 77 10 78 11 79 12 80 13 81 14 82 15 83 16 84
REMARK SMILES IDX 17 85 18 86 19 88 20 89 25 90 21 91 23 92 22 93 24 94
REMARK H PARENT 85 25 51 36 18 87
REMARK Flexibility Score: inf
ROOT
ATOM      1  C   UNL A   1      38.238  21.900  25.614  1.00  0.00     0.202 C 
ENDROOT
BRANCH   1   2
ATOM      2  O   UNL A   1      39.467  21.910  26.342  1.00  0.00    -0.374 OA
BRANCH   2   3
ATOM      3  C   UNL A   1      39.659  22.991  27.255  1.00  0.00     0.202 C 
BRANCH   3   4
ATOM      4  C   UNL A   1      41.103  23.459  27.478  1.00  0.00     0.261 C 
BRANCH   4   5
ATOM      5  O   UNL A   1      41.538  24.304  26.396  1.00  0.00    -0.460 OA
BRANCH   5   6
ATOM      6  C   UNL A   1      41.458  25.653  26.296  1.00  0.00     0.338 C 
ATOM      7  O   UNL A   1      41.487  26.160  25.176  1.00  0.00    -0.246 OA
BRANCH   6   8
ATOM      8  C   UNL A   1      41.421  26.565  27.482  1.00  0.00     0.060 A 
ATOM      9  C   UNL A   1      40.373  26.626  28.394  1.00  0.00     0.016 A 
ATOM     10  C   UNL A   1      42.554  27.358  27.743  1.00  0.00     0.016 A 
ATOM     11  C   UNL A   1      40.434  27.382  29.541  1.00  0.00     0.010 A 
ATOM     12  C   UNL A   1      42.618  28.165  28.886  1.00  0.00     0.010 A 
ATOM     13  C   UNL A   1      41.552  28.162  29.785  1.00  0.00    -0.014 A 
BRANCH  13  14
ATOM     14  C   UNL A   1      41.416  29.066  30.928  1.00  0.00     0.031 A 
ATOM     15  C   UNL A   1      40.278  30.037  30.894  1.00  0.00     0.074 A 
ATOM     16  C   UNL A   1      42.093  28.778  32.054  1.00  0.00     0.049 A 
ATOM     17  N   UNL A   1      39.894  30.884  31.803  1.00  0.00    -0.248 NA
ATOM     18  C   UNL A   1      39.422  30.011  29.691  1.00  0.00     0.031 C 
ATOM     19  C   UNL A   1      43.038  27.664  32.204  1.00  0.00     0.029 A 
ATOM     20  N   UNL A   1      42.039  29.336  33.298  1.00  0.00    -0.354 N 
ATOM     21  C   UNL A   1      38.766  31.502  31.281  1.00  0.00     0.074 A 
ATOM     22  C   UNL A   1      38.511  30.926  29.983  1.00  0.00     0.031 C 
ATOM     23  C   UNL A   1      43.451  27.608  33.480  1.00  0.00     0.029 A 
ATOM     24  C   UNL A   1      42.862  28.721  34.212  1.00  0.00     0.049 A 
ATOM     25  H   UNL A   1      41.465  30.105  33.521  1.00  0.00     0.167 HD
ATOM     26  C   UNL A   1      38.027  32.478  31.849  1.00  0.00     0.037 A 
ATOM     27  C   UNL A   1      43.124  29.062  35.489  1.00  0.00     0.037 A 
ATOM     28  C   UNL A   1      38.343  33.029  33.136  1.00  0.00     0.049 A 
ATOM     29  C   UNL A   1      42.417  30.276  36.029  1.00  0.00     0.074 A 
ATOM     30  C   UNL A   1      37.796  34.126  33.769  1.00  0.00     0.029 A 
ATOM     31  N   UNL A   1      39.307  32.504  33.990  1.00  0.00    -0.354 N 
ATOM     32  N   UNL A   1      41.459  30.981  35.471  1.00  0.00    -0.248 NA
ATOM     33  C   UNL A   1      42.844  30.768  37.342  1.00  0.00     0.031 C 
ATOM     34  C   UNL A   1      38.459  34.288  34.990  1.00  0.00     0.029 A 
ATOM     35  C   UNL A   1      39.384  33.262  35.140  1.00  0.00     0.049 A 
ATOM     36  H   UNL A   1      39.855  31.707  33.801  1.00  0.00     0.167 HD
ATOM     37  C   UNL A   1      41.161  31.998  36.366  1.00  0.00     0.074 A 
ATOM     38  C   UNL A   1      42.030  31.801  37.513  1.00  0.00     0.031 C 
ATOM     39  C   UNL A   1      40.265  33.008  36.255  1.00  0.00     0.037 A 
BRANCH  26  40
ATOM     40  C   UNL A   1      36.900  33.053  31.043  1.00  0.00     0.058 A 
ATOM     41  C   UNL A   1      35.572  32.740  31.369  1.00  0.00     0.135 A 
ATOM     42  C   UNL A   1      37.123  33.925  29.966  1.00  0.00     0.135 A 
ATOM     43  F   UNL A   1      35.303  31.936  32.410  1.00  0.00    -0.206 F 
ATOM     44  C   UNL A   1      34.503  33.256  30.645  1.00  0.00     0.059 A 
ATOM     45  C   UNL A   1      36.066  34.470  29.239  1.00  0.00     0.059 A 
ATOM     46  F   UNL A   1      38.373  34.297  29.646  1.00  0.00    -0.206 F 
ATOM     47  C   UNL A   1      34.760  34.118  29.579  1.00  0.00     0.060 A 
BRANCH  47  48
ATOM     48  S   UNL A   1      33.356  34.806  28.675  1.00  0.00     0.124 S 
ATOM     49  O   UNL A   1      32.398  35.048  29.748  1.00  0.00    -0.237 OA
ATOM     50  O   UNL A   1      33.940  35.996  28.061  1.00  0.00    -0.237 OA
ATOM     51  O   UNL A   1      33.001  33.741  27.741  1.00  0.00    -0.744 OA
ENDBRANCH  47  48
ENDBRANCH  26  40
BRANCH  27  52
ATOM     52  C   UNL A   1      44.136  28.314  36.286  1.00  0.00     0.058 A 
ATOM     53  C   UNL A   1      45.489  28.699  36.283  1.00  0.00     0.135 A 
ATOM     54  C   UNL A   1      43.783  27.208  37.073  1.00  0.00     0.135 A 
ATOM     55  F   UNL A   1      45.890  29.750  35.553  1.00  0.00    -0.206 F 
ATOM     56  C   UNL A   1      46.452  28.005  37.007  1.00  0.00     0.059 A 
ATOM     57  C   UNL A   1      44.725  26.514  37.831  1.00  0.00     0.059 A 
ATOM     58  F   UNL A   1      42.504  26.805  37.125  1.00  0.00    -0.206 F 
ATOM     59  C   UNL A   1      46.061  26.915  37.781  1.00  0.00     0.060 A 
BRANCH  59  60
ATOM     60  S   UNL A   1      47.326  26.053  38.740  1.00  0.00     0.124 S 
ATOM     61  O   UNL A   1      46.702  25.992  40.059  1.00  0.00    -0.237 OA
ATOM     62  O   UNL A   1      47.434  24.782  38.031  1.00  0.00    -0.237 OA
ATOM     63  O   UNL A   1      48.488  26.928  38.633  1.00  0.00    -0.744 OA
ENDBRANCH  59  60
ENDBRANCH  27  52
BRANCH  39  64
ATOM     64  C   UNL A   1      40.166  33.960  37.407  1.00  0.00     0.058 A 
ATOM     65  C   UNL A   1      39.196  33.763  38.401  1.00  0.00     0.135 A 
ATOM     66  C   UNL A   1      40.957  35.116  37.465  1.00  0.00     0.135 A 
ATOM     67  F   UNL A   1      38.414  32.672  38.378  1.00  0.00    -0.206 F 
ATOM     68  C   UNL A   1      38.993  34.700  39.403  1.00  0.00     0.059 A 
ATOM     69  C   UNL A   1      40.788  36.055  38.475  1.00  0.00     0.059 A 
ATOM     70  F   UNL A   1      41.904  35.335  36.539  1.00  0.00    -0.206 F 
ATOM     71  C   UNL A   1      39.788  35.847  39.426  1.00  0.00     0.060 A 
BRANCH  71  72
ATOM     72  S   UNL A   1      39.499  37.063  40.726  1.00  0.00     0.124 S 
ATOM     73  O   UNL A   1      40.828  37.641  40.893  1.00  0.00    -0.237 OA
ATOM     74  O   UNL A   1      38.499  37.935  40.116  1.00  0.00    -0.237 OA
ATOM     75  O   UNL A   1      39.019  36.256  41.843  1.00  0.00    -0.744 OA
ENDBRANCH  71  72
ENDBRANCH  39  64
ENDBRANCH  13  14
ENDBRANCH   6   8
ENDBRANCH   5   6
ENDBRANCH   4   5
ENDBRANCH   3   4
ENDBRANCH   2   3
ENDBRANCH   1   2
BRANCH   1  76
ATOM     76  C   UNL A   1      37.570  23.272  25.653  1.00  0.00     0.261 C 
BRANCH  76  77
ATOM     77  O   UNL A   1      36.329  23.223  24.929  1.00  0.00    -0.463 OA
BRANCH  77  78
ATOM     78  C   UNL A   1      35.187  23.137  25.667  1.00  0.00     0.313 C 
ATOM     79  O   UNL A   1      35.135  23.165  26.881  1.00  0.00    -0.252 OA
BRANCH  78  80
ATOM     80  C   UNL A   1      33.953  22.936  24.778  1.00  0.00     0.131 C 
BRANCH  80  81
ATOM     81  C   UNL A   1      33.773  21.465  24.311  1.00  0.00     0.048 C 
BRANCH  81  82
ATOM     82  C   UNL A   1      34.352  20.301  25.143  1.00  0.00     0.161 C 
BRANCH  82  83
ATOM     83  O   UNL A   1      34.268  19.017  24.537  1.00  0.00    -0.379 OA
BRANCH  83  84
ATOM     84  C   UNL A   1      32.985  18.662  24.020  1.00  0.00     0.188 C 
BRANCH  84  85
ATOM     85  C   UNL A   1      32.962  17.589  22.925  1.00  0.00     0.184 C 
BRANCH  85  86
ATOM     86  O   UNL A   1      31.862  17.677  22.033  1.00  0.00    -0.394 OA
ATOM     87  H   UNL A   1      32.188  17.703  21.120  1.00  0.00     0.210 HD
ENDBRANCH  85  86
ENDBRANCH  84  85
ENDBRANCH  83  84
ENDBRANCH  82  83
ENDBRANCH  81  82
ENDBRANCH  80  81
BRANCH  80  88
ATOM     88  C   UNL A   1      32.731  23.670  25.312  1.00  0.00    -0.031 A 
ATOM     89  C   UNL A   1      32.539  25.045  25.109  1.00  0.00     0.005 A 
ATOM     90  C   UNL A   1      31.758  22.972  26.051  1.00  0.00     0.043 A 
ATOM     91  C   UNL A   1      31.364  25.677  25.519  1.00  0.00     0.003 A 
ATOM     92  C   UNL A   1      30.595  23.612  26.462  1.00  0.00     0.123 A 
ATOM     93  C   UNL A   1      30.380  24.953  26.183  1.00  0.00     0.039 A 
ATOM     94  F   UNL A   1      29.659  22.918  27.122  1.00  0.00    -0.207 F 
ENDBRANCH  80  88
ENDBRANCH  78  80
ENDBRANCH  77  78
ENDBRANCH  76  77
ENDBRANCH   1  76
TORSDOF 24
ENDMDL
MODEL 2
REMARK VINA RESULT:      -8.4      6.391     10.637
REMARK SMILES O=C(OCCOCCOC(=O)[C@@H](CCOCCO)c1cccc(F)c1)c1ccc(-c2c3nc(c(-c4c(F)cc(S(=O)(=O)[O-])cc4F)c4ccc([nH]4)c(-c4c(F)cc(S(=O)(=O)[O-])cc4F)c4nc(c(-c5c(F)cc(S(=O)(=O)[O-])cc5F)c5ccc2[nH]5)C=C4)C=C3)cc1
REMARK SMILES IDX 7 1 6 2 5 3 4 4 3 5 2 6 1 7 26 8 27 9 91 10 28 11 90 12
REMARK SMILES IDX 29 13 30 14 31 15 84 16 32 17 89 18 83 19 85 20 33 21 88 22
REMARK SMILES IDX 82 23 81 24 34 26 68 27 47 28 67 29 48 30 51 31 66 32 86 33
REMARK SMILES IDX 49 34 50 35 65 37 87 38 52 39 35 40 36 41 45 42 37 43 38 44
REMARK SMILES IDX 44 45 46 46 39 47 40 48 41 49 42 50 43 51 69 52 70 53 79 54
REMARK SMILES IDX 71 55 72 56 78 57 80 58 73 59 74 60 75 61 76 62 77 63 53 64
REMARK SMILES IDX 54 65 63 66 55 67 56 68 62 69 64 70 57 71 58 72 59 73 60 74
REMARK SMILES IDX 61 75 8 76 9 77 10 78 11 79 12 80 13 81 14 82 15 83 16 84
REMARK SMILES IDX 17 85 18 86 19 88 20 89 25 90 21 91 23 92 22 93 24 94
REMARK H PARENT 85 25 51 36 18 87
REMARK Flexibility Score: inf
ROOT
ATOM      1  C   UNL A   1      42.246  22.642  27.600  1.00  0.00     0.202 C 
ENDROOT
BRANCH   1   2
ATOM      2  O   UNL A   1      41.126  23.262  28.232  1.00  0.00    -0.374 OA
BRANCH   2   3
ATOM      3  C   UNL A   1      39.943  23.397  27.445  1.00  0.00     0.202 C 
BRANCH   3   4
ATOM      4  C   UNL A   1      39.461  24.824  27.158  1.00  0.00     0.261 C 
BRANCH   4   5
ATOM      5  O   UNL A   1      40.078  25.340  25.964  1.00  0.00    -0.460 OA
BRANCH   5   6
ATOM      6  C   UNL A   1      41.317  25.867  25.815  1.00  0.00     0.338 C 
ATOM      7  O   UNL A   1      42.109  25.299  25.065  1.00  0.00    -0.246 OA
BRANCH   6   8
ATOM      8  C   UNL A   1      41.801  27.059  26.579  1.00  0.00     0.060 A 
ATOM      9  C   UNL A   1      42.452  26.994  27.807  1.00  0.00     0.016 A 
ATOM     10  C   UNL A   1      41.665  28.326  25.985  1.00  0.00     0.016 A 
ATOM     11  C   UNL A   1      42.996  28.100  28.414  1.00  0.00     0.010 A 
ATOM     12  C   UNL A   1      42.179  29.471  26.607  1.00  0.00     0.010 A 
ATOM     13  C   UNL A   1      42.853  29.344  27.821  1.00  0.00    -0.014 A 
BRANCH  13  14
ATOM     14  C   UNL A   1      43.298  30.462  28.654  1.00  0.00     0.031 A 
ATOM     15  C   UNL A   1      44.610  31.090  28.302  1.00  0.00     0.074 A 
ATOM     16  C   UNL A   1      42.398  31.059  29.456  1.00  0.00     0.049 A 
ATOM     17  N   UNL A   1      45.190  32.130  28.826  1.00  0.00    -0.248 NA
ATOM     18  C   UNL A   1      45.346  30.494  27.169  1.00  0.00     0.031 C 
ATOM     19  C   UNL A   1      41.008  30.620  29.632  1.00  0.00     0.029 A 
ATOM     20  N   UNL A   1      42.483  32.197  30.205  1.00  0.00    -0.354 N 
ATOM     21  C   UNL A   1      46.360  32.307  28.100  1.00  0.00     0.074 A 
ATOM     22  C   UNL A   1      46.408  31.279  27.088  1.00  0.00     0.031 C 
ATOM     23  C   UNL A   1      40.367  31.497  30.419  1.00  0.00     0.029 A 
ATOM     24  C   UNL A   1      41.316  32.512  30.859  1.00  0.00     0.049 A 
ATOM     25  H   UNL A   1      43.302  32.739  30.272  1.00  0.00     0.167 HD
ATOM     26  C   UNL A   1      47.310  33.246  28.290  1.00  0.00     0.037 A 
ATOM     27  C   UNL A   1      41.073  33.498  31.745  1.00  0.00     0.037 A 
ATOM     28  C   UNL A   1      47.218  34.230  29.331  1.00  0.00     0.049 A 
ATOM     29  C   UNL A   1      42.219  34.416  32.073  1.00  0.00     0.074 A 
ATOM     30  C   UNL A   1      48.168  35.137  29.754  1.00  0.00     0.029 A 
ATOM     31  N   UNL A   1      46.087  34.429  30.114  1.00  0.00    -0.354 N 
ATOM     32  N   UNL A   1      43.403  34.482  31.507  1.00  0.00    -0.248 NA
ATOM     33  C   UNL A   1      42.023  35.361  33.176  1.00  0.00     0.031 C 
ATOM     34  C   UNL A   1      47.623  35.857  30.823  1.00  0.00     0.029 A 
ATOM     35  C   UNL A   1      46.316  35.434  31.031  1.00  0.00     0.049 A 
ATOM     36  H   UNL A   1      45.244  33.926  30.027  1.00  0.00     0.167 HD
ATOM     37  C   UNL A   1      44.094  35.480  32.179  1.00  0.00     0.074 A 
ATOM     38  C   UNL A   1      43.183  36.003  33.181  1.00  0.00     0.031 C 
ATOM     39  C   UNL A   1      45.363  35.920  31.999  1.00  0.00     0.037 A 
BRANCH  26  40
ATOM     40  C   UNL A   1      48.537  33.175  27.431  1.00  0.00     0.058 A 
ATOM     41  C   UNL A   1      48.659  34.011  26.310  1.00  0.00     0.135 A 
ATOM     42  C   UNL A   1      49.600  32.304  27.719  1.00  0.00     0.135 A 
ATOM     43  F   UNL A   1      47.686  34.884  26.009  1.00  0.00    -0.206 F 
ATOM     44  C   UNL A   1      49.783  33.973  25.492  1.00  0.00     0.059 A 
ATOM     45  C   UNL A   1      50.744  32.263  26.924  1.00  0.00     0.059 A 
ATOM     46  F   UNL A   1      49.554  31.521  28.808  1.00  0.00    -0.206 F 
ATOM     47  C   UNL A   1      50.820  33.093  25.806  1.00  0.00     0.060 A 
BRANCH  47  48
ATOM     48  S   UNL A   1      52.286  33.086  24.752  1.00  0.00     0.124 S 
ATOM     49  O   UNL A   1      53.253  32.384  25.587  1.00  0.00    -0.237 OA
ATOM     50  O   UNL A   1      51.814  32.361  23.575  1.00  0.00    -0.237 OA
ATOM     51  O   UNL A   1      52.553  34.506  24.535  1.00  0.00    -0.744 OA
ENDBRANCH  47  48
ENDBRANCH  26  40
BRANCH  27  52
ATOM     52  C   UNL A   1      39.751  33.607  32.423  1.00  0.00     0.058 A 
ATOM     53  C   UNL A   1      38.720  34.393  31.876  1.00  0.00     0.135 A 
ATOM     54  C   UNL A   1      39.479  32.930  33.621  1.00  0.00     0.135 A 
ATOM     55  F   UNL A   1      38.917  35.063  30.731  1.00  0.00    -0.206 F 
ATOM     56  C   UNL A   1      37.485  34.522  32.501  1.00  0.00     0.059 A 
ATOM     57  C   UNL A   1      38.238  33.020  34.250  1.00  0.00     0.059 A 
ATOM     58  F   UNL A   1      40.421  32.155  34.179  1.00  0.00    -0.206 F 
ATOM     59  C   UNL A   1      37.251  33.829  33.687  1.00  0.00     0.060 A 
BRANCH  59  60
ATOM     60  S   UNL A   1      35.625  33.985  34.459  1.00  0.00     0.124 S 
ATOM     61  O   UNL A   1      35.951  33.788  35.868  1.00  0.00    -0.237 OA
ATOM     62  O   UNL A   1      35.237  35.340  34.081  1.00  0.00    -0.237 OA
ATOM     63  O   UNL A   1      34.850  32.917  33.837  1.00  0.00    -0.744 OA
ENDBRANCH  59  60
ENDBRANCH  27  52
BRANCH  39  64
ATOM     64  C   UNL A   1      45.829  37.032  32.888  1.00  0.00     0.058 A 
ATOM     65  C   UNL A   1      45.647  38.367  32.499  1.00  0.00     0.135 A 
ATOM     66  C   UNL A   1      46.547  36.770  34.063  1.00  0.00     0.135 A 
ATOM     67  F   UNL A   1      44.972  38.660  31.376  1.00  0.00    -0.206 F 
ATOM     68  C   UNL A   1      46.189  39.410  33.235  1.00  0.00     0.059 A 
ATOM     69  C   UNL A   1      47.076  37.801  34.830  1.00  0.00     0.059 A 
ATOM     70  F   UNL A   1      46.733  35.506  34.476  1.00  0.00    -0.206 F 
ATOM     71  C   UNL A   1      46.909  39.117  34.394  1.00  0.00     0.060 A 
BRANCH  71  72
ATOM     72  S   UNL A   1      47.621  40.484  35.329  1.00  0.00     0.124 S 
ATOM     73  O   UNL A   1      48.072  41.370  34.263  1.00  0.00    -0.237 OA
ATOM     74  O   UNL A   1      46.477  40.955  36.105  1.00  0.00    -0.237 OA
ATOM     75  O   UNL A   1      48.678  39.847  36.109  1.00  0.00    -0.744 OA
ENDBRANCH  71  72
ENDBRANCH  39  64
ENDBRANCH  13  14
ENDBRANCH   6   8
ENDBRANCH   5   6
ENDBRANCH   4   5
ENDBRANCH   3   4
ENDBRANCH   2   3
ENDBRANCH   1   2
BRANCH   1  76
ATOM     76  C   UNL A   1      43.554  23.288  28.052  1.00  0.00     0.261 C 
BRANCH  76  77
ATOM     77  O   UNL A   1      44.280  23.757  26.903  1.00  0.00    -0.463 OA
BRANCH  77  78
ATOM     78  C   UNL A   1      45.637  23.815  27.010  1.00  0.00     0.313 C 
ATOM     79  O   UNL A   1      46.254  23.844  28.057  1.00  0.00    -0.252 OA
BRANCH  78  80
ATOM     80  C   UNL A   1      46.310  23.903  25.635  1.00  0.00     0.131 C 
BRANCH  80  81
ATOM     81  C   UNL A   1      45.772  22.851  24.626  1.00  0.00     0.048 C 
BRANCH  81  82
ATOM     82  C   UNL A   1      45.748  21.351  24.993  1.00  0.00     0.161 C 
BRANCH  82  83
ATOM     83  O   UNL A   1      44.679  20.602  24.428  1.00  0.00    -0.379 OA
BRANCH  83  84
ATOM     84  C   UNL A   1      43.591  20.320  25.308  1.00  0.00     0.188 C 
BRANCH  84  85
ATOM     85  C   UNL A   1      43.618  18.959  26.014  1.00  0.00     0.184 C 
BRANCH  85  86
ATOM     86  O   UNL A   1      43.140  17.877  25.230  1.00  0.00    -0.394 OA
ATOM     87  H   UNL A   1      43.168  18.121  24.292  1.00  0.00     0.210 HD
ENDBRANCH  85  86
ENDBRANCH  84  85
ENDBRANCH  83  84
ENDBRANCH  82  83
ENDBRANCH  81  82
ENDBRANCH  80  81
BRANCH  80  88
ATOM     88  C   UNL A   1      46.458  25.340  25.155  1.00  0.00    -0.031 A 
ATOM     89  C   UNL A   1      45.423  26.280  25.286  1.00  0.00     0.005 A 
ATOM     90  C   UNL A   1      47.652  25.759  24.540  1.00  0.00     0.043 A 
ATOM     91  C   UNL A   1      45.615  27.617  24.932  1.00  0.00     0.003 A 
ATOM     92  C   UNL A   1      47.830  27.090  24.184  1.00  0.00     0.123 A 
ATOM     93  C   UNL A   1      46.830  28.026  24.395  1.00  0.00     0.039 A 
ATOM     94  F   UNL A   1      48.993  27.477  23.645  1.00  0.00    -0.207 F 
ENDBRANCH  80  88
ENDBRANCH  78  80
ENDBRANCH  77  78
ENDBRANCH  76  77
ENDBRANCH   1  76
TORSDOF 24
ENDMDL
MODEL 3
REMARK VINA RESULT:      -8.4      8.727     14.303
REMARK SMILES O=C(OCCOCCOC(=O)[C@@H](CCOCCO)c1cccc(F)c1)c1ccc(-c2c3nc(c(-c4c(F)cc(S(=O)(=O)[O-])cc4F)c4ccc([nH]4)c(-c4c(F)cc(S(=O)(=O)[O-])cc4F)c4nc(c(-c5c(F)cc(S(=O)(=O)[O-])cc5F)c5ccc2[nH]5)C=C4)C=C3)cc1
REMARK SMILES IDX 7 1 6 2 5 3 4 4 3 5 2 6 1 7 26 8 27 9 91 10 28 11 90 12
REMARK SMILES IDX 29 13 30 14 31 15 84 16 32 17 89 18 83 19 85 20 33 21 88 22
REMARK SMILES IDX 82 23 81 24 34 26 68 27 47 28 67 29 48 30 51 31 66 32 86 33
REMARK SMILES IDX 49 34 50 35 65 37 87 38 52 39 35 40 36 41 45 42 37 43 38 44
REMARK SMILES IDX 44 45 46 46 39 47 40 48 41 49 42 50 43 51 69 52 70 53 79 54
REMARK SMILES IDX 71 55 72 56 78 57 80 58 73 59 74 60 75 61 76 62 77 63 53 64
REMARK SMILES IDX 54 65 63 66 55 67 56 68 62 69 64 70 57 71 58 72 59 73 60 74
REMARK SMILES IDX 61 75 8 76 9 77 10 78 11 79 12 80 13 81 14 82 15 83 16 84
REMARK SMILES IDX 17 85 18 86 19 88 20 89 25 90 21 91 23 92 22 93 24 94
REMARK H PARENT 85 25 51 36 18 87
REMARK Flexibility Score: inf
ROOT
ATOM      1  C   UNL A   1      39.455  32.882  32.121  1.00  0.00     0.202 C 
ENDROOT
BRANCH   1   2
ATOM      2  O   UNL A   1      40.163  33.845  31.339  1.00  0.00    -0.374 OA
BRANCH   2   3
ATOM      3  C   UNL A   1      39.398  34.576  30.382  1.00  0.00     0.202 C 
BRANCH   3   4
ATOM      4  C   UNL A   1      39.964  34.653  28.958  1.00  0.00     0.261 C 
BRANCH   4   5
ATOM      5  O   UNL A   1      40.926  35.718  28.848  1.00  0.00    -0.460 OA
BRANCH   5   6
ATOM      6  C   UNL A   1      41.923  35.864  27.943  1.00  0.00     0.338 C 
ATOM      7  O   UNL A   1      41.875  36.816  27.165  1.00  0.00    -0.246 OA
BRANCH   6   8
ATOM      8  C   UNL A   1      43.039  34.880  27.783  1.00  0.00     0.060 A 
ATOM      9  C   UNL A   1      43.700  34.263  28.840  1.00  0.00     0.016 A 
ATOM     10  C   UNL A   1      43.394  34.488  26.479  1.00  0.00     0.016 A 
ATOM     11  C   UNL A   1      44.630  33.269  28.650  1.00  0.00     0.010 A 
ATOM     12  C   UNL A   1      44.368  33.504  26.265  1.00  0.00     0.010 A 
ATOM     13  C   UNL A   1      44.975  32.893  27.362  1.00  0.00    -0.014 A 
BRANCH  13  14
ATOM     14  C   UNL A   1      46.110  31.973  27.288  1.00  0.00     0.031 A 
ATOM     15  C   UNL A   1      45.796  30.516  27.153  1.00  0.00     0.074 A 
ATOM     16  C   UNL A   1      47.328  32.482  27.025  1.00  0.00     0.049 A 
ATOM     17  N   UNL A   1      46.607  29.512  26.993  1.00  0.00    -0.248 NA
ATOM     18  C   UNL A   1      44.366  30.146  27.147  1.00  0.00     0.031 C 
ATOM     19  C   UNL A   1      47.630  33.912  26.892  1.00  0.00     0.029 A 
ATOM     20  N   UNL A   1      48.513  31.866  26.745  1.00  0.00    -0.354 N 
ATOM     21  C   UNL A   1      45.793  28.393  26.880  1.00  0.00     0.074 A 
ATOM     22  C   UNL A   1      44.423  28.835  26.974  1.00  0.00     0.031 C 
ATOM     23  C   UNL A   1      48.914  34.058  26.530  1.00  0.00     0.029 A 
ATOM     24  C   UNL A   1      49.538  32.742  26.479  1.00  0.00     0.049 A 
ATOM     25  H   UNL A   1      48.624  30.887  26.736  1.00  0.00     0.167 HD
ATOM     26  C   UNL A   1      46.180  27.109  26.727  1.00  0.00     0.037 A 
ATOM     27  C   UNL A   1      50.843  32.489  26.259  1.00  0.00     0.037 A 
ATOM     28  C   UNL A   1      47.562  26.727  26.663  1.00  0.00     0.049 A 
ATOM     29  C   UNL A   1      51.269  31.046  26.282  1.00  0.00     0.074 A 
ATOM     30  C   UNL A   1      48.113  25.462  26.676  1.00  0.00     0.029 A 
ATOM     31  N   UNL A   1      48.614  27.630  26.570  1.00  0.00    -0.354 N 
ATOM     32  N   UNL A   1      50.517  29.970  26.349  1.00  0.00    -0.248 NA
ATOM     33  C   UNL A   1      52.709  30.774  26.243  1.00  0.00     0.031 C 
ATOM     34  C   UNL A   1      49.505  25.604  26.632  1.00  0.00     0.029 A 
ATOM     35  C   UNL A   1      49.817  26.955  26.540  1.00  0.00     0.049 A 
ATOM     36  H   UNL A   1      48.516  28.610  26.531  1.00  0.00     0.167 HD
ATOM     37  C   UNL A   1      51.389  28.892  26.353  1.00  0.00     0.074 A 
ATOM     38  C   UNL A   1      52.727  29.448  26.260  1.00  0.00     0.031 C 
ATOM     39  C   UNL A   1      51.120  27.566  26.436  1.00  0.00     0.037 A 
BRANCH  26  40
ATOM     40  C   UNL A   1      45.109  26.059  26.722  1.00  0.00     0.058 A 
ATOM     41  C   UNL A   1      44.599  25.580  25.505  1.00  0.00     0.135 A 
ATOM     42  C   UNL A   1      44.600  25.508  27.908  1.00  0.00     0.135 A 
ATOM     43  F   UNL A   1      45.075  26.051  24.342  1.00  0.00    -0.206 F 
ATOM     44  C   UNL A   1      43.608  24.606  25.463  1.00  0.00     0.059 A 
ATOM     45  C   UNL A   1      43.620  24.517  27.890  1.00  0.00     0.059 A 
ATOM     46  F   UNL A   1      45.091  25.894  29.097  1.00  0.00    -0.206 F 
ATOM     47  C   UNL A   1      43.123  24.082  26.662  1.00  0.00     0.060 A 
BRANCH  47  48
ATOM     48  S   UNL A   1      41.862  22.791  26.584  1.00  0.00     0.124 S 
ATOM     49  O   UNL A   1      40.635  23.575  26.502  1.00  0.00    -0.237 OA
ATOM     50  O   UNL A   1      42.239  22.068  25.372  1.00  0.00    -0.237 OA
ATOM     51  O   UNL A   1      42.056  22.053  27.829  1.00  0.00    -0.744 OA
ENDBRANCH  47  48
ENDBRANCH  26  40
BRANCH  27  52
ATOM     52  C   UNL A   1      51.819  33.601  26.089  1.00  0.00     0.058 A 
ATOM     53  C   UNL A   1      52.354  34.271  27.204  1.00  0.00     0.135 A 
ATOM     54  C   UNL A   1      52.246  34.018  24.820  1.00  0.00     0.135 A 
ATOM     55  F   UNL A   1      51.987  33.917  28.444  1.00  0.00    -0.206 F 
ATOM     56  C   UNL A   1      53.254  35.322  27.067  1.00  0.00     0.059 A 
ATOM     57  C   UNL A   1      53.171  35.050  24.658  1.00  0.00     0.059 A 
ATOM     58  F   UNL A   1      51.779  33.406  23.721  1.00  0.00    -0.206 F 
ATOM     59  C   UNL A   1      53.660  35.703  25.790  1.00  0.00     0.060 A 
BRANCH  59  60
ATOM     60  S   UNL A   1      54.856  37.048  25.641  1.00  0.00     0.124 S 
ATOM     61  O   UNL A   1      53.999  38.160  25.242  1.00  0.00    -0.237 OA
ATOM     62  O   UNL A   1      55.402  37.122  26.993  1.00  0.00    -0.237 OA
ATOM     63  O   UNL A   1      55.781  36.567  24.620  1.00  0.00    -0.744 OA
ENDBRANCH  59  60
ENDBRANCH  27  52
BRANCH  39  64
ATOM     64  C   UNL A   1      52.290  26.631  26.409  1.00  0.00     0.058 A 
ATOM     65  C   UNL A   1      52.998  26.356  27.588  1.00  0.00     0.135 A 
ATOM     66  C   UNL A   1      52.769  26.101  25.203  1.00  0.00     0.135 A 
ATOM     67  F   UNL A   1      52.576  26.851  28.763  1.00  0.00    -0.206 F 
ATOM     68  C   UNL A   1      54.163  25.605  27.569  1.00  0.00     0.059 A 
ATOM     69  C   UNL A   1      53.920  25.324  25.164  1.00  0.00     0.059 A 
ATOM     70  F   UNL A   1      52.114  26.332  24.054  1.00  0.00    -0.206 F 
ATOM     71  C   UNL A   1      54.621  25.101  26.350  1.00  0.00     0.060 A 
BRANCH  71  72
ATOM     72  S   UNL A   1      56.147  24.141  26.340  1.00  0.00     0.124 S 
ATOM     73  O   UNL A   1      56.862  24.708  27.478  1.00  0.00    -0.237 OA
ATOM     74  O   UNL A   1      55.655  22.777  26.515  1.00  0.00    -0.237 OA
ATOM     75  O   UNL A   1      56.720  24.430  25.029  1.00  0.00    -0.744 OA
ENDBRANCH  71  72
ENDBRANCH  39  64
ENDBRANCH  13  14
ENDBRANCH   6   8
ENDBRANCH   5   6
ENDBRANCH   4   5
ENDBRANCH   3   4
ENDBRANCH   2   3
ENDBRANCH   1   2
BRANCH   1  76
ATOM     76  C   UNL A   1      40.201  31.550  32.150  1.00  0.00     0.261 C 
BRANCH  76  77
ATOM     77  O   UNL A   1      39.930  30.821  30.941  1.00  0.00    -0.463 OA
BRANCH  77  78
ATOM     78  C   UNL A   1      38.820  30.031  30.931  1.00  0.00     0.313 C 
ATOM     79  O   UNL A   1      38.327  29.506  31.911  1.00  0.00    -0.252 OA
BRANCH  78  80
ATOM     80  C   UNL A   1      38.285  29.824  29.509  1.00  0.00     0.131 C 
BRANCH  80  81
ATOM     81  C   UNL A   1      37.866  31.152  28.817  1.00  0.00     0.048 C 
BRANCH  81  82
ATOM     82  C   UNL A   1      36.785  32.057  29.447  1.00  0.00     0.161 C 
BRANCH  82  83
ATOM     83  O   UNL A   1      35.440  31.662  29.201  1.00  0.00    -0.379 OA
BRANCH  83  84
ATOM     84  C   UNL A   1      34.453  32.671  29.415  1.00  0.00     0.188 C 
BRANCH  84  85
ATOM     85  C   UNL A   1      34.642  33.560  30.651  1.00  0.00     0.184 C 
BRANCH  85  86
ATOM     86  O   UNL A   1      34.528  34.952  30.400  1.00  0.00    -0.394 OA
ATOM     87  H   UNL A   1      34.776  35.136  29.480  1.00  0.00     0.210 HD
ENDBRANCH  85  86
ENDBRANCH  84  85
ENDBRANCH  83  84
ENDBRANCH  82  83
ENDBRANCH  81  82
ENDBRANCH  80  81
BRANCH  80  88
ATOM     88  C   UNL A   1      39.131  28.842  28.711  1.00  0.00    -0.031 A 
ATOM     89  C   UNL A   1      39.214  27.482  29.050  1.00  0.00     0.005 A 
ATOM     90  C   UNL A   1      39.877  29.289  27.606  1.00  0.00     0.043 A 
ATOM     91  C   UNL A   1      39.913  26.580  28.247  1.00  0.00     0.003 A 
ATOM     92  C   UNL A   1      40.577  28.384  26.816  1.00  0.00     0.123 A 
ATOM     93  C   UNL A   1      40.583  27.031  27.116  1.00  0.00     0.039 A 
ATOM     94  F   UNL A   1      41.241  28.825  25.740  1.00  0.00    -0.207 F 
ENDBRANCH  80  88
ENDBRANCH  78  80
ENDBRANCH  77  78
ENDBRANCH  76  77
ENDBRANCH   1  76
TORSDOF 24
ENDMDL
