MODEL 1
REMARK VINA RESULT:     -12.7      0.000      0.000
REMARK SMILES O=C(OCCOCCOC(=O)[C@H]1[C@H]2CC[C@H](CC2)[C@@H]1C(=O)Nc1sc2c(c1C(=O)N1CCCCC1)CCCC2)c1ccc(-c2c3nc(c(-c4c(F)cc(S(=O)(=O)[O-])cc4F)c4ccc([nH]4)c(-c4c(F)cc(S(=O)(=O)[O-])cc4F)c4nc(c(-c5c(F)cc(S(=O)(=O)[O-])cc5F)c5ccc2[nH]5)C=C4)C=C3)cc1
REMARK SMILES IDX 6 1 5 2 4 3 3 4 2 5 1 6 40 7 41 8 105 9 42 10 104 11 43 12
REMARK SMILES IDX 44 13 45 14 98 15 46 16 103 17 97 18 99 19 47 20 102 21
REMARK SMILES IDX 96 22 95 23 48 25 82 26 61 27 81 28 62 29 65 30 80 31 100 32
REMARK SMILES IDX 63 33 64 34 79 36 101 37 66 38 49 39 50 40 59 41 51 42 52 43
REMARK SMILES IDX 58 44 60 45 53 46 54 47 55 48 56 49 57 50 83 51 84 52 93 53
REMARK SMILES IDX 85 54 86 55 92 56 94 57 87 58 88 59 89 60 90 61 91 62 67 63
REMARK SMILES IDX 68 64 77 65 69 66 70 67 76 68 78 69 71 70 72 71 73 72 74 73
REMARK SMILES IDX 75 74 7 75 8 76 9 77 10 78 11 79 12 80 13 81 19 82 18 83
REMARK SMILES IDX 14 84 16 85 17 86 15 87 20 88 21 89 22 90 23 92 24 93 27 94
REMARK SMILES IDX 25 95 26 96 39 97 36 98 38 99 37 100 28 101 29 102 30 103
REMARK SMILES IDX 31 104 35 105 32 106 34 107 33 108
REMARK H PARENT 99 24 65 35 22 91
REMARK Flexibility Score: inf
ROOT
ATOM      1  O   UNL A   1      33.149  31.880  27.716  1.00  0.00    -0.374 OA
ENDROOT
BRANCH   1   2
ATOM      2  C   UNL A   1      34.113  32.818  28.184  1.00  0.00     0.202 C 
BRANCH   2   3
ATOM      3  C   UNL A   1      35.566  32.470  27.891  1.00  0.00     0.261 C 
BRANCH   3   4
ATOM      4  O   UNL A   1      36.252  32.110  29.097  1.00  0.00    -0.460 OA
BRANCH   4   5
ATOM      5  C   UNL A   1      36.611  30.865  29.482  1.00  0.00     0.338 C 
ATOM      6  O   UNL A   1      35.783  30.152  30.044  1.00  0.00    -0.246 OA
BRANCH   5   7
ATOM      7  C   UNL A   1      37.968  30.317  29.214  1.00  0.00     0.060 A 
ATOM      8  C   UNL A   1      38.947  30.128  30.190  1.00  0.00     0.016 A 
ATOM      9  C   UNL A   1      38.254  29.915  27.905  1.00  0.00     0.016 A 
ATOM     10  C   UNL A   1      40.179  29.607  29.910  1.00  0.00     0.010 A 
ATOM     11  C   UNL A   1      39.494  29.355  27.603  1.00  0.00     0.010 A 
ATOM     12  C   UNL A   1      40.447  29.209  28.617  1.00  0.00    -0.014 A 
BRANCH  12  13
ATOM     13  C   UNL A   1      41.812  28.775  28.372  1.00  0.00     0.031 A 
ATOM     14  C   UNL A   1      42.882  29.793  28.532  1.00  0.00     0.074 A 
ATOM     15  C   UNL A   1      42.046  27.465  28.195  1.00  0.00     0.049 A 
ATOM     16  N   UNL A   1      44.138  29.715  28.217  1.00  0.00    -0.248 NA
ATOM     17  C   UNL A   1      42.480  31.078  29.138  1.00  0.00     0.031 C 
ATOM     18  C   UNL A   1      41.030  26.407  28.263  1.00  0.00     0.029 A 
ATOM     19  N   UNL A   1      43.207  26.799  27.944  1.00  0.00    -0.354 N 
ATOM     20  C   UNL A   1      44.667  30.963  28.512  1.00  0.00     0.074 A 
ATOM     21  C   UNL A   1      43.605  31.770  29.067  1.00  0.00     0.031 C 
ATOM     22  C   UNL A   1      41.616  25.223  28.037  1.00  0.00     0.029 A 
ATOM     23  C   UNL A   1      43.015  25.460  27.711  1.00  0.00     0.049 A 
ATOM     24  H   UNL A   1      44.091  27.233  27.930  1.00  0.00     0.167 HD
ATOM     25  C   UNL A   1      45.930  31.379  28.285  1.00  0.00     0.037 A 
ATOM     26  C   UNL A   1      43.874  24.559  27.205  1.00  0.00     0.037 A 
ATOM     27  C   UNL A   1      46.918  30.505  27.713  1.00  0.00     0.049 A 
ATOM     28  C   UNL A   1      45.247  25.063  26.861  1.00  0.00     0.074 A 
ATOM     29  C   UNL A   1      48.214  30.784  27.336  1.00  0.00     0.029 A 
ATOM     30  N   UNL A   1      46.693  29.157  27.434  1.00  0.00    -0.354 N 
ATOM     31  N   UNL A   1      45.734  26.275  27.007  1.00  0.00    -0.248 NA
ATOM     32  C   UNL A   1      46.180  24.102  26.269  1.00  0.00     0.031 C 
ATOM     33  C   UNL A   1      48.757  29.616  26.785  1.00  0.00     0.029 A 
ATOM     34  C   UNL A   1      47.822  28.591  26.879  1.00  0.00     0.049 A 
ATOM     35  H   UNL A   1      45.850  28.679  27.608  1.00  0.00     0.167 HD
ATOM     36  C   UNL A   1      47.042  26.223  26.552  1.00  0.00     0.074 A 
ATOM     37  C   UNL A   1      47.264  24.852  26.122  1.00  0.00     0.031 C 
ATOM     38  C   UNL A   1      47.976  27.206  26.493  1.00  0.00     0.037 A 
BRANCH  25  39
ATOM     39  C   UNL A   1      46.222  32.831  28.531  1.00  0.00     0.058 A 
ATOM     40  C   UNL A   1      46.013  33.818  27.553  1.00  0.00     0.135 A 
ATOM     41  C   UNL A   1      46.822  33.225  29.738  1.00  0.00     0.135 A 
ATOM     42  F   UNL A   1      45.485  33.491  26.363  1.00  0.00    -0.206 F 
ATOM     43  C   UNL A   1      46.429  35.133  27.746  1.00  0.00     0.059 A 
ATOM     44  C   UNL A   1      47.220  34.539  29.964  1.00  0.00     0.059 A 
ATOM     45  F   UNL A   1      47.067  32.320  30.699  1.00  0.00    -0.206 F 
ATOM     46  C   UNL A   1      47.043  35.480  28.951  1.00  0.00     0.060 A 
BRANCH  46  47
ATOM     47  S   UNL A   1      47.634  37.173  29.164  1.00  0.00     0.124 S 
ATOM     48  O   UNL A   1      48.607  37.277  28.080  1.00  0.00    -0.237 OA
ATOM     49  O   UNL A   1      46.413  37.953  28.995  1.00  0.00    -0.237 OA
ATOM     50  O   UNL A   1      48.193  37.171  30.512  1.00  0.00    -0.744 OA
ENDBRANCH  46  47
ENDBRANCH  25  39
BRANCH  26  51
ATOM     51  C   UNL A   1      43.419  23.171  26.939  1.00  0.00     0.058 A 
ATOM     52  C   UNL A   1      43.254  22.696  25.632  1.00  0.00     0.135 A 
ATOM     53  C   UNL A   1      43.214  22.261  27.993  1.00  0.00     0.135 A 
ATOM     54  F   UNL A   1      43.439  23.522  24.591  1.00  0.00    -0.206 F 
ATOM     55  C   UNL A   1      42.905  21.372  25.375  1.00  0.00     0.059 A 
ATOM     56  C   UNL A   1      42.891  20.927  27.761  1.00  0.00     0.059 A 
ATOM     57  F   UNL A   1      43.376  22.656  29.265  1.00  0.00    -0.206 F 
ATOM     58  C   UNL A   1      42.733  20.493  26.447  1.00  0.00     0.060 A 
BRANCH  58  59
ATOM     59  S   UNL A   1      42.342  18.764  26.099  1.00  0.00     0.124 S 
ATOM     60  O   UNL A   1      40.938  18.852  25.717  1.00  0.00    -0.237 OA
ATOM     61  O   UNL A   1      43.279  18.450  25.023  1.00  0.00    -0.237 OA
ATOM     62  O   UNL A   1      42.610  18.095  27.368  1.00  0.00    -0.744 OA
ENDBRANCH  58  59
ENDBRANCH  26  51
BRANCH  38  63
ATOM     63  C   UNL A   1      49.337  26.809  26.012  1.00  0.00     0.058 A 
ATOM     64  C   UNL A   1      49.718  26.959  24.673  1.00  0.00     0.135 A 
ATOM     65  C   UNL A   1      50.301  26.385  26.940  1.00  0.00     0.135 A 
ATOM     66  F   UNL A   1      48.823  27.353  23.754  1.00  0.00    -0.206 F 
ATOM     67  C   UNL A   1      51.020  26.702  24.266  1.00  0.00     0.059 A 
ATOM     68  C   UNL A   1      51.613  26.150  26.561  1.00  0.00     0.059 A 
ATOM     69  F   UNL A   1      49.976  26.238  28.235  1.00  0.00    -0.206 F 
ATOM     70  C   UNL A   1      51.963  26.312  25.221  1.00  0.00     0.060 A 
BRANCH  70  71
ATOM     71  S   UNL A   1      53.671  26.070  24.696  1.00  0.00     0.124 S 
ATOM     72  O   UNL A   1      53.745  24.616  24.602  1.00  0.00    -0.237 OA
ATOM     73  O   UNL A   1      53.710  26.793  23.427  1.00  0.00    -0.237 OA
ATOM     74  O   UNL A   1      54.445  26.672  25.777  1.00  0.00    -0.744 OA
ENDBRANCH  70  71
ENDBRANCH  38  63
ENDBRANCH  12  13
ENDBRANCH   5   7
ENDBRANCH   4   5
ENDBRANCH   3   4
ENDBRANCH   2   3
ENDBRANCH   1   2
BRANCH   1  75
ATOM     75  C   UNL A   1      33.653  30.647  27.199  1.00  0.00     0.202 C 
BRANCH  75  76
ATOM     76  C   UNL A   1      32.561  29.595  27.277  1.00  0.00     0.261 C 
BRANCH  76  77
ATOM     77  O   UNL A   1      32.458  29.026  25.966  1.00  0.00    -0.463 OA
BRANCH  77  78
ATOM     78  C   UNL A   1      32.863  27.731  25.847  1.00  0.00     0.310 C 
ATOM     79  O   UNL A   1      34.003  27.339  25.990  1.00  0.00    -0.252 OA
BRANCH  78  80
ATOM     80  C   UNL A   1      31.655  26.802  25.644  1.00  0.00     0.115 C 
ATOM     81  C   UNL A   1      30.600  27.326  24.610  1.00  0.00     0.004 C 
ATOM     82  C   UNL A   1      32.190  25.419  25.256  1.00  0.00     0.096 C 
ATOM     83  C   UNL A   1      31.284  27.647  23.278  1.00  0.00     0.005 C 
ATOM     84  C   UNL A   1      29.567  26.244  24.231  1.00  0.00     0.005 C 
ATOM     85  C   UNL A   1      31.799  25.191  23.764  1.00  0.00     0.002 C 
ATOM     86  C   UNL A   1      32.173  26.451  22.914  1.00  0.00     0.005 C 
ATOM     87  C   UNL A   1      30.277  25.002  23.679  1.00  0.00     0.005 C 
BRANCH  82  88
ATOM     88  C   UNL A   1      31.880  24.215  26.219  1.00  0.00     0.229 C 
ATOM     89  O   UNL A   1      31.147  24.408  27.196  1.00  0.00    -0.274 OA
ATOM     90  N   UNL A   1      32.134  22.915  25.808  1.00  0.00    -0.317 N 
ATOM     91  H   UNL A   1      31.377  22.412  25.431  1.00  0.00     0.170 HD
BRANCH  90  92
ATOM     92  C   UNL A   1      33.361  22.248  25.876  1.00  0.00     0.108 A 
ATOM     93  S   UNL A   1      34.527  22.828  26.959  1.00  0.00    -0.122 S 
ATOM     94  C   UNL A   1      33.814  21.080  25.236  1.00  0.00     0.078 A 
ATOM     95  C   UNL A   1      35.767  22.103  26.075  1.00  0.00     0.011 A 
ATOM     96  C   UNL A   1      35.287  21.030  25.346  1.00  0.00    -0.019 A 
ATOM     97  C   UNL A   1      37.187  22.563  26.194  1.00  0.00     0.047 C 
ATOM     98  C   UNL A   1      36.271  20.095  24.703  1.00  0.00     0.037 C 
ATOM     99  C   UNL A   1      38.111  21.832  25.217  1.00  0.00     0.006 C 
ATOM    100  C   UNL A   1      37.743  20.358  25.072  1.00  0.00     0.005 C 
BRANCH  94 101
ATOM    101  C   UNL A   1      32.874  20.240  24.452  1.00  0.00     0.257 C 
ATOM    102  O   UNL A   1      32.069  20.772  23.684  1.00  0.00    -0.269 OA
ATOM    103  N   UNL A   1      32.997  18.848  24.490  1.00  0.00    -0.339 N 
ATOM    104  C   UNL A   1      32.764  18.128  23.243  1.00  0.00     0.120 C 
ATOM    105  C   UNL A   1      32.638  18.066  25.672  1.00  0.00     0.120 C 
ATOM    106  C   UNL A   1      33.628  16.872  23.201  1.00  0.00     0.022 C 
ATOM    107  C   UNL A   1      33.422  16.747  25.726  1.00  0.00     0.022 C 
ATOM    108  C   UNL A   1      33.357  15.972  24.408  1.00  0.00     0.004 C 
ENDBRANCH  94 101
ENDBRANCH  90  92
ENDBRANCH  82  88
ENDBRANCH  78  80
ENDBRANCH  77  78
ENDBRANCH  76  77
ENDBRANCH  75  76
ENDBRANCH   1  75
TORSDOF 20
ENDMDL
MODEL 2
REMARK VINA RESULT:     -12.7      0.649      7.861
REMARK SMILES O=C(OCCOCCOC(=O)[C@H]1[C@H]2CC[C@H](CC2)[C@@H]1C(=O)Nc1sc2c(c1C(=O)N1CCCCC1)CCCC2)c1ccc(-c2c3nc(c(-c4c(F)cc(S(=O)(=O)[O-])cc4F)c4ccc([nH]4)c(-c4c(F)cc(S(=O)(=O)[O-])cc4F)c4nc(c(-c5c(F)cc(S(=O)(=O)[O-])cc5F)c5ccc2[nH]5)C=C4)C=C3)cc1
REMARK SMILES IDX 6 1 5 2 4 3 3 4 2 5 1 6 40 7 41 8 105 9 42 10 104 11 43 12
REMARK SMILES IDX 44 13 45 14 98 15 46 16 103 17 97 18 99 19 47 20 102 21
REMARK SMILES IDX 96 22 95 23 48 25 82 26 61 27 81 28 62 29 65 30 80 31 100 32
REMARK SMILES IDX 63 33 64 34 79 36 101 37 66 38 49 39 50 40 59 41 51 42 52 43
REMARK SMILES IDX 58 44 60 45 53 46 54 47 55 48 56 49 57 50 83 51 84 52 93 53
REMARK SMILES IDX 85 54 86 55 92 56 94 57 87 58 88 59 89 60 90 61 91 62 67 63
REMARK SMILES IDX 68 64 77 65 69 66 70 67 76 68 78 69 71 70 72 71 73 72 74 73
REMARK SMILES IDX 75 74 7 75 8 76 9 77 10 78 11 79 12 80 13 81 19 82 18 83
REMARK SMILES IDX 14 84 16 85 17 86 15 87 20 88 21 89 22 90 23 92 24 93 27 94
REMARK SMILES IDX 25 95 26 96 39 97 36 98 38 99 37 100 28 101 29 102 30 103
REMARK SMILES IDX 31 104 35 105 32 106 34 107 33 108
REMARK H PARENT 99 24 65 35 22 91
REMARK Flexibility Score: inf
ROOT
ATOM      1  O   UNL A   1      34.232  32.261  27.578  1.00  0.00    -0.374 OA
ENDROOT
BRANCH   1   2
ATOM      2  C   UNL A   1      35.527  31.995  28.107  1.00  0.00     0.202 C 
BRANCH   2   3
ATOM      3  C   UNL A   1      35.603  31.846  29.620  1.00  0.00     0.261 C 
BRANCH   3   4
ATOM      4  O   UNL A   1      35.830  30.478  29.982  1.00  0.00    -0.460 OA
BRANCH   4   5
ATOM      5  C   UNL A   1      36.820  30.004  30.772  1.00  0.00     0.338 C 
ATOM      6  O   UNL A   1      36.597  29.820  31.965  1.00  0.00    -0.246 OA
BRANCH   5   7
ATOM      7  C   UNL A   1      38.164  29.663  30.231  1.00  0.00     0.060 A 
ATOM      8  C   UNL A   1      39.251  29.274  31.015  1.00  0.00     0.016 A 
ATOM      9  C   UNL A   1      38.324  29.681  28.841  1.00  0.00     0.016 A 
ATOM     10  C   UNL A   1      40.469  28.953  30.482  1.00  0.00     0.010 A 
ATOM     11  C   UNL A   1      39.549  29.329  28.276  1.00  0.00     0.010 A 
ATOM     12  C   UNL A   1      40.612  28.968  29.111  1.00  0.00    -0.014 A 
BRANCH  12  13
ATOM     13  C   UNL A   1      41.961  28.730  28.626  1.00  0.00     0.031 A 
ATOM     14  C   UNL A   1      42.250  27.382  28.072  1.00  0.00     0.074 A 
ATOM     15  C   UNL A   1      42.803  29.771  28.538  1.00  0.00     0.049 A 
ATOM     16  N   UNL A   1      43.390  26.865  27.735  1.00  0.00    -0.248 NA
ATOM     17  C   UNL A   1      41.088  26.495  27.864  1.00  0.00     0.031 C 
ATOM     18  C   UNL A   1      42.466  31.163  28.864  1.00  0.00     0.029 A 
ATOM     19  N   UNL A   1      44.102  29.828  28.134  1.00  0.00    -0.354 N 
ATOM     20  C   UNL A   1      43.102  25.565  27.346  1.00  0.00     0.074 A 
ATOM     21  C   UNL A   1      41.673  25.382  27.452  1.00  0.00     0.031 C 
ATOM     22  C   UNL A   1      43.545  31.933  28.663  1.00  0.00     0.029 A 
ATOM     23  C   UNL A   1      44.660  31.072  28.297  1.00  0.00     0.049 A 
ATOM     24  H   UNL A   1      44.591  29.057  27.763  1.00  0.00     0.167 HD
ATOM     25  C   UNL A   1      43.987  24.617  26.977  1.00  0.00     0.037 A 
ATOM     26  C   UNL A   1      45.952  31.433  28.236  1.00  0.00     0.037 A 
ATOM     27  C   UNL A   1      45.398  24.888  26.914  1.00  0.00     0.049 A 
ATOM     28  C   UNL A   1      46.938  30.342  27.926  1.00  0.00     0.074 A 
ATOM     29  C   UNL A   1      46.440  24.028  26.647  1.00  0.00     0.029 A 
ATOM     30  N   UNL A   1      45.956  26.148  27.133  1.00  0.00    -0.354 N 
ATOM     31  N   UNL A   1      46.703  29.071  27.683  1.00  0.00    -0.248 NA
ATOM     32  C   UNL A   1      48.354  30.713  27.898  1.00  0.00     0.031 C 
ATOM     33  C   UNL A   1      47.631  24.757  26.751  1.00  0.00     0.029 A 
ATOM     34  C   UNL A   1      47.329  26.087  27.018  1.00  0.00     0.049 A 
ATOM     35  H   UNL A   1      45.442  26.963  27.340  1.00  0.00     0.167 HD
ATOM     36  C   UNL A   1      47.938  28.489  27.446  1.00  0.00     0.074 A 
ATOM     37  C   UNL A   1      48.918  29.555  27.578  1.00  0.00     0.031 C 
ATOM     38  C   UNL A   1      48.242  27.202  27.144  1.00  0.00     0.037 A 
BRANCH  25  39
ATOM     39  C   UNL A   1      43.450  23.231  26.765  1.00  0.00     0.058 A 
ATOM     40  C   UNL A   1      42.992  22.431  27.824  1.00  0.00     0.135 A 
ATOM     41  C   UNL A   1      43.493  22.656  25.484  1.00  0.00     0.135 A 
ATOM     42  F   UNL A   1      42.971  22.911  29.077  1.00  0.00    -0.206 F 
ATOM     43  C   UNL A   1      42.639  21.097  27.629  1.00  0.00     0.059 A 
ATOM     44  C   UNL A   1      43.119  21.335  25.260  1.00  0.00     0.059 A 
ATOM     45  F   UNL A   1      43.945  23.367  24.438  1.00  0.00    -0.206 F 
ATOM     46  C   UNL A   1      42.718  20.556  26.344  1.00  0.00     0.060 A 
BRANCH  46  47
ATOM     47  S   UNL A   1      42.318  18.810  26.115  1.00  0.00     0.124 S 
ATOM     48  O   UNL A   1      43.266  18.431  25.072  1.00  0.00    -0.237 OA
ATOM     49  O   UNL A   1      42.579  18.255  27.439  1.00  0.00    -0.237 OA
ATOM     50  O   UNL A   1      40.916  18.832  25.711  1.00  0.00    -0.744 OA
ENDBRANCH  46  47
ENDBRANCH  25  39
BRANCH  26  51
ATOM     51  C   UNL A   1      46.346  32.829  28.551  1.00  0.00     0.058 A 
ATOM     52  C   UNL A   1      46.450  33.801  27.548  1.00  0.00     0.135 A 
ATOM     53  C   UNL A   1      46.551  33.243  29.881  1.00  0.00     0.135 A 
ATOM     54  F   UNL A   1      46.263  33.460  26.263  1.00  0.00    -0.206 F 
ATOM     55  C   UNL A   1      46.741  35.130  27.846  1.00  0.00     0.059 A 
ATOM     56  C   UNL A   1      46.816  34.570  30.207  1.00  0.00     0.059 A 
ATOM     57  F   UNL A   1      46.446  32.359  30.885  1.00  0.00    -0.206 F 
ATOM     58  C   UNL A   1      46.914  35.506  29.180  1.00  0.00     0.060 A 
BRANCH  58  59
ATOM     59  S   UNL A   1      47.229  37.244  29.560  1.00  0.00     0.124 S 
ATOM     60  O   UNL A   1      48.536  37.446  28.946  1.00  0.00    -0.237 OA
ATOM     61  O   UNL A   1      46.106  37.907  28.904  1.00  0.00    -0.237 OA
ATOM     62  O   UNL A   1      47.205  37.281  31.018  1.00  0.00    -0.744 OA
ENDBRANCH  58  59
ENDBRANCH  26  51
BRANCH  38  63
ATOM     63  C   UNL A   1      49.682  26.900  26.870  1.00  0.00     0.058 A 
ATOM     64  C   UNL A   1      50.548  26.456  27.878  1.00  0.00     0.135 A 
ATOM     65  C   UNL A   1      50.158  26.947  25.550  1.00  0.00     0.135 A 
ATOM     66  F   UNL A   1      50.133  26.407  29.153  1.00  0.00    -0.206 F 
ATOM     67  C   UNL A   1      51.847  26.065  27.584  1.00  0.00     0.059 A 
ATOM     68  C   UNL A   1      51.443  26.532  25.231  1.00  0.00     0.059 A 
ATOM     69  F   UNL A   1      49.356  27.357  24.554  1.00  0.00    -0.206 F 
ATOM     70  C   UNL A   1      52.279  26.093  26.256  1.00  0.00     0.060 A 
BRANCH  70  71
ATOM     71  S   UNL A   1      53.937  25.494  25.877  1.00  0.00     0.124 S 
ATOM     72  O   UNL A   1      54.418  26.524  24.963  1.00  0.00    -0.237 OA
ATOM     73  O   UNL A   1      54.565  25.469  27.195  1.00  0.00    -0.237 OA
ATOM     74  O   UNL A   1      53.695  24.184  25.280  1.00  0.00    -0.744 OA
ENDBRANCH  70  71
ENDBRANCH  38  63
ENDBRANCH  12  13
ENDBRANCH   5   7
ENDBRANCH   4   5
ENDBRANCH   3   4
ENDBRANCH   2   3
ENDBRANCH   1   2
BRANCH   1  75
ATOM     75  C   UNL A   1      33.291  31.186  27.620  1.00  0.00     0.202 C 
BRANCH  75  76
ATOM     76  C   UNL A   1      33.810  30.041  26.769  1.00  0.00     0.261 C 
BRANCH  76  77
ATOM     77  O   UNL A   1      32.790  29.034  26.789  1.00  0.00    -0.463 OA
BRANCH  77  78
ATOM     78  C   UNL A   1      33.147  27.819  26.288  1.00  0.00     0.310 C 
ATOM     79  O   UNL A   1      34.276  27.373  26.272  1.00  0.00    -0.252 OA
BRANCH  78  80
ATOM     80  C   UNL A   1      31.903  27.020  25.866  1.00  0.00     0.115 C 
ATOM     81  C   UNL A   1      30.962  27.766  24.860  1.00  0.00     0.004 C 
ATOM     82  C   UNL A   1      32.380  25.675  25.305  1.00  0.00     0.096 C 
ATOM     83  C   UNL A   1      31.762  28.232  23.640  1.00  0.00     0.005 C 
ATOM     84  C   UNL A   1      29.896  26.829  24.253  1.00  0.00     0.005 C 
ATOM     85  C   UNL A   1      32.089  25.701  23.773  1.00  0.00     0.002 C 
ATOM     86  C   UNL A   1      32.601  27.044  23.153  1.00  0.00     0.005 C 
ATOM     87  C   UNL A   1      30.568  25.636  23.563  1.00  0.00     0.005 C 
BRANCH  82  88
ATOM     88  C   UNL A   1      31.927  24.366  26.049  1.00  0.00     0.229 C 
ATOM     89  O   UNL A   1      31.071  24.453  26.937  1.00  0.00    -0.274 OA
ATOM     90  N   UNL A   1      32.218  23.124  25.506  1.00  0.00    -0.317 N 
ATOM     91  H   UNL A   1      31.512  22.697  24.968  1.00  0.00     0.170 HD
BRANCH  90  92
ATOM     92  C   UNL A   1      33.415  22.416  25.647  1.00  0.00     0.108 A 
ATOM     93  S   UNL A   1      34.574  23.012  26.728  1.00  0.00    -0.122 S 
ATOM     94  C   UNL A   1      33.838  21.196  25.087  1.00  0.00     0.078 A 
ATOM     95  C   UNL A   1      35.807  22.191  25.922  1.00  0.00     0.011 A 
ATOM     96  C   UNL A   1      35.304  21.097  25.242  1.00  0.00    -0.019 A 
ATOM     97  C   UNL A   1      37.240  22.603  26.056  1.00  0.00     0.047 C 
ATOM     98  C   UNL A   1      36.267  20.090  24.681  1.00  0.00     0.037 C 
ATOM     99  C   UNL A   1      38.161  21.782  25.148  1.00  0.00     0.006 C 
ATOM    100  C   UNL A   1      37.738  20.318  25.077  1.00  0.00     0.005 C 
BRANCH  94 101
ATOM    101  C   UNL A   1      32.886  20.349  24.325  1.00  0.00     0.257 C 
ATOM    102  O   UNL A   1      32.100  20.870  23.532  1.00  0.00    -0.269 OA
ATOM    103  N   UNL A   1      32.980  18.957  24.414  1.00  0.00    -0.339 N 
ATOM    104  C   UNL A   1      32.741  18.197  23.191  1.00  0.00     0.120 C 
ATOM    105  C   UNL A   1      32.594  18.225  25.620  1.00  0.00     0.120 C 
ATOM    106  C   UNL A   1      33.578  16.923  23.202  1.00  0.00     0.022 C 
ATOM    107  C   UNL A   1      33.350  16.892  25.728  1.00  0.00     0.022 C 
ATOM    108  C   UNL A   1      33.279  16.073  24.438  1.00  0.00     0.004 C 
ENDBRANCH  94 101
ENDBRANCH  90  92
ENDBRANCH  82  88
ENDBRANCH  78  80
ENDBRANCH  77  78
ENDBRANCH  76  77
ENDBRANCH  75  76
ENDBRANCH   1  75
TORSDOF 20
ENDMDL
MODEL 3
REMARK VINA RESULT:     -11.0      1.169      2.596
REMARK SMILES O=C(OCCOCCOC(=O)[C@H]1[C@H]2CC[C@H](CC2)[C@@H]1C(=O)Nc1sc2c(c1C(=O)N1CCCCC1)CCCC2)c1ccc(-c2c3nc(c(-c4c(F)cc(S(=O)(=O)[O-])cc4F)c4ccc([nH]4)c(-c4c(F)cc(S(=O)(=O)[O-])cc4F)c4nc(c(-c5c(F)cc(S(=O)(=O)[O-])cc5F)c5ccc2[nH]5)C=C4)C=C3)cc1
REMARK SMILES IDX 6 1 5 2 4 3 3 4 2 5 1 6 40 7 41 8 105 9 42 10 104 11 43 12
REMARK SMILES IDX 44 13 45 14 98 15 46 16 103 17 97 18 99 19 47 20 102 21
REMARK SMILES IDX 96 22 95 23 48 25 82 26 61 27 81 28 62 29 65 30 80 31 100 32
REMARK SMILES IDX 63 33 64 34 79 36 101 37 66 38 49 39 50 40 59 41 51 42 52 43
REMARK SMILES IDX 58 44 60 45 53 46 54 47 55 48 56 49 57 50 83 51 84 52 93 53
REMARK SMILES IDX 85 54 86 55 92 56 94 57 87 58 88 59 89 60 90 61 91 62 67 63
REMARK SMILES IDX 68 64 77 65 69 66 70 67 76 68 78 69 71 70 72 71 73 72 74 73
REMARK SMILES IDX 75 74 7 75 8 76 9 77 10 78 11 79 12 80 13 81 19 82 18 83
REMARK SMILES IDX 14 84 16 85 17 86 15 87 20 88 21 89 22 90 23 92 24 93 27 94
REMARK SMILES IDX 25 95 26 96 39 97 36 98 38 99 37 100 28 101 29 102 30 103
REMARK SMILES IDX 31 104 35 105 32 106 34 107 33 108
REMARK H PARENT 99 24 65 35 22 91
REMARK Flexibility Score: inf
ROOT
ATOM      1  O   UNL A   1      33.760  30.241  27.212  1.00  0.00    -0.374 OA
ENDROOT
BRANCH   1   2
ATOM      2  C   UNL A   1      34.903  30.993  27.606  1.00  0.00     0.202 C 
BRANCH   2   3
ATOM      3  C   UNL A   1      34.753  31.794  28.893  1.00  0.00     0.261 C 
BRANCH   3   4
ATOM      4  O   UNL A   1      35.954  31.728  29.672  1.00  0.00    -0.460 OA
BRANCH   4   5
ATOM      5  C   UNL A   1      36.494  30.623  30.234  1.00  0.00     0.338 C 
ATOM      6  O   UNL A   1      35.839  29.991  31.059  1.00  0.00    -0.246 OA
BRANCH   5   7
ATOM      7  C   UNL A   1      37.844  30.126  29.854  1.00  0.00     0.060 A 
ATOM      8  C   UNL A   1      38.779  29.622  30.759  1.00  0.00     0.016 A 
ATOM      9  C   UNL A   1      38.169  30.113  28.493  1.00  0.00     0.016 A 
ATOM     10  C   UNL A   1      40.007  29.160  30.373  1.00  0.00     0.010 A 
ATOM     11  C   UNL A   1      39.403  29.619  28.076  1.00  0.00     0.010 A 
ATOM     12  C   UNL A   1      40.312  29.147  29.029  1.00  0.00    -0.014 A 
BRANCH  12  13
ATOM     13  C   UNL A   1      41.673  28.752  28.705  1.00  0.00     0.031 A 
ATOM     14  C   UNL A   1      42.727  29.791  28.841  1.00  0.00     0.074 A 
ATOM     15  C   UNL A   1      41.927  27.454  28.481  1.00  0.00     0.049 A 
ATOM     16  N   UNL A   1      43.966  29.751  28.464  1.00  0.00    -0.248 NA
ATOM     17  C   UNL A   1      42.326  31.049  29.501  1.00  0.00     0.031 C 
ATOM     18  C   UNL A   1      40.939  26.370  28.568  1.00  0.00     0.029 A 
ATOM     19  N   UNL A   1      43.089  26.822  28.155  1.00  0.00    -0.354 N 
ATOM     20  C   UNL A   1      44.481  31.003  28.768  1.00  0.00     0.074 A 
ATOM     21  C   UNL A   1      43.431  31.769  29.395  1.00  0.00     0.031 C 
ATOM     22  C   UNL A   1      41.540  25.206  28.281  1.00  0.00     0.029 A 
ATOM     23  C   UNL A   1      42.915  25.486  27.894  1.00  0.00     0.049 A 
ATOM     24  H   UNL A   1      43.961  27.277  28.111  1.00  0.00     0.167 HD
ATOM     25  C   UNL A   1      45.722  31.454  28.491  1.00  0.00     0.037 A 
ATOM     26  C   UNL A   1      43.768  24.619  27.322  1.00  0.00     0.037 A 
ATOM     27  C   UNL A   1      46.700  30.620  27.848  1.00  0.00     0.049 A 
ATOM     28  C   UNL A   1      45.111  25.164  26.926  1.00  0.00     0.074 A 
ATOM     29  C   UNL A   1      47.970  30.939  27.416  1.00  0.00     0.029 A 
ATOM     30  N   UNL A   1      46.492  29.275  27.542  1.00  0.00    -0.354 N 
ATOM     31  N   UNL A   1      45.578  26.384  27.083  1.00  0.00    -0.248 NA
ATOM     32  C   UNL A   1      46.035  24.242  26.264  1.00  0.00     0.031 C 
ATOM     33  C   UNL A   1      48.510  29.799  26.808  1.00  0.00     0.029 A 
ATOM     34  C   UNL A   1      47.604  28.751  26.917  1.00  0.00     0.049 A 
ATOM     35  H   UNL A   1      45.670  28.773  27.744  1.00  0.00     0.167 HD
ATOM     36  C   UNL A   1      46.862  26.375  26.563  1.00  0.00     0.074 A 
ATOM     37  C   UNL A   1      47.094  25.021  26.085  1.00  0.00     0.031 C 
ATOM     38  C   UNL A   1      47.770  27.380  26.487  1.00  0.00     0.037 A 
BRANCH  25  39
ATOM     39  C   UNL A   1      45.994  32.905  28.763  1.00  0.00     0.058 A 
ATOM     40  C   UNL A   1      46.499  33.360  29.993  1.00  0.00     0.135 A 
ATOM     41  C   UNL A   1      45.642  33.871  27.806  1.00  0.00     0.135 A 
ATOM     42  F   UNL A   1      46.810  32.486  30.963  1.00  0.00    -0.206 F 
ATOM     43  C   UNL A   1      46.601  34.719  30.279  1.00  0.00     0.059 A 
ATOM     44  C   UNL A   1      45.763  35.233  28.059  1.00  0.00     0.059 A 
ATOM     45  F   UNL A   1      45.132  33.495  26.622  1.00  0.00    -0.206 F 
ATOM     46  C   UNL A   1      46.219  35.648  29.309  1.00  0.00     0.060 A 
BRANCH  46  47
ATOM     47  S   UNL A   1      46.299  37.405  29.715  1.00  0.00     0.124 S 
ATOM     48  O   UNL A   1      45.123  37.558  30.568  1.00  0.00    -0.237 OA
ATOM     49  O   UNL A   1      47.587  37.511  30.391  1.00  0.00    -0.237 OA
ATOM     50  O   UNL A   1      46.219  38.060  28.414  1.00  0.00    -0.744 OA
ENDBRANCH  46  47
ENDBRANCH  25  39
BRANCH  26  51
ATOM     51  C   UNL A   1      43.332  23.228  27.040  1.00  0.00     0.058 A 
ATOM     52  C   UNL A   1      43.107  22.787  25.730  1.00  0.00     0.135 A 
ATOM     53  C   UNL A   1      43.206  22.283  28.076  1.00  0.00     0.135 A 
ATOM     54  F   UNL A   1      43.216  23.646  24.705  1.00  0.00    -0.206 F 
ATOM     55  C   UNL A   1      42.775  21.462  25.453  1.00  0.00     0.059 A 
ATOM     56  C   UNL A   1      42.901  20.949  27.822  1.00  0.00     0.059 A 
ATOM     57  F   UNL A   1      43.427  22.646  29.349  1.00  0.00    -0.206 F 
ATOM     58  C   UNL A   1      42.683  20.549  26.506  1.00  0.00     0.060 A 
BRANCH  58  59
ATOM     59  S   UNL A   1      42.314  18.821  26.128  1.00  0.00     0.124 S 
ATOM     60  O   UNL A   1      43.263  18.547  25.056  1.00  0.00    -0.237 OA
ATOM     61  O   UNL A   1      42.584  18.166  27.405  1.00  0.00    -0.237 OA
ATOM     62  O   UNL A   1      40.909  18.855  25.734  1.00  0.00    -0.744 OA
ENDBRANCH  58  59
ENDBRANCH  26  51
BRANCH  38  63
ATOM     63  C   UNL A   1      49.114  27.029  25.929  1.00  0.00     0.058 A 
ATOM     64  C   UNL A   1      49.408  27.174  24.567  1.00  0.00     0.135 A 
ATOM     65  C   UNL A   1      50.147  26.655  26.802  1.00  0.00     0.135 A 
ATOM     66  F   UNL A   1      48.446  27.521  23.699  1.00  0.00    -0.206 F 
ATOM     67  C   UNL A   1      50.693  26.961  24.086  1.00  0.00     0.059 A 
ATOM     68  C   UNL A   1      51.443  26.465  26.347  1.00  0.00     0.059 A 
ATOM     69  F   UNL A   1      49.907  26.514  28.116  1.00  0.00    -0.206 F 
ATOM     70  C   UNL A   1      51.706  26.621  24.987  1.00  0.00     0.060 A 
BRANCH  70  71
ATOM     71  S   UNL A   1      53.387  26.437  24.363  1.00  0.00     0.124 S 
ATOM     72  O   UNL A   1      53.318  27.181  23.110  1.00  0.00    -0.237 OA
ATOM     73  O   UNL A   1      54.180  27.049  25.425  1.00  0.00    -0.237 OA
ATOM     74  O   UNL A   1      53.542  24.991  24.229  1.00  0.00    -0.744 OA
ENDBRANCH  70  71
ENDBRANCH  38  63
ENDBRANCH  12  13
ENDBRANCH   5   7
ENDBRANCH   4   5
ENDBRANCH   3   4
ENDBRANCH   2   3
ENDBRANCH   1   2
BRANCH   1  75
ATOM     75  C   UNL A   1      33.949  29.298  26.154  1.00  0.00     0.202 C 
BRANCH  75  76
ATOM     76  C   UNL A   1      33.027  29.658  25.002  1.00  0.00     0.261 C 
BRANCH  76  77
ATOM     77  O   UNL A   1      31.952  28.711  25.039  1.00  0.00    -0.463 OA
BRANCH  77  78
ATOM     78  C   UNL A   1      32.191  27.518  24.428  1.00  0.00     0.310 C 
ATOM     79  O   UNL A   1      32.679  27.383  23.324  1.00  0.00    -0.252 OA
BRANCH  78  80
ATOM     80  C   UNL A   1      31.889  26.351  25.381  1.00  0.00     0.115 C 
ATOM     81  C   UNL A   1      30.369  26.160  25.713  1.00  0.00     0.004 C 
ATOM     82  C   UNL A   1      32.499  25.082  24.774  1.00  0.00     0.096 C 
ATOM     83  C   UNL A   1      29.560  26.044  24.419  1.00  0.00     0.005 C 
ATOM     84  C   UNL A   1      30.092  24.822  26.431  1.00  0.00     0.005 C 
ATOM     85  C   UNL A   1      31.308  24.181  24.328  1.00  0.00     0.002 C 
ATOM     86  C   UNL A   1      30.272  25.027  23.516  1.00  0.00     0.005 C 
ATOM     87  C   UNL A   1      30.599  23.649  25.583  1.00  0.00     0.005 C 
BRANCH  82  88
ATOM     88  C   UNL A   1      33.625  24.346  25.589  1.00  0.00     0.229 C 
ATOM     89  O   UNL A   1      34.614  24.991  25.953  1.00  0.00    -0.274 OA
ATOM     90  N   UNL A   1      33.366  23.114  26.171  1.00  0.00    -0.317 N 
ATOM     91  H   UNL A   1      33.105  23.117  27.121  1.00  0.00     0.170 HD
BRANCH  90  92
ATOM     92  C   UNL A   1      33.440  21.867  25.543  1.00  0.00     0.108 A 
ATOM     93  S   UNL A   1      32.136  20.802  25.726  1.00  0.00    -0.122 S 
ATOM     94  C   UNL A   1      34.409  21.324  24.681  1.00  0.00     0.078 A 
ATOM     95  C   UNL A   1      33.119  19.476  25.378  1.00  0.00     0.011 A 
ATOM     96  C   UNL A   1      34.210  19.861  24.620  1.00  0.00    -0.019 A 
ATOM     97  C   UNL A   1      32.738  18.088  25.790  1.00  0.00     0.047 C 
ATOM     98  C   UNL A   1      35.060  18.797  23.986  1.00  0.00     0.037 C 
ATOM     99  C   UNL A   1      33.834  17.071  25.463  1.00  0.00     0.006 C 
ATOM    100  C   UNL A   1      34.510  17.366  24.127  1.00  0.00     0.005 C 
BRANCH  94 101
ATOM    101  C   UNL A   1      35.507  22.174  24.153  1.00  0.00     0.257 C 
ATOM    102  O   UNL A   1      35.305  22.904  23.181  1.00  0.00    -0.269 OA
ATOM    103  N   UNL A   1      36.720  22.239  24.844  1.00  0.00    -0.339 N 
ATOM    104  C   UNL A   1      37.382  23.538  24.899  1.00  0.00     0.120 C 
ATOM    105  C   UNL A   1      37.662  21.121  24.873  1.00  0.00     0.120 C 
ATOM    106  C   UNL A   1      38.159  23.669  26.204  1.00  0.00     0.022 C 
ATOM    107  C   UNL A   1      38.536  21.162  26.135  1.00  0.00     0.022 C 
ATOM    108  C   UNL A   1      39.172  22.534  26.364  1.00  0.00     0.004 C 
ENDBRANCH  94 101
ENDBRANCH  90  92
ENDBRANCH  82  88
ENDBRANCH  78  80
ENDBRANCH  77  78
ENDBRANCH  76  77
ENDBRANCH  75  76
ENDBRANCH   1  75
TORSDOF 20
ENDMDL
