MODEL 1
REMARK VINA RESULT:     -11.4      0.000      0.000
REMARK SMILES Cc1cc2[nH]ccc2nc1C(=O)OCCOCCOC(=O)c1ccc(-c2c3nc(c(-c4c(F)cc(S(=O)(=O)[O-])cc4F)c4ccc([nH]4)c(-c4c(F)cc(S(=O)(=O)[O-])cc4F)c4nc(c(-c5c(F)cc(S(=O)(=O)[O-])cc5F)c5ccc2[nH]5)C=C4)C=C3)cc1
REMARK SMILES IDX 17 1 16 2 15 3 14 4 13 5 11 6 12 7 10 8 1 9 2 10 3 11 4 12
REMARK SMILES IDX 9 13 5 14 8 15 6 16 7 18 18 19 19 20 20 21 21 22 22 23 23 24
REMARK SMILES IDX 87 25 24 26 86 27 25 28 26 29 27 30 80 31 28 32 85 33 79 34
REMARK SMILES IDX 81 35 29 36 84 37 78 38 77 39 30 41 64 42 43 43 63 44 44 45
REMARK SMILES IDX 47 46 62 47 82 48 45 49 46 50 61 52 83 53 48 54 31 55 32 56
REMARK SMILES IDX 41 57 33 58 34 59 40 60 42 61 35 62 36 63 37 64 38 65 39 66
REMARK SMILES IDX 65 67 66 68 75 69 67 70 68 71 74 72 76 73 69 74 70 75 71 76
REMARK SMILES IDX 72 77 73 78 49 79 50 80 59 81 51 82 52 83 58 84 60 85 53 86
REMARK SMILES IDX 54 87 55 88 56 89 57 90
REMARK H PARENT 5 17 81 40 47 51
REMARK Flexibility Score: inf
ROOT
ATOM      1  C   UNL A   1      40.064  22.086  26.966  1.00  0.00     0.202 C 
ENDROOT
BRANCH   1   2
ATOM      2  O   UNL A   1      39.054  22.836  26.294  1.00  0.00    -0.374 OA
BRANCH   2   3
ATOM      3  C   UNL A   1      37.935  22.177  25.702  1.00  0.00     0.202 C 
BRANCH   3   4
ATOM      4  C   UNL A   1      37.064  22.960  24.722  1.00  0.00     0.261 C 
BRANCH   4   5
ATOM      5  O   UNL A   1      36.014  22.153  24.169  1.00  0.00    -0.459 OA
BRANCH   5   6
ATOM      6  C   UNL A   1      34.916  22.021  24.960  1.00  0.00     0.357 C 
ATOM      7  O   UNL A   1      34.562  22.807  25.826  1.00  0.00    -0.244 OA
BRANCH   6   8
ATOM      8  C   UNL A   1      34.096  20.839  24.544  1.00  0.00     0.152 A 
ATOM      9  C   UNL A   1      32.175  22.276  23.659  1.00  0.00     0.047 C 
ATOM     10  C   UNL A   1      32.867  20.962  23.878  1.00  0.00    -0.016 A 
ATOM     11  C   UNL A   1      32.241  19.791  23.423  1.00  0.00     0.034 A 
ATOM     12  C   UNL A   1      32.894  18.587  23.690  1.00  0.00     0.064 A 
ATOM     13  N   UNL A   1      34.719  19.662  24.831  1.00  0.00    -0.239 NA
ATOM     14  N   UNL A   1      32.578  17.286  23.374  1.00  0.00    -0.360 N 
ATOM     15  C   UNL A   1      34.086  18.554  24.399  1.00  0.00     0.089 A 
ATOM     16  C   UNL A   1      33.516  16.434  23.905  1.00  0.00     0.085 A 
ATOM     17  H   UNL A   1      31.795  17.006  22.846  1.00  0.00     0.166 HD
ATOM     18  C   UNL A   1      34.458  17.198  24.559  1.00  0.00     0.048 A 
ENDBRANCH   6   8
ENDBRANCH   5   6
ENDBRANCH   4   5
ENDBRANCH   3   4
ENDBRANCH   2   3
ENDBRANCH   1   2
BRANCH   1  19
ATOM     19  C   UNL A   1      40.915  21.121  26.149  1.00  0.00     0.261 C 
BRANCH  19  20
ATOM     20  O   UNL A   1      42.231  21.030  26.664  1.00  0.00    -0.460 OA
BRANCH  20  21
ATOM     21  C   UNL A   1      43.188  20.974  25.706  1.00  0.00     0.338 C 
ATOM     22  O   UNL A   1      43.534  20.005  25.065  1.00  0.00    -0.246 OA
BRANCH  21  23
ATOM     23  C   UNL A   1      43.828  22.294  25.614  1.00  0.00     0.060 A 
ATOM     24  C   UNL A   1      44.686  22.598  26.670  1.00  0.00     0.016 A 
ATOM     25  C   UNL A   1      43.246  23.282  24.806  1.00  0.00     0.016 A 
ATOM     26  C   UNL A   1      44.632  23.875  27.165  1.00  0.00     0.010 A 
ATOM     27  C   UNL A   1      43.217  24.562  25.286  1.00  0.00     0.010 A 
ATOM     28  C   UNL A   1      43.776  24.786  26.537  1.00  0.00    -0.014 A 
BRANCH  28  29
ATOM     29  C   UNL A   1      43.457  26.004  27.239  1.00  0.00     0.031 A 
ATOM     30  C   UNL A   1      44.470  27.046  27.006  1.00  0.00     0.074 A 
ATOM     31  C   UNL A   1      42.326  26.144  27.957  1.00  0.00     0.049 A 
ATOM     32  N   UNL A   1      45.385  27.444  27.823  1.00  0.00    -0.248 NA
ATOM     33  C   UNL A   1      44.641  27.514  25.622  1.00  0.00     0.031 C 
ATOM     34  C   UNL A   1      41.164  25.256  28.058  1.00  0.00     0.029 A 
ATOM     35  N   UNL A   1      41.957  27.208  28.715  1.00  0.00    -0.354 N 
ATOM     36  C   UNL A   1      46.101  28.400  27.118  1.00  0.00     0.074 A 
ATOM     37  C   UNL A   1      45.761  28.227  25.731  1.00  0.00     0.031 C 
ATOM     38  C   UNL A   1      40.136  25.926  28.634  1.00  0.00     0.029 A 
ATOM     39  C   UNL A   1      40.609  27.228  29.069  1.00  0.00     0.049 A 
ATOM     40  H   UNL A   1      42.590  27.910  28.992  1.00  0.00     0.167 HD
ATOM     41  C   UNL A   1      46.702  29.440  27.753  1.00  0.00     0.037 A 
ATOM     42  C   UNL A   1      39.968  28.307  29.593  1.00  0.00     0.037 A 
ATOM     43  C   UNL A   1      46.834  29.196  29.167  1.00  0.00     0.049 A 
ATOM     44  C   UNL A   1      41.031  29.174  30.186  1.00  0.00     0.074 A 
ATOM     45  C   UNL A   1      47.508  28.257  29.923  1.00  0.00     0.029 A 
ATOM     46  N   UNL A   1      45.877  29.729  29.999  1.00  0.00    -0.354 N 
ATOM     47  N   UNL A   1      41.764  28.813  31.207  1.00  0.00    -0.248 NA
ATOM     48  C   UNL A   1      41.622  30.193  29.327  1.00  0.00     0.031 C 
ATOM     49  C   UNL A   1      46.622  27.934  30.994  1.00  0.00     0.029 A 
ATOM     50  C   UNL A   1      45.488  28.739  30.872  1.00  0.00     0.049 A 
ATOM     51  H   UNL A   1      45.533  30.651  29.975  1.00  0.00     0.167 HD
ATOM     52  C   UNL A   1      43.050  29.243  30.902  1.00  0.00     0.074 A 
ATOM     53  C   UNL A   1      42.890  30.122  29.744  1.00  0.00     0.031 C 
ATOM     54  C   UNL A   1      44.153  28.624  31.420  1.00  0.00     0.037 A 
BRANCH  41  55
ATOM     55  C   UNL A   1      46.818  30.805  27.136  1.00  0.00     0.058 A 
ATOM     56  C   UNL A   1      48.077  31.422  27.049  1.00  0.00     0.135 A 
ATOM     57  C   UNL A   1      45.704  31.631  26.856  1.00  0.00     0.135 A 
ATOM     58  F   UNL A   1      49.196  30.730  27.317  1.00  0.00    -0.206 F 
ATOM     59  C   UNL A   1      48.216  32.777  26.749  1.00  0.00     0.059 A 
ATOM     60  C   UNL A   1      45.824  32.964  26.495  1.00  0.00     0.059 A 
ATOM     61  F   UNL A   1      44.442  31.214  27.017  1.00  0.00    -0.206 F 
ATOM     62  C   UNL A   1      47.081  33.540  26.484  1.00  0.00     0.060 A 
BRANCH  62  63
ATOM     63  S   UNL A   1      47.249  35.308  26.201  1.00  0.00     0.124 S 
ATOM     64  O   UNL A   1      47.674  35.774  27.516  1.00  0.00    -0.237 OA
ATOM     65  O   UNL A   1      48.259  35.349  25.150  1.00  0.00    -0.237 OA
ATOM     66  O   UNL A   1      45.907  35.713  25.790  1.00  0.00    -0.744 OA
ENDBRANCH  62  63
ENDBRANCH  41  55
BRANCH  42  67
ATOM     67  C   UNL A   1      38.645  28.854  29.173  1.00  0.00     0.058 A 
ATOM     68  C   UNL A   1      37.614  29.063  30.109  1.00  0.00     0.135 A 
ATOM     69  C   UNL A   1      38.467  29.468  27.915  1.00  0.00     0.135 A 
ATOM     70  F   UNL A   1      37.704  28.531  31.338  1.00  0.00    -0.206 F 
ATOM     71  C   UNL A   1      36.507  29.880  29.838  1.00  0.00     0.059 A 
ATOM     72  C   UNL A   1      37.374  30.281  27.622  1.00  0.00     0.059 A 
ATOM     73  F   UNL A   1      39.405  29.374  26.961  1.00  0.00    -0.206 F 
ATOM     74  C   UNL A   1      36.411  30.508  28.597  1.00  0.00     0.060 A 
BRANCH  74  75
ATOM     75  S   UNL A   1      35.091  31.712  28.303  1.00  0.00     0.124 S 
ATOM     76  O   UNL A   1      35.801  32.775  27.601  1.00  0.00    -0.237 OA
ATOM     77  O   UNL A   1      34.144  30.941  27.506  1.00  0.00    -0.237 OA
ATOM     78  O   UNL A   1      34.637  32.052  29.650  1.00  0.00    -0.744 OA
ENDBRANCH  74  75
ENDBRANCH  42  67
BRANCH  54  79
ATOM     79  C   UNL A   1      43.944  27.593  32.505  1.00  0.00     0.058 A 
ATOM     80  C   UNL A   1      43.936  26.202  32.290  1.00  0.00     0.135 A 
ATOM     81  C   UNL A   1      43.895  28.029  33.836  1.00  0.00     0.135 A 
ATOM     82  F   UNL A   1      44.087  25.697  31.057  1.00  0.00    -0.206 F 
ATOM     83  C   UNL A   1      43.831  25.290  33.345  1.00  0.00     0.059 A 
ATOM     84  C   UNL A   1      43.820  27.140  34.905  1.00  0.00     0.059 A 
ATOM     85  F   UNL A   1      43.968  29.341  34.115  1.00  0.00    -0.206 F 
ATOM     86  C   UNL A   1      43.771  25.771  34.653  1.00  0.00     0.060 A 
BRANCH  86  87
ATOM     87  S   UNL A   1      43.668  24.597  36.023  1.00  0.00     0.124 S 
ATOM     88  O   UNL A   1      42.796  25.296  36.962  1.00  0.00    -0.237 OA
ATOM     89  O   UNL A   1      43.096  23.415  35.386  1.00  0.00    -0.237 OA
ATOM     90  O   UNL A   1      45.057  24.452  36.454  1.00  0.00    -0.744 OA
ENDBRANCH  86  87
ENDBRANCH  54  79
ENDBRANCH  28  29
ENDBRANCH  21  23
ENDBRANCH  20  21
ENDBRANCH  19  20
ENDBRANCH   1  19
TORSDOF 17
ENDMDL
MODEL 2
REMARK VINA RESULT:     -11.1      2.253      2.966
REMARK SMILES Cc1cc2[nH]ccc2nc1C(=O)OCCOCCOC(=O)c1ccc(-c2c3nc(c(-c4c(F)cc(S(=O)(=O)[O-])cc4F)c4ccc([nH]4)c(-c4c(F)cc(S(=O)(=O)[O-])cc4F)c4nc(c(-c5c(F)cc(S(=O)(=O)[O-])cc5F)c5ccc2[nH]5)C=C4)C=C3)cc1
REMARK SMILES IDX 17 1 16 2 15 3 14 4 13 5 11 6 12 7 10 8 1 9 2 10 3 11 4 12
REMARK SMILES IDX 9 13 5 14 8 15 6 16 7 18 18 19 19 20 20 21 21 22 22 23 23 24
REMARK SMILES IDX 87 25 24 26 86 27 25 28 26 29 27 30 80 31 28 32 85 33 79 34
REMARK SMILES IDX 81 35 29 36 84 37 78 38 77 39 30 41 64 42 43 43 63 44 44 45
REMARK SMILES IDX 47 46 62 47 82 48 45 49 46 50 61 52 83 53 48 54 31 55 32 56
REMARK SMILES IDX 41 57 33 58 34 59 40 60 42 61 35 62 36 63 37 64 38 65 39 66
REMARK SMILES IDX 65 67 66 68 75 69 67 70 68 71 74 72 76 73 69 74 70 75 71 76
REMARK SMILES IDX 72 77 73 78 49 79 50 80 59 81 51 82 52 83 58 84 60 85 53 86
REMARK SMILES IDX 54 87 55 88 56 89 57 90
REMARK H PARENT 5 17 81 40 47 51
REMARK Flexibility Score: inf
ROOT
ATOM      1  C   UNL A   1      37.231  22.128  25.565  1.00  0.00     0.202 C 
ENDROOT
BRANCH   1   2
ATOM      2  O   UNL A   1      36.846  21.951  24.204  1.00  0.00    -0.374 OA
BRANCH   2   3
ATOM      3  C   UNL A   1      36.039  22.927  23.545  1.00  0.00     0.202 C 
BRANCH   3   4
ATOM      4  C   UNL A   1      34.557  23.008  23.901  1.00  0.00     0.261 C 
BRANCH   4   5
ATOM      5  O   UNL A   1      34.202  22.090  24.947  1.00  0.00    -0.459 OA
BRANCH   5   6
ATOM      6  C   UNL A   1      32.888  21.740  24.979  1.00  0.00     0.357 C 
ATOM      7  O   UNL A   1      31.957  22.484  25.247  1.00  0.00    -0.244 OA
BRANCH   6   8
ATOM      8  C   UNL A   1      32.699  20.332  24.502  1.00  0.00     0.152 A 
ATOM      9  C   UNL A   1      31.999  21.050  22.149  1.00  0.00     0.047 C 
ATOM     10  C   UNL A   1      32.360  20.018  23.176  1.00  0.00    -0.016 A 
ATOM     11  C   UNL A   1      32.330  18.664  22.807  1.00  0.00     0.034 A 
ATOM     12  C   UNL A   1      32.625  17.734  23.804  1.00  0.00     0.064 A 
ATOM     13  N   UNL A   1      32.958  19.425  25.483  1.00  0.00    -0.239 NA
ATOM     14  N   UNL A   1      32.705  16.361  23.780  1.00  0.00    -0.360 N 
ATOM     15  C   UNL A   1      32.902  18.133  25.104  1.00  0.00     0.089 A 
ATOM     16  C   UNL A   1      32.981  15.886  25.038  1.00  0.00     0.085 A 
ATOM     17  H   UNL A   1      32.583  15.801  22.979  1.00  0.00     0.166 HD
ATOM     18  C   UNL A   1      33.095  16.968  25.883  1.00  0.00     0.048 A 
ENDBRANCH   6   8
ENDBRANCH   5   6
ENDBRANCH   4   5
ENDBRANCH   3   4
ENDBRANCH   2   3
ENDBRANCH   1   2
BRANCH   1  19
ATOM     19  C   UNL A   1      38.700  21.957  25.931  1.00  0.00     0.261 C 
BRANCH  19  20
ATOM     20  O   UNL A   1      39.275  23.184  26.347  1.00  0.00    -0.460 OA
BRANCH  20  21
ATOM     21  C   UNL A   1      40.511  23.050  26.887  1.00  0.00     0.338 C 
ATOM     22  O   UNL A   1      40.960  22.088  27.472  1.00  0.00    -0.246 OA
BRANCH  21  23
ATOM     23  C   UNL A   1      41.225  24.325  26.727  1.00  0.00     0.060 A 
ATOM     24  C   UNL A   1      42.202  24.568  27.691  1.00  0.00     0.016 A 
ATOM     25  C   UNL A   1      40.633  25.351  25.975  1.00  0.00     0.016 A 
ATOM     26  C   UNL A   1      42.283  25.845  28.183  1.00  0.00     0.010 A 
ATOM     27  C   UNL A   1      40.738  26.630  26.451  1.00  0.00     0.010 A 
ATOM     28  C   UNL A   1      41.431  26.812  27.640  1.00  0.00    -0.014 A 
BRANCH  28  29
ATOM     29  C   UNL A   1      41.266  28.047  28.365  1.00  0.00     0.031 A 
ATOM     30  C   UNL A   1      42.365  28.988  28.095  1.00  0.00     0.074 A 
ATOM     31  C   UNL A   1      40.187  28.289  29.134  1.00  0.00     0.049 A 
ATOM     32  N   UNL A   1      43.350  29.283  28.873  1.00  0.00    -0.248 NA
ATOM     33  C   UNL A   1      42.521  29.453  26.708  1.00  0.00     0.031 C 
ATOM     34  C   UNL A   1      38.948  27.518  29.281  1.00  0.00     0.029 A 
ATOM     35  N   UNL A   1      39.958  29.375  29.916  1.00  0.00    -0.354 N 
ATOM     36  C   UNL A   1      44.125  30.173  28.144  1.00  0.00     0.074 A 
ATOM     37  C   UNL A   1      43.709  30.051  26.772  1.00  0.00     0.031 C 
ATOM     38  C   UNL A   1      38.018  28.280  29.907  1.00  0.00     0.029 A 
ATOM     39  C   UNL A   1      38.636  29.523  30.330  1.00  0.00     0.049 A 
ATOM     40  H   UNL A   1      40.669  30.008  30.170  1.00  0.00     0.167 HD
ATOM     41  C   UNL A   1      44.853  31.141  28.759  1.00  0.00     0.037 A 
ATOM     42  C   UNL A   1      38.128  30.654  30.891  1.00  0.00     0.037 A 
ATOM     43  C   UNL A   1      45.023  30.868  30.163  1.00  0.00     0.049 A 
ATOM     44  C   UNL A   1      39.297  31.404  31.442  1.00  0.00     0.074 A 
ATOM     45  C   UNL A   1      45.633  29.858  30.881  1.00  0.00     0.029 A 
ATOM     46  N   UNL A   1      44.160  31.482  31.042  1.00  0.00    -0.354 N 
ATOM     47  N   UNL A   1      40.034  30.961  32.427  1.00  0.00    -0.248 NA
ATOM     48  C   UNL A   1      39.947  32.371  30.566  1.00  0.00     0.031 C 
ATOM     49  C   UNL A   1      44.768  29.611  31.988  1.00  0.00     0.029 A 
ATOM     50  C   UNL A   1      43.715  30.525  31.924  1.00  0.00     0.049 A 
ATOM     51  H   UNL A   1      43.908  32.433  31.041  1.00  0.00     0.167 HD
ATOM     52  C   UNL A   1      41.342  31.266  32.067  1.00  0.00     0.074 A 
ATOM     53  C   UNL A   1      41.219  32.171  30.925  1.00  0.00     0.031 C 
ATOM     54  C   UNL A   1      42.400  30.535  32.530  1.00  0.00     0.037 A 
BRANCH  41  55
ATOM     55  C   UNL A   1      45.077  32.495  28.148  1.00  0.00     0.058 A 
ATOM     56  C   UNL A   1      46.373  32.880  27.769  1.00  0.00     0.135 A 
ATOM     57  C   UNL A   1      44.103  33.522  28.153  1.00  0.00     0.135 A 
ATOM     58  F   UNL A   1      47.374  31.985  27.753  1.00  0.00    -0.206 F 
ATOM     59  C   UNL A   1      46.691  34.203  27.461  1.00  0.00     0.059 A 
ATOM     60  C   UNL A   1      44.384  34.830  27.789  1.00  0.00     0.059 A 
ATOM     61  F   UNL A   1      42.859  33.329  28.606  1.00  0.00    -0.206 F 
ATOM     62  C   UNL A   1      45.689  35.171  27.484  1.00  0.00     0.060 A 
BRANCH  62  63
ATOM     63  S   UNL A   1      46.115  36.893  27.190  1.00  0.00     0.124 S 
ATOM     64  O   UNL A   1      46.742  36.817  25.875  1.00  0.00    -0.237 OA
ATOM     65  O   UNL A   1      44.807  37.538  27.240  1.00  0.00    -0.237 OA
ATOM     66  O   UNL A   1      47.008  37.215  28.299  1.00  0.00    -0.744 OA
ENDBRANCH  62  63
ENDBRANCH  41  55
BRANCH  42  67
ATOM     67  C   UNL A   1      36.848  31.333  30.535  1.00  0.00     0.058 A 
ATOM     68  C   UNL A   1      36.063  31.966  31.518  1.00  0.00     0.135 A 
ATOM     69  C   UNL A   1      36.526  31.642  29.198  1.00  0.00     0.135 A 
ATOM     70  F   UNL A   1      36.308  31.744  32.819  1.00  0.00    -0.206 F 
ATOM     71  C   UNL A   1      35.063  32.895  31.197  1.00  0.00     0.059 A 
ATOM     72  C   UNL A   1      35.534  32.560  28.854  1.00  0.00     0.059 A 
ATOM     73  F   UNL A   1      37.235  31.133  28.179  1.00  0.00    -0.206 F 
ATOM     74  C   UNL A   1      34.826  33.206  29.860  1.00  0.00     0.060 A 
BRANCH  74  75
ATOM     75  S   UNL A   1      33.674  34.539  29.441  1.00  0.00     0.124 S 
ATOM     76  O   UNL A   1      32.801  33.893  28.468  1.00  0.00    -0.237 OA
ATOM     77  O   UNL A   1      33.073  34.843  30.736  1.00  0.00    -0.237 OA
ATOM     78  O   UNL A   1      34.544  35.581  28.901  1.00  0.00    -0.744 OA
ENDBRANCH  74  75
ENDBRANCH  42  67
BRANCH  54  79
ATOM     79  C   UNL A   1      42.139  29.517  33.616  1.00  0.00     0.058 A 
ATOM     80  C   UNL A   1      41.641  28.219  33.387  1.00  0.00     0.135 A 
ATOM     81  C   UNL A   1      42.545  29.818  34.923  1.00  0.00     0.135 A 
ATOM     82  F   UNL A   1      41.329  27.813  32.148  1.00  0.00    -0.206 F 
ATOM     83  C   UNL A   1      41.505  27.286  34.419  1.00  0.00     0.059 A 
ATOM     84  C   UNL A   1      42.447  28.895  35.961  1.00  0.00     0.059 A 
ATOM     85  F   UNL A   1      43.092  31.014  35.196  1.00  0.00    -0.206 F 
ATOM     86  C   UNL A   1      41.910  27.636  35.707  1.00  0.00     0.060 A 
BRANCH  86  87
ATOM     87  S   UNL A   1      41.768  26.422  37.039  1.00  0.00     0.124 S 
ATOM     88  O   UNL A   1      42.904  26.765  37.889  1.00  0.00    -0.237 OA
ATOM     89  O   UNL A   1      40.451  26.715  37.595  1.00  0.00    -0.237 OA
ATOM     90  O   UNL A   1      41.873  25.140  36.346  1.00  0.00    -0.744 OA
ENDBRANCH  86  87
ENDBRANCH  54  79
ENDBRANCH  28  29
ENDBRANCH  21  23
ENDBRANCH  20  21
ENDBRANCH  19  20
ENDBRANCH   1  19
TORSDOF 17
ENDMDL
MODEL 3
REMARK VINA RESULT:     -11.0      1.935      3.020
REMARK SMILES Cc1cc2[nH]ccc2nc1C(=O)OCCOCCOC(=O)c1ccc(-c2c3nc(c(-c4c(F)cc(S(=O)(=O)[O-])cc4F)c4ccc([nH]4)c(-c4c(F)cc(S(=O)(=O)[O-])cc4F)c4nc(c(-c5c(F)cc(S(=O)(=O)[O-])cc5F)c5ccc2[nH]5)C=C4)C=C3)cc1
REMARK SMILES IDX 17 1 16 2 15 3 14 4 13 5 11 6 12 7 10 8 1 9 2 10 3 11 4 12
REMARK SMILES IDX 9 13 5 14 8 15 6 16 7 18 18 19 19 20 20 21 21 22 22 23 23 24
REMARK SMILES IDX 87 25 24 26 86 27 25 28 26 29 27 30 80 31 28 32 85 33 79 34
REMARK SMILES IDX 81 35 29 36 84 37 78 38 77 39 30 41 64 42 43 43 63 44 44 45
REMARK SMILES IDX 47 46 62 47 82 48 45 49 46 50 61 52 83 53 48 54 31 55 32 56
REMARK SMILES IDX 41 57 33 58 34 59 40 60 42 61 35 62 36 63 37 64 38 65 39 66
REMARK SMILES IDX 65 67 66 68 75 69 67 70 68 71 74 72 76 73 69 74 70 75 71 76
REMARK SMILES IDX 72 77 73 78 49 79 50 80 59 81 51 82 52 83 58 84 60 85 53 86
REMARK SMILES IDX 54 87 55 88 56 89 57 90
REMARK H PARENT 5 17 81 40 47 51
REMARK Flexibility Score: inf
ROOT
ATOM      1  C   UNL A   1      39.754  21.723  26.452  1.00  0.00     0.202 C 
ENDROOT
BRANCH   1   2
ATOM      2  O   UNL A   1      38.430  21.595  25.940  1.00  0.00    -0.374 OA
BRANCH   2   3
ATOM      3  C   UNL A   1      37.643  22.753  25.666  1.00  0.00     0.202 C 
BRANCH   3   4
ATOM      4  C   UNL A   1      36.267  22.565  25.032  1.00  0.00     0.261 C 
BRANCH   4   5
ATOM      5  O   UNL A   1      35.305  23.503  25.540  1.00  0.00    -0.459 OA
BRANCH   5   6
ATOM      6  C   UNL A   1      34.179  23.632  24.788  1.00  0.00     0.357 C 
ATOM      7  O   UNL A   1      33.705  22.772  24.060  1.00  0.00    -0.244 OA
BRANCH   6   8
ATOM      8  C   UNL A   1      33.496  24.935  25.068  1.00  0.00     0.152 A 
ATOM      9  C   UNL A   1      31.944  23.931  26.835  1.00  0.00     0.047 C 
ATOM     10  C   UNL A   1      32.518  25.083  26.064  1.00  0.00    -0.016 A 
ATOM     11  C   UNL A   1      32.033  26.374  26.326  1.00  0.00     0.034 A 
ATOM     12  C   UNL A   1      32.557  27.411  25.554  1.00  0.00     0.064 A 
ATOM     13  N   UNL A   1      33.987  25.942  24.293  1.00  0.00    -0.239 NA
ATOM     14  N   UNL A   1      32.325  28.766  25.563  1.00  0.00    -0.360 N 
ATOM     15  C   UNL A   1      33.489  27.166  24.554  1.00  0.00     0.089 A 
ATOM     16  C   UNL A   1      33.051  29.373  24.568  1.00  0.00     0.085 A 
ATOM     17  H   UNL A   1      31.726  29.233  26.191  1.00  0.00     0.166 HD
ATOM     18  C   UNL A   1      33.773  28.397  23.917  1.00  0.00     0.048 A 
ENDBRANCH   6   8
ENDBRANCH   5   6
ENDBRANCH   4   5
ENDBRANCH   3   4
ENDBRANCH   2   3
ENDBRANCH   1   2
BRANCH   1  19
ATOM     19  C   UNL A   1      40.748  20.600  26.180  1.00  0.00     0.261 C 
BRANCH  19  20
ATOM     20  O   UNL A   1      42.027  20.902  26.712  1.00  0.00    -0.460 OA
BRANCH  20  21
ATOM     21  C   UNL A   1      43.028  20.813  25.804  1.00  0.00     0.338 C 
ATOM     22  O   UNL A   1      43.412  19.820  25.223  1.00  0.00    -0.246 OA
BRANCH  21  23
ATOM     23  C   UNL A   1      43.662  22.134  25.684  1.00  0.00     0.060 A 
ATOM     24  C   UNL A   1      44.544  22.451  26.716  1.00  0.00     0.016 A 
ATOM     25  C   UNL A   1      43.057  23.111  24.879  1.00  0.00     0.016 A 
ATOM     26  C   UNL A   1      44.497  23.733  27.198  1.00  0.00     0.010 A 
ATOM     27  C   UNL A   1      43.037  24.397  25.347  1.00  0.00     0.010 A 
ATOM     28  C   UNL A   1      43.624  24.634  26.582  1.00  0.00    -0.014 A 
BRANCH  28  29
ATOM     29  C   UNL A   1      43.318  25.859  27.279  1.00  0.00     0.031 A 
ATOM     30  C   UNL A   1      44.344  26.888  27.046  1.00  0.00     0.074 A 
ATOM     31  C   UNL A   1      42.187  26.015  27.993  1.00  0.00     0.049 A 
ATOM     32  N   UNL A   1      45.262  27.277  27.864  1.00  0.00    -0.248 NA
ATOM     33  C   UNL A   1      44.525  27.349  25.661  1.00  0.00     0.031 C 
ATOM     34  C   UNL A   1      41.013  25.142  28.094  1.00  0.00     0.029 A 
ATOM     35  N   UNL A   1      41.828  27.086  28.747  1.00  0.00    -0.354 N 
ATOM     36  C   UNL A   1      45.991  28.222  27.159  1.00  0.00     0.074 A 
ATOM     37  C   UNL A   1      45.653  28.049  25.771  1.00  0.00     0.031 C 
ATOM     38  C   UNL A   1      39.992  25.827  28.664  1.00  0.00     0.029 A 
ATOM     39  C   UNL A   1      40.480  27.124  29.096  1.00  0.00     0.049 A 
ATOM     40  H   UNL A   1      42.469  27.781  29.023  1.00  0.00     0.167 HD
ATOM     41  C   UNL A   1      46.603  29.256  27.791  1.00  0.00     0.037 A 
ATOM     42  C   UNL A   1      39.850  28.213  29.614  1.00  0.00     0.037 A 
ATOM     43  C   UNL A   1      46.728  29.016  29.206  1.00  0.00     0.049 A 
ATOM     44  C   UNL A   1      40.922  29.068  30.208  1.00  0.00     0.074 A 
ATOM     45  C   UNL A   1      47.388  28.071  29.968  1.00  0.00     0.029 A 
ATOM     46  N   UNL A   1      45.775  29.563  30.034  1.00  0.00    -0.354 N 
ATOM     47  N   UNL A   1      41.647  28.702  31.233  1.00  0.00    -0.248 NA
ATOM     48  C   UNL A   1      41.528  30.077  29.348  1.00  0.00     0.031 C 
ATOM     49  C   UNL A   1      46.495  27.763  31.037  1.00  0.00     0.029 A 
ATOM     50  C   UNL A   1      45.371  28.581  30.910  1.00  0.00     0.049 A 
ATOM     51  H   UNL A   1      45.442  30.489  30.006  1.00  0.00     0.167 HD
ATOM     52  C   UNL A   1      42.939  29.115  30.930  1.00  0.00     0.074 A 
ATOM     53  C   UNL A   1      42.793  29.992  29.769  1.00  0.00     0.031 C 
ATOM     54  C   UNL A   1      44.033  28.485  31.453  1.00  0.00     0.037 A 
BRANCH  41  55
ATOM     55  C   UNL A   1      46.738  30.618  27.171  1.00  0.00     0.058 A 
ATOM     56  C   UNL A   1      48.003  31.223  27.093  1.00  0.00     0.135 A 
ATOM     57  C   UNL A   1      45.634  31.453  26.877  1.00  0.00     0.135 A 
ATOM     58  F   UNL A   1      49.113  30.522  27.375  1.00  0.00    -0.206 F 
ATOM     59  C   UNL A   1      48.158  32.576  26.790  1.00  0.00     0.059 A 
ATOM     60  C   UNL A   1      45.770  32.784  26.512  1.00  0.00     0.059 A 
ATOM     61  F   UNL A   1      44.367  31.048  27.027  1.00  0.00    -0.206 F 
ATOM     62  C   UNL A   1      47.033  33.348  26.511  1.00  0.00     0.060 A 
BRANCH  62  63
ATOM     63  S   UNL A   1      47.219  35.114  26.222  1.00  0.00     0.124 S 
ATOM     64  O   UNL A   1      46.030  35.406  25.432  1.00  0.00    -0.237 OA
ATOM     65  O   UNL A   1      47.231  35.639  27.583  1.00  0.00    -0.237 OA
ATOM     66  O   UNL A   1      48.490  35.206  25.510  1.00  0.00    -0.744 OA
ENDBRANCH  62  63
ENDBRANCH  41  55
BRANCH  42  67
ATOM     67  C   UNL A   1      38.535  28.774  29.189  1.00  0.00     0.058 A 
ATOM     68  C   UNL A   1      37.515  29.027  30.126  1.00  0.00     0.135 A 
ATOM     69  C   UNL A   1      38.361  29.359  27.917  1.00  0.00     0.135 A 
ATOM     70  F   UNL A   1      37.603  28.525  31.367  1.00  0.00    -0.206 F 
ATOM     71  C   UNL A   1      36.422  29.859  29.840  1.00  0.00     0.059 A 
ATOM     72  C   UNL A   1      37.282  30.186  27.609  1.00  0.00     0.059 A 
ATOM     73  F   UNL A   1      39.291  29.223  26.960  1.00  0.00    -0.206 F 
ATOM     74  C   UNL A   1      36.330  30.456  28.584  1.00  0.00     0.060 A 
BRANCH  74  75
ATOM     75  S   UNL A   1      35.032  31.678  28.267  1.00  0.00     0.124 S 
ATOM     76  O   UNL A   1      34.557  31.973  29.614  1.00  0.00    -0.237 OA
ATOM     77  O   UNL A   1      35.771  32.746  27.602  1.00  0.00    -0.237 OA
ATOM     78  O   UNL A   1      34.087  30.956  27.419  1.00  0.00    -0.744 OA
ENDBRANCH  74  75
ENDBRANCH  42  67
BRANCH  54  79
ATOM     79  C   UNL A   1      43.809  27.460  32.541  1.00  0.00     0.058 A 
ATOM     80  C   UNL A   1      43.827  26.066  32.338  1.00  0.00     0.135 A 
ATOM     81  C   UNL A   1      43.714  27.906  33.867  1.00  0.00     0.135 A 
ATOM     82  F   UNL A   1      44.020  25.554  31.115  1.00  0.00    -0.206 F 
ATOM     83  C   UNL A   1      43.705  25.162  33.398  1.00  0.00     0.059 A 
ATOM     84  C   UNL A   1      43.622  27.024  34.941  1.00  0.00     0.059 A 
ATOM     85  F   UNL A   1      43.760  29.221  34.136  1.00  0.00    -0.206 F 
ATOM     86  C   UNL A   1      43.600  25.653  34.699  1.00  0.00     0.060 A 
BRANCH  86  87
ATOM     87  S   UNL A   1      43.475  24.489  36.077  1.00  0.00     0.124 S 
ATOM     88  O   UNL A   1      42.033  24.421  36.292  1.00  0.00    -0.237 OA
ATOM     89  O   UNL A   1      44.092  23.285  35.530  1.00  0.00    -0.237 OA
ATOM     90  O   UNL A   1      44.234  25.140  37.143  1.00  0.00    -0.744 OA
ENDBRANCH  86  87
ENDBRANCH  54  79
ENDBRANCH  28  29
ENDBRANCH  21  23
ENDBRANCH  20  21
ENDBRANCH  19  20
ENDBRANCH   1  19
TORSDOF 17
ENDMDL
