MODEL 1
REMARK VINA RESULT:     -12.6      0.000      0.000
REMARK SMILES O=C(OCCOCCOC(=O)[C@H]1CC2=c3ccccc3=N[C@H]2[C@@H](c2ccccc2)[NH2+]1)c1ccc(-c2c3nc(c(-c4c(F)cc(S(=O)(=O)[O-])cc4F)c4ccc([nH]4)c(-c4c(F)cc(S(=O)(=O)[O-])cc4F)c4nc(c(-c5c(F)cc(S(=O)(=O)[O-])cc5F)c5ccc2[nH]5)C=C4)C=C3)cc1
REMARK SMILES IDX 5 1 4 2 3 3 2 4 1 5 31 6 32 7 96 8 33 9 95 10 34 11 35 12
REMARK SMILES IDX 36 13 89 14 37 15 94 16 88 17 90 18 38 19 93 20 87 21 86 22
REMARK SMILES IDX 39 24 73 25 52 26 72 27 53 28 56 29 71 30 91 31 54 32 55 33
REMARK SMILES IDX 70 35 92 36 57 37 40 38 41 39 50 40 42 41 43 42 49 43 51 44
REMARK SMILES IDX 44 45 45 46 46 47 47 48 48 49 74 50 75 51 84 52 76 53 77 54
REMARK SMILES IDX 83 55 85 56 78 57 79 58 80 59 81 60 82 61 58 62 59 63 68 64
REMARK SMILES IDX 60 65 61 66 67 67 69 68 62 69 63 70 64 71 65 72 66 73 6 74
REMARK SMILES IDX 7 75 8 76 9 77 10 78 11 79 12 80 13 81 30 82 14 83 23 84
REMARK SMILES IDX 15 87 22 88 16 89 20 90 21 91 17 92 19 93 18 94 24 95 25 96
REMARK SMILES IDX 29 97 26 98 28 99 27 100
REMARK H PARENT 90 23 56 34 30 85 30 86
REMARK Flexibility Score: inf
ROOT
ATOM      1  C   UNL A   1      38.357  23.028  25.976  1.00  0.00     0.202 C 
ENDROOT
BRANCH   1   2
ATOM      2  C   UNL A   1      39.545  23.052  26.937  1.00  0.00     0.261 C 
BRANCH   2   3
ATOM      3  O   UNL A   1      40.626  23.826  26.387  1.00  0.00    -0.460 OA
BRANCH   3   4
ATOM      4  C   UNL A   1      40.795  25.167  26.330  1.00  0.00     0.338 C 
ATOM      5  O   UNL A   1      41.114  25.645  25.239  1.00  0.00    -0.246 OA
BRANCH   4   6
ATOM      6  C   UNL A   1      40.636  26.123  27.480  1.00  0.00     0.060 A 
ATOM      7  C   UNL A   1      41.616  27.129  27.599  1.00  0.00     0.016 A 
ATOM      8  C   UNL A   1      39.659  26.069  28.476  1.00  0.00     0.016 A 
ATOM      9  C   UNL A   1      41.626  28.020  28.679  1.00  0.00     0.010 A 
ATOM     10  C   UNL A   1      39.669  26.937  29.565  1.00  0.00     0.010 A 
ATOM     11  C   UNL A   1      40.651  27.914  29.672  1.00  0.00    -0.014 A 
BRANCH  11  12
ATOM     12  C   UNL A   1      40.538  28.879  30.777  1.00  0.00     0.031 A 
ATOM     13  C   UNL A   1      41.359  28.722  32.018  1.00  0.00     0.074 A 
ATOM     14  C   UNL A   1      39.562  29.799  30.686  1.00  0.00     0.049 A 
ATOM     15  N   UNL A   1      41.376  29.468  33.091  1.00  0.00    -0.248 NA
ATOM     16  C   UNL A   1      42.264  27.562  32.075  1.00  0.00     0.031 C 
ATOM     17  C   UNL A   1      38.648  29.936  29.548  1.00  0.00     0.029 A 
ATOM     18  N   UNL A   1      39.153  30.764  31.563  1.00  0.00    -0.354 N 
ATOM     19  C   UNL A   1      42.312  28.891  33.939  1.00  0.00     0.074 A 
ATOM     20  C   UNL A   1      42.797  27.695  33.284  1.00  0.00     0.031 C 
ATOM     21  C   UNL A   1      37.788  30.934  29.796  1.00  0.00     0.029 A 
ATOM     22  C   UNL A   1      38.093  31.503  31.104  1.00  0.00     0.049 A 
ATOM     23  H   UNL A   1      39.580  30.915  32.438  1.00  0.00     0.167 HD
ATOM     24  C   UNL A   1      42.737  29.345  35.142  1.00  0.00     0.037 A 
ATOM     25  C   UNL A   1      37.453  32.541  31.672  1.00  0.00     0.037 A 
ATOM     26  C   UNL A   1      42.199  30.524  35.776  1.00  0.00     0.049 A 
ATOM     27  C   UNL A   1      37.951  33.039  32.996  1.00  0.00     0.074 A 
ATOM     28  C   UNL A   1      42.577  31.118  36.966  1.00  0.00     0.029 A 
ATOM     29  N   UNL A   1      41.149  31.281  35.268  1.00  0.00    -0.354 N 
ATOM     30  N   UNL A   1      38.916  32.554  33.744  1.00  0.00    -0.248 NA
ATOM     31  C   UNL A   1      37.299  34.231  33.542  1.00  0.00     0.031 C 
ATOM     32  C   UNL A   1      41.733  32.212  37.195  1.00  0.00     0.029 A 
ATOM     33  C   UNL A   1      40.856  32.327  36.127  1.00  0.00     0.049 A 
ATOM     34  H   UNL A   1      40.681  31.100  34.420  1.00  0.00     0.167 HD
ATOM     35  C   UNL A   1      39.000  33.393  34.844  1.00  0.00     0.074 A 
ATOM     36  C   UNL A   1      37.996  34.424  34.655  1.00  0.00     0.031 C 
ATOM     37  C   UNL A   1      39.833  33.323  35.913  1.00  0.00     0.037 A 
BRANCH  24  38
ATOM     38  C   UNL A   1      43.848  28.593  35.828  1.00  0.00     0.058 A 
ATOM     39  C   UNL A   1      45.195  28.924  35.602  1.00  0.00     0.135 A 
ATOM     40  C   UNL A   1      43.578  27.577  36.759  1.00  0.00     0.135 A 
ATOM     41  F   UNL A   1      45.516  29.880  34.715  1.00  0.00    -0.206 F 
ATOM     42  C   UNL A   1      46.232  28.263  36.254  1.00  0.00     0.059 A 
ATOM     43  C   UNL A   1      44.599  26.919  37.443  1.00  0.00     0.059 A 
ATOM     44  F   UNL A   1      42.311  27.216  37.019  1.00  0.00    -0.206 F 
ATOM     45  C   UNL A   1      45.924  27.263  37.177  1.00  0.00     0.060 A 
BRANCH  45  46
ATOM     46  S   UNL A   1      47.283  26.433  38.028  1.00  0.00     0.124 S 
ATOM     47  O   UNL A   1      47.993  27.564  38.619  1.00  0.00    -0.237 OA
ATOM     48  O   UNL A   1      46.578  25.568  38.969  1.00  0.00    -0.237 OA
ATOM     49  O   UNL A   1      47.990  25.742  36.954  1.00  0.00    -0.744 OA
ENDBRANCH  45  46
ENDBRANCH  24  38
BRANCH  25  50
ATOM     50  C   UNL A   1      36.368  33.217  30.921  1.00  0.00     0.058 A 
ATOM     51  C   UNL A   1      35.048  33.169  31.394  1.00  0.00     0.135 A 
ATOM     52  C   UNL A   1      36.634  34.013  29.797  1.00  0.00     0.135 A 
ATOM     53  F   UNL A   1      34.749  32.427  32.471  1.00  0.00    -0.206 F 
ATOM     54  C   UNL A   1      34.030  33.892  30.783  1.00  0.00     0.059 A 
ATOM     55  C   UNL A   1      35.636  34.760  29.179  1.00  0.00     0.059 A 
ATOM     56  F   UNL A   1      37.887  34.114  29.327  1.00  0.00    -0.206 F 
ATOM     57  C   UNL A   1      34.336  34.694  29.682  1.00  0.00     0.060 A 
BRANCH  57  58
ATOM     58  S   UNL A   1      33.022  35.702  28.962  1.00  0.00     0.124 S 
ATOM     59  O   UNL A   1      32.372  34.747  28.072  1.00  0.00    -0.237 OA
ATOM     60  O   UNL A   1      32.259  36.096  30.144  1.00  0.00    -0.237 OA
ATOM     61  O   UNL A   1      33.749  36.785  28.306  1.00  0.00    -0.744 OA
ENDBRANCH  57  58
ENDBRANCH  25  50
BRANCH  37  62
ATOM     62  C   UNL A   1      39.680  34.390  36.957  1.00  0.00     0.058 A 
ATOM     63  C   UNL A   1      38.920  34.170  38.116  1.00  0.00     0.135 A 
ATOM     64  C   UNL A   1      40.336  35.623  36.819  1.00  0.00     0.135 A 
ATOM     65  F   UNL A   1      38.267  33.009  38.287  1.00  0.00    -0.206 F 
ATOM     66  C   UNL A   1      38.799  35.147  39.096  1.00  0.00     0.059 A 
ATOM     67  C   UNL A   1      40.248  36.605  37.799  1.00  0.00     0.059 A 
ATOM     68  F   UNL A   1      41.080  35.875  35.731  1.00  0.00    -0.206 F 
ATOM     69  C   UNL A   1      39.469  36.361  38.929  1.00  0.00     0.060 A 
BRANCH  69  70
ATOM     70  S   UNL A   1      39.325  37.607  40.226  1.00  0.00     0.124 S 
ATOM     71  O   UNL A   1      38.899  36.799  41.364  1.00  0.00    -0.237 OA
ATOM     72  O   UNL A   1      40.682  38.140  40.299  1.00  0.00    -0.237 OA
ATOM     73  O   UNL A   1      38.323  38.530  39.701  1.00  0.00    -0.744 OA
ENDBRANCH  69  70
ENDBRANCH  37  62
ENDBRANCH  11  12
ENDBRANCH   4   6
ENDBRANCH   3   4
ENDBRANCH   2   3
ENDBRANCH   1   2
BRANCH   1  74
ATOM     74  O   UNL A   1      37.410  24.041  26.305  1.00  0.00    -0.374 OA
BRANCH  74  75
ATOM     75  C   UNL A   1      36.147  23.924  25.656  1.00  0.00     0.202 C 
BRANCH  75  76
ATOM     76  C   UNL A   1      35.218  23.090  26.519  1.00  0.00     0.261 C 
BRANCH  76  77
ATOM     77  O   UNL A   1      33.865  23.550  26.385  1.00  0.00    -0.459 OA
BRANCH  77  78
ATOM     78  C   UNL A   1      32.889  22.901  27.091  1.00  0.00     0.365 C 
ATOM     79  O   UNL A   1      32.773  22.884  28.317  1.00  0.00    -0.245 OA
BRANCH  78  80
ATOM     80  C   UNL A   1      31.979  22.112  26.134  1.00  0.00     0.298 C 
ATOM     81  C   UNL A   1      31.057  22.992  25.229  1.00  0.00     0.111 C 
ATOM     82  N   UNL A   1      32.821  21.096  25.471  1.00  0.00    -0.326 N 
ATOM     83  C   UNL A   1      31.454  23.037  23.761  1.00  0.00    -0.024 C 
ATOM     84  C   UNL A   1      32.337  20.774  24.141  1.00  0.00     0.243 C 
ATOM     85  H   UNL A   1      32.820  20.247  26.036  1.00  0.00     0.347 HD
ATOM     86  H   UNL A   1      33.762  21.478  25.379  1.00  0.00     0.347 HD
ATOM     87  C   UNL A   1      31.656  24.183  23.121  1.00  0.00     0.002 A 
ATOM     88  C   UNL A   1      32.398  22.001  23.199  1.00  0.00     0.196 C 
ATOM     89  C   UNL A   1      31.002  25.448  23.167  1.00  0.00     0.010 A 
ATOM     90  C   UNL A   1      33.124  24.034  22.923  1.00  0.00     0.066 A 
ATOM     91  N   UNL A   1      33.640  22.829  23.042  1.00  0.00    -0.270 NA
ATOM     92  C   UNL A   1      31.714  26.558  22.939  1.00  0.00     0.001 A 
ATOM     93  C   UNL A   1      33.847  25.331  22.772  1.00  0.00     0.028 A 
ATOM     94  C   UNL A   1      33.156  26.489  22.786  1.00  0.00     0.002 A 
BRANCH  84  95
ATOM     95  C   UNL A   1      32.826  19.382  23.811  1.00  0.00     0.012 A 
ATOM     96  C   UNL A   1      33.953  18.944  24.553  1.00  0.00     0.010 A 
ATOM     97  C   UNL A   1      32.355  18.572  22.783  1.00  0.00     0.010 A 
ATOM     98  C   UNL A   1      34.586  17.737  24.289  1.00  0.00     0.001 A 
ATOM     99  C   UNL A   1      32.994  17.350  22.518  1.00  0.00     0.001 A 
ATOM    100  C   UNL A   1      34.103  16.936  23.267  1.00  0.00     0.000 A 
ENDBRANCH  84  95
ENDBRANCH  78  80
ENDBRANCH  77  78
ENDBRANCH  76  77
ENDBRANCH  75  76
ENDBRANCH  74  75
ENDBRANCH   1  74
TORSDOF 18
ENDMDL
MODEL 2
REMARK VINA RESULT:     -12.5      0.971      1.944
REMARK SMILES O=C(OCCOCCOC(=O)[C@H]1CC2=c3ccccc3=N[C@H]2[C@@H](c2ccccc2)[NH2+]1)c1ccc(-c2c3nc(c(-c4c(F)cc(S(=O)(=O)[O-])cc4F)c4ccc([nH]4)c(-c4c(F)cc(S(=O)(=O)[O-])cc4F)c4nc(c(-c5c(F)cc(S(=O)(=O)[O-])cc5F)c5ccc2[nH]5)C=C4)C=C3)cc1
REMARK SMILES IDX 5 1 4 2 3 3 2 4 1 5 31 6 32 7 96 8 33 9 95 10 34 11 35 12
REMARK SMILES IDX 36 13 89 14 37 15 94 16 88 17 90 18 38 19 93 20 87 21 86 22
REMARK SMILES IDX 39 24 73 25 52 26 72 27 53 28 56 29 71 30 91 31 54 32 55 33
REMARK SMILES IDX 70 35 92 36 57 37 40 38 41 39 50 40 42 41 43 42 49 43 51 44
REMARK SMILES IDX 44 45 45 46 46 47 47 48 48 49 74 50 75 51 84 52 76 53 77 54
REMARK SMILES IDX 83 55 85 56 78 57 79 58 80 59 81 60 82 61 58 62 59 63 68 64
REMARK SMILES IDX 60 65 61 66 67 67 69 68 62 69 63 70 64 71 65 72 66 73 6 74
REMARK SMILES IDX 7 75 8 76 9 77 10 78 11 79 12 80 13 81 30 82 14 83 23 84
REMARK SMILES IDX 15 87 22 88 16 89 20 90 21 91 17 92 19 93 18 94 24 95 25 96
REMARK SMILES IDX 29 97 26 98 28 99 27 100
REMARK H PARENT 90 23 56 34 30 85 30 86
REMARK Flexibility Score: inf
ROOT
ATOM      1  C   UNL A   1      39.759  22.753  26.814  1.00  0.00     0.202 C 
ENDROOT
BRANCH   1   2
ATOM      2  C   UNL A   1      41.269  22.699  27.047  1.00  0.00     0.261 C 
BRANCH   2   3
ATOM      3  O   UNL A   1      41.936  23.721  26.285  1.00  0.00    -0.460 OA
BRANCH   3   4
ATOM      4  C   UNL A   1      41.665  25.043  26.179  1.00  0.00     0.338 C 
ATOM      5  O   UNL A   1      41.493  25.489  25.042  1.00  0.00    -0.246 OA
BRANCH   4   6
ATOM      6  C   UNL A   1      41.563  26.015  27.322  1.00  0.00     0.060 A 
ATOM      7  C   UNL A   1      40.463  25.849  28.189  1.00  0.00     0.016 A 
ATOM      8  C   UNL A   1      42.406  27.101  27.566  1.00  0.00     0.016 A 
ATOM      9  C   UNL A   1      40.212  26.747  29.234  1.00  0.00     0.010 A 
ATOM     10  C   UNL A   1      42.156  28.010  28.590  1.00  0.00     0.010 A 
ATOM     11  C   UNL A   1      41.059  27.839  29.426  1.00  0.00    -0.014 A 
BRANCH  11  12
ATOM     12  C   UNL A   1      40.917  28.761  30.564  1.00  0.00     0.031 A 
ATOM     13  C   UNL A   1      41.742  28.584  31.800  1.00  0.00     0.074 A 
ATOM     14  C   UNL A   1      39.916  29.656  30.504  1.00  0.00     0.049 A 
ATOM     15  N   UNL A   1      41.737  29.292  32.898  1.00  0.00    -0.248 NA
ATOM     16  C   UNL A   1      42.680  27.449  31.818  1.00  0.00     0.031 C 
ATOM     17  C   UNL A   1      38.999  29.807  29.370  1.00  0.00     0.029 A 
ATOM     18  N   UNL A   1      39.480  30.577  31.413  1.00  0.00    -0.354 N 
ATOM     19  C   UNL A   1      42.689  28.713  33.727  1.00  0.00     0.074 A 
ATOM     20  C   UNL A   1      43.208  27.555  33.031  1.00  0.00     0.031 C 
ATOM     21  C   UNL A   1      38.111  30.771  29.651  1.00  0.00     0.029 A 
ATOM     22  C   UNL A   1      38.399  31.302  30.979  1.00  0.00     0.049 A 
ATOM     23  H   UNL A   1      39.901  30.710  32.294  1.00  0.00     0.167 HD
ATOM     24  C   UNL A   1      43.101  29.137  34.946  1.00  0.00     0.037 A 
ATOM     25  C   UNL A   1      37.730  32.301  31.582  1.00  0.00     0.037 A 
ATOM     26  C   UNL A   1      42.529  30.276  35.620  1.00  0.00     0.049 A 
ATOM     27  C   UNL A   1      38.213  32.766  32.923  1.00  0.00     0.074 A 
ATOM     28  C   UNL A   1      42.889  30.840  36.831  1.00  0.00     0.029 A 
ATOM     29  N   UNL A   1      41.458  31.021  35.137  1.00  0.00    -0.354 N 
ATOM     30  N   UNL A   1      39.190  32.282  33.655  1.00  0.00    -0.248 NA
ATOM     31  C   UNL A   1      37.527  33.920  33.510  1.00  0.00     0.031 C 
ATOM     32  C   UNL A   1      42.014  31.900  37.097  1.00  0.00     0.029 A 
ATOM     33  C   UNL A   1      41.135  32.027  36.032  1.00  0.00     0.049 A 
ATOM     34  H   UNL A   1      40.996  30.856  34.283  1.00  0.00     0.167 HD
ATOM     35  C   UNL A   1      39.251  33.085  34.784  1.00  0.00     0.074 A 
ATOM     36  C   UNL A   1      38.218  34.093  34.630  1.00  0.00     0.031 C 
ATOM     37  C   UNL A   1      40.084  33.001  35.852  1.00  0.00     0.037 A 
BRANCH  24  38
ATOM     38  C   UNL A   1      44.232  28.393  35.608  1.00  0.00     0.058 A 
ATOM     39  C   UNL A   1      43.995  27.213  36.336  1.00  0.00     0.135 A 
ATOM     40  C   UNL A   1      45.564  28.815  35.473  1.00  0.00     0.135 A 
ATOM     41  F   UNL A   1      42.741  26.765  36.508  1.00  0.00    -0.206 F 
ATOM     42  C   UNL A   1      45.032  26.495  36.923  1.00  0.00     0.059 A 
ATOM     43  C   UNL A   1      46.621  28.097  36.032  1.00  0.00     0.059 A 
ATOM     44  F   UNL A   1      45.853  29.933  34.789  1.00  0.00    -0.206 F 
ATOM     45  C   UNL A   1      46.344  26.943  36.763  1.00  0.00     0.060 A 
BRANCH  45  46
ATOM     46  S   UNL A   1      47.676  25.984  37.515  1.00  0.00     0.124 S 
ATOM     47  O   UNL A   1      48.837  26.458  36.767  1.00  0.00    -0.237 OA
ATOM     48  O   UNL A   1      47.611  26.403  38.912  1.00  0.00    -0.237 OA
ATOM     49  O   UNL A   1      47.289  24.600  37.260  1.00  0.00    -0.744 OA
ENDBRANCH  45  46
ENDBRANCH  24  38
BRANCH  25  50
ATOM     50  C   UNL A   1      36.626  32.971  30.853  1.00  0.00     0.058 A 
ATOM     51  C   UNL A   1      35.298  32.795  31.269  1.00  0.00     0.135 A 
ATOM     52  C   UNL A   1      36.875  33.884  29.817  1.00  0.00     0.135 A 
ATOM     53  F   UNL A   1      35.015  31.939  32.262  1.00  0.00    -0.206 F 
ATOM     54  C   UNL A   1      34.254  33.504  30.686  1.00  0.00     0.059 A 
ATOM     55  C   UNL A   1      35.848  34.619  29.230  1.00  0.00     0.059 A 
ATOM     56  F   UNL A   1      38.132  34.109  29.407  1.00  0.00    -0.206 F 
ATOM     57  C   UNL A   1      34.540  34.422  29.675  1.00  0.00     0.060 A 
BRANCH  57  58
ATOM     58  S   UNL A   1      33.185  35.406  28.998  1.00  0.00     0.124 S 
ATOM     59  O   UNL A   1      32.515  35.859  30.212  1.00  0.00    -0.237 OA
ATOM     60  O   UNL A   1      33.900  36.430  28.243  1.00  0.00    -0.237 OA
ATOM     61  O   UNL A   1      32.443  34.444  28.188  1.00  0.00    -0.744 OA
ENDBRANCH  57  58
ENDBRANCH  25  50
BRANCH  37  62
ATOM     62  C   UNL A   1      39.900  34.026  36.932  1.00  0.00     0.058 A 
ATOM     63  C   UNL A   1      40.486  35.297  36.836  1.00  0.00     0.135 A 
ATOM     64  C   UNL A   1      39.096  33.750  38.049  1.00  0.00     0.135 A 
ATOM     65  F   UNL A   1      41.272  35.603  35.791  1.00  0.00    -0.206 F 
ATOM     66  C   UNL A   1      40.296  36.257  37.822  1.00  0.00     0.059 A 
ATOM     67  C   UNL A   1      38.871  34.703  39.034  1.00  0.00     0.059 A 
ATOM     68  F   UNL A   1      38.508  32.550  38.179  1.00  0.00    -0.206 F 
ATOM     69  C   UNL A   1      39.484  35.951  38.918  1.00  0.00     0.060 A 
BRANCH  69  70
ATOM     70  S   UNL A   1      39.223  37.218  40.174  1.00  0.00     0.124 S 
ATOM     71  O   UNL A   1      40.594  37.591  40.505  1.00  0.00    -0.237 OA
ATOM     72  O   UNL A   1      38.450  38.222  39.449  1.00  0.00    -0.237 OA
ATOM     73  O   UNL A   1      38.493  36.512  41.223  1.00  0.00    -0.744 OA
ENDBRANCH  69  70
ENDBRANCH  37  62
ENDBRANCH  11  12
ENDBRANCH   4   6
ENDBRANCH   3   4
ENDBRANCH   2   3
ENDBRANCH   1   2
BRANCH   1  74
ATOM     74  O   UNL A   1      39.337  21.711  25.940  1.00  0.00    -0.374 OA
BRANCH  74  75
ATOM     75  C   UNL A   1      37.981  21.791  25.510  1.00  0.00     0.202 C 
BRANCH  75  76
ATOM     76  C   UNL A   1      37.594  23.250  25.352  1.00  0.00     0.261 C 
BRANCH  76  77
ATOM     77  O   UNL A   1      36.431  23.546  26.138  1.00  0.00    -0.459 OA
BRANCH  77  78
ATOM     78  C   UNL A   1      35.220  23.605  25.504  1.00  0.00     0.365 C 
ATOM     79  O   UNL A   1      34.873  24.455  24.685  1.00  0.00    -0.245 OA
BRANCH  78  80
ATOM     80  C   UNL A   1      34.298  22.485  26.017  1.00  0.00     0.298 C 
ATOM     81  C   UNL A   1      32.954  22.975  26.647  1.00  0.00     0.111 C 
ATOM     82  N   UNL A   1      34.222  21.462  24.954  1.00  0.00    -0.326 N 
ATOM     83  C   UNL A   1      31.716  22.709  25.805  1.00  0.00    -0.024 C 
ATOM     84  C   UNL A   1      32.954  20.756  24.970  1.00  0.00     0.243 C 
ATOM     85  H   UNL A   1      34.976  20.789  25.090  1.00  0.00     0.347 HD
ATOM     86  H   UNL A   1      34.307  21.936  24.055  1.00  0.00     0.347 HD
ATOM     87  C   UNL A   1      30.869  23.676  25.470  1.00  0.00     0.002 A 
ATOM     88  C   UNL A   1      31.768  21.707  24.677  1.00  0.00     0.196 C 
ATOM     89  C   UNL A   1      30.366  24.810  26.172  1.00  0.00     0.010 A 
ATOM     90  C   UNL A   1      31.160  23.687  24.011  1.00  0.00     0.066 A 
ATOM     91  N   UNL A   1      31.757  22.633  23.496  1.00  0.00    -0.270 NA
ATOM     92  C   UNL A   1      30.057  25.916  25.485  1.00  0.00     0.001 A 
ATOM     93  C   UNL A   1      30.872  24.994  23.348  1.00  0.00     0.028 A 
ATOM     94  C   UNL A   1      30.358  26.012  24.068  1.00  0.00     0.002 A 
BRANCH  84  95
ATOM     95  C   UNL A   1      33.185  19.408  24.327  1.00  0.00     0.012 A 
ATOM     96  C   UNL A   1      34.351  18.722  24.756  1.00  0.00     0.010 A 
ATOM     97  C   UNL A   1      32.440  18.859  23.288  1.00  0.00     0.010 A 
ATOM     98  C   UNL A   1      34.757  17.527  24.180  1.00  0.00     0.001 A 
ATOM     99  C   UNL A   1      32.851  17.648  22.707  1.00  0.00     0.001 A 
ATOM    100  C   UNL A   1      34.003  16.987  23.151  1.00  0.00     0.000 A 
ENDBRANCH  84  95
ENDBRANCH  78  80
ENDBRANCH  77  78
ENDBRANCH  76  77
ENDBRANCH  75  76
ENDBRANCH  74  75
ENDBRANCH   1  74
TORSDOF 18
ENDMDL
MODEL 3
REMARK VINA RESULT:     -12.3      6.674     12.216
REMARK SMILES O=C(OCCOCCOC(=O)[C@H]1CC2=c3ccccc3=N[C@H]2[C@@H](c2ccccc2)[NH2+]1)c1ccc(-c2c3nc(c(-c4c(F)cc(S(=O)(=O)[O-])cc4F)c4ccc([nH]4)c(-c4c(F)cc(S(=O)(=O)[O-])cc4F)c4nc(c(-c5c(F)cc(S(=O)(=O)[O-])cc5F)c5ccc2[nH]5)C=C4)C=C3)cc1
REMARK SMILES IDX 5 1 4 2 3 3 2 4 1 5 31 6 32 7 96 8 33 9 95 10 34 11 35 12
REMARK SMILES IDX 36 13 89 14 37 15 94 16 88 17 90 18 38 19 93 20 87 21 86 22
REMARK SMILES IDX 39 24 73 25 52 26 72 27 53 28 56 29 71 30 91 31 54 32 55 33
REMARK SMILES IDX 70 35 92 36 57 37 40 38 41 39 50 40 42 41 43 42 49 43 51 44
REMARK SMILES IDX 44 45 45 46 46 47 47 48 48 49 74 50 75 51 84 52 76 53 77 54
REMARK SMILES IDX 83 55 85 56 78 57 79 58 80 59 81 60 82 61 58 62 59 63 68 64
REMARK SMILES IDX 60 65 61 66 67 67 69 68 62 69 63 70 64 71 65 72 66 73 6 74
REMARK SMILES IDX 7 75 8 76 9 77 10 78 11 79 12 80 13 81 30 82 14 83 23 84
REMARK SMILES IDX 15 87 22 88 16 89 20 90 21 91 17 92 19 93 18 94 24 95 25 96
REMARK SMILES IDX 29 97 26 98 28 99 27 100
REMARK H PARENT 90 23 56 34 30 85 30 86
REMARK Flexibility Score: inf
ROOT
ATOM      1  C   UNL A   1      34.894  32.597  28.562  1.00  0.00     0.202 C 
ENDROOT
BRANCH   1   2
ATOM      2  C   UNL A   1      36.101  32.954  29.430  1.00  0.00     0.261 C 
BRANCH   2   3
ATOM      3  O   UNL A   1      36.151  32.116  30.599  1.00  0.00    -0.460 OA
BRANCH   3   4
ATOM      4  C   UNL A   1      36.684  30.883  30.763  1.00  0.00     0.338 C 
ATOM      5  O   UNL A   1      35.966  30.029  31.288  1.00  0.00    -0.246 OA
BRANCH   4   6
ATOM      6  C   UNL A   1      38.074  30.466  30.369  1.00  0.00     0.060 A 
ATOM      7  C   UNL A   1      38.300  30.260  28.993  1.00  0.00     0.016 A 
ATOM      8  C   UNL A   1      39.137  30.198  31.234  1.00  0.00     0.016 A 
ATOM      9  C   UNL A   1      39.527  29.783  28.515  1.00  0.00     0.010 A 
ATOM     10  C   UNL A   1      40.354  29.706  30.773  1.00  0.00     0.010 A 
ATOM     11  C   UNL A   1      40.555  29.495  29.413  1.00  0.00    -0.014 A 
BRANCH  11  12
ATOM     12  C   UNL A   1      41.900  29.092  28.975  1.00  0.00     0.031 A 
ATOM     13  C   UNL A   1      43.000  30.100  28.853  1.00  0.00     0.074 A 
ATOM     14  C   UNL A   1      42.049  27.827  28.545  1.00  0.00     0.049 A 
ATOM     15  N   UNL A   1      44.236  29.922  28.471  1.00  0.00    -0.248 NA
ATOM     16  C   UNL A   1      42.663  31.495  29.180  1.00  0.00     0.031 C 
ATOM     17  C   UNL A   1      40.984  26.819  28.531  1.00  0.00     0.029 A 
ATOM     18  N   UNL A   1      43.128  27.182  28.011  1.00  0.00    -0.354 N 
ATOM     19  C   UNL A   1      44.837  31.173  28.540  1.00  0.00     0.074 A 
ATOM     20  C   UNL A   1      43.812  32.113  28.938  1.00  0.00     0.031 C 
ATOM     21  C   UNL A   1      41.467  25.679  28.018  1.00  0.00     0.029 A 
ATOM     22  C   UNL A   1      42.870  25.877  27.672  1.00  0.00     0.049 A 
ATOM     23  H   UNL A   1      44.006  27.610  27.883  1.00  0.00     0.167 HD
ATOM     24  C   UNL A   1      46.135  31.487  28.312  1.00  0.00     0.037 A 
ATOM     25  C   UNL A   1      43.687  24.941  27.158  1.00  0.00     0.037 A 
ATOM     26  C   UNL A   1      47.116  30.523  27.878  1.00  0.00     0.049 A 
ATOM     27  C   UNL A   1      45.123  25.305  26.930  1.00  0.00     0.074 A 
ATOM     28  C   UNL A   1      48.470  30.700  27.662  1.00  0.00     0.029 A 
ATOM     29  N   UNL A   1      46.835  29.193  27.580  1.00  0.00    -0.354 N 
ATOM     30  N   UNL A   1      45.712  26.465  27.103  1.00  0.00    -0.248 NA
ATOM     31  C   UNL A   1      46.011  24.236  26.462  1.00  0.00     0.031 C 
ATOM     32  C   UNL A   1      49.001  29.489  27.200  1.00  0.00     0.029 A 
ATOM     33  C   UNL A   1      47.986  28.543  27.169  1.00  0.00     0.049 A 
ATOM     34  H   UNL A   1      45.947  28.775  27.652  1.00  0.00     0.167 HD
ATOM     35  C   UNL A   1      47.047  26.264  26.784  1.00  0.00     0.074 A 
ATOM     36  C   UNL A   1      47.178  24.866  26.420  1.00  0.00     0.031 C 
ATOM     37  C   UNL A   1      48.073  27.152  26.794  1.00  0.00     0.037 A 
BRANCH  24  38
ATOM     38  C   UNL A   1      46.570  32.909  28.555  1.00  0.00     0.058 A 
ATOM     39  C   UNL A   1      46.541  33.862  27.522  1.00  0.00     0.135 A 
ATOM     40  C   UNL A   1      46.964  33.346  29.830  1.00  0.00     0.135 A 
ATOM     41  F   UNL A   1      46.183  33.502  26.279  1.00  0.00    -0.206 F 
ATOM     42  C   UNL A   1      46.907  35.188  27.739  1.00  0.00     0.059 A 
ATOM     43  C   UNL A   1      47.310  34.674  30.075  1.00  0.00     0.059 A 
ATOM     44  F   UNL A   1      47.011  32.482  30.857  1.00  0.00    -0.206 F 
ATOM     45  C   UNL A   1      47.287  35.586  29.020  1.00  0.00     0.060 A 
BRANCH  45  46
ATOM     46  S   UNL A   1      47.736  37.315  29.284  1.00  0.00     0.124 S 
ATOM     47  O   UNL A   1      47.385  37.909  27.997  1.00  0.00    -0.237 OA
ATOM     48  O   UNL A   1      46.882  37.690  30.407  1.00  0.00    -0.237 OA
ATOM     49  O   UNL A   1      49.165  37.257  29.578  1.00  0.00    -0.744 OA
ENDBRANCH  45  46
ENDBRANCH  24  38
BRANCH  25  50
ATOM     50  C   UNL A   1      43.167  23.568  26.948  1.00  0.00     0.058 A 
ATOM     51  C   UNL A   1      42.910  23.102  25.650  1.00  0.00     0.135 A 
ATOM     52  C   UNL A   1      43.029  22.662  28.010  1.00  0.00     0.135 A 
ATOM     53  F   UNL A   1      43.038  23.932  24.603  1.00  0.00    -0.206 F 
ATOM     54  C   UNL A   1      42.541  21.784  25.411  1.00  0.00     0.059 A 
ATOM     55  C   UNL A   1      42.678  21.333  27.794  1.00  0.00     0.059 A 
ATOM     56  F   UNL A   1      43.294  23.054  29.266  1.00  0.00    -0.206 F 
ATOM     57  C   UNL A   1      42.438  20.903  26.489  1.00  0.00     0.060 A 
BRANCH  57  58
ATOM     58  S   UNL A   1      42.053  19.171  26.149  1.00  0.00     0.124 S 
ATOM     59  O   UNL A   1      42.900  18.903  24.992  1.00  0.00    -0.237 OA
ATOM     60  O   UNL A   1      42.449  18.522  27.395  1.00  0.00    -0.237 OA
ATOM     61  O   UNL A   1      40.616  19.190  25.890  1.00  0.00    -0.744 OA
ENDBRANCH  57  58
ENDBRANCH  25  50
BRANCH  37  62
ATOM     62  C   UNL A   1      49.421  26.629  26.390  1.00  0.00     0.058 A 
ATOM     63  C   UNL A   1      49.897  26.780  25.079  1.00  0.00     0.135 A 
ATOM     64  C   UNL A   1      50.258  26.012  27.333  1.00  0.00     0.135 A 
ATOM     65  F   UNL A   1      49.127  27.356  24.142  1.00  0.00    -0.206 F 
ATOM     66  C   UNL A   1      51.155  26.320  24.710  1.00  0.00     0.059 A 
ATOM     67  C   UNL A   1      51.529  25.567  26.991  1.00  0.00     0.059 A 
ATOM     68  F   UNL A   1      49.848  25.852  28.601  1.00  0.00    -0.206 F 
ATOM     69  C   UNL A   1      51.965  25.716  25.674  1.00  0.00     0.060 A 
BRANCH  69  70
ATOM     70  S   UNL A   1      53.607  25.151  25.185  1.00  0.00     0.124 S 
ATOM     71  O   UNL A   1      53.478  23.706  25.338  1.00  0.00    -0.237 OA
ATOM     72  O   UNL A   1      53.709  25.637  23.813  1.00  0.00    -0.237 OA
ATOM     73  O   UNL A   1      54.491  25.808  26.144  1.00  0.00    -0.744 OA
ENDBRANCH  69  70
ENDBRANCH  37  62
ENDBRANCH  11  12
ENDBRANCH   4   6
ENDBRANCH   3   4
ENDBRANCH   2   3
ENDBRANCH   1   2
BRANCH   1  74
ATOM     74  O   UNL A   1      35.168  31.463  27.745  1.00  0.00    -0.374 OA
BRANCH  74  75
ATOM     75  C   UNL A   1      34.029  30.685  27.386  1.00  0.00     0.202 C 
BRANCH  75  76
ATOM     76  C   UNL A   1      34.414  29.217  27.368  1.00  0.00     0.261 C 
BRANCH  76  77
ATOM     77  O   UNL A   1      34.450  28.727  26.019  1.00  0.00    -0.459 OA
BRANCH  77  78
ATOM     78  C   UNL A   1      33.539  27.773  25.654  1.00  0.00     0.365 C 
ATOM     79  O   UNL A   1      33.234  26.776  26.308  1.00  0.00    -0.245 OA
BRANCH  78  80
ATOM     80  C   UNL A   1      32.986  28.078  24.251  1.00  0.00     0.298 C 
ATOM     81  C   UNL A   1      33.247  26.966  23.185  1.00  0.00     0.111 C 
ATOM     82  N   UNL A   1      31.595  28.547  24.424  1.00  0.00    -0.326 N 
ATOM     83  C   UNL A   1      32.019  26.165  22.777  1.00  0.00    -0.024 C 
ATOM     84  C   UNL A   1      30.767  28.222  23.277  1.00  0.00     0.243 C 
ATOM     85  H   UNL A   1      31.602  29.559  24.549  1.00  0.00     0.347 HD
ATOM     86  H   UNL A   1      31.204  28.076  25.239  1.00  0.00     0.347 HD
ATOM     87  C   UNL A   1      31.989  24.840  22.840  1.00  0.00     0.002 A 
ATOM     88  C   UNL A   1      30.637  26.691  23.084  1.00  0.00     0.196 C 
ATOM     89  C   UNL A   1      32.958  23.833  22.557  1.00  0.00     0.010 A 
ATOM     90  C   UNL A   1      30.994  24.724  23.940  1.00  0.00     0.066 A 
ATOM     91  N   UNL A   1      30.244  25.772  24.203  1.00  0.00    -0.270 NA
ATOM     92  C   UNL A   1      32.929  22.689  23.251  1.00  0.00     0.001 A 
ATOM     93  C   UNL A   1      31.101  23.453  24.718  1.00  0.00     0.028 A 
ATOM     94  C   UNL A   1      32.016  22.527  24.368  1.00  0.00     0.002 A 
BRANCH  84  95
ATOM     95  C   UNL A   1      29.627  29.215  23.253  1.00  0.00     0.012 A 
ATOM     96  C   UNL A   1      29.929  30.497  23.779  1.00  0.00     0.010 A 
ATOM     97  C   UNL A   1      28.314  28.943  22.885  1.00  0.00     0.010 A 
ATOM     98  C   UNL A   1      28.960  31.480  23.927  1.00  0.00     0.001 A 
ATOM     99  C   UNL A   1      27.335  29.939  23.032  1.00  0.00     0.001 A 
ATOM    100  C   UNL A   1      27.657  31.199  23.551  1.00  0.00     0.000 A 
ENDBRANCH  84  95
ENDBRANCH  78  80
ENDBRANCH  77  78
ENDBRANCH  76  77
ENDBRANCH  75  76
ENDBRANCH  74  75
ENDBRANCH   1  74
TORSDOF 18
ENDMDL
