MODEL 1
REMARK VINA RESULT:      -7.1      0.000      0.000
REMARK SMILES CC[C@H](C)CN(CC)C(=O)NC[C@@](C)(O)C(=O)OCCOCCOC(=O)c1ccc(-c2c3nc(c(-c4c(F)cc(S(=O)(=O)[O-])cc4F)c4ccc([nH]4)c(-c4c(F)cc(S(=O)(=O)[O-])cc4F)c4nc(c(-c5c(F)cc(S(=O)(=O)[O-])cc5F)c5ccc2[nH]5)C=C4)C=C3)cc1
REMARK SMILES IDX 19 1 18 2 16 3 17 4 13 5 14 6 12 7 11 8 9 9 10 10 6 12 5 13
REMARK SMILES IDX 3 14 4 15 2 16 1 17 7 18 8 19 15 20 20 22 21 23 22 24 23 25
REMARK SMILES IDX 24 26 25 27 26 28 27 29 28 30 92 31 29 32 91 33 30 34 31 35
REMARK SMILES IDX 32 36 85 37 33 38 90 39 84 40 86 41 34 42 89 43 83 44 82 45
REMARK SMILES IDX 35 47 69 48 48 49 68 50 49 51 52 52 67 53 87 54 50 55 51 56
REMARK SMILES IDX 66 58 88 59 53 60 36 61 37 62 46 63 38 64 39 65 45 66 47 67
REMARK SMILES IDX 40 68 41 69 42 70 43 71 44 72 70 73 71 74 80 75 72 76 73 77
REMARK SMILES IDX 79 78 81 79 74 80 75 81 76 82 77 83 78 84 54 85 55 86 64 87
REMARK SMILES IDX 56 88 57 89 63 90 65 91 58 92 59 93 60 94 61 95 62 96
REMARK H PARENT 11 11 15 21 86 46 52 57
REMARK Flexibility Score: inf
ROOT
ATOM      1  C   UNL A   1      32.936  36.172  29.492  1.00  0.00     0.261 C 
ENDROOT
BRANCH   1   2
ATOM      2  O   UNL A   1      32.883  34.870  28.884  1.00  0.00    -0.461 OA
BRANCH   2   3
ATOM      3  C   UNL A   1      34.043  34.432  28.329  1.00  0.00     0.339 C 
ATOM      4  O   UNL A   1      34.862  35.154  27.769  1.00  0.00    -0.249 OA
BRANCH   3   5
ATOM      5  C   UNL A   1      34.188  32.890  28.434  1.00  0.00     0.176 C 
ATOM      6  C   UNL A   1      33.030  32.347  27.585  1.00  0.00     0.057 C 
BRANCH   5   7
ATOM      7  C   UNL A   1      35.560  32.374  27.907  1.00  0.00     0.164 C 
BRANCH   7   8
ATOM      8  N   UNL A   1      35.622  30.955  27.626  1.00  0.00    -0.334 N 
ATOM      9  C   UNL A   1      36.387  29.931  28.033  1.00  0.00     0.317 C 
ATOM     10  O   UNL A   1      36.507  29.025  27.202  1.00  0.00    -0.249 OA
ATOM     11  H   UNL A   1      34.937  30.673  26.978  1.00  0.00     0.165 HD
BRANCH   9  12
ATOM     12  N   UNL A   1      36.928  29.833  29.287  1.00  0.00    -0.325 N 
BRANCH  12  13
ATOM     13  C   UNL A   1      38.373  29.542  29.336  1.00  0.00     0.124 C 
BRANCH  13  14
ATOM     14  C   UNL A   1      38.675  28.099  29.829  1.00  0.00     0.005 C 
ATOM     15  C   UNL A   1      39.311  27.226  28.738  1.00  0.00     0.009 C 
BRANCH  14  16
ATOM     16  C   UNL A   1      39.574  28.151  31.081  1.00  0.00     0.002 C 
ATOM     17  C   UNL A   1      38.833  27.807  32.369  1.00  0.00     0.004 C 
ENDBRANCH  14  16
ENDBRANCH  13  14
ENDBRANCH  12  13
BRANCH  12  18
ATOM     18  C   UNL A   1      36.233  29.769  30.575  1.00  0.00     0.118 C 
ATOM     19  C   UNL A   1      36.747  30.791  31.578  1.00  0.00     0.027 C 
ENDBRANCH  12  18
ENDBRANCH   9  12
ENDBRANCH   7   8
ENDBRANCH   5   7
BRANCH   5  20
ATOM     20  O   UNL A   1      34.066  32.373  29.769  1.00  0.00    -0.377 OA
ATOM     21  H   UNL A   1      34.925  32.030  30.061  1.00  0.00     0.212 HD
ENDBRANCH   5  20
ENDBRANCH   3   5
ENDBRANCH   2   3
ENDBRANCH   1   2
BRANCH   1  22
ATOM     22  C   UNL A   1      32.441  36.072  30.934  1.00  0.00     0.202 C 
BRANCH  22  23
ATOM     23  O   UNL A   1      32.501  37.266  31.718  1.00  0.00    -0.374 OA
BRANCH  23  24
ATOM     24  C   UNL A   1      33.695  37.508  32.457  1.00  0.00     0.202 C 
BRANCH  24  25
ATOM     25  C   UNL A   1      34.329  36.319  33.196  1.00  0.00     0.261 C 
BRANCH  25  26
ATOM     26  O   UNL A   1      35.150  35.493  32.370  1.00  0.00    -0.460 OA
BRANCH  26  27
ATOM     27  C   UNL A   1      35.130  34.178  32.707  1.00  0.00     0.338 C 
ATOM     28  O   UNL A   1      34.325  33.334  32.382  1.00  0.00    -0.246 OA
BRANCH  27  29
ATOM     29  C   UNL A   1      36.386  33.888  33.419  1.00  0.00     0.060 A 
ATOM     30  C   UNL A   1      36.312  33.121  34.590  1.00  0.00     0.016 A 
ATOM     31  C   UNL A   1      37.608  34.354  32.935  1.00  0.00     0.016 A 
ATOM     32  C   UNL A   1      37.471  32.832  35.298  1.00  0.00     0.010 A 
ATOM     33  C   UNL A   1      38.766  34.079  33.655  1.00  0.00     0.010 A 
ATOM     34  C   UNL A   1      38.696  33.343  34.852  1.00  0.00    -0.014 A 
BRANCH  34  35
ATOM     35  C   UNL A   1      39.886  33.283  35.724  1.00  0.00     0.031 A 
ATOM     36  C   UNL A   1      40.765  32.071  35.625  1.00  0.00     0.074 A 
ATOM     37  C   UNL A   1      40.149  34.269  36.598  1.00  0.00     0.049 A 
ATOM     38  N   UNL A   1      41.782  31.722  36.364  1.00  0.00    -0.248 NA
ATOM     39  C   UNL A   1      40.439  31.116  34.552  1.00  0.00     0.031 C 
ATOM     40  C   UNL A   1      39.386  35.509  36.727  1.00  0.00     0.029 A 
ATOM     41  N   UNL A   1      41.125  34.369  37.554  1.00  0.00    -0.354 N 
ATOM     42  C   UNL A   1      42.200  30.494  35.865  1.00  0.00     0.074 A 
ATOM     43  C   UNL A   1      41.315  30.149  34.775  1.00  0.00     0.031 C 
ATOM     44  C   UNL A   1      39.920  36.246  37.717  1.00  0.00     0.029 A 
ATOM     45  C   UNL A   1      41.028  35.506  38.319  1.00  0.00     0.049 A 
ATOM     46  H   UNL A   1      41.827  33.692  37.681  1.00  0.00     0.167 HD
ATOM     47  C   UNL A   1      43.231  29.726  36.287  1.00  0.00     0.037 A 
ATOM     48  C   UNL A   1      41.740  35.884  39.399  1.00  0.00     0.037 A 
ATOM     49  C   UNL A   1      44.096  30.093  37.376  1.00  0.00     0.049 A 
ATOM     50  C   UNL A   1      42.835  34.977  39.900  1.00  0.00     0.074 A 
ATOM     51  C   UNL A   1      45.188  29.409  37.874  1.00  0.00     0.029 A 
ATOM     52  N   UNL A   1      43.952  31.240  38.145  1.00  0.00    -0.354 N 
ATOM     53  N   UNL A   1      43.239  33.826  39.414  1.00  0.00    -0.248 NA
ATOM     54  C   UNL A   1      43.564  35.411  41.100  1.00  0.00     0.031 C 
ATOM     55  C   UNL A   1      45.665  30.110  38.986  1.00  0.00     0.029 A 
ATOM     56  C   UNL A   1      44.915  31.268  39.136  1.00  0.00     0.049 A 
ATOM     57  H   UNL A   1      43.265  31.931  38.005  1.00  0.00     0.167 HD
ATOM     58  C   UNL A   1      44.299  33.423  40.218  1.00  0.00     0.074 A 
ATOM     59  C   UNL A   1      44.465  34.445  41.231  1.00  0.00     0.031 C 
ATOM     60  C   UNL A   1      45.074  32.313  40.119  1.00  0.00     0.037 A 
BRANCH  47  61
ATOM     61  C   UNL A   1      43.435  28.400  35.607  1.00  0.00     0.058 A 
ATOM     62  C   UNL A   1      42.707  27.253  35.965  1.00  0.00     0.135 A 
ATOM     63  C   UNL A   1      44.385  28.274  34.580  1.00  0.00     0.135 A 
ATOM     64  F   UNL A   1      41.799  27.310  36.954  1.00  0.00    -0.206 F 
ATOM     65  C   UNL A   1      42.944  26.023  35.362  1.00  0.00     0.059 A 
ATOM     66  C   UNL A   1      44.615  27.061  33.938  1.00  0.00     0.059 A 
ATOM     67  F   UNL A   1      45.113  29.335  34.198  1.00  0.00    -0.206 F 
ATOM     68  C   UNL A   1      43.904  25.935  34.351  1.00  0.00     0.060 A 
BRANCH  68  69
ATOM     69  S   UNL A   1      44.218  24.328  33.594  1.00  0.00     0.124 S 
ATOM     70  O   UNL A   1      43.097  23.544  34.103  1.00  0.00    -0.237 OA
ATOM     71  O   UNL A   1      44.177  24.640  32.169  1.00  0.00    -0.237 OA
ATOM     72  O   UNL A   1      45.530  23.956  34.115  1.00  0.00    -0.744 OA
ENDBRANCH  68  69
ENDBRANCH  47  61
BRANCH  48  73
ATOM     73  C   UNL A   1      41.450  37.182  40.063  1.00  0.00     0.058 A 
ATOM     74  C   UNL A   1      42.090  38.358  39.648  1.00  0.00     0.135 A 
ATOM     75  C   UNL A   1      40.509  37.284  41.100  1.00  0.00     0.135 A 
ATOM     76  F   UNL A   1      43.005  38.313  38.667  1.00  0.00    -0.206 F 
ATOM     77  C   UNL A   1      41.814  39.588  40.237  1.00  0.00     0.059 A 
ATOM     78  C   UNL A   1      40.197  38.506  41.689  1.00  0.00     0.059 A 
ATOM     79  F   UNL A   1      39.858  36.190  41.530  1.00  0.00    -0.206 F 
ATOM     80  C   UNL A   1      40.858  39.652  41.253  1.00  0.00     0.060 A 
BRANCH  80  81
ATOM     81  S   UNL A   1      40.465  41.264  41.965  1.00  0.00     0.124 S 
ATOM     82  O   UNL A   1      41.660  41.538  42.755  1.00  0.00    -0.237 OA
ATOM     83  O   UNL A   1      40.284  42.087  40.773  1.00  0.00    -0.237 OA
ATOM     84  O   UNL A   1      39.248  41.006  42.730  1.00  0.00    -0.744 OA
ENDBRANCH  80  81
ENDBRANCH  48  73
BRANCH  60  85
ATOM     85  C   UNL A   1      46.218  32.164  41.084  1.00  0.00     0.058 A 
ATOM     86  C   UNL A   1      47.473  32.743  40.843  1.00  0.00     0.135 A 
ATOM     87  C   UNL A   1      46.008  31.536  42.323  1.00  0.00     0.135 A 
ATOM     88  F   UNL A   1      47.727  33.346  39.672  1.00  0.00    -0.206 F 
ATOM     89  C   UNL A   1      48.480  32.709  41.804  1.00  0.00     0.059 A 
ATOM     90  C   UNL A   1      46.990  31.516  43.306  1.00  0.00     0.059 A 
ATOM     91  F   UNL A   1      44.821  30.974  42.604  1.00  0.00    -0.206 F 
ATOM     92  C   UNL A   1      48.224  32.106  43.037  1.00  0.00     0.060 A 
BRANCH  92  93
ATOM     93  S   UNL A   1      49.507  32.155  44.306  1.00  0.00     0.124 S 
ATOM     94  O   UNL A   1      50.495  33.035  43.691  1.00  0.00    -0.237 OA
ATOM     95  O   UNL A   1      48.790  32.707  45.451  1.00  0.00    -0.237 OA
ATOM     96  O   UNL A   1      49.907  30.758  44.439  1.00  0.00    -0.744 OA
ENDBRANCH  92  93
ENDBRANCH  60  85
ENDBRANCH  34  35
ENDBRANCH  27  29
ENDBRANCH  26  27
ENDBRANCH  25  26
ENDBRANCH  24  25
ENDBRANCH  23  24
ENDBRANCH  22  23
ENDBRANCH   1  22
TORSDOF 25
ENDMDL
MODEL 2
REMARK VINA RESULT:      -7.0      5.022     12.922
REMARK SMILES CC[C@H](C)CN(CC)C(=O)NC[C@@](C)(O)C(=O)OCCOCCOC(=O)c1ccc(-c2c3nc(c(-c4c(F)cc(S(=O)(=O)[O-])cc4F)c4ccc([nH]4)c(-c4c(F)cc(S(=O)(=O)[O-])cc4F)c4nc(c(-c5c(F)cc(S(=O)(=O)[O-])cc5F)c5ccc2[nH]5)C=C4)C=C3)cc1
REMARK SMILES IDX 19 1 18 2 16 3 17 4 13 5 14 6 12 7 11 8 9 9 10 10 6 12 5 13
REMARK SMILES IDX 3 14 4 15 2 16 1 17 7 18 8 19 15 20 20 22 21 23 22 24 23 25
REMARK SMILES IDX 24 26 25 27 26 28 27 29 28 30 92 31 29 32 91 33 30 34 31 35
REMARK SMILES IDX 32 36 85 37 33 38 90 39 84 40 86 41 34 42 89 43 83 44 82 45
REMARK SMILES IDX 35 47 69 48 48 49 68 50 49 51 52 52 67 53 87 54 50 55 51 56
REMARK SMILES IDX 66 58 88 59 53 60 36 61 37 62 46 63 38 64 39 65 45 66 47 67
REMARK SMILES IDX 40 68 41 69 42 70 43 71 44 72 70 73 71 74 80 75 72 76 73 77
REMARK SMILES IDX 79 78 81 79 74 80 75 81 76 82 77 83 78 84 54 85 55 86 64 87
REMARK SMILES IDX 56 88 57 89 63 90 65 91 58 92 59 93 60 94 61 95 62 96
REMARK H PARENT 11 11 15 21 86 46 52 57
REMARK Flexibility Score: inf
ROOT
ATOM      1  C   UNL A   1      45.612  23.188  38.284  1.00  0.00     0.261 C 
ENDROOT
BRANCH   1   2
ATOM      2  O   UNL A   1      46.680  22.234  38.398  1.00  0.00    -0.461 OA
BRANCH   2   3
ATOM      3  C   UNL A   1      46.460  21.201  39.253  1.00  0.00     0.339 C 
ATOM      4  O   UNL A   1      45.619  21.207  40.147  1.00  0.00    -0.249 OA
BRANCH   3   5
ATOM      5  C   UNL A   1      47.439  20.023  39.003  1.00  0.00     0.176 C 
ATOM      6  C   UNL A   1      46.535  18.883  38.513  1.00  0.00     0.057 C 
BRANCH   5   7
ATOM      7  C   UNL A   1      48.536  20.361  37.949  1.00  0.00     0.164 C 
BRANCH   7   8
ATOM      8  N   UNL A   1      48.262  19.905  36.602  1.00  0.00    -0.334 N 
ATOM      9  C   UNL A   1      48.451  20.397  35.368  1.00  0.00     0.317 C 
ATOM     10  O   UNL A   1      47.628  20.005  34.535  1.00  0.00    -0.249 OA
ATOM     11  H   UNL A   1      47.832  19.020  36.588  1.00  0.00     0.165 HD
BRANCH   9  12
ATOM     12  N   UNL A   1      49.507  21.195  35.017  1.00  0.00    -0.325 N 
BRANCH  12  13
ATOM     13  C   UNL A   1      49.152  22.483  34.393  1.00  0.00     0.124 C 
BRANCH  13  14
ATOM     14  C   UNL A   1      48.155  23.309  35.252  1.00  0.00     0.005 C 
ATOM     15  C   UNL A   1      48.864  24.279  36.207  1.00  0.00     0.009 C 
BRANCH  14  16
ATOM     16  C   UNL A   1      47.172  24.064  34.334  1.00  0.00     0.002 C 
ATOM     17  C   UNL A   1      46.676  25.376  34.932  1.00  0.00     0.004 C 
ENDBRANCH  14  16
ENDBRANCH  13  14
ENDBRANCH  12  13
BRANCH  12  18
ATOM     18  C   UNL A   1      50.932  20.856  34.984  1.00  0.00     0.118 C 
ATOM     19  C   UNL A   1      51.834  22.082  34.997  1.00  0.00     0.027 C 
ENDBRANCH  12  18
ENDBRANCH   9  12
ENDBRANCH   7   8
ENDBRANCH   5   7
BRANCH   5  20
ATOM     20  O   UNL A   1      48.147  19.583  40.172  1.00  0.00    -0.377 OA
ATOM     21  H   UNL A   1      49.000  19.202  39.909  1.00  0.00     0.212 HD
ENDBRANCH   5  20
ENDBRANCH   3   5
ENDBRANCH   2   3
ENDBRANCH   1   2
BRANCH   1  22
ATOM     22  C   UNL A   1      45.907  24.381  39.191  1.00  0.00     0.202 C 
BRANCH  22  23
ATOM     23  O   UNL A   1      46.845  25.344  38.702  1.00  0.00    -0.374 OA
BRANCH  23  24
ATOM     24  C   UNL A   1      47.895  25.743  39.578  1.00  0.00     0.202 C 
BRANCH  24  25
ATOM     25  C   UNL A   1      48.783  26.917  39.137  1.00  0.00     0.261 C 
BRANCH  25  26
ATOM     26  O   UNL A   1      48.054  28.059  38.687  1.00  0.00    -0.460 OA
BRANCH  26  27
ATOM     27  C   UNL A   1      48.405  28.488  37.447  1.00  0.00     0.338 C 
ATOM     28  O   UNL A   1      49.512  28.530  36.956  1.00  0.00    -0.246 OA
BRANCH  27  29
ATOM     29  C   UNL A   1      47.162  28.743  36.701  1.00  0.00     0.060 A 
ATOM     30  C   UNL A   1      47.220  29.629  35.618  1.00  0.00     0.016 A 
ATOM     31  C   UNL A   1      45.970  28.112  37.058  1.00  0.00     0.016 A 
ATOM     32  C   UNL A   1      46.068  29.906  34.893  1.00  0.00     0.010 A 
ATOM     33  C   UNL A   1      44.814  28.403  36.343  1.00  0.00     0.010 A 
ATOM     34  C   UNL A   1      44.855  29.322  35.278  1.00  0.00    -0.014 A 
BRANCH  34  35
ATOM     35  C   UNL A   1      43.583  29.807  34.704  1.00  0.00     0.031 A 
ATOM     36  C   UNL A   1      43.152  29.239  33.384  1.00  0.00     0.074 A 
ATOM     37  C   UNL A   1      42.860  30.748  35.331  1.00  0.00     0.049 A 
ATOM     38  N   UNL A   1      42.156  29.589  32.616  1.00  0.00    -0.248 NA
ATOM     39  C   UNL A   1      43.966  28.133  32.852  1.00  0.00     0.031 C 
ATOM     40  C   UNL A   1      43.169  31.318  36.642  1.00  0.00     0.029 A 
ATOM     41  N   UNL A   1      41.723  31.402  34.937  1.00  0.00    -0.354 N 
ATOM     42  C   UNL A   1      42.241  28.768  31.499  1.00  0.00     0.074 A 
ATOM     43  C   UNL A   1      43.396  27.917  31.678  1.00  0.00     0.031 C 
ATOM     44  C   UNL A   1      42.244  32.247  36.940  1.00  0.00     0.029 A 
ATOM     45  C   UNL A   1      41.310  32.368  35.822  1.00  0.00     0.049 A 
ATOM     46  H   UNL A   1      41.246  31.198  34.100  1.00  0.00     0.167 HD
ATOM     47  C   UNL A   1      41.425  28.735  30.420  1.00  0.00     0.037 A 
ATOM     48  C   UNL A   1      40.309  33.264  35.719  1.00  0.00     0.037 A 
ATOM     49  C   UNL A   1      40.283  29.596  30.267  1.00  0.00     0.049 A 
ATOM     50  C   UNL A   1      39.459  33.261  34.474  1.00  0.00     0.074 A 
ATOM     51  C   UNL A   1      39.368  29.634  29.232  1.00  0.00     0.029 A 
ATOM     52  N   UNL A   1      39.911  30.581  31.172  1.00  0.00    -0.354 N 
ATOM     53  N   UNL A   1      39.530  32.471  33.428  1.00  0.00    -0.248 NA
ATOM     54  C   UNL A   1      38.399  34.276  34.387  1.00  0.00     0.031 C 
ATOM     55  C   UNL A   1      38.481  30.687  29.479  1.00  0.00     0.029 A 
ATOM     56  C   UNL A   1      38.799  31.257  30.703  1.00  0.00     0.049 A 
ATOM     57  H   UNL A   1      40.371  30.770  32.021  1.00  0.00     0.167 HD
ATOM     58  C   UNL A   1      38.498  32.860  32.583  1.00  0.00     0.074 A 
ATOM     59  C   UNL A   1      37.824  33.967  33.232  1.00  0.00     0.031 C 
ATOM     60  C   UNL A   1      38.131  32.341  31.384  1.00  0.00     0.037 A 
BRANCH  47  61
ATOM     61  C   UNL A   1      41.776  27.783  29.310  1.00  0.00     0.058 A 
ATOM     62  C   UNL A   1      41.037  26.614  29.062  1.00  0.00     0.135 A 
ATOM     63  C   UNL A   1      42.882  28.042  28.484  1.00  0.00     0.135 A 
ATOM     64  F   UNL A   1      39.982  26.306  29.833  1.00  0.00    -0.206 F 
ATOM     65  C   UNL A   1      41.406  25.718  28.065  1.00  0.00     0.059 A 
ATOM     66  C   UNL A   1      43.250  27.176  27.458  1.00  0.00     0.059 A 
ATOM     67  F   UNL A   1      43.629  29.141  28.676  1.00  0.00    -0.206 F 
ATOM     68  C   UNL A   1      42.518  26.005  27.270  1.00  0.00     0.060 A 
BRANCH  68  69
ATOM     69  S   UNL A   1      42.999  24.821  25.996  1.00  0.00     0.124 S 
ATOM     70  O   UNL A   1      43.187  25.696  24.843  1.00  0.00    -0.237 OA
ATOM     71  O   UNL A   1      44.215  24.239  26.554  1.00  0.00    -0.237 OA
ATOM     72  O   UNL A   1      41.853  23.920  25.919  1.00  0.00    -0.744 OA
ENDBRANCH  68  69
ENDBRANCH  47  61
BRANCH  48  73
ATOM     73  C   UNL A   1      40.049  34.219  36.828  1.00  0.00     0.058 A 
ATOM     74  C   UNL A   1      40.619  35.500  36.818  1.00  0.00     0.135 A 
ATOM     75  C   UNL A   1      39.207  33.889  37.902  1.00  0.00     0.135 A 
ATOM     76  F   UNL A   1      41.439  35.861  35.818  1.00  0.00    -0.206 F 
ATOM     77  C   UNL A   1      40.369  36.419  37.832  1.00  0.00     0.059 A 
ATOM     78  C   UNL A   1      38.922  34.799  38.916  1.00  0.00     0.059 A 
ATOM     79  F   UNL A   1      38.627  32.679  37.956  1.00  0.00    -0.206 F 
ATOM     80  C   UNL A   1      39.511  36.061  38.874  1.00  0.00     0.060 A 
BRANCH  80  81
ATOM     81  S   UNL A   1      39.146  37.286  40.150  1.00  0.00     0.124 S 
ATOM     82  O   UNL A   1      40.485  37.715  40.538  1.00  0.00    -0.237 OA
ATOM     83  O   UNL A   1      38.351  38.264  39.413  1.00  0.00    -0.237 OA
ATOM     84  O   UNL A   1      38.412  36.519  41.152  1.00  0.00    -0.744 OA
ENDBRANCH  80  81
ENDBRANCH  48  73
BRANCH  60  85
ATOM     85  C   UNL A   1      36.911  32.908  30.713  1.00  0.00     0.058 A 
ATOM     86  C   UNL A   1      35.613  32.565  31.120  1.00  0.00     0.135 A 
ATOM     87  C   UNL A   1      37.053  33.905  29.733  1.00  0.00     0.135 A 
ATOM     88  F   UNL A   1      35.423  31.612  32.045  1.00  0.00    -0.206 F 
ATOM     89  C   UNL A   1      34.496  33.196  30.580  1.00  0.00     0.059 A 
ATOM     90  C   UNL A   1      35.952  34.568  29.203  1.00  0.00     0.059 A 
ATOM     91  F   UNL A   1      38.274  34.275  29.317  1.00  0.00    -0.206 F 
ATOM     92  C   UNL A   1      34.677  34.206  29.633  1.00  0.00     0.060 A 
BRANCH  92  93
ATOM     93  S   UNL A   1      33.224  35.081  29.014  1.00  0.00     0.124 S 
ATOM     94  O   UNL A   1      32.720  34.144  28.015  1.00  0.00    -0.237 OA
ATOM     95  O   UNL A   1      32.412  35.225  30.218  1.00  0.00    -0.237 OA
ATOM     96  O   UNL A   1      33.775  36.325  28.484  1.00  0.00    -0.744 OA
ENDBRANCH  92  93
ENDBRANCH  60  85
ENDBRANCH  34  35
ENDBRANCH  27  29
ENDBRANCH  26  27
ENDBRANCH  25  26
ENDBRANCH  24  25
ENDBRANCH  23  24
ENDBRANCH  22  23
ENDBRANCH   1  22
TORSDOF 25
ENDMDL
MODEL 3
REMARK VINA RESULT:      -7.0      4.287      6.544
REMARK SMILES CC[C@H](C)CN(CC)C(=O)NC[C@@](C)(O)C(=O)OCCOCCOC(=O)c1ccc(-c2c3nc(c(-c4c(F)cc(S(=O)(=O)[O-])cc4F)c4ccc([nH]4)c(-c4c(F)cc(S(=O)(=O)[O-])cc4F)c4nc(c(-c5c(F)cc(S(=O)(=O)[O-])cc5F)c5ccc2[nH]5)C=C4)C=C3)cc1
REMARK SMILES IDX 19 1 18 2 16 3 17 4 13 5 14 6 12 7 11 8 9 9 10 10 6 12 5 13
REMARK SMILES IDX 3 14 4 15 2 16 1 17 7 18 8 19 15 20 20 22 21 23 22 24 23 25
REMARK SMILES IDX 24 26 25 27 26 28 27 29 28 30 92 31 29 32 91 33 30 34 31 35
REMARK SMILES IDX 32 36 85 37 33 38 90 39 84 40 86 41 34 42 89 43 83 44 82 45
REMARK SMILES IDX 35 47 69 48 48 49 68 50 49 51 52 52 67 53 87 54 50 55 51 56
REMARK SMILES IDX 66 58 88 59 53 60 36 61 37 62 46 63 38 64 39 65 45 66 47 67
REMARK SMILES IDX 40 68 41 69 42 70 43 71 44 72 70 73 71 74 80 75 72 76 73 77
REMARK SMILES IDX 79 78 81 79 74 80 75 81 76 82 77 83 78 84 54 85 55 86 64 87
REMARK SMILES IDX 56 88 57 89 63 90 65 91 58 92 59 93 60 94 61 95 62 96
REMARK H PARENT 11 11 15 21 86 46 52 57
REMARK Flexibility Score: inf
ROOT
ATOM      1  C   UNL A   1      32.979  29.018  25.706  1.00  0.00     0.261 C 
ENDROOT
BRANCH   1   2
ATOM      2  O   UNL A   1      32.891  27.742  26.361  1.00  0.00    -0.461 OA
BRANCH   2   3
ATOM      3  C   UNL A   1      31.684  27.441  26.906  1.00  0.00     0.339 C 
ATOM      4  O   UNL A   1      31.231  27.959  27.922  1.00  0.00    -0.249 OA
BRANCH   3   5
ATOM      5  C   UNL A   1      30.959  26.315  26.120  1.00  0.00     0.176 C 
ATOM      6  C   UNL A   1      30.604  26.967  24.776  1.00  0.00     0.057 C 
BRANCH   5   7
ATOM      7  C   UNL A   1      31.848  25.053  25.913  1.00  0.00     0.164 C 
BRANCH   7   8
ATOM      8  N   UNL A   1      32.799  25.136  24.824  1.00  0.00    -0.334 N 
ATOM      9  C   UNL A   1      34.092  24.820  24.656  1.00  0.00     0.317 C 
ATOM     10  O   UNL A   1      34.679  25.515  23.820  1.00  0.00    -0.249 OA
ATOM     11  H   UNL A   1      32.400  25.518  24.009  1.00  0.00     0.165 HD
BRANCH   9  12
ATOM     12  N   UNL A   1      34.709  23.769  25.279  1.00  0.00    -0.325 N 
BRANCH  12  13
ATOM     13  C   UNL A   1      33.809  22.743  25.837  1.00  0.00     0.124 C 
BRANCH  13  14
ATOM     14  C   UNL A   1      33.565  21.563  24.854  1.00  0.00     0.005 C 
ATOM     15  C   UNL A   1      34.665  20.495  24.933  1.00  0.00     0.009 C 
BRANCH  14  16
ATOM     16  C   UNL A   1      32.178  20.943  25.114  1.00  0.00     0.002 C 
ATOM     17  C   UNL A   1      31.091  21.982  25.367  1.00  0.00     0.004 C 
ENDBRANCH  14  16
ENDBRANCH  13  14
ENDBRANCH  12  13
BRANCH  12  18
ATOM     18  C   UNL A   1      36.120  23.631  25.650  1.00  0.00     0.118 C 
ATOM     19  C   UNL A   1      37.015  23.297  24.466  1.00  0.00     0.027 C 
ENDBRANCH  12  18
ENDBRANCH   9  12
ENDBRANCH   7   8
ENDBRANCH   5   7
BRANCH   5  20
ATOM     20  O   UNL A   1      29.752  25.843  26.739  1.00  0.00    -0.377 OA
ATOM     21  H   UNL A   1      29.463  25.027  26.302  1.00  0.00     0.212 HD
ENDBRANCH   5  20
ENDBRANCH   3   5
ENDBRANCH   2   3
ENDBRANCH   1   2
BRANCH   1  22
ATOM     22  C   UNL A   1      32.638  30.120  26.707  1.00  0.00     0.202 C 
BRANCH  22  23
ATOM     23  O   UNL A   1      33.576  31.192  26.828  1.00  0.00    -0.374 OA
BRANCH  23  24
ATOM     24  C   UNL A   1      33.428  32.074  27.936  1.00  0.00     0.202 C 
BRANCH  24  25
ATOM     25  C   UNL A   1      32.695  33.404  27.697  1.00  0.00     0.261 C 
BRANCH  25  26
ATOM     26  O   UNL A   1      33.441  34.556  28.086  1.00  0.00    -0.460 OA
BRANCH  26  27
ATOM     27  C   UNL A   1      33.463  34.776  29.426  1.00  0.00     0.338 C 
ATOM     28  O   UNL A   1      32.605  35.284  30.114  1.00  0.00    -0.246 OA
BRANCH  27  29
ATOM     29  C   UNL A   1      34.667  34.121  29.961  1.00  0.00     0.060 A 
ATOM     30  C   UNL A   1      34.500  33.189  30.993  1.00  0.00     0.016 A 
ATOM     31  C   UNL A   1      35.930  34.413  29.446  1.00  0.00     0.016 A 
ATOM     32  C   UNL A   1      35.611  32.554  31.534  1.00  0.00     0.010 A 
ATOM     33  C   UNL A   1      37.044  33.791  30.001  1.00  0.00     0.010 A 
ATOM     34  C   UNL A   1      36.888  32.882  31.064  1.00  0.00    -0.014 A 
BRANCH  34  35
ATOM     35  C   UNL A   1      38.088  32.434  31.800  1.00  0.00     0.031 A 
ATOM     36  C   UNL A   1      38.890  31.311  31.210  1.00  0.00     0.074 A 
ATOM     37  C   UNL A   1      38.424  32.993  32.974  1.00  0.00     0.049 A 
ATOM     38  N   UNL A   1      39.897  30.656  31.718  1.00  0.00    -0.248 NA
ATOM     39  C   UNL A   1      38.489  30.860  29.867  1.00  0.00     0.031 C 
ATOM     40  C   UNL A   1      37.740  34.124  33.598  1.00  0.00     0.029 A 
ATOM     41  N   UNL A   1      39.420  32.670  33.856  1.00  0.00    -0.354 N 
ATOM     42  C   UNL A   1      40.232  29.695  30.771  1.00  0.00     0.074 A 
ATOM     43  C   UNL A   1      39.309  29.840  29.668  1.00  0.00     0.031 C 
ATOM     44  C   UNL A   1      38.334  34.396  34.773  1.00  0.00     0.029 A 
ATOM     45  C   UNL A   1      39.405  33.428  35.002  1.00  0.00     0.049 A 
ATOM     46  H   UNL A   1      40.083  31.963  33.687  1.00  0.00     0.167 HD
ATOM     47  C   UNL A   1      41.222  28.774  30.826  1.00  0.00     0.037 A 
ATOM     48  C   UNL A   1      40.158  33.326  36.115  1.00  0.00     0.037 A 
ATOM     49  C   UNL A   1      42.126  28.651  31.938  1.00  0.00     0.049 A 
ATOM     50  C   UNL A   1      41.204  32.244  36.188  1.00  0.00     0.074 A 
ATOM     51  C   UNL A   1      43.183  27.776  32.094  1.00  0.00     0.029 A 
ATOM     52  N   UNL A   1      42.064  29.420  33.093  1.00  0.00    -0.354 N 
ATOM     53  N   UNL A   1      41.530  31.351  35.283  1.00  0.00    -0.248 NA
ATOM     54  C   UNL A   1      41.978  32.147  37.433  1.00  0.00     0.031 C 
ATOM     55  C   UNL A   1      43.721  27.971  33.370  1.00  0.00     0.029 A 
ATOM     56  C   UNL A   1      43.045  29.017  33.981  1.00  0.00     0.049 A 
ATOM     57  H   UNL A   1      41.418  30.145  33.255  1.00  0.00     0.167 HD
ATOM     58  C   UNL A   1      42.578  30.618  35.828  1.00  0.00     0.074 A 
ATOM     59  C   UNL A   1      42.822  31.162  37.149  1.00  0.00     0.031 C 
ATOM     60  C   UNL A   1      43.283  29.595  35.282  1.00  0.00     0.037 A 
BRANCH  47  61
ATOM     61  C   UNL A   1      41.334  27.804  29.683  1.00  0.00     0.058 A 
ATOM     62  C   UNL A   1      40.396  26.779  29.473  1.00  0.00     0.135 A 
ATOM     63  C   UNL A   1      42.409  27.898  28.783  1.00  0.00     0.135 A 
ATOM     64  F   UNL A   1      39.359  26.630  30.314  1.00  0.00    -0.206 F 
ATOM     65  C   UNL A   1      40.542  25.859  28.441  1.00  0.00     0.059 A 
ATOM     66  C   UNL A   1      42.557  27.008  27.723  1.00  0.00     0.059 A 
ATOM     67  F   UNL A   1      43.338  28.854  28.936  1.00  0.00    -0.206 F 
ATOM     68  C   UNL A   1      41.630  25.978  27.573  1.00  0.00     0.060 A 
BRANCH  68  69
ATOM     69  S   UNL A   1      41.819  24.763  26.253  1.00  0.00     0.124 S 
ATOM     70  O   UNL A   1      40.681  23.884  26.502  1.00  0.00    -0.237 OA
ATOM     71  O   UNL A   1      41.733  25.588  25.053  1.00  0.00    -0.237 OA
ATOM     72  O   UNL A   1      43.131  24.177  26.516  1.00  0.00    -0.744 OA
ENDBRANCH  68  69
ENDBRANCH  47  61
BRANCH  48  73
ATOM     73  C   UNL A   1      39.957  34.282  37.237  1.00  0.00     0.058 A 
ATOM     74  C   UNL A   1      40.725  35.451  37.328  1.00  0.00     0.135 A 
ATOM     75  C   UNL A   1      38.978  34.067  38.221  1.00  0.00     0.135 A 
ATOM     76  F   UNL A   1      41.681  35.698  36.418  1.00  0.00    -0.206 F 
ATOM     77  C   UNL A   1      40.537  36.371  38.354  1.00  0.00     0.059 A 
ATOM     78  C   UNL A   1      38.753  34.985  39.243  1.00  0.00     0.059 A 
ATOM     79  F   UNL A   1      38.207  32.969  38.175  1.00  0.00    -0.206 F 
ATOM     80  C   UNL A   1      39.541  36.132  39.303  1.00  0.00     0.060 A 
BRANCH  80  81
ATOM     81  S   UNL A   1      39.265  37.366  40.592  1.00  0.00     0.124 S 
ATOM     82  O   UNL A   1      38.149  38.126  40.039  1.00  0.00    -0.237 OA
ATOM     83  O   UNL A   1      38.958  36.532  41.750  1.00  0.00    -0.237 OA
ATOM     84  O   UNL A   1      40.540  38.074  40.659  1.00  0.00    -0.744 OA
ENDBRANCH  80  81
ENDBRANCH  48  73
BRANCH  60  85
ATOM     85  C   UNL A   1      44.432  29.031  36.071  1.00  0.00     0.058 A 
ATOM     86  C   UNL A   1      44.289  27.894  36.881  1.00  0.00     0.135 A 
ATOM     87  C   UNL A   1      45.719  29.569  35.910  1.00  0.00     0.135 A 
ATOM     88  F   UNL A   1      43.080  27.348  37.075  1.00  0.00    -0.206 F 
ATOM     89  C   UNL A   1      45.389  27.306  37.500  1.00  0.00     0.059 A 
ATOM     90  C   UNL A   1      46.834  28.981  36.497  1.00  0.00     0.059 A 
ATOM     91  F   UNL A   1      45.908  30.652  35.139  1.00  0.00    -0.206 F 
ATOM     92  C   UNL A   1      46.659  27.849  37.290  1.00  0.00     0.060 A 
BRANCH  92  93
ATOM     93  S   UNL A   1      48.085  27.019  38.022  1.00  0.00     0.124 S 
ATOM     94  O   UNL A   1      47.458  26.237  39.083  1.00  0.00    -0.237 OA
ATOM     95  O   UNL A   1      48.611  26.254  36.895  1.00  0.00    -0.237 OA
ATOM     96  O   UNL A   1      48.928  28.122  38.470  1.00  0.00    -0.744 OA
ENDBRANCH  92  93
ENDBRANCH  60  85
ENDBRANCH  34  35
ENDBRANCH  27  29
ENDBRANCH  26  27
ENDBRANCH  25  26
ENDBRANCH  24  25
ENDBRANCH  23  24
ENDBRANCH  22  23
ENDBRANCH   1  22
TORSDOF 25
ENDMDL
