MODEL 1
REMARK VINA RESULT:     -11.2      0.000      0.000
REMARK SMILES O=C(OCCOCCOC(=O)c1cc(-c2ccc(F)c(C(F)(F)F)c2)cnc1O)c1ccc(-c2c3nc(c(-c4c(F)cc(S(=O)(=O)[O-])cc4F)c4ccc([nH]4)c(-c4c(F)cc(S(=O)(=O)[O-])cc4F)c4nc(c(-c5c(F)cc(S(=O)(=O)[O-])cc5F)c5ccc2[nH]5)C=C4)C=C3)cc1
REMARK SMILES IDX 5 1 4 2 3 3 2 4 1 5 30 6 31 7 95 8 32 9 94 10 33 11 34 12
REMARK SMILES IDX 35 13 88 14 36 15 93 16 87 17 89 18 37 19 92 20 86 21 85 22
REMARK SMILES IDX 38 24 72 25 51 26 71 27 52 28 55 29 70 30 90 31 53 32 54 33
REMARK SMILES IDX 69 35 91 36 56 37 39 38 40 39 49 40 41 41 42 42 48 43 50 44
REMARK SMILES IDX 43 45 44 46 45 47 46 48 47 49 73 50 74 51 83 52 75 53 76 54
REMARK SMILES IDX 82 55 84 56 77 57 78 58 79 59 80 60 81 61 57 62 58 63 67 64
REMARK SMILES IDX 59 65 60 66 66 67 68 68 61 69 62 70 63 71 64 72 65 73 6 74
REMARK SMILES IDX 7 75 8 76 9 77 10 78 11 79 12 80 13 81 28 82 14 83 27 84
REMARK SMILES IDX 26 85 29 86 15 88 16 89 25 90 17 91 20 92 18 93 19 94 21 95
REMARK SMILES IDX 22 96 23 97 24 98
REMARK H PARENT 89 23 55 34 29 87
REMARK Flexibility Score: inf
ROOT
ATOM      1  C   UNL A   1      39.272  22.980  26.500  1.00  0.00     0.202 C 
ENDROOT
BRANCH   1   2
ATOM      2  C   UNL A   1      40.704  22.730  26.977  1.00  0.00     0.261 C 
BRANCH   2   3
ATOM      3  O   UNL A   1      41.579  23.761  26.503  1.00  0.00    -0.460 OA
BRANCH   3   4
ATOM      4  C   UNL A   1      41.362  25.090  26.389  1.00  0.00     0.338 C 
ATOM      5  O   UNL A   1      41.410  25.569  25.255  1.00  0.00    -0.246 OA
BRANCH   4   6
ATOM      6  C   UNL A   1      41.099  26.034  27.529  1.00  0.00     0.060 A 
ATOM      7  C   UNL A   1      42.072  27.033  27.738  1.00  0.00     0.016 A 
ATOM      8  C   UNL A   1      40.040  25.974  28.440  1.00  0.00     0.016 A 
ATOM      9  C   UNL A   1      41.995  27.913  28.822  1.00  0.00     0.010 A 
ATOM     10  C   UNL A   1      39.948  26.856  29.516  1.00  0.00     0.010 A 
ATOM     11  C   UNL A   1      40.930  27.822  29.718  1.00  0.00    -0.014 A 
BRANCH  11  12
ATOM     12  C   UNL A   1      40.762  28.779  30.825  1.00  0.00     0.031 A 
ATOM     13  C   UNL A   1      41.564  28.642  32.082  1.00  0.00     0.074 A 
ATOM     14  C   UNL A   1      39.792  29.703  30.703  1.00  0.00     0.049 A 
ATOM     15  N   UNL A   1      41.554  29.399  33.146  1.00  0.00    -0.248 NA
ATOM     16  C   UNL A   1      42.483  27.495  32.167  1.00  0.00     0.031 C 
ATOM     17  C   UNL A   1      38.906  29.837  29.543  1.00  0.00     0.029 A 
ATOM     18  N   UNL A   1      39.374  30.681  31.560  1.00  0.00    -0.354 N 
ATOM     19  C   UNL A   1      42.482  28.841  34.018  1.00  0.00     0.074 A 
ATOM     20  C   UNL A   1      42.995  27.647  33.382  1.00  0.00     0.031 C 
ATOM     21  C   UNL A   1      38.048  30.845  29.762  1.00  0.00     0.029 A 
ATOM     22  C   UNL A   1      38.325  31.422  31.072  1.00  0.00     0.049 A 
ATOM     23  H   UNL A   1      39.784  30.841  32.440  1.00  0.00     0.167 HD
ATOM     24  C   UNL A   1      42.876  29.307  35.227  1.00  0.00     0.037 A 
ATOM     25  C   UNL A   1      37.674  32.463  31.621  1.00  0.00     0.037 A 
ATOM     26  C   UNL A   1      42.325  30.491  35.837  1.00  0.00     0.049 A 
ATOM     27  C   UNL A   1      38.143  32.975  32.951  1.00  0.00     0.074 A 
ATOM     28  C   UNL A   1      42.683  31.097  37.028  1.00  0.00     0.029 A 
ATOM     29  N   UNL A   1      41.288  31.244  35.301  1.00  0.00    -0.354 N 
ATOM     30  N   UNL A   1      39.095  32.501  33.722  1.00  0.00    -0.248 NA
ATOM     31  C   UNL A   1      37.474  34.169  33.477  1.00  0.00     0.031 C 
ATOM     32  C   UNL A   1      41.839  32.195  37.230  1.00  0.00     0.029 A 
ATOM     33  C   UNL A   1      40.981  32.299  36.144  1.00  0.00     0.049 A 
ATOM     34  H   UNL A   1      40.836  31.056  34.447  1.00  0.00     0.167 HD
ATOM     35  C   UNL A   1      39.154  33.350  34.818  1.00  0.00     0.074 A 
ATOM     36  C   UNL A   1      38.148  34.374  34.602  1.00  0.00     0.031 C 
ATOM     37  C   UNL A   1      39.963  33.292  35.903  1.00  0.00     0.037 A 
BRANCH  24  38
ATOM     38  C   UNL A   1      43.967  28.567  35.953  1.00  0.00     0.058 A 
ATOM     39  C   UNL A   1      43.677  27.467  36.776  1.00  0.00     0.135 A 
ATOM     40  C   UNL A   1      45.320  28.900  35.765  1.00  0.00     0.135 A 
ATOM     41  F   UNL A   1      42.402  27.111  37.003  1.00  0.00    -0.206 F 
ATOM     42  C   UNL A   1      44.682  26.729  37.393  1.00  0.00     0.059 A 
ATOM     43  C   UNL A   1      46.344  28.161  36.356  1.00  0.00     0.059 A 
ATOM     44  F   UNL A   1      45.658  29.943  34.992  1.00  0.00    -0.206 F 
ATOM     45  C   UNL A   1      46.015  27.079  37.172  1.00  0.00     0.060 A 
BRANCH  45  46
ATOM     46  S   UNL A   1      47.305  26.082  37.949  1.00  0.00     0.124 S 
ATOM     47  O   UNL A   1      47.053  24.770  37.360  1.00  0.00    -0.237 OA
ATOM     48  O   UNL A   1      48.524  26.751  37.505  1.00  0.00    -0.237 OA
ATOM     49  O   UNL A   1      47.012  26.196  39.374  1.00  0.00    -0.744 OA
ENDBRANCH  45  46
ENDBRANCH  24  38
BRANCH  25  50
ATOM     50  C   UNL A   1      36.582  33.118  30.861  1.00  0.00     0.058 A 
ATOM     51  C   UNL A   1      35.244  32.945  31.244  1.00  0.00     0.135 A 
ATOM     52  C   UNL A   1      36.853  33.997  29.801  1.00  0.00     0.135 A 
ATOM     53  F   UNL A   1      34.937  32.120  32.256  1.00  0.00    -0.206 F 
ATOM     54  C   UNL A   1      34.211  33.621  30.604  1.00  0.00     0.059 A 
ATOM     55  C   UNL A   1      35.838  34.698  29.157  1.00  0.00     0.059 A 
ATOM     56  F   UNL A   1      38.120  34.216  29.417  1.00  0.00    -0.206 F 
ATOM     57  C   UNL A   1      34.519  34.502  29.565  1.00  0.00     0.060 A 
BRANCH  57  58
ATOM     58  S   UNL A   1      33.176  35.433  28.799  1.00  0.00     0.124 S 
ATOM     59  O   UNL A   1      32.469  35.945  29.968  1.00  0.00    -0.237 OA
ATOM     60  O   UNL A   1      33.901  36.423  28.008  1.00  0.00    -0.237 OA
ATOM     61  O   UNL A   1      32.465  34.422  28.023  1.00  0.00    -0.744 OA
ENDBRANCH  57  58
ENDBRANCH  25  50
BRANCH  37  62
ATOM     62  C   UNL A   1      39.788  34.366  36.936  1.00  0.00     0.058 A 
ATOM     63  C   UNL A   1      38.957  34.175  38.049  1.00  0.00     0.135 A 
ATOM     64  C   UNL A   1      40.497  35.573  36.837  1.00  0.00     0.135 A 
ATOM     65  F   UNL A   1      38.253  33.040  38.181  1.00  0.00    -0.206 F 
ATOM     66  C   UNL A   1      38.818  35.156  39.023  1.00  0.00     0.059 A 
ATOM     67  C   UNL A   1      40.391  36.559  37.811  1.00  0.00     0.059 A 
ATOM     68  F   UNL A   1      41.312  35.795  35.793  1.00  0.00    -0.206 F 
ATOM     69  C   UNL A   1      39.541  36.345  38.895  1.00  0.00     0.060 A 
BRANCH  69  70
ATOM     70  S   UNL A   1      39.374  37.596  40.185  1.00  0.00     0.124 S 
ATOM     71  O   UNL A   1      39.052  36.775  41.348  1.00  0.00    -0.237 OA
ATOM     72  O   UNL A   1      40.696  38.215  40.192  1.00  0.00    -0.237 OA
ATOM     73  O   UNL A   1      38.292  38.445  39.696  1.00  0.00    -0.744 OA
ENDBRANCH  69  70
ENDBRANCH  37  62
ENDBRANCH  11  12
ENDBRANCH   4   6
ENDBRANCH   3   4
ENDBRANCH   2   3
ENDBRANCH   1   2
BRANCH   1  74
ATOM     74  O   UNL A   1      38.715  21.899  25.757  1.00  0.00    -0.374 OA
BRANCH  74  75
ATOM     75  C   UNL A   1      37.297  21.940  25.561  1.00  0.00     0.202 C 
BRANCH  75  76
ATOM     76  C   UNL A   1      36.840  23.395  25.401  1.00  0.00     0.261 C 
BRANCH  76  77
ATOM     77  O   UNL A   1      35.448  23.409  25.030  1.00  0.00    -0.459 OA
BRANCH  77  78
ATOM     78  C   UNL A   1      35.193  23.759  23.742  1.00  0.00     0.343 C 
ATOM     79  O   UNL A   1      35.702  23.305  22.733  1.00  0.00    -0.246 OA
BRANCH  78  80
ATOM     80  C   UNL A   1      34.007  24.630  23.744  1.00  0.00     0.122 A 
ATOM     81  C   UNL A   1      33.973  25.687  24.665  1.00  0.00     0.031 A 
ATOM     82  C   UNL A   1      32.988  24.538  22.804  1.00  0.00     0.225 A 
ATOM     83  C   UNL A   1      32.969  26.652  24.579  1.00  0.00     0.001 A 
ATOM     84  N   UNL A   1      31.967  25.415  22.737  1.00  0.00    -0.221 NA
ATOM     85  C   UNL A   1      31.989  26.450  23.607  1.00  0.00     0.124 A 
BRANCH  82  86
ATOM     86  O   UNL A   1      32.932  23.573  21.842  1.00  0.00    -0.493 OA
ATOM     87  H   UNL A   1      33.237  23.756  20.975  1.00  0.00     0.295 HD
ENDBRANCH  82  86
BRANCH  83  88
ATOM     88  C   UNL A   1      32.968  27.856  25.408  1.00  0.00    -0.016 A 
ATOM     89  C   UNL A   1      31.865  28.720  25.424  1.00  0.00     0.012 A 
ATOM     90  C   UNL A   1      34.106  28.200  26.163  1.00  0.00     0.025 A 
ATOM     91  C   UNL A   1      31.911  29.912  26.149  1.00  0.00     0.040 A 
ATOM     92  C   UNL A   1      34.158  29.396  26.900  1.00  0.00     0.092 A 
ATOM     93  C   UNL A   1      33.056  30.244  26.868  1.00  0.00     0.135 A 
ATOM     94  F   UNL A   1      33.090  31.412  27.522  1.00  0.00    -0.206 F 
BRANCH  92  95
ATOM     95  C   UNL A   1      35.379  29.802  27.668  1.00  0.00     0.419 C 
ATOM     96  F   UNL A   1      35.913  30.971  27.216  1.00  0.00    -0.166 F 
ATOM     97  F   UNL A   1      35.156  29.973  28.998  1.00  0.00    -0.166 F 
ATOM     98  F   UNL A   1      36.385  28.885  27.581  1.00  0.00    -0.166 F 
ENDBRANCH  92  95
ENDBRANCH  83  88
ENDBRANCH  78  80
ENDBRANCH  77  78
ENDBRANCH  76  77
ENDBRANCH  75  76
ENDBRANCH  74  75
ENDBRANCH   1  74
TORSDOF 20
ENDMDL
MODEL 2
REMARK VINA RESULT:     -10.8      0.592      8.105
REMARK SMILES O=C(OCCOCCOC(=O)c1cc(-c2ccc(F)c(C(F)(F)F)c2)cnc1O)c1ccc(-c2c3nc(c(-c4c(F)cc(S(=O)(=O)[O-])cc4F)c4ccc([nH]4)c(-c4c(F)cc(S(=O)(=O)[O-])cc4F)c4nc(c(-c5c(F)cc(S(=O)(=O)[O-])cc5F)c5ccc2[nH]5)C=C4)C=C3)cc1
REMARK SMILES IDX 5 1 4 2 3 3 2 4 1 5 30 6 31 7 95 8 32 9 94 10 33 11 34 12
REMARK SMILES IDX 35 13 88 14 36 15 93 16 87 17 89 18 37 19 92 20 86 21 85 22
REMARK SMILES IDX 38 24 72 25 51 26 71 27 52 28 55 29 70 30 90 31 53 32 54 33
REMARK SMILES IDX 69 35 91 36 56 37 39 38 40 39 49 40 41 41 42 42 48 43 50 44
REMARK SMILES IDX 43 45 44 46 45 47 46 48 47 49 73 50 74 51 83 52 75 53 76 54
REMARK SMILES IDX 82 55 84 56 77 57 78 58 79 59 80 60 81 61 57 62 58 63 67 64
REMARK SMILES IDX 59 65 60 66 66 67 68 68 61 69 62 70 63 71 64 72 65 73 6 74
REMARK SMILES IDX 7 75 8 76 9 77 10 78 11 79 12 80 13 81 28 82 14 83 27 84
REMARK SMILES IDX 26 85 29 86 15 88 16 89 25 90 17 91 20 92 18 93 19 94 21 95
REMARK SMILES IDX 22 96 23 97 24 98
REMARK H PARENT 89 23 55 34 29 87
REMARK Flexibility Score: inf
ROOT
ATOM      1  C   UNL A   1      38.502  23.114  25.957  1.00  0.00     0.202 C 
ENDROOT
BRANCH   1   2
ATOM      2  C   UNL A   1      39.695  22.889  26.887  1.00  0.00     0.261 C 
BRANCH   2   3
ATOM      3  O   UNL A   1      40.788  23.739  26.518  1.00  0.00    -0.460 OA
BRANCH   3   4
ATOM      4  C   UNL A   1      40.849  25.088  26.462  1.00  0.00     0.338 C 
ATOM      5  O   UNL A   1      41.142  25.589  25.375  1.00  0.00    -0.246 OA
BRANCH   4   6
ATOM      6  C   UNL A   1      40.621  26.022  27.618  1.00  0.00     0.060 A 
ATOM      7  C   UNL A   1      41.559  27.064  27.761  1.00  0.00     0.016 A 
ATOM      8  C   UNL A   1      39.629  25.917  28.598  1.00  0.00     0.016 A 
ATOM      9  C   UNL A   1      41.515  27.944  28.848  1.00  0.00     0.010 A 
ATOM     10  C   UNL A   1      39.570  26.797  29.678  1.00  0.00     0.010 A 
ATOM     11  C   UNL A   1      40.518  27.806  29.814  1.00  0.00    -0.014 A 
BRANCH  11  12
ATOM     12  C   UNL A   1      40.381  28.758  30.929  1.00  0.00     0.031 A 
ATOM     13  C   UNL A   1      39.400  29.887  30.854  1.00  0.00     0.074 A 
ATOM     14  C   UNL A   1      41.239  28.636  31.957  1.00  0.00     0.049 A 
ATOM     15  N   UNL A   1      39.139  30.806  31.744  1.00  0.00    -0.248 NA
ATOM     16  C   UNL A   1      38.624  30.017  29.610  1.00  0.00     0.031 C 
ATOM     17  C   UNL A   1      42.286  27.614  32.055  1.00  0.00     0.029 A 
ATOM     18  N   UNL A   1      41.386  29.378  33.095  1.00  0.00    -0.354 N 
ATOM     19  C   UNL A   1      38.151  31.608  31.185  1.00  0.00     0.074 A 
ATOM     20  C   UNL A   1      37.900  31.101  29.853  1.00  0.00     0.031 C 
ATOM     21  C   UNL A   1      42.968  27.795  33.197  1.00  0.00     0.029 A 
ATOM     22  C   UNL A   1      42.406  28.939  33.904  1.00  0.00     0.049 A 
ATOM     23  H   UNL A   1      40.817  30.150  33.314  1.00  0.00     0.167 HD
ATOM     24  C   UNL A   1      37.505  32.655  31.752  1.00  0.00     0.037 A 
ATOM     25  C   UNL A   1      42.826  29.406  35.094  1.00  0.00     0.037 A 
ATOM     26  C   UNL A   1      37.800  33.142  33.077  1.00  0.00     0.049 A 
ATOM     27  C   UNL A   1      42.080  30.552  35.712  1.00  0.00     0.074 A 
ATOM     28  C   UNL A   1      37.175  34.154  33.783  1.00  0.00     0.029 A 
ATOM     29  N   UNL A   1      38.815  32.653  33.890  1.00  0.00    -0.354 N 
ATOM     30  N   UNL A   1      41.076  31.238  35.218  1.00  0.00    -0.248 NA
ATOM     31  C   UNL A   1      42.503  30.974  37.052  1.00  0.00     0.031 C 
ATOM     32  C   UNL A   1      37.836  34.301  35.009  1.00  0.00     0.029 A 
ATOM     33  C   UNL A   1      38.846  33.353  35.083  1.00  0.00     0.049 A 
ATOM     34  H   UNL A   1      39.423  31.917  33.651  1.00  0.00     0.167 HD
ATOM     35  C   UNL A   1      40.732  32.163  36.193  1.00  0.00     0.074 A 
ATOM     36  C   UNL A   1      41.629  31.938  37.311  1.00  0.00     0.031 C 
ATOM     37  C   UNL A   1      39.763  33.111  36.170  1.00  0.00     0.037 A 
BRANCH  24  38
ATOM     38  C   UNL A   1      36.404  33.319  30.971  1.00  0.00     0.058 A 
ATOM     39  C   UNL A   1      35.058  33.171  31.344  1.00  0.00     0.135 A 
ATOM     40  C   UNL A   1      36.690  34.176  29.895  1.00  0.00     0.135 A 
ATOM     41  F   UNL A   1      34.722  32.355  32.356  1.00  0.00    -0.206 F 
ATOM     42  C   UNL A   1      34.036  33.839  30.676  1.00  0.00     0.059 A 
ATOM     43  C   UNL A   1      35.685  34.872  29.226  1.00  0.00     0.059 A 
ATOM     44  F   UNL A   1      37.958  34.353  29.492  1.00  0.00    -0.206 F 
ATOM     45  C   UNL A   1      34.360  34.694  29.621  1.00  0.00     0.060 A 
BRANCH  45  46
ATOM     46  S   UNL A   1      33.022  35.583  28.795  1.00  0.00     0.124 S 
ATOM     47  O   UNL A   1      32.255  36.079  29.935  1.00  0.00    -0.237 OA
ATOM     48  O   UNL A   1      33.746  36.594  28.032  1.00  0.00    -0.237 OA
ATOM     49  O   UNL A   1      32.365  34.550  28.000  1.00  0.00    -0.744 OA
ENDBRANCH  45  46
ENDBRANCH  24  38
BRANCH  25  50
ATOM     50  C   UNL A   1      43.944  28.722  35.788  1.00  0.00     0.058 A 
ATOM     51  C   UNL A   1      43.699  27.626  36.627  1.00  0.00     0.135 A 
ATOM     52  C   UNL A   1      45.280  29.087  35.558  1.00  0.00     0.135 A 
ATOM     53  F   UNL A   1      42.438  27.238  36.870  1.00  0.00    -0.206 F 
ATOM     54  C   UNL A   1      44.737  26.914  37.216  1.00  0.00     0.059 A 
ATOM     55  C   UNL A   1      46.337  28.379  36.122  1.00  0.00     0.059 A 
ATOM     56  F   UNL A   1      45.566  30.112  34.741  1.00  0.00    -0.206 F 
ATOM     57  C   UNL A   1      46.055  27.294  36.951  1.00  0.00     0.060 A 
BRANCH  57  58
ATOM     58  S   UNL A   1      47.393  26.308  37.656  1.00  0.00     0.124 S 
ATOM     59  O   UNL A   1      48.451  27.304  37.793  1.00  0.00    -0.237 OA
ATOM     60  O   UNL A   1      46.800  25.832  38.902  1.00  0.00    -0.237 OA
ATOM     61  O   UNL A   1      47.620  25.280  36.646  1.00  0.00    -0.744 OA
ENDBRANCH  57  58
ENDBRANCH  25  50
BRANCH  37  62
ATOM     62  C   UNL A   1      39.631  33.973  37.391  1.00  0.00     0.058 A 
ATOM     63  C   UNL A   1      38.843  33.574  38.480  1.00  0.00     0.135 A 
ATOM     64  C   UNL A   1      40.340  35.181  37.491  1.00  0.00     0.135 A 
ATOM     65  F   UNL A   1      38.142  32.431  38.426  1.00  0.00    -0.206 F 
ATOM     66  C   UNL A   1      38.745  34.356  39.624  1.00  0.00     0.059 A 
ATOM     67  C   UNL A   1      40.274  35.967  38.635  1.00  0.00     0.059 A 
ATOM     68  F   UNL A   1      41.113  35.597  36.476  1.00  0.00    -0.206 F 
ATOM     69  C   UNL A   1      39.466  35.550  39.692  1.00  0.00     0.060 A 
BRANCH  69  70
ATOM     70  S   UNL A   1      39.353  36.538  41.198  1.00  0.00     0.124 S 
ATOM     71  O   UNL A   1      40.730  36.494  41.681  1.00  0.00    -0.237 OA
ATOM     72  O   UNL A   1      38.900  37.830  40.692  1.00  0.00    -0.237 OA
ATOM     73  O   UNL A   1      38.379  35.812  42.009  1.00  0.00    -0.744 OA
ENDBRANCH  69  70
ENDBRANCH  37  62
ENDBRANCH  11  12
ENDBRANCH   4   6
ENDBRANCH   3   4
ENDBRANCH   2   3
ENDBRANCH   1   2
BRANCH   1  74
ATOM     74  O   UNL A   1      37.924  21.910  25.457  1.00  0.00    -0.374 OA
BRANCH  74  75
ATOM     75  C   UNL A   1      36.510  21.774  25.637  1.00  0.00     0.202 C 
BRANCH  75  76
ATOM     76  C   UNL A   1      35.872  23.161  25.777  1.00  0.00     0.261 C 
BRANCH  76  77
ATOM     77  O   UNL A   1      34.711  23.228  24.927  1.00  0.00    -0.459 OA
BRANCH  77  78
ATOM     78  C   UNL A   1      34.924  23.761  23.695  1.00  0.00     0.343 C 
ATOM     79  O   UNL A   1      35.659  23.341  22.819  1.00  0.00    -0.246 OA
BRANCH  78  80
ATOM     80  C   UNL A   1      33.925  24.822  23.489  1.00  0.00     0.122 A 
ATOM     81  C   UNL A   1      33.792  25.796  24.489  1.00  0.00     0.031 A 
ATOM     82  C   UNL A   1      33.205  24.978  22.311  1.00  0.00     0.225 A 
ATOM     83  C   UNL A   1      33.004  26.925  24.258  1.00  0.00     0.001 A 
ATOM     84  N   UNL A   1      32.383  26.021  22.085  1.00  0.00    -0.221 NA
ATOM     85  C   UNL A   1      32.314  26.969  23.047  1.00  0.00     0.124 A 
BRANCH  82  86
ATOM     86  O   UNL A   1      33.277  24.112  21.260  1.00  0.00    -0.493 OA
ATOM     87  H   UNL A   1      33.997  23.516  21.193  1.00  0.00     0.295 HD
ENDBRANCH  82  86
BRANCH  83  88
ATOM     88  C   UNL A   1      32.949  28.046  25.195  1.00  0.00    -0.016 A 
ATOM     89  C   UNL A   1      31.790  28.823  25.323  1.00  0.00     0.012 A 
ATOM     90  C   UNL A   1      34.087  28.400  25.946  1.00  0.00     0.025 A 
ATOM     91  C   UNL A   1      31.780  29.945  26.154  1.00  0.00     0.040 A 
ATOM     92  C   UNL A   1      34.082  29.525  26.790  1.00  0.00     0.092 A 
ATOM     93  C   UNL A   1      32.924  30.291  26.868  1.00  0.00     0.135 A 
ATOM     94  F   UNL A   1      32.900  31.394  27.627  1.00  0.00    -0.206 F 
BRANCH  92  95
ATOM     95  C   UNL A   1      35.299  29.946  27.557  1.00  0.00     0.419 C 
ATOM     96  F   UNL A   1      35.388  29.331  28.769  1.00  0.00    -0.166 F 
ATOM     97  F   UNL A   1      36.467  29.690  26.911  1.00  0.00    -0.166 F 
ATOM     98  F   UNL A   1      35.316  31.284  27.826  1.00  0.00    -0.166 F 
ENDBRANCH  92  95
ENDBRANCH  83  88
ENDBRANCH  78  80
ENDBRANCH  77  78
ENDBRANCH  76  77
ENDBRANCH  75  76
ENDBRANCH  74  75
ENDBRANCH   1  74
TORSDOF 20
ENDMDL
MODEL 3
REMARK VINA RESULT:     -10.7      6.558     12.356
REMARK SMILES O=C(OCCOCCOC(=O)c1cc(-c2ccc(F)c(C(F)(F)F)c2)cnc1O)c1ccc(-c2c3nc(c(-c4c(F)cc(S(=O)(=O)[O-])cc4F)c4ccc([nH]4)c(-c4c(F)cc(S(=O)(=O)[O-])cc4F)c4nc(c(-c5c(F)cc(S(=O)(=O)[O-])cc5F)c5ccc2[nH]5)C=C4)C=C3)cc1
REMARK SMILES IDX 5 1 4 2 3 3 2 4 1 5 30 6 31 7 95 8 32 9 94 10 33 11 34 12
REMARK SMILES IDX 35 13 88 14 36 15 93 16 87 17 89 18 37 19 92 20 86 21 85 22
REMARK SMILES IDX 38 24 72 25 51 26 71 27 52 28 55 29 70 30 90 31 53 32 54 33
REMARK SMILES IDX 69 35 91 36 56 37 39 38 40 39 49 40 41 41 42 42 48 43 50 44
REMARK SMILES IDX 43 45 44 46 45 47 46 48 47 49 73 50 74 51 83 52 75 53 76 54
REMARK SMILES IDX 82 55 84 56 77 57 78 58 79 59 80 60 81 61 57 62 58 63 67 64
REMARK SMILES IDX 59 65 60 66 66 67 68 68 61 69 62 70 63 71 64 72 65 73 6 74
REMARK SMILES IDX 7 75 8 76 9 77 10 78 11 79 12 80 13 81 28 82 14 83 27 84
REMARK SMILES IDX 26 85 29 86 15 88 16 89 25 90 17 91 20 92 18 93 19 94 21 95
REMARK SMILES IDX 22 96 23 97 24 98
REMARK H PARENT 89 23 55 34 29 87
REMARK Flexibility Score: inf
ROOT
ATOM      1  C   UNL A   1      34.991  33.727  31.893  1.00  0.00     0.202 C 
ENDROOT
BRANCH   1   2
ATOM      2  C   UNL A   1      35.415  32.282  32.164  1.00  0.00     0.261 C 
BRANCH   2   3
ATOM      3  O   UNL A   1      36.329  31.829  31.158  1.00  0.00    -0.460 OA
BRANCH   3   4
ATOM      4  C   UNL A   1      36.691  30.569  30.829  1.00  0.00     0.338 C 
ATOM      5  O   UNL A   1      35.866  29.678  31.039  1.00  0.00    -0.246 OA
BRANCH   4   6
ATOM      6  C   UNL A   1      38.022  30.161  30.260  1.00  0.00     0.060 A 
ATOM      7  C   UNL A   1      39.020  29.836  31.201  1.00  0.00     0.016 A 
ATOM      8  C   UNL A   1      38.388  30.147  28.911  1.00  0.00     0.016 A 
ATOM      9  C   UNL A   1      40.327  29.534  30.806  1.00  0.00     0.010 A 
ATOM     10  C   UNL A   1      39.685  29.834  28.507  1.00  0.00     0.010 A 
ATOM     11  C   UNL A   1      40.663  29.537  29.452  1.00  0.00    -0.014 A 
BRANCH  11  12
ATOM     12  C   UNL A   1      42.002  29.144  28.983  1.00  0.00     0.031 A 
ATOM     13  C   UNL A   1      43.094  30.161  28.849  1.00  0.00     0.074 A 
ATOM     14  C   UNL A   1      42.170  27.872  28.582  1.00  0.00     0.049 A 
ATOM     15  N   UNL A   1      44.330  29.990  28.466  1.00  0.00    -0.248 NA
ATOM     16  C   UNL A   1      42.749  31.557  29.166  1.00  0.00     0.031 C 
ATOM     17  C   UNL A   1      41.123  26.846  28.596  1.00  0.00     0.029 A 
ATOM     18  N   UNL A   1      43.261  27.231  28.068  1.00  0.00    -0.354 N 
ATOM     19  C   UNL A   1      44.923  31.246  28.521  1.00  0.00     0.074 A 
ATOM     20  C   UNL A   1      43.893  32.182  28.918  1.00  0.00     0.031 C 
ATOM     21  C   UNL A   1      41.627  25.700  28.112  1.00  0.00     0.029 A 
ATOM     22  C   UNL A   1      43.024  25.913  27.758  1.00  0.00     0.049 A 
ATOM     23  H   UNL A   1      44.132  27.669  27.933  1.00  0.00     0.167 HD
ATOM     24  C   UNL A   1      46.216  31.570  28.279  1.00  0.00     0.037 A 
ATOM     25  C   UNL A   1      43.855  24.981  27.257  1.00  0.00     0.037 A 
ATOM     26  C   UNL A   1      47.208  30.609  27.864  1.00  0.00     0.049 A 
ATOM     27  C   UNL A   1      45.288  25.358  27.019  1.00  0.00     0.074 A 
ATOM     28  C   UNL A   1      48.560  30.804  27.647  1.00  0.00     0.029 A 
ATOM     29  N   UNL A   1      46.946  29.272  27.594  1.00  0.00    -0.354 N 
ATOM     30  N   UNL A   1      45.863  26.528  27.175  1.00  0.00    -0.248 NA
ATOM     31  C   UNL A   1      46.188  24.294  26.564  1.00  0.00     0.031 C 
ATOM     32  C   UNL A   1      49.110  29.592  27.212  1.00  0.00     0.029 A 
ATOM     33  C   UNL A   1      48.107  28.632  27.197  1.00  0.00     0.049 A 
ATOM     34  H   UNL A   1      46.064  28.843  27.673  1.00  0.00     0.167 HD
ATOM     35  C   UNL A   1      47.200  26.338  26.854  1.00  0.00     0.074 A 
ATOM     36  C   UNL A   1      47.347  24.936  26.508  1.00  0.00     0.031 C 
ATOM     37  C   UNL A   1      48.214  27.237  26.846  1.00  0.00     0.037 A 
BRANCH  24  38
ATOM     38  C   UNL A   1      46.642  32.998  28.488  1.00  0.00     0.058 A 
ATOM     39  C   UNL A   1      47.126  33.438  29.731  1.00  0.00     0.135 A 
ATOM     40  C   UNL A   1      46.649  33.917  27.425  1.00  0.00     0.135 A 
ATOM     41  F   UNL A   1      47.131  32.607  30.786  1.00  0.00    -0.206 F 
ATOM     42  C   UNL A   1      47.593  34.735  29.916  1.00  0.00     0.059 A 
ATOM     43  C   UNL A   1      47.132  35.215  27.583  1.00  0.00     0.059 A 
ATOM     44  F   UNL A   1      46.195  33.554  26.215  1.00  0.00    -0.206 F 
ATOM     45  C   UNL A   1      47.599  35.616  28.834  1.00  0.00     0.060 A 
BRANCH  45  46
ATOM     46  S   UNL A   1      48.248  37.283  29.087  1.00  0.00     0.124 S 
ATOM     47  O   UNL A   1      48.725  37.203  30.465  1.00  0.00    -0.237 OA
ATOM     48  O   UNL A   1      49.284  37.372  28.063  1.00  0.00    -0.237 OA
ATOM     49  O   UNL A   1      47.084  38.138  28.876  1.00  0.00    -0.744 OA
ENDBRANCH  45  46
ENDBRANCH  24  38
BRANCH  25  50
ATOM     50  C   UNL A   1      43.353  23.602  27.042  1.00  0.00     0.058 A 
ATOM     51  C   UNL A   1      42.980  23.171  25.761  1.00  0.00     0.135 A 
ATOM     52  C   UNL A   1      43.320  22.664  28.085  1.00  0.00     0.135 A 
ATOM     53  F   UNL A   1      43.001  24.032  24.731  1.00  0.00    -0.206 F 
ATOM     54  C   UNL A   1      42.593  21.858  25.519  1.00  0.00     0.059 A 
ATOM     55  C   UNL A   1      42.953  21.340  27.864  1.00  0.00     0.059 A 
ATOM     56  F   UNL A   1      43.694  23.023  29.323  1.00  0.00    -0.206 F 
ATOM     57  C   UNL A   1      42.590  20.947  26.577  1.00  0.00     0.060 A 
BRANCH  57  58
ATOM     58  S   UNL A   1      42.165  19.227  26.231  1.00  0.00     0.124 S 
ATOM     59  O   UNL A   1      42.187  18.644  27.568  1.00  0.00    -0.237 OA
ATOM     60  O   UNL A   1      40.849  19.355  25.611  1.00  0.00    -0.237 OA
ATOM     61  O   UNL A   1      43.231  18.792  25.334  1.00  0.00    -0.744 OA
ENDBRANCH  57  58
ENDBRANCH  25  50
BRANCH  37  62
ATOM     62  C   UNL A   1      49.567  26.726  26.448  1.00  0.00     0.058 A 
ATOM     63  C   UNL A   1      50.451  26.192  27.398  1.00  0.00     0.135 A 
ATOM     64  C   UNL A   1      49.962  26.723  25.101  1.00  0.00     0.135 A 
ATOM     65  F   UNL A   1      50.120  26.182  28.699  1.00  0.00    -0.206 F 
ATOM     66  C   UNL A   1      51.692  25.690  27.027  1.00  0.00     0.059 A 
ATOM     67  C   UNL A   1      51.189  26.205  24.705  1.00  0.00     0.059 A 
ATOM     68  F   UNL A   1      49.144  27.216  24.156  1.00  0.00    -0.206 F 
ATOM     69  C   UNL A   1      52.051  25.699  25.677  1.00  0.00     0.060 A 
BRANCH  69  70
ATOM     70  S   UNL A   1      53.653  25.013  25.209  1.00  0.00     0.124 S 
ATOM     71  O   UNL A   1      53.387  23.580  25.272  1.00  0.00    -0.237 OA
ATOM     72  O   UNL A   1      53.849  25.563  23.871  1.00  0.00    -0.237 OA
ATOM     73  O   UNL A   1      54.556  25.530  26.233  1.00  0.00    -0.744 OA
ENDBRANCH  69  70
ENDBRANCH  37  62
ENDBRANCH  11  12
ENDBRANCH   4   6
ENDBRANCH   3   4
ENDBRANCH   2   3
ENDBRANCH   1   2
BRANCH   1  74
ATOM     74  O   UNL A   1      33.935  33.849  30.943  1.00  0.00    -0.374 OA
BRANCH  74  75
ATOM     75  C   UNL A   1      33.640  35.180  30.505  1.00  0.00     0.202 C 
BRANCH  75  76
ATOM     76  C   UNL A   1      33.292  35.167  29.011  1.00  0.00     0.261 C 
BRANCH  76  77
ATOM     77  O   UNL A   1      33.771  33.938  28.431  1.00  0.00    -0.459 OA
BRANCH  77  78
ATOM     78  C   UNL A   1      32.842  33.218  27.748  1.00  0.00     0.343 C 
ATOM     79  O   UNL A   1      31.860  33.637  27.162  1.00  0.00    -0.246 OA
BRANCH  78  80
ATOM     80  C   UNL A   1      33.348  31.841  27.624  1.00  0.00     0.122 A 
ATOM     81  C   UNL A   1      32.454  30.854  27.186  1.00  0.00     0.031 A 
ATOM     82  C   UNL A   1      34.683  31.498  27.794  1.00  0.00     0.225 A 
ATOM     83  C   UNL A   1      32.928  29.580  26.867  1.00  0.00     0.001 A 
ATOM     84  N   UNL A   1      35.160  30.260  27.560  1.00  0.00    -0.221 NA
ATOM     85  C   UNL A   1      34.283  29.343  27.092  1.00  0.00     0.124 A 
BRANCH  82  86
ATOM     86  O   UNL A   1      35.647  32.380  28.187  1.00  0.00    -0.493 OA
ATOM     87  H   UNL A   1      35.405  33.184  28.603  1.00  0.00     0.295 HD
ENDBRANCH  82  86
BRANCH  83  88
ATOM     88  C   UNL A   1      32.076  28.559  26.260  1.00  0.00    -0.016 A 
ATOM     89  C   UNL A   1      31.979  27.277  26.818  1.00  0.00     0.012 A 
ATOM     90  C   UNL A   1      31.381  28.831  25.066  1.00  0.00     0.025 A 
ATOM     91  C   UNL A   1      31.234  26.283  26.179  1.00  0.00     0.040 A 
ATOM     92  C   UNL A   1      30.624  27.836  24.420  1.00  0.00     0.092 A 
ATOM     93  C   UNL A   1      30.575  26.567  24.986  1.00  0.00     0.135 A 
ATOM     94  F   UNL A   1      29.901  25.586  24.373  1.00  0.00    -0.206 F 
BRANCH  92  95
ATOM     95  C   UNL A   1      29.920  28.093  23.122  1.00  0.00     0.419 C 
ATOM     96  F   UNL A   1      29.758  29.423  22.873  1.00  0.00    -0.166 F 
ATOM     97  F   UNL A   1      30.562  27.577  22.041  1.00  0.00    -0.166 F 
ATOM     98  F   UNL A   1      28.664  27.562  23.090  1.00  0.00    -0.166 F 
ENDBRANCH  92  95
ENDBRANCH  83  88
ENDBRANCH  78  80
ENDBRANCH  77  78
ENDBRANCH  76  77
ENDBRANCH  75  76
ENDBRANCH  74  75
ENDBRANCH   1  74
TORSDOF 20
ENDMDL
