MODEL 1
REMARK VINA RESULT:     -12.3      0.000      0.000
REMARK SMILES Cc1ccc(-c2cc(Cl)cc3c2O[C@@H](C(F)(F)F)C(C(=O)OCCOCCOC(=O)c2ccc(-c4c5nc(c(-c6c(F)cc(S(=O)(=O)[O-])cc6F)c6ccc([nH]6)c(-c6c(F)cc(S(=O)(=O)[O-])cc6F)c6nc(c(-c7c(F)cc(S(=O)(=O)[O-])cc7F)c7ccc4[nH]7)C=C6)C=C5)cc2)=C3)cc1
REMARK SMILES IDX 26 1 25 2 24 3 23 4 22 5 20 6 21 7 19 8 6 9 7 10 12 11 8 12
REMARK SMILES IDX 11 13 13 14 9 15 10 16 97 17 14 18 5 19 1 20 2 21 3 22 99 23
REMARK SMILES IDX 4 24 98 25 15 26 16 27 17 28 18 29 27 30 28 31 29 32 30 33
REMARK SMILES IDX 31 34 32 35 96 36 33 37 95 38 34 39 35 40 36 41 89 42 37 43
REMARK SMILES IDX 94 44 88 45 90 46 38 47 93 48 87 49 86 50 39 52 73 53 52 54
REMARK SMILES IDX 72 55 53 56 56 57 71 58 91 59 54 60 55 61 70 63 92 64 57 65
REMARK SMILES IDX 40 66 41 67 50 68 42 69 43 70 49 71 51 72 44 73 45 74 46 75
REMARK SMILES IDX 47 76 48 77 74 78 75 79 84 80 76 81 77 82 83 83 85 84 78 85
REMARK SMILES IDX 79 86 80 87 81 88 82 89 58 90 59 91 68 92 60 93 61 94 67 95
REMARK SMILES IDX 69 96 62 97 63 98 64 99 65 100 66 101
REMARK H PARENT 90 51 56 62
REMARK Flexibility Score: inf
ROOT
ATOM      1  C   UNL A   1      32.124  29.829  26.609  1.00  0.00     0.202 C 
ENDROOT
BRANCH   1   2
ATOM      2  O   UNL A   1      32.158  29.118  25.379  1.00  0.00    -0.374 OA
BRANCH   2   3
ATOM      3  C   UNL A   1      33.125  28.095  25.258  1.00  0.00     0.202 C 
BRANCH   3   4
ATOM      4  C   UNL A   1      33.151  26.899  26.217  1.00  0.00     0.261 C 
BRANCH   4   5
ATOM      5  O   UNL A   1      34.311  26.076  26.176  1.00  0.00    -0.460 OA
BRANCH   5   6
ATOM      6  C   UNL A   1      34.583  25.258  25.117  1.00  0.00     0.338 C 
ATOM      7  O   UNL A   1      34.744  25.567  23.967  1.00  0.00    -0.246 OA
BRANCH   6   8
ATOM      8  C   UNL A   1      34.914  23.872  25.687  1.00  0.00     0.087 C 
ATOM      9  C   UNL A   1      31.205  23.895  24.487  1.00  0.00     0.026 A 
ATOM     10  C   UNL A   1      30.156  23.513  25.348  1.00  0.00     0.033 A 
ATOM     11  C   UNL A   1      32.485  23.400  24.823  1.00  0.00     0.135 A 
ATOM     12  C   UNL A   1      30.416  22.941  26.595  1.00  0.00     0.042 A 
ATOM     13  C   UNL A   1      32.755  23.171  26.197  1.00  0.00     0.019 A 
ATOM     14  O   UNL A   1      33.522  23.176  23.881  1.00  0.00    -0.475 OA
ATOM     15  Cl  UNL A   1      29.107  22.523  27.626  1.00  0.00    -0.084 Cl
ATOM     16  C   UNL A   1      31.720  22.860  27.065  1.00  0.00     0.032 A 
ATOM     17  C   UNL A   1      34.143  23.421  26.702  1.00  0.00     0.027 C 
ATOM     18  C   UNL A   1      34.825  22.875  24.550  1.00  0.00     0.316 C 
BRANCH   9  19
ATOM     19  C   UNL A   1      30.958  25.232  23.848  1.00  0.00    -0.015 A 
ATOM     20  C   UNL A   1      29.906  29.105  22.091  1.00  0.00     0.044 C 
ATOM     21  C   UNL A   1      30.228  27.747  22.651  1.00  0.00    -0.051 A 
ATOM     22  C   UNL A   1      31.212  26.923  22.084  1.00  0.00     0.004 A 
ATOM     23  C   UNL A   1      29.582  27.293  23.798  1.00  0.00     0.004 A 
ATOM     24  C   UNL A   1      31.547  25.667  22.653  1.00  0.00     0.009 A 
ATOM     25  C   UNL A   1      29.938  26.063  24.374  1.00  0.00     0.009 A 
ENDBRANCH   9  19
BRANCH  18  26
ATOM     26  C   UNL A   1      36.198  22.771  23.825  1.00  0.00     0.430 C 
ATOM     27  F   UNL A   1      36.676  21.498  24.004  1.00  0.00    -0.167 F 
ATOM     28  F   UNL A   1      36.061  22.917  22.486  1.00  0.00    -0.167 F 
ATOM     29  F   UNL A   1      37.195  23.572  24.233  1.00  0.00    -0.167 F 
ENDBRANCH  18  26
ENDBRANCH   6   8
ENDBRANCH   5   6
ENDBRANCH   4   5
ENDBRANCH   3   4
ENDBRANCH   2   3
ENDBRANCH   1   2
BRANCH   1  30
ATOM     30  C   UNL A   1      32.745  31.233  26.651  1.00  0.00     0.261 C 
BRANCH  30  31
ATOM     31  O   UNL A   1      33.453  31.473  27.884  1.00  0.00    -0.460 OA
BRANCH  31  32
ATOM     32  C   UNL A   1      34.795  31.720  27.792  1.00  0.00     0.338 C 
ATOM     33  O   UNL A   1      35.361  32.787  27.640  1.00  0.00    -0.246 OA
BRANCH  32  34
ATOM     34  C   UNL A   1      35.447  30.508  28.347  1.00  0.00     0.060 A 
ATOM     35  C   UNL A   1      35.693  30.390  29.711  1.00  0.00     0.016 A 
ATOM     36  C   UNL A   1      36.183  29.760  27.429  1.00  0.00     0.016 A 
ATOM     37  C   UNL A   1      36.854  29.738  30.133  1.00  0.00     0.010 A 
ATOM     38  C   UNL A   1      37.397  29.224  27.841  1.00  0.00     0.010 A 
ATOM     39  C   UNL A   1      37.801  29.343  29.178  1.00  0.00    -0.014 A 
BRANCH  39  40
ATOM     40  C   UNL A   1      39.249  29.502  29.463  1.00  0.00     0.031 A 
ATOM     41  C   UNL A   1      40.316  28.648  28.874  1.00  0.00     0.074 A 
ATOM     42  C   UNL A   1      39.647  30.609  30.155  1.00  0.00     0.049 A 
ATOM     43  N   UNL A   1      41.500  28.576  29.382  1.00  0.00    -0.248 NA
ATOM     44  C   UNL A   1      40.184  27.781  27.705  1.00  0.00     0.031 C 
ATOM     45  C   UNL A   1      40.999  31.140  30.324  1.00  0.00     0.029 A 
ATOM     46  N   UNL A   1      38.888  31.535  30.861  1.00  0.00    -0.354 N 
ATOM     47  C   UNL A   1      42.344  28.026  28.450  1.00  0.00     0.074 A 
ATOM     48  C   UNL A   1      41.455  27.406  27.500  1.00  0.00     0.031 C 
ATOM     49  C   UNL A   1      40.990  32.174  31.179  1.00  0.00     0.029 A 
ATOM     50  C   UNL A   1      39.663  32.277  31.747  1.00  0.00     0.049 A 
ATOM     51  H   UNL A   1      37.917  31.652  30.748  1.00  0.00     0.167 HD
ATOM     52  C   UNL A   1      43.686  28.265  28.546  1.00  0.00     0.037 A 
ATOM     53  C   UNL A   1      39.408  32.153  33.081  1.00  0.00     0.037 A 
ATOM     54  C   UNL A   1      44.019  28.905  29.836  1.00  0.00     0.049 A 
ATOM     55  C   UNL A   1      40.354  31.157  33.749  1.00  0.00     0.074 A 
ATOM     56  C   UNL A   1      44.596  30.103  30.223  1.00  0.00     0.029 A 
ATOM     57  N   UNL A   1      43.502  28.347  31.013  1.00  0.00    -0.354 N 
ATOM     58  N   UNL A   1      41.364  30.607  33.121  1.00  0.00    -0.248 NA
ATOM     59  C   UNL A   1      40.301  30.696  35.133  1.00  0.00     0.031 C 
ATOM     60  C   UNL A   1      44.266  30.325  31.600  1.00  0.00     0.029 A 
ATOM     61  C   UNL A   1      43.545  29.239  32.073  1.00  0.00     0.049 A 
ATOM     62  H   UNL A   1      43.151  27.430  31.079  1.00  0.00     0.167 HD
ATOM     63  C   UNL A   1      41.997  29.675  33.889  1.00  0.00     0.074 A 
ATOM     64  C   UNL A   1      41.324  29.814  35.171  1.00  0.00     0.031 C 
ATOM     65  C   UNL A   1      42.982  28.862  33.383  1.00  0.00     0.037 A 
BRANCH  52  66
ATOM     66  C   UNL A   1      44.690  28.013  27.424  1.00  0.00     0.058 A 
ATOM     67  C   UNL A   1      45.251  29.078  26.683  1.00  0.00     0.135 A 
ATOM     68  C   UNL A   1      45.096  26.731  26.982  1.00  0.00     0.135 A 
ATOM     69  F   UNL A   1      44.904  30.349  26.938  1.00  0.00    -0.206 F 
ATOM     70  C   UNL A   1      46.179  28.889  25.644  1.00  0.00     0.059 A 
ATOM     71  C   UNL A   1      46.057  26.518  25.986  1.00  0.00     0.059 A 
ATOM     72  F   UNL A   1      44.536  25.611  27.457  1.00  0.00    -0.206 F 
ATOM     73  C   UNL A   1      46.596  27.604  25.315  1.00  0.00     0.060 A 
BRANCH  73  74
ATOM     74  S   UNL A   1      47.830  27.357  24.017  1.00  0.00     0.124 S 
ATOM     75  O   UNL A   1      49.020  27.958  24.610  1.00  0.00    -0.237 OA
ATOM     76  O   UNL A   1      47.853  25.905  23.876  1.00  0.00    -0.237 OA
ATOM     77  O   UNL A   1      47.272  28.077  22.875  1.00  0.00    -0.744 OA
ENDBRANCH  73  74
ENDBRANCH  52  66
BRANCH  53  78
ATOM     78  C   UNL A   1      38.034  32.663  33.388  1.00  0.00     0.058 A 
ATOM     79  C   UNL A   1      37.871  34.059  33.232  1.00  0.00     0.135 A 
ATOM     80  C   UNL A   1      36.865  31.893  33.266  1.00  0.00     0.135 A 
ATOM     81  F   UNL A   1      38.942  34.864  33.343  1.00  0.00    -0.206 F 
ATOM     82  C   UNL A   1      36.668  34.646  32.829  1.00  0.00     0.059 A 
ATOM     83  C   UNL A   1      35.639  32.463  32.872  1.00  0.00     0.059 A 
ATOM     84  F   UNL A   1      36.918  30.559  33.395  1.00  0.00    -0.206 F 
ATOM     85  C   UNL A   1      35.562  33.833  32.610  1.00  0.00     0.060 A 
BRANCH  85  86
ATOM     86  S   UNL A   1      34.080  34.531  31.827  1.00  0.00     0.124 S 
ATOM     87  O   UNL A   1      34.062  33.840  30.544  1.00  0.00    -0.237 OA
ATOM     88  O   UNL A   1      33.013  34.167  32.757  1.00  0.00    -0.237 OA
ATOM     89  O   UNL A   1      34.390  35.957  31.775  1.00  0.00    -0.744 OA
ENDBRANCH  85  86
ENDBRANCH  53  78
BRANCH  65  90
ATOM     90  C   UNL A   1      43.547  27.630  34.073  1.00  0.00     0.058 A 
ATOM     91  C   UNL A   1      42.773  26.552  34.537  1.00  0.00     0.135 A 
ATOM     92  C   UNL A   1      44.952  27.434  34.148  1.00  0.00     0.135 A 
ATOM     93  F   UNL A   1      41.438  26.549  34.430  1.00  0.00    -0.206 F 
ATOM     94  C   UNL A   1      43.341  25.399  35.087  1.00  0.00     0.059 A 
ATOM     95  C   UNL A   1      45.538  26.264  34.624  1.00  0.00     0.059 A 
ATOM     96  F   UNL A   1      45.815  28.378  33.740  1.00  0.00    -0.206 F 
ATOM     97  C   UNL A   1      44.725  25.260  35.122  1.00  0.00     0.060 A 
BRANCH  97  98
ATOM     98  S   UNL A   1      45.458  23.746  35.766  1.00  0.00     0.124 S 
ATOM     99  O   UNL A   1      46.880  24.004  35.568  1.00  0.00    -0.237 OA
ATOM    100  O   UNL A   1      45.006  23.732  37.155  1.00  0.00    -0.237 OA
ATOM    101  O   UNL A   1      44.878  22.708  34.919  1.00  0.00    -0.744 OA
ENDBRANCH  97  98
ENDBRANCH  65  90
ENDBRANCH  39  40
ENDBRANCH  32  34
ENDBRANCH  31  32
ENDBRANCH  30  31
ENDBRANCH   1  30
TORSDOF 19
ENDMDL
MODEL 2
REMARK VINA RESULT:     -11.8      4.010      9.988
REMARK SMILES Cc1ccc(-c2cc(Cl)cc3c2O[C@@H](C(F)(F)F)C(C(=O)OCCOCCOC(=O)c2ccc(-c4c5nc(c(-c6c(F)cc(S(=O)(=O)[O-])cc6F)c6ccc([nH]6)c(-c6c(F)cc(S(=O)(=O)[O-])cc6F)c6nc(c(-c7c(F)cc(S(=O)(=O)[O-])cc7F)c7ccc4[nH]7)C=C6)C=C5)cc2)=C3)cc1
REMARK SMILES IDX 26 1 25 2 24 3 23 4 22 5 20 6 21 7 19 8 6 9 7 10 12 11 8 12
REMARK SMILES IDX 11 13 13 14 9 15 10 16 97 17 14 18 5 19 1 20 2 21 3 22 99 23
REMARK SMILES IDX 4 24 98 25 15 26 16 27 17 28 18 29 27 30 28 31 29 32 30 33
REMARK SMILES IDX 31 34 32 35 96 36 33 37 95 38 34 39 35 40 36 41 89 42 37 43
REMARK SMILES IDX 94 44 88 45 90 46 38 47 93 48 87 49 86 50 39 52 73 53 52 54
REMARK SMILES IDX 72 55 53 56 56 57 71 58 91 59 54 60 55 61 70 63 92 64 57 65
REMARK SMILES IDX 40 66 41 67 50 68 42 69 43 70 49 71 51 72 44 73 45 74 46 75
REMARK SMILES IDX 47 76 48 77 74 78 75 79 84 80 76 81 77 82 83 83 85 84 78 85
REMARK SMILES IDX 79 86 80 87 81 88 82 89 58 90 59 91 68 92 60 93 61 94 67 95
REMARK SMILES IDX 69 96 62 97 63 98 64 99 65 100 66 101
REMARK H PARENT 90 51 56 62
REMARK Flexibility Score: inf
ROOT
ATOM      1  C   UNL A   1      37.918  21.642  25.480  1.00  0.00     0.202 C 
ENDROOT
BRANCH   1   2
ATOM      2  O   UNL A   1      37.229  22.803  25.922  1.00  0.00    -0.374 OA
BRANCH   2   3
ATOM      3  C   UNL A   1      36.713  23.659  24.924  1.00  0.00     0.202 C 
BRANCH   3   4
ATOM      4  C   UNL A   1      35.241  24.089  24.918  1.00  0.00     0.261 C 
BRANCH   4   5
ATOM      5  O   UNL A   1      34.982  25.476  25.100  1.00  0.00    -0.460 OA
BRANCH   5   6
ATOM      6  C   UNL A   1      33.863  25.927  25.740  1.00  0.00     0.338 C 
ATOM      7  O   UNL A   1      33.311  25.444  26.691  1.00  0.00    -0.246 OA
BRANCH   6   8
ATOM      8  C   UNL A   1      33.564  27.330  25.196  1.00  0.00     0.087 C 
ATOM      9  C   UNL A   1      31.652  24.703  23.043  1.00  0.00     0.026 A 
ATOM     10  C   UNL A   1      31.789  24.667  21.640  1.00  0.00     0.033 A 
ATOM     11  C   UNL A   1      31.963  25.936  23.659  1.00  0.00     0.135 A 
ATOM     12  C   UNL A   1      32.465  25.678  20.955  1.00  0.00     0.042 A 
ATOM     13  C   UNL A   1      32.942  26.748  23.031  1.00  0.00     0.019 A 
ATOM     14  O   UNL A   1      31.403  26.375  24.886  1.00  0.00    -0.475 OA
ATOM     15  Cl  UNL A   1      32.639  25.576  19.249  1.00  0.00    -0.084 Cl
ATOM     16  C   UNL A   1      33.131  26.672  21.659  1.00  0.00     0.032 A 
ATOM     17  C   UNL A   1      33.854  27.563  23.895  1.00  0.00     0.027 C 
ATOM     18  C   UNL A   1      32.088  27.599  25.404  1.00  0.00     0.316 C 
BRANCH   9  19
ATOM     19  C   UNL A   1      31.893  23.360  23.672  1.00  0.00    -0.015 A 
ATOM     20  C   UNL A   1      32.525  19.301  25.196  1.00  0.00     0.044 C 
ATOM     21  C   UNL A   1      32.245  20.680  24.664  1.00  0.00    -0.051 A 
ATOM     22  C   UNL A   1      31.746  21.705  25.482  1.00  0.00     0.004 A 
ATOM     23  C   UNL A   1      32.532  20.989  23.337  1.00  0.00     0.004 A 
ATOM     24  C   UNL A   1      31.538  23.017  24.984  1.00  0.00     0.009 A 
ATOM     25  C   UNL A   1      32.352  22.296  22.858  1.00  0.00     0.009 A 
ENDBRANCH   9  19
BRANCH  18  26
ATOM     26  C   UNL A   1      31.854  28.226  26.809  1.00  0.00     0.430 C 
ATOM     27  F   UNL A   1      31.404  29.509  26.630  1.00  0.00    -0.167 F 
ATOM     28  F   UNL A   1      30.863  27.588  27.475  1.00  0.00    -0.167 F 
ATOM     29  F   UNL A   1      32.905  28.344  27.635  1.00  0.00    -0.167 F 
ENDBRANCH  18  26
ENDBRANCH   6   8
ENDBRANCH   5   6
ENDBRANCH   4   5
ENDBRANCH   3   4
ENDBRANCH   2   3
ENDBRANCH   1   2
BRANCH   1  30
ATOM     30  C   UNL A   1      39.312  21.361  26.060  1.00  0.00     0.261 C 
BRANCH  30  31
ATOM     31  O   UNL A   1      40.207  22.477  25.877  1.00  0.00    -0.460 OA
BRANCH  31  32
ATOM     32  C   UNL A   1      40.604  23.145  27.001  1.00  0.00     0.338 C 
ATOM     33  O   UNL A   1      41.397  22.791  27.855  1.00  0.00    -0.246 OA
BRANCH  32  34
ATOM     34  C   UNL A   1      40.224  24.559  26.761  1.00  0.00     0.060 A 
ATOM     35  C   UNL A   1      41.082  25.427  26.091  1.00  0.00     0.016 A 
ATOM     36  C   UNL A   1      39.236  25.059  27.608  1.00  0.00     0.016 A 
ATOM     37  C   UNL A   1      41.129  26.766  26.484  1.00  0.00     0.010 A 
ATOM     38  C   UNL A   1      39.372  26.357  28.084  1.00  0.00     0.010 A 
ATOM     39  C   UNL A   1      40.417  27.169  27.623  1.00  0.00    -0.014 A 
BRANCH  39  40
ATOM     40  C   UNL A   1      41.025  28.137  28.570  1.00  0.00     0.031 A 
ATOM     41  C   UNL A   1      40.249  29.119  29.374  1.00  0.00     0.074 A 
ATOM     42  C   UNL A   1      42.350  27.997  28.865  1.00  0.00     0.049 A 
ATOM     43  N   UNL A   1      40.798  30.154  29.914  1.00  0.00    -0.248 NA
ATOM     44  C   UNL A   1      38.811  29.080  29.636  1.00  0.00     0.031 C 
ATOM     45  C   UNL A   1      43.113  28.620  29.946  1.00  0.00     0.029 A 
ATOM     46  N   UNL A   1      43.321  27.220  28.244  1.00  0.00    -0.354 N 
ATOM     47  C   UNL A   1      39.946  30.655  30.867  1.00  0.00     0.074 A 
ATOM     48  C   UNL A   1      38.674  30.060  30.543  1.00  0.00     0.031 C 
ATOM     49  C   UNL A   1      44.417  28.330  29.824  1.00  0.00     0.029 A 
ATOM     50  C   UNL A   1      44.608  27.638  28.568  1.00  0.00     0.049 A 
ATOM     51  H   UNL A   1      43.122  26.464  27.646  1.00  0.00     0.167 HD
ATOM     52  C   UNL A   1      40.456  31.424  31.876  1.00  0.00     0.037 A 
ATOM     53  C   UNL A   1      45.399  28.115  27.564  1.00  0.00     0.037 A 
ATOM     54  C   UNL A   1      41.862  31.788  31.606  1.00  0.00     0.049 A 
ATOM     55  C   UNL A   1      45.375  29.640  27.500  1.00  0.00     0.074 A 
ATOM     56  C   UNL A   1      43.074  31.579  32.242  1.00  0.00     0.029 A 
ATOM     57  N   UNL A   1      42.190  32.299  30.343  1.00  0.00    -0.354 N 
ATOM     58  N   UNL A   1      44.769  30.379  28.397  1.00  0.00    -0.248 NA
ATOM     59  C   UNL A   1      46.011  30.482  26.491  1.00  0.00     0.031 C 
ATOM     60  C   UNL A   1      44.117  31.808  31.286  1.00  0.00     0.029 A 
ATOM     61  C   UNL A   1      43.550  32.218  30.089  1.00  0.00     0.049 A 
ATOM     62  H   UNL A   1      41.533  32.672  29.713  1.00  0.00     0.167 HD
ATOM     63  C   UNL A   1      44.794  31.703  28.070  1.00  0.00     0.074 A 
ATOM     64  C   UNL A   1      45.643  31.719  26.889  1.00  0.00     0.031 C 
ATOM     65  C   UNL A   1      44.087  32.642  28.782  1.00  0.00     0.037 A 
BRANCH  52  66
ATOM     66  C   UNL A   1      39.709  31.762  33.164  1.00  0.00     0.058 A 
ATOM     67  C   UNL A   1      40.071  31.181  34.400  1.00  0.00     0.135 A 
ATOM     68  C   UNL A   1      38.577  32.610  33.238  1.00  0.00     0.135 A 
ATOM     69  F   UNL A   1      41.078  30.298  34.475  1.00  0.00    -0.206 F 
ATOM     70  C   UNL A   1      39.410  31.466  35.609  1.00  0.00     0.059 A 
ATOM     71  C   UNL A   1      37.936  32.950  34.436  1.00  0.00     0.059 A 
ATOM     72  F   UNL A   1      37.996  33.109  32.138  1.00  0.00    -0.206 F 
ATOM     73  C   UNL A   1      38.355  32.372  35.622  1.00  0.00     0.060 A 
BRANCH  73  74
ATOM     74  S   UNL A   1      37.538  32.786  37.181  1.00  0.00     0.124 S 
ATOM     75  O   UNL A   1      38.542  33.612  37.841  1.00  0.00    -0.237 OA
ATOM     76  O   UNL A   1      36.336  33.481  36.731  1.00  0.00    -0.237 OA
ATOM     77  O   UNL A   1      37.300  31.483  37.797  1.00  0.00    -0.744 OA
ENDBRANCH  73  74
ENDBRANCH  52  66
BRANCH  53  78
ATOM     78  C   UNL A   1      45.679  27.027  26.574  1.00  0.00     0.058 A 
ATOM     79  C   UNL A   1      46.500  25.982  27.057  1.00  0.00     0.135 A 
ATOM     80  C   UNL A   1      44.820  26.691  25.513  1.00  0.00     0.135 A 
ATOM     81  F   UNL A   1      47.353  26.227  28.065  1.00  0.00    -0.206 F 
ATOM     82  C   UNL A   1      46.375  24.656  26.631  1.00  0.00     0.059 A 
ATOM     83  C   UNL A   1      44.686  25.365  25.060  1.00  0.00     0.059 A 
ATOM     84  F   UNL A   1      44.001  27.614  24.988  1.00  0.00    -0.206 F 
ATOM     85  C   UNL A   1      45.433  24.346  25.657  1.00  0.00     0.060 A 
BRANCH  85  86
ATOM     86  S   UNL A   1      45.064  22.607  25.290  1.00  0.00     0.124 S 
ATOM     87  O   UNL A   1      44.238  22.227  26.429  1.00  0.00    -0.237 OA
ATOM     88  O   UNL A   1      44.375  22.680  24.004  1.00  0.00    -0.237 OA
ATOM     89  O   UNL A   1      46.393  22.004  25.242  1.00  0.00    -0.744 OA
ENDBRANCH  85  86
ENDBRANCH  53  78
BRANCH  65  90
ATOM     90  C   UNL A   1      43.837  34.076  28.340  1.00  0.00     0.058 A 
ATOM     91  C   UNL A   1      43.318  34.444  27.087  1.00  0.00     0.135 A 
ATOM     92  C   UNL A   1      43.980  35.143  29.266  1.00  0.00     0.135 A 
ATOM     93  F   UNL A   1      43.029  33.531  26.151  1.00  0.00    -0.206 F 
ATOM     94  C   UNL A   1      43.022  35.770  26.755  1.00  0.00     0.059 A 
ATOM     95  C   UNL A   1      43.622  36.458  28.981  1.00  0.00     0.059 A 
ATOM     96  F   UNL A   1      44.463  34.940  30.502  1.00  0.00    -0.206 F 
ATOM     97  C   UNL A   1      43.171  36.770  27.710  1.00  0.00     0.060 A 
BRANCH  97  98
ATOM     98  S   UNL A   1      42.724  38.468  27.306  1.00  0.00     0.124 S 
ATOM     99  O   UNL A   1      43.912  38.920  26.592  1.00  0.00    -0.237 OA
ATOM    100  O   UNL A   1      41.523  38.302  26.491  1.00  0.00    -0.237 OA
ATOM    101  O   UNL A   1      42.501  39.075  28.614  1.00  0.00    -0.744 OA
ENDBRANCH  97  98
ENDBRANCH  65  90
ENDBRANCH  39  40
ENDBRANCH  32  34
ENDBRANCH  31  32
ENDBRANCH  30  31
ENDBRANCH   1  30
TORSDOF 19
ENDMDL
MODEL 3
REMARK VINA RESULT:     -11.5      2.390      3.422
REMARK SMILES Cc1ccc(-c2cc(Cl)cc3c2O[C@@H](C(F)(F)F)C(C(=O)OCCOCCOC(=O)c2ccc(-c4c5nc(c(-c6c(F)cc(S(=O)(=O)[O-])cc6F)c6ccc([nH]6)c(-c6c(F)cc(S(=O)(=O)[O-])cc6F)c6nc(c(-c7c(F)cc(S(=O)(=O)[O-])cc7F)c7ccc4[nH]7)C=C6)C=C5)cc2)=C3)cc1
REMARK SMILES IDX 26 1 25 2 24 3 23 4 22 5 20 6 21 7 19 8 6 9 7 10 12 11 8 12
REMARK SMILES IDX 11 13 13 14 9 15 10 16 97 17 14 18 5 19 1 20 2 21 3 22 99 23
REMARK SMILES IDX 4 24 98 25 15 26 16 27 17 28 18 29 27 30 28 31 29 32 30 33
REMARK SMILES IDX 31 34 32 35 96 36 33 37 95 38 34 39 35 40 36 41 89 42 37 43
REMARK SMILES IDX 94 44 88 45 90 46 38 47 93 48 87 49 86 50 39 52 73 53 52 54
REMARK SMILES IDX 72 55 53 56 56 57 71 58 91 59 54 60 55 61 70 63 92 64 57 65
REMARK SMILES IDX 40 66 41 67 50 68 42 69 43 70 49 71 51 72 44 73 45 74 46 75
REMARK SMILES IDX 47 76 48 77 74 78 75 79 84 80 76 81 77 82 83 83 85 84 78 85
REMARK SMILES IDX 79 86 80 87 81 88 82 89 58 90 59 91 68 92 60 93 61 94 67 95
REMARK SMILES IDX 69 96 62 97 63 98 64 99 65 100 66 101
REMARK H PARENT 90 51 56 62
REMARK Flexibility Score: inf
ROOT
ATOM      1  C   UNL A   1      34.351  30.230  27.627  1.00  0.00     0.202 C 
ENDROOT
BRANCH   1   2
ATOM      2  O   UNL A   1      33.288  29.561  26.961  1.00  0.00    -0.374 OA
BRANCH   2   3
ATOM      3  C   UNL A   1      33.646  28.586  26.004  1.00  0.00     0.202 C 
BRANCH   3   4
ATOM      4  C   UNL A   1      33.158  27.137  26.114  1.00  0.00     0.261 C 
BRANCH   4   5
ATOM      5  O   UNL A   1      34.162  26.131  26.192  1.00  0.00    -0.460 OA
BRANCH   5   6
ATOM      6  C   UNL A   1      34.478  25.338  25.127  1.00  0.00     0.338 C 
ATOM      7  O   UNL A   1      34.650  25.669  23.984  1.00  0.00    -0.246 OA
BRANCH   6   8
ATOM      8  C   UNL A   1      34.841  23.955  25.682  1.00  0.00     0.087 C 
ATOM      9  C   UNL A   1      31.118  23.918  24.531  1.00  0.00     0.026 A 
ATOM     10  C   UNL A   1      30.086  23.512  25.403  1.00  0.00     0.033 A 
ATOM     11  C   UNL A   1      32.410  23.444  24.847  1.00  0.00     0.135 A 
ATOM     12  C   UNL A   1      30.374  22.936  26.643  1.00  0.00     0.042 A 
ATOM     13  C   UNL A   1      32.703  23.211  26.216  1.00  0.00     0.019 A 
ATOM     14  O   UNL A   1      33.439  23.246  23.891  1.00  0.00    -0.475 OA
ATOM     15  Cl  UNL A   1      29.086  22.487  27.688  1.00  0.00    -0.084 Cl
ATOM     16  C   UNL A   1      31.685  22.876  27.096  1.00  0.00     0.032 A 
ATOM     17  C   UNL A   1      34.092  23.483  26.704  1.00  0.00     0.027 C 
ATOM     18  C   UNL A   1      34.756  22.963  24.540  1.00  0.00     0.316 C 
BRANCH   9  19
ATOM     19  C   UNL A   1      30.838  25.255  23.905  1.00  0.00    -0.015 A 
ATOM     20  C   UNL A   1      30.353  29.151  21.961  1.00  0.00     0.044 C 
ATOM     21  C   UNL A   1      30.562  27.841  22.669  1.00  0.00    -0.051 A 
ATOM     22  C   UNL A   1      29.865  27.509  23.841  1.00  0.00     0.004 A 
ATOM     23  C   UNL A   1      31.427  26.889  22.137  1.00  0.00     0.004 A 
ATOM     24  C   UNL A   1      30.028  26.249  24.471  1.00  0.00     0.009 A 
ATOM     25  C   UNL A   1      31.562  25.632  22.747  1.00  0.00     0.009 A 
ENDBRANCH   9  19
BRANCH  18  26
ATOM     26  C   UNL A   1      36.120  22.890  23.796  1.00  0.00     0.430 C 
ATOM     27  F   UNL A   1      36.639  21.634  23.987  1.00  0.00    -0.167 F 
ATOM     28  F   UNL A   1      35.960  23.012  22.458  1.00  0.00    -0.167 F 
ATOM     29  F   UNL A   1      37.099  23.725  24.179  1.00  0.00    -0.167 F 
ENDBRANCH  18  26
ENDBRANCH   6   8
ENDBRANCH   5   6
ENDBRANCH   4   5
ENDBRANCH   3   4
ENDBRANCH   2   3
ENDBRANCH   1   2
BRANCH   1  30
ATOM     30  C   UNL A   1      35.631  29.435  27.928  1.00  0.00     0.261 C 
BRANCH  30  31
ATOM     31  O   UNL A   1      36.791  30.027  27.310  1.00  0.00    -0.460 OA
BRANCH  31  32
ATOM     32  C   UNL A   1      37.894  30.203  28.099  1.00  0.00     0.338 C 
ATOM     33  O   UNL A   1      38.113  31.083  28.911  1.00  0.00    -0.246 OA
BRANCH  32  34
ATOM     34  C   UNL A   1      38.579  28.887  28.099  1.00  0.00     0.060 A 
ATOM     35  C   UNL A   1      38.543  28.062  29.219  1.00  0.00     0.016 A 
ATOM     36  C   UNL A   1      39.594  28.749  27.152  1.00  0.00     0.016 A 
ATOM     37  C   UNL A   1      39.668  27.294  29.528  1.00  0.00     0.010 A 
ATOM     38  C   UNL A   1      40.756  28.085  27.527  1.00  0.00     0.010 A 
ATOM     39  C   UNL A   1      40.844  27.476  28.786  1.00  0.00    -0.014 A 
BRANCH  39  40
ATOM     40  C   UNL A   1      42.159  27.470  29.472  1.00  0.00     0.031 A 
ATOM     41  C   UNL A   1      43.368  26.771  28.958  1.00  0.00     0.074 A 
ATOM     42  C   UNL A   1      42.328  28.305  30.539  1.00  0.00     0.049 A 
ATOM     43  N   UNL A   1      44.377  26.493  29.713  1.00  0.00    -0.248 NA
ATOM     44  C   UNL A   1      43.575  26.290  27.593  1.00  0.00     0.031 C 
ATOM     45  C   UNL A   1      43.572  28.693  31.204  1.00  0.00     0.029 A 
ATOM     46  N   UNL A   1      41.384  29.023  31.263  1.00  0.00    -0.354 N 
ATOM     47  C   UNL A   1      45.453  26.196  28.914  1.00  0.00     0.074 A 
ATOM     48  C   UNL A   1      44.866  25.926  27.626  1.00  0.00     0.031 C 
ATOM     49  C   UNL A   1      43.308  29.431  32.292  1.00  0.00     0.029 A 
ATOM     50  C   UNL A   1      41.875  29.433  32.498  1.00  0.00     0.049 A 
ATOM     51  H   UNL A   1      40.474  29.218  30.940  1.00  0.00     0.167 HD
ATOM     52  C   UNL A   1      46.715  26.327  29.424  1.00  0.00     0.037 A 
ATOM     53  C   UNL A   1      41.280  28.939  33.621  1.00  0.00     0.037 A 
ATOM     54  C   UNL A   1      46.676  26.545  30.885  1.00  0.00     0.049 A 
ATOM     55  C   UNL A   1      42.043  27.744  34.188  1.00  0.00     0.074 A 
ATOM     56  C   UNL A   1      47.096  27.546  31.744  1.00  0.00     0.029 A 
ATOM     57  N   UNL A   1      45.882  25.695  31.667  1.00  0.00    -0.354 N 
ATOM     58  N   UNL A   1      43.199  27.350  33.713  1.00  0.00    -0.248 NA
ATOM     59  C   UNL A   1      41.640  26.903  35.311  1.00  0.00     0.031 C 
ATOM     60  C   UNL A   1      46.407  27.374  32.989  1.00  0.00     0.029 A 
ATOM     61  C   UNL A   1      45.618  26.235  32.915  1.00  0.00     0.049 A 
ATOM     62  H   UNL A   1      45.552  24.818  31.365  1.00  0.00     0.167 HD
ATOM     63  C   UNL A   1      43.632  26.203  34.309  1.00  0.00     0.074 A 
ATOM     64  C   UNL A   1      42.640  25.997  35.353  1.00  0.00     0.031 C 
ATOM     65  C   UNL A   1      44.739  25.523  33.862  1.00  0.00     0.037 A 
BRANCH  52  66
ATOM     66  C   UNL A   1      47.987  26.361  28.580  1.00  0.00     0.058 A 
ATOM     67  C   UNL A   1      48.761  27.537  28.462  1.00  0.00     0.135 A 
ATOM     68  C   UNL A   1      48.466  25.278  27.804  1.00  0.00     0.135 A 
ATOM     69  F   UNL A   1      48.391  28.669  29.081  1.00  0.00    -0.206 F 
ATOM     70  C   UNL A   1      49.939  27.611  27.697  1.00  0.00     0.059 A 
ATOM     71  C   UNL A   1      49.662  25.310  27.077  1.00  0.00     0.059 A 
ATOM     72  F   UNL A   1      47.764  24.145  27.664  1.00  0.00    -0.206 F 
ATOM     73  C   UNL A   1      50.397  26.483  27.023  1.00  0.00     0.060 A 
BRANCH  73  74
ATOM     74  S   UNL A   1      51.939  26.555  26.083  1.00  0.00     0.124 S 
ATOM     75  O   UNL A   1      52.700  25.453  26.661  1.00  0.00    -0.237 OA
ATOM     76  O   UNL A   1      51.481  26.363  24.711  1.00  0.00    -0.237 OA
ATOM     77  O   UNL A   1      52.455  27.890  26.377  1.00  0.00    -0.744 OA
ENDBRANCH  73  74
ENDBRANCH  52  66
BRANCH  53  78
ATOM     78  C   UNL A   1      39.860  29.408  33.695  1.00  0.00     0.058 A 
ATOM     79  C   UNL A   1      39.701  30.766  34.059  1.00  0.00     0.135 A 
ATOM     80  C   UNL A   1      38.807  28.846  32.952  1.00  0.00     0.135 A 
ATOM     81  F   UNL A   1      40.662  31.372  34.777  1.00  0.00    -0.206 F 
ATOM     82  C   UNL A   1      38.652  31.562  33.590  1.00  0.00     0.059 A 
ATOM     83  C   UNL A   1      37.735  29.626  32.478  1.00  0.00     0.059 A 
ATOM     84  F   UNL A   1      38.867  27.566  32.558  1.00  0.00    -0.206 F 
ATOM     85  C   UNL A   1      37.691  30.993  32.763  1.00  0.00     0.060 A 
BRANCH  85  86
ATOM     86  S   UNL A   1      36.485  32.062  31.926  1.00  0.00     0.124 S 
ATOM     87  O   UNL A   1      35.849  31.133  31.001  1.00  0.00    -0.237 OA
ATOM     88  O   UNL A   1      35.646  32.536  33.024  1.00  0.00    -0.237 OA
ATOM     89  O   UNL A   1      37.334  33.082  31.316  1.00  0.00    -0.744 OA
ENDBRANCH  85  86
ENDBRANCH  53  78
BRANCH  65  90
ATOM     90  C   UNL A   1      45.137  24.115  34.280  1.00  0.00     0.058 A 
ATOM     91  C   UNL A   1      46.309  23.796  34.986  1.00  0.00     0.135 A 
ATOM     92  C   UNL A   1      44.232  23.035  34.103  1.00  0.00     0.135 A 
ATOM     93  F   UNL A   1      47.205  24.734  35.323  1.00  0.00    -0.206 F 
ATOM     94  C   UNL A   1      46.593  22.500  35.428  1.00  0.00     0.059 A 
ATOM     95  C   UNL A   1      44.461  21.754  34.597  1.00  0.00     0.059 A 
ATOM     96  F   UNL A   1      43.071  23.193  33.447  1.00  0.00    -0.206 F 
ATOM     97  C   UNL A   1      45.661  21.485  35.234  1.00  0.00     0.060 A 
BRANCH  97  98
ATOM     98  S   UNL A   1      45.993  19.831  35.864  1.00  0.00     0.124 S 
ATOM     99  O   UNL A   1      45.046  19.031  35.094  1.00  0.00    -0.237 OA
ATOM    100  O   UNL A   1      47.402  19.634  35.531  1.00  0.00    -0.237 OA
ATOM    101  O   UNL A   1      45.708  19.952  37.290  1.00  0.00    -0.744 OA
ENDBRANCH  97  98
ENDBRANCH  65  90
ENDBRANCH  39  40
ENDBRANCH  32  34
ENDBRANCH  31  32
ENDBRANCH  30  31
ENDBRANCH   1  30
TORSDOF 19
ENDMDL
