MODEL 1
REMARK VINA RESULT:      -8.5      0.000      0.000
REMARK SMILES O=C(/C=C/c1ccc(C(=O)NC2CC2)cc1)NC1(C(=O)OCCOCCOC(=O)c2ccc(-c3c4nc(c(-c5c(F)cc(S(=O)(=O)[O-])cc5F)c5ccc([nH]5)c(-c5c(F)cc(S(=O)(=O)[O-])cc5F)c5nc(c(-c6c(F)cc(S(=O)(=O)[O-])cc6F)c6ccc3[nH]6)C=C5)C=C4)cc2)CCCC1
REMARK SMILES IDX 23 1 22 2 21 3 19 4 20 5 18 6 96 7 99 8 97 9 98 10 17 11
REMARK SMILES IDX 1 12 2 13 3 15 4 16 5 17 6 18 16 19 7 20 15 21 8 22 9 23
REMARK SMILES IDX 10 24 11 25 12 27 13 28 14 29 24 30 25 31 26 32 27 33 28 34
REMARK SMILES IDX 29 35 30 36 31 37 95 38 32 39 94 40 33 41 34 42 35 43 88 44
REMARK SMILES IDX 36 45 93 46 87 47 89 48 37 49 92 50 86 51 85 52 38 54 72 55
REMARK SMILES IDX 51 56 71 57 52 58 55 59 70 60 90 61 53 62 54 63 69 65 91 66
REMARK SMILES IDX 56 67 39 68 40 69 49 70 41 71 42 72 48 73 50 74 43 75 44 76
REMARK SMILES IDX 45 77 46 78 47 79 73 80 74 81 83 82 75 83 76 84 82 85 84 86
REMARK SMILES IDX 77 87 78 88 79 89 80 90 81 91 57 92 58 93 67 94 59 95 60 96
REMARK SMILES IDX 66 97 68 98 61 99 62 100 63 101 64 102 65 103
REMARK H PARENT 17 14 11 26 89 53 55 64
REMARK Flexibility Score: inf
ROOT
ATOM      1  C   UNL A   1      34.972  33.320  33.893  1.00  0.00     0.202 C 
ENDROOT
BRANCH   1   2
ATOM      2  C   UNL A   1      36.449  32.991  33.637  1.00  0.00     0.261 C 
BRANCH   2   3
ATOM      3  O   UNL A   1      37.102  32.615  34.861  1.00  0.00    -0.461 OA
BRANCH   3   4
ATOM      4  C   UNL A   1      38.071  33.477  35.280  1.00  0.00     0.331 C 
ATOM      5  O   UNL A   1      38.216  34.620  34.856  1.00  0.00    -0.249 OA
BRANCH   4   6
ATOM      6  C   UNL A   1      38.919  32.873  36.445  1.00  0.00     0.138 C 
ATOM      7  C   UNL A   1      37.957  32.065  37.334  1.00  0.00     0.040 C 
ATOM      8  C   UNL A   1      39.486  33.873  37.470  1.00  0.00     0.040 C 
ATOM      9  C   UNL A   1      37.276  33.120  38.194  1.00  0.00     0.003 C 
ATOM     10  C   UNL A   1      38.351  34.166  38.458  1.00  0.00     0.003 C 
BRANCH   6  11
ATOM     11  N   UNL A   1      39.967  31.976  35.906  1.00  0.00    -0.337 N 
ATOM     12  O   UNL A   1      38.686  30.075  35.902  1.00  0.00    -0.270 OA
ATOM     13  C   UNL A   1      39.724  30.662  35.626  1.00  0.00     0.244 C 
ATOM     14  H   UNL A   1      40.868  32.339  35.745  1.00  0.00     0.164 HD
BRANCH  13  15
ATOM     15  C   UNL A   1      40.797  29.866  34.994  1.00  0.00     0.072 C 
ATOM     16  C   UNL A   1      40.691  28.920  34.051  1.00  0.00     0.014 C 
BRANCH  16  17
ATOM     17  C   UNL A   1      41.851  28.111  33.636  1.00  0.00    -0.025 A 
ATOM     18  C   UNL A   1      42.384  28.256  32.353  1.00  0.00     0.009 A 
ATOM     19  C   UNL A   1      42.411  27.140  34.478  1.00  0.00     0.009 A 
ATOM     20  C   UNL A   1      43.441  27.438  31.926  1.00  0.00     0.014 A 
ATOM     21  C   UNL A   1      43.487  26.351  34.063  1.00  0.00     0.014 A 
ATOM     22  C   UNL A   1      43.989  26.455  32.767  1.00  0.00     0.039 A 
BRANCH  22  23
ATOM     23  C   UNL A   1      45.084  25.601  32.214  1.00  0.00     0.251 C 
ATOM     24  O   UNL A   1      44.812  24.777  31.338  1.00  0.00    -0.269 OA
ATOM     25  N   UNL A   1      46.388  25.657  32.661  1.00  0.00    -0.349 N 
ATOM     26  H   UNL A   1      46.995  25.017  32.223  1.00  0.00     0.164 HD
BRANCH  25  27
ATOM     27  C   UNL A   1      47.008  26.477  33.643  1.00  0.00     0.082 C 
ATOM     28  C   UNL A   1      48.213  26.024  34.420  1.00  0.00     0.027 C 
ATOM     29  C   UNL A   1      48.357  27.092  33.380  1.00  0.00     0.027 C 
ENDBRANCH  25  27
ENDBRANCH  22  23
ENDBRANCH  16  17
ENDBRANCH  13  15
ENDBRANCH   6  11
ENDBRANCH   4   6
ENDBRANCH   3   4
ENDBRANCH   2   3
ENDBRANCH   1   2
BRANCH   1  30
ATOM     30  O   UNL A   1      34.177  33.672  32.756  1.00  0.00    -0.374 OA
BRANCH  30  31
ATOM     31  C   UNL A   1      34.881  33.996  31.559  1.00  0.00     0.202 C 
BRANCH  31  32
ATOM     32  C   UNL A   1      34.633  33.080  30.357  1.00  0.00     0.261 C 
BRANCH  32  33
ATOM     33  O   UNL A   1      35.340  31.835  30.470  1.00  0.00    -0.460 OA
BRANCH  33  34
ATOM     34  C   UNL A   1      35.395  31.114  29.326  1.00  0.00     0.338 C 
ATOM     35  O   UNL A   1      34.569  31.097  28.420  1.00  0.00    -0.246 OA
BRANCH  34  36
ATOM     36  C   UNL A   1      36.705  30.453  29.217  1.00  0.00     0.060 A 
ATOM     37  C   UNL A   1      37.377  30.150  30.409  1.00  0.00     0.016 A 
ATOM     38  C   UNL A   1      37.290  30.178  27.979  1.00  0.00     0.016 A 
ATOM     39  C   UNL A   1      38.656  29.602  30.367  1.00  0.00     0.010 A 
ATOM     40  C   UNL A   1      38.581  29.644  27.940  1.00  0.00     0.010 A 
ATOM     41  C   UNL A   1      39.279  29.380  29.133  1.00  0.00    -0.014 A 
BRANCH  41  42
ATOM     42  C   UNL A   1      40.710  28.999  29.092  1.00  0.00     0.031 A 
ATOM     43  C   UNL A   1      41.749  30.053  29.357  1.00  0.00     0.074 A 
ATOM     44  C   UNL A   1      41.073  27.732  28.823  1.00  0.00     0.049 A 
ATOM     45  N   UNL A   1      43.051  29.963  29.302  1.00  0.00    -0.248 NA
ATOM     46  C   UNL A   1      41.254  31.388  29.734  1.00  0.00     0.031 C 
ATOM     47  C   UNL A   1      40.151  26.623  28.583  1.00  0.00     0.029 A 
ATOM     48  N   UNL A   1      42.318  27.171  28.687  1.00  0.00    -0.354 N 
ATOM     49  C   UNL A   1      43.532  31.228  29.616  1.00  0.00     0.074 A 
ATOM     50  C   UNL A   1      42.381  32.074  29.851  1.00  0.00     0.031 C 
ATOM     51  C   UNL A   1      40.863  25.519  28.300  1.00  0.00     0.029 A 
ATOM     52  C   UNL A   1      42.286  25.850  28.305  1.00  0.00     0.049 A 
ATOM     53  H   UNL A   1      43.154  27.666  28.848  1.00  0.00     0.167 HD
ATOM     54  C   UNL A   1      44.816  31.644  29.701  1.00  0.00     0.037 A 
ATOM     55  C   UNL A   1      43.290  25.018  27.962  1.00  0.00     0.037 A 
ATOM     56  C   UNL A   1      45.954  30.789  29.481  1.00  0.00     0.049 A 
ATOM     57  C   UNL A   1      44.710  25.522  28.008  1.00  0.00     0.074 A 
ATOM     58  C   UNL A   1      47.296  31.099  29.604  1.00  0.00     0.029 A 
ATOM     59  N   UNL A   1      45.882  29.464  29.080  1.00  0.00    -0.354 N 
ATOM     60  N   UNL A   1      45.154  26.706  28.360  1.00  0.00    -0.248 NA
ATOM     61  C   UNL A   1      45.766  24.582  27.605  1.00  0.00     0.031 C 
ATOM     62  C   UNL A   1      48.038  29.977  29.221  1.00  0.00     0.029 A 
ATOM     63  C   UNL A   1      47.157  28.953  28.908  1.00  0.00     0.049 A 
ATOM     64  H   UNL A   1      45.049  28.961  28.936  1.00  0.00     0.167 HD
ATOM     65  C   UNL A   1      46.538  26.647  28.237  1.00  0.00     0.074 A 
ATOM     66  C   UNL A   1      46.861  25.307  27.793  1.00  0.00     0.031 C 
ATOM     67  C   UNL A   1      47.460  27.615  28.468  1.00  0.00     0.037 A 
BRANCH  54  68
ATOM     68  C   UNL A   1      45.071  33.089  30.017  1.00  0.00     0.058 A 
ATOM     69  C   UNL A   1      45.342  34.033  29.015  1.00  0.00     0.135 A 
ATOM     70  C   UNL A   1      44.980  33.548  31.342  1.00  0.00     0.135 A 
ATOM     71  F   UNL A   1      45.458  33.645  27.735  1.00  0.00    -0.206 F 
ATOM     72  C   UNL A   1      45.525  35.379  29.315  1.00  0.00     0.059 A 
ATOM     73  C   UNL A   1      45.137  34.893  31.663  1.00  0.00     0.059 A 
ATOM     74  F   UNL A   1      44.728  32.686  32.339  1.00  0.00    -0.206 F 
ATOM     75  C   UNL A   1      45.416  35.800  30.643  1.00  0.00     0.060 A 
BRANCH  75  76
ATOM     76  S   UNL A   1      45.626  37.555  31.012  1.00  0.00     0.124 S 
ATOM     77  O   UNL A   1      44.804  37.701  32.210  1.00  0.00    -0.237 OA
ATOM     78  O   UNL A   1      47.067  37.660  31.217  1.00  0.00    -0.237 OA
ATOM     79  O   UNL A   1      45.115  38.219  29.817  1.00  0.00    -0.744 OA
ENDBRANCH  75  76
ENDBRANCH  54  68
BRANCH  55  80
ATOM     80  C   UNL A   1      42.987  23.638  27.497  1.00  0.00     0.058 A 
ATOM     81  C   UNL A   1      42.803  23.350  26.137  1.00  0.00     0.135 A 
ATOM     82  C   UNL A   1      42.862  22.581  28.412  1.00  0.00     0.135 A 
ATOM     83  F   UNL A   1      42.899  24.329  25.224  1.00  0.00    -0.206 F 
ATOM     84  C   UNL A   1      42.486  22.066  25.701  1.00  0.00     0.059 A 
ATOM     85  C   UNL A   1      42.572  21.285  27.998  1.00  0.00     0.059 A 
ATOM     86  F   UNL A   1      43.039  22.801  29.724  1.00  0.00    -0.206 F 
ATOM     87  C   UNL A   1      42.373  21.040  26.641  1.00  0.00     0.060 A 
BRANCH  87  88
ATOM     88  S   UNL A   1      41.993  19.371  26.065  1.00  0.00     0.124 S 
ATOM     89  O   UNL A   1      42.384  18.568  27.219  1.00  0.00    -0.237 OA
ATOM     90  O   UNL A   1      40.561  19.455  25.801  1.00  0.00    -0.237 OA
ATOM     91  O   UNL A   1      42.834  19.226  24.881  1.00  0.00    -0.744 OA
ENDBRANCH  87  88
ENDBRANCH  55  80
BRANCH  67  92
ATOM     92  C   UNL A   1      48.906  27.264  28.260  1.00  0.00     0.058 A 
ATOM     93  C   UNL A   1      49.588  27.632  27.091  1.00  0.00     0.135 A 
ATOM     94  C   UNL A   1      49.639  26.628  29.276  1.00  0.00     0.135 A 
ATOM     95  F   UNL A   1      48.932  28.234  26.087  1.00  0.00    -0.206 F 
ATOM     96  C   UNL A   1      50.946  27.373  26.931  1.00  0.00     0.059 A 
ATOM     97  C   UNL A   1      51.002  26.383  29.147  1.00  0.00     0.059 A 
ATOM     98  F   UNL A   1      49.035  26.265  30.418  1.00  0.00    -0.206 F 
ATOM     99  C   UNL A   1      51.646  26.753  27.968  1.00  0.00     0.060 A 
BRANCH  99 100
ATOM    100  S   UNL A   1      53.420  26.478  27.771  1.00  0.00     0.124 S 
ATOM    101  O   UNL A   1      53.440  25.309  26.898  1.00  0.00    -0.237 OA
ATOM    102  O   UNL A   1      53.864  27.729  27.165  1.00  0.00    -0.237 OA
ATOM    103  O   UNL A   1      53.882  26.251  29.136  1.00  0.00    -0.744 OA
ENDBRANCH  99 100
ENDBRANCH  67  92
ENDBRANCH  41  42
ENDBRANCH  34  36
ENDBRANCH  33  34
ENDBRANCH  32  33
ENDBRANCH  31  32
ENDBRANCH  30  31
ENDBRANCH   1  30
TORSDOF 22
ENDMDL
MODEL 2
REMARK VINA RESULT:      -8.5      4.849     11.447
REMARK SMILES O=C(/C=C/c1ccc(C(=O)NC2CC2)cc1)NC1(C(=O)OCCOCCOC(=O)c2ccc(-c3c4nc(c(-c5c(F)cc(S(=O)(=O)[O-])cc5F)c5ccc([nH]5)c(-c5c(F)cc(S(=O)(=O)[O-])cc5F)c5nc(c(-c6c(F)cc(S(=O)(=O)[O-])cc6F)c6ccc3[nH]6)C=C5)C=C4)cc2)CCCC1
REMARK SMILES IDX 23 1 22 2 21 3 19 4 20 5 18 6 96 7 99 8 97 9 98 10 17 11
REMARK SMILES IDX 1 12 2 13 3 15 4 16 5 17 6 18 16 19 7 20 15 21 8 22 9 23
REMARK SMILES IDX 10 24 11 25 12 27 13 28 14 29 24 30 25 31 26 32 27 33 28 34
REMARK SMILES IDX 29 35 30 36 31 37 95 38 32 39 94 40 33 41 34 42 35 43 88 44
REMARK SMILES IDX 36 45 93 46 87 47 89 48 37 49 92 50 86 51 85 52 38 54 72 55
REMARK SMILES IDX 51 56 71 57 52 58 55 59 70 60 90 61 53 62 54 63 69 65 91 66
REMARK SMILES IDX 56 67 39 68 40 69 49 70 41 71 42 72 48 73 50 74 43 75 44 76
REMARK SMILES IDX 45 77 46 78 47 79 73 80 74 81 83 82 75 83 76 84 82 85 84 86
REMARK SMILES IDX 77 87 78 88 79 89 80 90 81 91 57 92 58 93 67 94 59 95 60 96
REMARK SMILES IDX 66 97 68 98 61 99 62 100 63 101 64 102 65 103
REMARK H PARENT 17 14 11 26 89 53 55 64
REMARK Flexibility Score: inf
ROOT
ATOM      1  C   UNL A   1      44.582  22.983  24.217  1.00  0.00     0.202 C 
ENDROOT
BRANCH   1   2
ATOM      2  C   UNL A   1      43.241  23.084  24.956  1.00  0.00     0.261 C 
BRANCH   2   3
ATOM      3  O   UNL A   1      43.278  24.143  25.927  1.00  0.00    -0.461 OA
BRANCH   3   4
ATOM      4  C   UNL A   1      42.391  25.153  25.706  1.00  0.00     0.331 C 
ATOM      5  O   UNL A   1      42.390  25.872  24.711  1.00  0.00    -0.249 OA
BRANCH   4   6
ATOM      6  C   UNL A   1      41.303  25.224  26.825  1.00  0.00     0.138 C 
ATOM      7  C   UNL A   1      41.047  26.714  27.114  1.00  0.00     0.040 C 
ATOM      8  C   UNL A   1      41.722  24.728  28.221  1.00  0.00     0.040 C 
ATOM      9  C   UNL A   1      42.201  27.116  28.021  1.00  0.00     0.003 C 
ATOM     10  C   UNL A   1      42.469  25.891  28.885  1.00  0.00     0.003 C 
BRANCH   6  11
ATOM     11  N   UNL A   1      40.049  24.586  26.362  1.00  0.00    -0.337 N 
ATOM     12  O   UNL A   1      40.653  22.440  26.894  1.00  0.00    -0.270 OA
ATOM     13  C   UNL A   1      39.820  23.248  26.502  1.00  0.00     0.244 C 
ATOM     14  H   UNL A   1      39.358  25.146  25.941  1.00  0.00     0.164 HD
BRANCH  13  15
ATOM     15  C   UNL A   1      38.501  22.713  26.107  1.00  0.00     0.072 C 
ATOM     16  C   UNL A   1      37.474  23.358  25.537  1.00  0.00     0.014 C 
BRANCH  16  17
ATOM     17  C   UNL A   1      36.165  22.708  25.346  1.00  0.00    -0.025 A 
ATOM     18  C   UNL A   1      35.668  21.834  26.316  1.00  0.00     0.009 A 
ATOM     19  C   UNL A   1      35.415  22.890  24.176  1.00  0.00     0.009 A 
ATOM     20  C   UNL A   1      34.458  21.155  26.108  1.00  0.00     0.014 A 
ATOM     21  C   UNL A   1      34.192  22.240  23.987  1.00  0.00     0.014 A 
ATOM     22  C   UNL A   1      33.716  21.330  24.928  1.00  0.00     0.039 A 
BRANCH  22  23
ATOM     23  C   UNL A   1      32.461  20.534  24.774  1.00  0.00     0.251 C 
ATOM     24  O   UNL A   1      31.394  21.023  25.150  1.00  0.00    -0.269 OA
ATOM     25  N   UNL A   1      32.435  19.251  24.266  1.00  0.00    -0.349 N 
ATOM     26  H   UNL A   1      31.540  18.839  24.247  1.00  0.00     0.164 HD
BRANCH  25  27
ATOM     27  C   UNL A   1      33.474  18.420  23.764  1.00  0.00     0.082 C 
ATOM     28  C   UNL A   1      34.131  17.361  24.605  1.00  0.00     0.027 C 
ATOM     29  C   UNL A   1      33.217  16.962  23.489  1.00  0.00     0.027 C 
ENDBRANCH  25  27
ENDBRANCH  22  23
ENDBRANCH  16  17
ENDBRANCH  13  15
ENDBRANCH   6  11
ENDBRANCH   4   6
ENDBRANCH   3   4
ENDBRANCH   2   3
ENDBRANCH   1   2
BRANCH   1  30
ATOM     30  O   UNL A   1      45.414  24.149  24.215  1.00  0.00    -0.374 OA
BRANCH  30  31
ATOM     31  C   UNL A   1      46.594  24.094  25.014  1.00  0.00     0.202 C 
BRANCH  31  32
ATOM     32  C   UNL A   1      47.692  25.105  24.670  1.00  0.00     0.261 C 
BRANCH  32  33
ATOM     33  O   UNL A   1      47.161  26.304  24.084  1.00  0.00    -0.460 OA
BRANCH  33  34
ATOM     34  C   UNL A   1      47.814  27.436  24.433  1.00  0.00     0.338 C 
ATOM     35  O   UNL A   1      48.784  27.935  23.873  1.00  0.00    -0.246 OA
BRANCH  34  36
ATOM     36  C   UNL A   1      47.085  28.119  25.514  1.00  0.00     0.060 A 
ATOM     37  C   UNL A   1      47.844  28.802  26.473  1.00  0.00     0.016 A 
ATOM     38  C   UNL A   1      45.695  28.055  25.618  1.00  0.00     0.016 A 
ATOM     39  C   UNL A   1      47.215  29.396  27.565  1.00  0.00     0.010 A 
ATOM     40  C   UNL A   1      45.068  28.636  26.724  1.00  0.00     0.010 A 
ATOM     41  C   UNL A   1      45.828  29.284  27.715  1.00  0.00    -0.014 A 
BRANCH  41  42
ATOM     42  C   UNL A   1      45.189  29.728  28.976  1.00  0.00     0.031 A 
ATOM     43  C   UNL A   1      44.654  31.130  29.062  1.00  0.00     0.074 A 
ATOM     44  C   UNL A   1      45.089  28.891  30.024  1.00  0.00     0.049 A 
ATOM     45  N   UNL A   1      44.125  31.752  30.082  1.00  0.00    -0.248 NA
ATOM     46  C   UNL A   1      44.726  31.941  27.835  1.00  0.00     0.031 C 
ATOM     47  C   UNL A   1      45.543  27.501  30.040  1.00  0.00     0.029 A 
ATOM     48  N   UNL A   1      44.589  29.097  31.285  1.00  0.00    -0.354 N 
ATOM     49  C   UNL A   1      43.819  33.030  29.629  1.00  0.00     0.074 A 
ATOM     50  C   UNL A   1      44.230  33.100  28.244  1.00  0.00     0.031 C 
ATOM     51  C   UNL A   1      45.327  26.987  31.263  1.00  0.00     0.029 A 
ATOM     52  C   UNL A   1      44.753  28.020  32.124  1.00  0.00     0.049 A 
ATOM     53  H   UNL A   1      44.154  29.935  31.563  1.00  0.00     0.167 HD
ATOM     54  C   UNL A   1      43.245  34.049  30.309  1.00  0.00     0.037 A 
ATOM     55  C   UNL A   1      44.503  27.896  33.442  1.00  0.00     0.037 A 
ATOM     56  C   UNL A   1      42.824  33.962  31.683  1.00  0.00     0.049 A 
ATOM     57  C   UNL A   1      43.917  29.066  34.192  1.00  0.00     0.074 A 
ATOM     58  C   UNL A   1      42.177  34.918  32.444  1.00  0.00     0.029 A 
ATOM     59  N   UNL A   1      43.022  32.862  32.504  1.00  0.00    -0.354 N 
ATOM     60  N   UNL A   1      43.582  30.251  33.738  1.00  0.00    -0.248 NA
ATOM     61  C   UNL A   1      43.683  28.887  35.632  1.00  0.00     0.031 C 
ATOM     62  C   UNL A   1      42.034  34.418  33.742  1.00  0.00     0.029 A 
ATOM     63  C   UNL A   1      42.548  33.131  33.776  1.00  0.00     0.049 A 
ATOM     64  H   UNL A   1      43.439  32.016  32.224  1.00  0.00     0.167 HD
ATOM     65  C   UNL A   1      43.082  30.950  34.832  1.00  0.00     0.074 A 
ATOM     66  C   UNL A   1      43.144  30.052  35.966  1.00  0.00     0.031 C 
ATOM     67  C   UNL A   1      42.616  32.223  34.893  1.00  0.00     0.037 A 
BRANCH  54  68
ATOM     68  C   UNL A   1      43.061  35.357  29.597  1.00  0.00     0.058 A 
ATOM     69  C   UNL A   1      44.087  36.311  29.517  1.00  0.00     0.135 A 
ATOM     70  C   UNL A   1      41.857  35.633  28.929  1.00  0.00     0.135 A 
ATOM     71  F   UNL A   1      45.251  36.106  30.153  1.00  0.00    -0.206 F 
ATOM     72  C   UNL A   1      43.922  37.498  28.810  1.00  0.00     0.059 A 
ATOM     73  C   UNL A   1      41.677  36.803  28.197  1.00  0.00     0.059 A 
ATOM     74  F   UNL A   1      40.841  34.757  28.977  1.00  0.00    -0.206 F 
ATOM     75  C   UNL A   1      42.714  37.733  28.149  1.00  0.00     0.060 A 
BRANCH  75  76
ATOM     76  S   UNL A   1      42.526  39.263  27.210  1.00  0.00     0.124 S 
ATOM     77  O   UNL A   1      43.844  39.390  26.593  1.00  0.00    -0.237 OA
ATOM     78  O   UNL A   1      41.431  38.940  26.301  1.00  0.00    -0.237 OA
ATOM     79  O   UNL A   1      42.216  40.256  28.234  1.00  0.00    -0.744 OA
ENDBRANCH  75  76
ENDBRANCH  54  68
BRANCH  55  80
ATOM     80  C   UNL A   1      44.849  26.635  34.152  1.00  0.00     0.058 A 
ATOM     81  C   UNL A   1      46.156  26.381  34.591  1.00  0.00     0.135 A 
ATOM     82  C   UNL A   1      43.876  25.651  34.389  1.00  0.00     0.135 A 
ATOM     83  F   UNL A   1      47.125  27.284  34.377  1.00  0.00    -0.206 F 
ATOM     84  C   UNL A   1      46.491  25.187  35.225  1.00  0.00     0.059 A 
ATOM     85  C   UNL A   1      44.181  24.463  35.044  1.00  0.00     0.059 A 
ATOM     86  F   UNL A   1      42.608  25.850  33.997  1.00  0.00    -0.206 F 
ATOM     87  C   UNL A   1      45.496  24.234  35.446  1.00  0.00     0.060 A 
BRANCH  87  88
ATOM     88  S   UNL A   1      45.931  22.702  36.298  1.00  0.00     0.124 S 
ATOM     89  O   UNL A   1      45.013  21.752  35.679  1.00  0.00    -0.237 OA
ATOM     90  O   UNL A   1      47.340  22.547  35.951  1.00  0.00    -0.237 OA
ATOM     91  O   UNL A   1      45.669  23.012  37.700  1.00  0.00    -0.744 OA
ENDBRANCH  87  88
ENDBRANCH  55  80
BRANCH  67  92
ATOM     92  C   UNL A   1      42.123  32.721  36.223  1.00  0.00     0.058 A 
ATOM     93  C   UNL A   1      42.963  33.424  37.099  1.00  0.00     0.135 A 
ATOM     94  C   UNL A   1      40.774  32.567  36.586  1.00  0.00     0.135 A 
ATOM     95  F   UNL A   1      44.261  33.591  36.802  1.00  0.00    -0.206 F 
ATOM     96  C   UNL A   1      42.486  33.950  38.295  1.00  0.00     0.059 A 
ATOM     97  C   UNL A   1      40.271  33.107  37.765  1.00  0.00     0.059 A 
ATOM     98  F   UNL A   1      39.927  31.912  35.777  1.00  0.00    -0.206 F 
ATOM     99  C   UNL A   1      41.137  33.792  38.617  1.00  0.00     0.060 A 
BRANCH  99 100
ATOM    100  S   UNL A   1      40.518  34.532  40.144  1.00  0.00     0.124 S 
ATOM    101  O   UNL A   1      39.208  35.019  39.724  1.00  0.00    -0.237 OA
ATOM    102  O   UNL A   1      40.509  33.396  41.060  1.00  0.00    -0.237 OA
ATOM    103  O   UNL A   1      41.506  35.564  40.445  1.00  0.00    -0.744 OA
ENDBRANCH  99 100
ENDBRANCH  67  92
ENDBRANCH  41  42
ENDBRANCH  34  36
ENDBRANCH  33  34
ENDBRANCH  32  33
ENDBRANCH  31  32
ENDBRANCH  30  31
ENDBRANCH   1  30
TORSDOF 22
ENDMDL
MODEL 3
REMARK VINA RESULT:      -8.4      4.862     11.999
REMARK SMILES O=C(/C=C/c1ccc(C(=O)NC2CC2)cc1)NC1(C(=O)OCCOCCOC(=O)c2ccc(-c3c4nc(c(-c5c(F)cc(S(=O)(=O)[O-])cc5F)c5ccc([nH]5)c(-c5c(F)cc(S(=O)(=O)[O-])cc5F)c5nc(c(-c6c(F)cc(S(=O)(=O)[O-])cc6F)c6ccc3[nH]6)C=C5)C=C4)cc2)CCCC1
REMARK SMILES IDX 23 1 22 2 21 3 19 4 20 5 18 6 96 7 99 8 97 9 98 10 17 11
REMARK SMILES IDX 1 12 2 13 3 15 4 16 5 17 6 18 16 19 7 20 15 21 8 22 9 23
REMARK SMILES IDX 10 24 11 25 12 27 13 28 14 29 24 30 25 31 26 32 27 33 28 34
REMARK SMILES IDX 29 35 30 36 31 37 95 38 32 39 94 40 33 41 34 42 35 43 88 44
REMARK SMILES IDX 36 45 93 46 87 47 89 48 37 49 92 50 86 51 85 52 38 54 72 55
REMARK SMILES IDX 51 56 71 57 52 58 55 59 70 60 90 61 53 62 54 63 69 65 91 66
REMARK SMILES IDX 56 67 39 68 40 69 49 70 41 71 42 72 48 73 50 74 43 75 44 76
REMARK SMILES IDX 45 77 46 78 47 79 73 80 74 81 83 82 75 83 76 84 82 85 84 86
REMARK SMILES IDX 77 87 78 88 79 89 80 90 81 91 57 92 58 93 67 94 59 95 60 96
REMARK SMILES IDX 66 97 68 98 61 99 62 100 63 101 64 102 65 103
REMARK H PARENT 17 14 11 26 89 53 55 64
REMARK Flexibility Score: inf
ROOT
ATOM      1  C   UNL A   1      46.083  23.698  25.878  1.00  0.00     0.202 C 
ENDROOT
BRANCH   1   2
ATOM      2  C   UNL A   1      45.329  22.376  26.080  1.00  0.00     0.261 C 
BRANCH   2   3
ATOM      3  O   UNL A   1      44.061  22.610  26.715  1.00  0.00    -0.461 OA
BRANCH   3   4
ATOM      4  C   UNL A   1      42.976  22.401  25.918  1.00  0.00     0.331 C 
ATOM      5  O   UNL A   1      43.029  22.194  24.709  1.00  0.00    -0.249 OA
BRANCH   4   6
ATOM      6  C   UNL A   1      41.651  22.351  26.745  1.00  0.00     0.138 C 
ATOM      7  C   UNL A   1      41.935  21.515  28.007  1.00  0.00     0.040 C 
ATOM      8  C   UNL A   1      40.487  21.553  26.129  1.00  0.00     0.040 C 
ATOM      9  C   UNL A   1      41.847  20.075  27.521  1.00  0.00     0.003 C 
ATOM     10  C   UNL A   1      40.746  20.081  26.469  1.00  0.00     0.003 C 
BRANCH   6  11
ATOM     11  N   UNL A   1      41.240  23.718  27.140  1.00  0.00    -0.337 N 
ATOM     12  O   UNL A   1      39.030  23.481  26.582  1.00  0.00    -0.270 OA
ATOM     13  C   UNL A   1      39.941  24.132  27.076  1.00  0.00     0.244 C 
ATOM     14  H   UNL A   1      41.926  24.348  27.458  1.00  0.00     0.164 HD
BRANCH  13  15
ATOM     15  C   UNL A   1      39.604  25.477  27.586  1.00  0.00     0.072 C 
ATOM     16  C   UNL A   1      40.204  26.177  28.559  1.00  0.00     0.014 C 
BRANCH  16  17
ATOM     17  C   UNL A   1      39.645  27.449  29.052  1.00  0.00    -0.025 A 
ATOM     18  C   UNL A   1      38.682  27.446  30.063  1.00  0.00     0.009 A 
ATOM     19  C   UNL A   1      40.008  28.680  28.489  1.00  0.00     0.009 A 
ATOM     20  C   UNL A   1      38.092  28.647  30.486  1.00  0.00     0.014 A 
ATOM     21  C   UNL A   1      39.446  29.879  28.937  1.00  0.00     0.014 A 
ATOM     22  C   UNL A   1      38.447  29.877  29.909  1.00  0.00     0.039 A 
BRANCH  22  23
ATOM     23  C   UNL A   1      37.737  31.100  30.392  1.00  0.00     0.251 C 
ATOM     24  O   UNL A   1      38.017  31.553  31.504  1.00  0.00    -0.269 OA
ATOM     25  N   UNL A   1      36.746  31.735  29.672  1.00  0.00    -0.349 N 
ATOM     26  H   UNL A   1      36.348  32.513  30.126  1.00  0.00     0.164 HD
BRANCH  25  27
ATOM     27  C   UNL A   1      36.198  31.461  28.388  1.00  0.00     0.082 C 
ATOM     28  C   UNL A   1      35.582  30.133  28.046  1.00  0.00     0.027 C 
ATOM     29  C   UNL A   1      34.708  31.338  28.207  1.00  0.00     0.027 C 
ENDBRANCH  25  27
ENDBRANCH  22  23
ENDBRANCH  16  17
ENDBRANCH  13  15
ENDBRANCH   6  11
ENDBRANCH   4   6
ENDBRANCH   3   4
ENDBRANCH   2   3
ENDBRANCH   1   2
BRANCH   1  30
ATOM     30  O   UNL A   1      45.716  24.488  24.742  1.00  0.00    -0.374 OA
BRANCH  30  31
ATOM     31  C   UNL A   1      45.030  25.710  25.007  1.00  0.00     0.202 C 
BRANCH  31  32
ATOM     32  C   UNL A   1      43.501  25.643  25.003  1.00  0.00     0.261 C 
BRANCH  32  33
ATOM     33  O   UNL A   1      42.911  26.674  25.812  1.00  0.00    -0.460 OA
BRANCH  33  34
ATOM     34  C   UNL A   1      43.319  26.677  27.102  1.00  0.00     0.338 C 
ATOM     35  O   UNL A   1      43.554  25.703  27.808  1.00  0.00    -0.246 OA
BRANCH  34  36
ATOM     36  C   UNL A   1      43.625  28.054  27.524  1.00  0.00     0.060 A 
ATOM     37  C   UNL A   1      44.358  28.219  28.707  1.00  0.00     0.016 A 
ATOM     38  C   UNL A   1      43.165  29.162  26.809  1.00  0.00     0.016 A 
ATOM     39  C   UNL A   1      44.605  29.498  29.200  1.00  0.00     0.010 A 
ATOM     40  C   UNL A   1      43.398  30.443  27.317  1.00  0.00     0.010 A 
ATOM     41  C   UNL A   1      44.095  30.614  28.527  1.00  0.00    -0.014 A 
BRANCH  41  42
ATOM     42  C   UNL A   1      44.174  31.951  29.161  1.00  0.00     0.031 A 
ATOM     43  C   UNL A   1      45.272  32.888  28.740  1.00  0.00     0.074 A 
ATOM     44  C   UNL A   1      43.280  32.320  30.095  1.00  0.00     0.049 A 
ATOM     45  N   UNL A   1      45.575  34.070  29.209  1.00  0.00    -0.248 NA
ATOM     46  C   UNL A   1      46.146  32.432  27.646  1.00  0.00     0.031 C 
ATOM     47  C   UNL A   1      42.156  31.505  30.555  1.00  0.00     0.029 A 
ATOM     48  N   UNL A   1      43.189  33.470  30.839  1.00  0.00    -0.354 N 
ATOM     49  C   UNL A   1      46.683  34.491  28.483  1.00  0.00     0.074 A 
ATOM     50  C   UNL A   1      47.007  33.435  27.549  1.00  0.00     0.031 C 
ATOM     51  C   UNL A   1      41.505  32.170  31.525  1.00  0.00     0.029 A 
ATOM     52  C   UNL A   1      42.184  33.439  31.777  1.00  0.00     0.049 A 
ATOM     53  H   UNL A   1      43.785  34.242  30.712  1.00  0.00     0.167 HD
ATOM     54  C   UNL A   1      47.365  35.655  28.588  1.00  0.00     0.037 A 
ATOM     55  C   UNL A   1      41.875  34.318  32.751  1.00  0.00     0.037 A 
ATOM     56  C   UNL A   1      47.023  36.707  29.510  1.00  0.00     0.049 A 
ATOM     57  C   UNL A   1      42.688  35.581  32.886  1.00  0.00     0.074 A 
ATOM     58  C   UNL A   1      47.613  37.949  29.652  1.00  0.00     0.029 A 
ATOM     59  N   UNL A   1      46.011  36.632  30.456  1.00  0.00    -0.354 N 
ATOM     60  N   UNL A   1      43.699  35.992  32.158  1.00  0.00    -0.248 NA
ATOM     61  C   UNL A   1      42.323  36.496  33.977  1.00  0.00     0.031 C 
ATOM     62  C   UNL A   1      46.995  38.605  30.721  1.00  0.00     0.029 A 
ATOM     63  C   UNL A   1      45.988  37.790  31.213  1.00  0.00     0.049 A 
ATOM     64  H   UNL A   1      45.401  35.869  30.572  1.00  0.00     0.167 HD
ATOM     65  C   UNL A   1      44.079  37.219  32.692  1.00  0.00     0.074 A 
ATOM     66  C   UNL A   1      43.180  37.492  33.794  1.00  0.00     0.031 C 
ATOM     67  C   UNL A   1      45.083  38.046  32.306  1.00  0.00     0.037 A 
BRANCH  54  68
ATOM     68  C   UNL A   1      48.567  35.850  27.710  1.00  0.00     0.058 A 
ATOM     69  C   UNL A   1      49.848  35.431  28.099  1.00  0.00     0.135 A 
ATOM     70  C   UNL A   1      48.420  36.411  26.430  1.00  0.00     0.135 A 
ATOM     71  F   UNL A   1      50.046  34.906  29.318  1.00  0.00    -0.206 F 
ATOM     72  C   UNL A   1      50.945  35.570  27.255  1.00  0.00     0.059 A 
ATOM     73  C   UNL A   1      49.499  36.540  25.561  1.00  0.00     0.059 A 
ATOM     74  F   UNL A   1      47.218  36.834  26.011  1.00  0.00    -0.206 F 
ATOM     75  C   UNL A   1      50.759  36.123  25.985  1.00  0.00     0.060 A 
BRANCH  75  76
ATOM     76  S   UNL A   1      52.187  36.269  24.890  1.00  0.00     0.124 S 
ATOM     77  O   UNL A   1      51.690  35.628  23.676  1.00  0.00    -0.237 OA
ATOM     78  O   UNL A   1      52.373  37.715  24.811  1.00  0.00    -0.237 OA
ATOM     79  O   UNL A   1      53.236  35.542  25.597  1.00  0.00    -0.744 OA
ENDBRANCH  75  76
ENDBRANCH  54  68
BRANCH  55  80
ATOM     80  C   UNL A   1      40.778  34.014  33.708  1.00  0.00     0.058 A 
ATOM     81  C   UNL A   1      41.035  33.401  34.943  1.00  0.00     0.135 A 
ATOM     82  C   UNL A   1      39.444  34.319  33.395  1.00  0.00     0.135 A 
ATOM     83  F   UNL A   1      42.291  33.078  35.284  1.00  0.00    -0.206 F 
ATOM     84  C   UNL A   1      40.006  33.084  35.827  1.00  0.00     0.059 A 
ATOM     85  C   UNL A   1      38.402  34.036  34.272  1.00  0.00     0.059 A 
ATOM     86  F   UNL A   1      39.145  34.914  32.230  1.00  0.00    -0.206 F 
ATOM     87  C   UNL A   1      38.693  33.406  35.481  1.00  0.00     0.060 A 
BRANCH  87  88
ATOM     88  S   UNL A   1      37.367  33.021  36.646  1.00  0.00     0.124 S 
ATOM     89  O   UNL A   1      37.774  33.792  37.816  1.00  0.00    -0.237 OA
ATOM     90  O   UNL A   1      36.187  33.508  35.939  1.00  0.00    -0.237 OA
ATOM     91  O   UNL A   1      37.453  31.571  36.783  1.00  0.00    -0.744 OA
ENDBRANCH  87  88
ENDBRANCH  55  80
BRANCH  67  92
ATOM     92  C   UNL A   1      45.261  39.329  33.068  1.00  0.00     0.058 A 
ATOM     93  C   UNL A   1      44.496  40.467  32.773  1.00  0.00     0.135 A 
ATOM     94  C   UNL A   1      46.145  39.395  34.158  1.00  0.00     0.135 A 
ATOM     95  F   UNL A   1      43.643  40.458  31.737  1.00  0.00    -0.206 F 
ATOM     96  C   UNL A   1      44.608  41.631  33.527  1.00  0.00     0.059 A 
ATOM     97  C   UNL A   1      46.254  40.540  34.940  1.00  0.00     0.059 A 
ATOM     98  F   UNL A   1      46.892  38.330  34.487  1.00  0.00    -0.206 F 
ATOM     99  C   UNL A   1      45.485  41.656  34.612  1.00  0.00     0.060 A 
BRANCH  99 100
ATOM    100  S   UNL A   1      45.575  43.153  35.618  1.00  0.00     0.124 S 
ATOM    101  O   UNL A   1      45.065  44.160  34.693  1.00  0.00    -0.237 OA
ATOM    102  O   UNL A   1      44.705  42.827  36.743  1.00  0.00    -0.237 OA
ATOM    103  O   UNL A   1      46.994  43.260  35.942  1.00  0.00    -0.744 OA
ENDBRANCH  99 100
ENDBRANCH  67  92
ENDBRANCH  41  42
ENDBRANCH  34  36
ENDBRANCH  33  34
ENDBRANCH  32  33
ENDBRANCH  31  32
ENDBRANCH  30  31
ENDBRANCH   1  30
TORSDOF 22
ENDMDL
