MODEL 1
REMARK VINA RESULT:     -12.1      0.000      0.000
REMARK SMILES Cc1ccc(Nc2c(Cl)cc(Cl)cc2Cl)c(CC(=O)OCCOCCOC(=O)c2ccc(-c3c4nc(c(-c5c(F)cc(S(=O)(=O)[O-])cc5F)c5ccc([nH]5)c(-c5c(F)cc(S(=O)(=O)[O-])cc5F)c5nc(c(-c6c(F)cc(S(=O)(=O)[O-])cc6F)c6ccc3[nH]6)C=C5)C=C4)cc2)c1
REMARK SMILES IDX 23 1 22 2 21 3 20 4 18 5 19 6 17 7 16 8 1 9 2 10 3 11 95 12
REMARK SMILES IDX 4 13 5 14 6 15 7 17 8 18 14 19 9 20 10 21 13 22 15 23 11 24
REMARK SMILES IDX 12 25 24 26 25 27 26 28 27 29 28 30 29 31 30 32 94 33 31 34
REMARK SMILES IDX 93 35 32 36 33 37 34 38 87 39 35 40 92 41 86 42 88 43 36 44
REMARK SMILES IDX 91 45 85 46 84 47 37 49 71 50 50 51 70 52 51 53 54 54 69 55
REMARK SMILES IDX 89 56 52 57 53 58 68 60 90 61 55 62 38 63 39 64 48 65 40 66
REMARK SMILES IDX 41 67 47 68 49 69 42 70 43 71 44 72 45 73 46 74 72 75 73 76
REMARK SMILES IDX 82 77 74 78 75 79 81 80 83 81 76 82 77 83 78 84 79 85 80 86
REMARK SMILES IDX 56 87 57 88 66 89 58 90 59 91 65 92 67 93 60 94 61 95 62 96
REMARK SMILES IDX 63 97 64 98
REMARK H PARENT 6 16 88 48 54 59
REMARK Flexibility Score: inf
ROOT
ATOM      1  O   UNL A   1      31.525  28.645  25.804  1.00  0.00    -0.374 OA
ENDROOT
BRANCH   1   2
ATOM      2  C   UNL A   1      31.751  27.689  24.792  1.00  0.00     0.202 C 
BRANCH   2   3
ATOM      3  C   UNL A   1      33.084  27.042  25.095  1.00  0.00     0.261 C 
BRANCH   3   4
ATOM      4  O   UNL A   1      33.769  26.606  23.935  1.00  0.00    -0.463 OA
BRANCH   4   5
ATOM      5  C   UNL A   1      33.993  25.261  23.778  1.00  0.00     0.310 C 
ATOM      6  O   UNL A   1      34.328  24.683  22.766  1.00  0.00    -0.252 OA
BRANCH   5   7
ATOM      7  C   UNL A   1      33.729  24.538  25.092  1.00  0.00     0.160 C 
BRANCH   7   8
ATOM      8  C   UNL A   1      34.840  23.532  25.352  1.00  0.00    -0.013 A 
ATOM      9  C   UNL A   1      38.529  24.173  26.134  1.00  0.00     0.044 C 
ATOM     10  C   UNL A   1      37.262  23.473  25.743  1.00  0.00    -0.051 A 
ATOM     11  C   UNL A   1      37.298  22.234  25.112  1.00  0.00     0.005 A 
ATOM     12  C   UNL A   1      36.023  24.084  25.918  1.00  0.00     0.009 A 
ATOM     13  C   UNL A   1      36.123  21.648  24.622  1.00  0.00     0.026 A 
ATOM     14  C   UNL A   1      34.867  22.278  24.707  1.00  0.00     0.042 A 
BRANCH  14  15
ATOM     15  N   UNL A   1      33.700  21.698  24.130  1.00  0.00    -0.353 N 
ATOM     16  H   UNL A   1      33.264  22.232  23.426  1.00  0.00     0.167 HD
BRANCH  15  17
ATOM     17  C   UNL A   1      33.078  20.453  24.432  1.00  0.00     0.076 A 
ATOM     18  C   UNL A   1      33.129  19.866  25.710  1.00  0.00     0.067 A 
ATOM     19  C   UNL A   1      32.535  19.655  23.400  1.00  0.00     0.067 A 
ATOM     20  Cl  UNL A   1      33.360  20.820  27.141  1.00  0.00    -0.082 Cl
ATOM     21  C   UNL A   1      32.903  18.500  25.892  1.00  0.00     0.043 A 
ATOM     22  C   UNL A   1      32.358  18.276  23.559  1.00  0.00     0.043 A 
ATOM     23  Cl  UNL A   1      31.955  20.363  21.933  1.00  0.00    -0.082 Cl
ATOM     24  C   UNL A   1      32.587  17.700  24.801  1.00  0.00     0.044 A 
ATOM     25  Cl  UNL A   1      32.409  16.004  25.014  1.00  0.00    -0.084 Cl
ENDBRANCH  15  17
ENDBRANCH  14  15
ENDBRANCH   7   8
ENDBRANCH   5   7
ENDBRANCH   4   5
ENDBRANCH   3   4
ENDBRANCH   2   3
ENDBRANCH   1   2
BRANCH   1  26
ATOM     26  C   UNL A   1      31.772  29.979  25.437  1.00  0.00     0.202 C 
BRANCH  26  27
ATOM     27  C   UNL A   1      32.521  30.665  26.570  1.00  0.00     0.261 C 
BRANCH  27  28
ATOM     28  O   UNL A   1      33.790  30.029  26.865  1.00  0.00    -0.460 OA
BRANCH  28  29
ATOM     29  C   UNL A   1      34.780  30.832  27.366  1.00  0.00     0.338 C 
ATOM     30  O   UNL A   1      34.681  32.046  27.449  1.00  0.00    -0.246 OA
BRANCH  29  31
ATOM     31  C   UNL A   1      35.878  30.050  27.990  1.00  0.00     0.060 A 
ATOM     32  C   UNL A   1      35.794  29.622  29.325  1.00  0.00     0.016 A 
ATOM     33  C   UNL A   1      37.069  29.907  27.282  1.00  0.00     0.016 A 
ATOM     34  C   UNL A   1      36.950  29.212  30.005  1.00  0.00     0.010 A 
ATOM     35  C   UNL A   1      38.218  29.605  27.982  1.00  0.00     0.010 A 
ATOM     36  C   UNL A   1      38.176  29.276  29.350  1.00  0.00    -0.014 A 
BRANCH  36  37
ATOM     37  C   UNL A   1      39.498  29.051  29.934  1.00  0.00     0.031 A 
ATOM     38  C   UNL A   1      40.213  27.811  29.554  1.00  0.00     0.074 A 
ATOM     39  C   UNL A   1      40.177  30.043  30.553  1.00  0.00     0.049 A 
ATOM     40  N   UNL A   1      41.412  27.539  29.921  1.00  0.00    -0.248 NA
ATOM     41  C   UNL A   1      39.623  26.742  28.746  1.00  0.00     0.031 C 
ATOM     42  C   UNL A   1      41.626  30.255  30.613  1.00  0.00     0.029 A 
ATOM     43  N   UNL A   1      39.706  31.114  31.275  1.00  0.00    -0.354 N 
ATOM     44  C   UNL A   1      41.866  26.502  29.150  1.00  0.00     0.074 A 
ATOM     45  C   UNL A   1      40.688  25.962  28.523  1.00  0.00     0.031 C 
ATOM     46  C   UNL A   1      41.908  31.217  31.511  1.00  0.00     0.029 A 
ATOM     47  C   UNL A   1      40.665  31.567  32.175  1.00  0.00     0.049 A 
ATOM     48  H   UNL A   1      38.809  31.509  31.170  1.00  0.00     0.167 HD
ATOM     49  C   UNL A   1      43.213  26.325  29.072  1.00  0.00     0.037 A 
ATOM     50  C   UNL A   1      40.402  31.484  33.515  1.00  0.00     0.037 A 
ATOM     51  C   UNL A   1      43.889  27.114  30.116  1.00  0.00     0.049 A 
ATOM     52  C   UNL A   1      41.206  30.348  34.135  1.00  0.00     0.074 A 
ATOM     53  C   UNL A   1      44.668  28.256  30.156  1.00  0.00     0.029 A 
ATOM     54  N   UNL A   1      43.516  26.873  31.431  1.00  0.00    -0.354 N 
ATOM     55  N   UNL A   1      42.029  29.610  33.437  1.00  0.00    -0.248 NA
ATOM     56  C   UNL A   1      41.172  29.926  35.534  1.00  0.00     0.031 C 
ATOM     57  C   UNL A   1      44.666  28.739  31.511  1.00  0.00     0.029 A 
ATOM     58  C   UNL A   1      43.925  27.868  32.296  1.00  0.00     0.049 A 
ATOM     59  H   UNL A   1      43.013  26.077  31.717  1.00  0.00     0.167 HD
ATOM     60  C   UNL A   1      42.608  28.656  34.204  1.00  0.00     0.074 A 
ATOM     61  C   UNL A   1      42.012  28.870  35.517  1.00  0.00     0.031 C 
ATOM     62  C   UNL A   1      43.527  27.776  33.702  1.00  0.00     0.037 A 
BRANCH  49  63
ATOM     63  C   UNL A   1      43.936  25.527  28.012  1.00  0.00     0.058 A 
ATOM     64  C   UNL A   1      43.955  25.992  26.680  1.00  0.00     0.135 A 
ATOM     65  C   UNL A   1      44.532  24.257  28.201  1.00  0.00     0.135 A 
ATOM     66  F   UNL A   1      43.412  27.174  26.353  1.00  0.00    -0.206 F 
ATOM     67  C   UNL A   1      44.509  25.261  25.625  1.00  0.00     0.059 A 
ATOM     68  C   UNL A   1      45.132  23.528  27.168  1.00  0.00     0.059 A 
ATOM     69  F   UNL A   1      44.511  23.626  29.380  1.00  0.00    -0.206 F 
ATOM     70  C   UNL A   1      45.098  24.029  25.877  1.00  0.00     0.060 A 
BRANCH  70  71
ATOM     71  S   UNL A   1      45.783  23.087  24.503  1.00  0.00     0.124 S 
ATOM     72  O   UNL A   1      46.399  21.955  25.190  1.00  0.00    -0.237 OA
ATOM     73  O   UNL A   1      44.595  22.781  23.713  1.00  0.00    -0.237 OA
ATOM     74  O   UNL A   1      46.718  24.020  23.880  1.00  0.00    -0.744 OA
ENDBRANCH  70  71
ENDBRANCH  49  63
BRANCH  50  75
ATOM     75  C   UNL A   1      38.988  31.926  33.778  1.00  0.00     0.058 A 
ATOM     76  C   UNL A   1      38.741  33.314  33.625  1.00  0.00     0.135 A 
ATOM     77  C   UNL A   1      37.897  31.067  33.557  1.00  0.00     0.135 A 
ATOM     78  F   UNL A   1      39.745  34.191  33.793  1.00  0.00    -0.206 F 
ATOM     79  C   UNL A   1      37.539  33.808  33.113  1.00  0.00     0.059 A 
ATOM     80  C   UNL A   1      36.679  31.548  33.046  1.00  0.00     0.059 A 
ATOM     81  F   UNL A   1      38.061  29.738  33.641  1.00  0.00    -0.206 F 
ATOM     82  C   UNL A   1      36.525  32.914  32.787  1.00  0.00     0.060 A 
BRANCH  82  83
ATOM     83  S   UNL A   1      35.085  33.539  31.864  1.00  0.00     0.124 S 
ATOM     84  O   UNL A   1      35.401  33.122  30.505  1.00  0.00    -0.237 OA
ATOM     85  O   UNL A   1      33.971  32.835  32.495  1.00  0.00    -0.237 OA
ATOM     86  O   UNL A   1      35.133  34.973  32.120  1.00  0.00    -0.744 OA
ENDBRANCH  82  83
ENDBRANCH  50  75
BRANCH  62  87
ATOM     87  C   UNL A   1      44.110  26.706  34.565  1.00  0.00     0.058 A 
ATOM     88  C   UNL A   1      45.438  26.760  35.007  1.00  0.00     0.135 A 
ATOM     89  C   UNL A   1      43.362  25.570  34.941  1.00  0.00     0.135 A 
ATOM     90  F   UNL A   1      46.253  27.753  34.615  1.00  0.00    -0.206 F 
ATOM     91  C   UNL A   1      45.957  25.811  35.878  1.00  0.00     0.059 A 
ATOM     92  C   UNL A   1      43.884  24.569  35.744  1.00  0.00     0.059 A 
ATOM     93  F   UNL A   1      42.076  25.419  34.590  1.00  0.00    -0.206 F 
ATOM     94  C   UNL A   1      45.166  24.727  36.251  1.00  0.00     0.060 A 
BRANCH  94  95
ATOM     95  S   UNL A   1      45.809  23.531  37.425  1.00  0.00     0.124 S 
ATOM     96  O   UNL A   1      47.229  23.870  37.474  1.00  0.00    -0.237 OA
ATOM     97  O   UNL A   1      45.039  23.861  38.619  1.00  0.00    -0.237 OA
ATOM     98  O   UNL A   1      45.498  22.247  36.806  1.00  0.00    -0.744 OA
ENDBRANCH  94  95
ENDBRANCH  62  87
ENDBRANCH  36  37
ENDBRANCH  29  31
ENDBRANCH  28  29
ENDBRANCH  27  28
ENDBRANCH  26  27
ENDBRANCH   1  26
TORSDOF 20
ENDMDL
MODEL 2
REMARK VINA RESULT:     -11.6      3.974      9.992
REMARK SMILES Cc1ccc(Nc2c(Cl)cc(Cl)cc2Cl)c(CC(=O)OCCOCCOC(=O)c2ccc(-c3c4nc(c(-c5c(F)cc(S(=O)(=O)[O-])cc5F)c5ccc([nH]5)c(-c5c(F)cc(S(=O)(=O)[O-])cc5F)c5nc(c(-c6c(F)cc(S(=O)(=O)[O-])cc6F)c6ccc3[nH]6)C=C5)C=C4)cc2)c1
REMARK SMILES IDX 23 1 22 2 21 3 20 4 18 5 19 6 17 7 16 8 1 9 2 10 3 11 95 12
REMARK SMILES IDX 4 13 5 14 6 15 7 17 8 18 14 19 9 20 10 21 13 22 15 23 11 24
REMARK SMILES IDX 12 25 24 26 25 27 26 28 27 29 28 30 29 31 30 32 94 33 31 34
REMARK SMILES IDX 93 35 32 36 33 37 34 38 87 39 35 40 92 41 86 42 88 43 36 44
REMARK SMILES IDX 91 45 85 46 84 47 37 49 71 50 50 51 70 52 51 53 54 54 69 55
REMARK SMILES IDX 89 56 52 57 53 58 68 60 90 61 55 62 38 63 39 64 48 65 40 66
REMARK SMILES IDX 41 67 47 68 49 69 42 70 43 71 44 72 45 73 46 74 72 75 73 76
REMARK SMILES IDX 82 77 74 78 75 79 81 80 83 81 76 82 77 83 78 84 79 85 80 86
REMARK SMILES IDX 56 87 57 88 66 89 58 90 59 91 65 92 67 93 60 94 61 95 62 96
REMARK SMILES IDX 63 97 64 98
REMARK H PARENT 6 16 88 48 54 59
REMARK Flexibility Score: inf
ROOT
ATOM      1  O   UNL A   1      34.961  23.513  24.777  1.00  0.00    -0.374 OA
ENDROOT
BRANCH   1   2
ATOM      2  C   UNL A   1      34.452  23.719  26.076  1.00  0.00     0.202 C 
BRANCH   2   3
ATOM      3  C   UNL A   1      33.836  25.100  26.087  1.00  0.00     0.261 C 
BRANCH   3   4
ATOM      4  O   UNL A   1      32.420  25.080  26.033  1.00  0.00    -0.463 OA
BRANCH   4   5
ATOM      5  C   UNL A   1      31.756  24.104  26.733  1.00  0.00     0.310 C 
ATOM      6  O   UNL A   1      32.042  23.655  27.822  1.00  0.00    -0.252 OA
BRANCH   5   7
ATOM      7  C   UNL A   1      30.566  23.607  25.922  1.00  0.00     0.160 C 
BRANCH   7   8
ATOM      8  C   UNL A   1      31.053  22.671  24.827  1.00  0.00    -0.013 A 
ATOM      9  C   UNL A   1      33.488  19.732  25.082  1.00  0.00     0.044 C 
ATOM     10  C   UNL A   1      32.635  20.823  24.506  1.00  0.00    -0.051 A 
ATOM     11  C   UNL A   1      32.815  21.251  23.196  1.00  0.00     0.005 A 
ATOM     12  C   UNL A   1      31.705  21.496  25.294  1.00  0.00     0.009 A 
ATOM     13  C   UNL A   1      32.116  22.362  22.705  1.00  0.00     0.026 A 
ATOM     14  C   UNL A   1      31.232  23.116  23.500  1.00  0.00     0.042 A 
BRANCH  14  15
ATOM     15  N   UNL A   1      30.594  24.289  23.002  1.00  0.00    -0.353 N 
ATOM     16  H   UNL A   1      29.736  24.142  22.542  1.00  0.00     0.167 HD
BRANCH  15  17
ATOM     17  C   UNL A   1      31.027  25.643  23.079  1.00  0.00     0.076 A 
ATOM     18  C   UNL A   1      32.290  26.066  22.625  1.00  0.00     0.067 A 
ATOM     19  C   UNL A   1      30.271  26.598  23.795  1.00  0.00     0.067 A 
ATOM     20  Cl  UNL A   1      33.154  25.195  21.397  1.00  0.00    -0.082 Cl
ATOM     21  C   UNL A   1      32.864  27.256  23.075  1.00  0.00     0.043 A 
ATOM     22  C   UNL A   1      30.854  27.767  24.296  1.00  0.00     0.043 A 
ATOM     23  Cl  UNL A   1      28.561  26.423  23.986  1.00  0.00    -0.082 Cl
ATOM     24  C   UNL A   1      32.169  28.066  23.964  1.00  0.00     0.044 A 
ATOM     25  Cl  UNL A   1      32.920  29.479  24.594  1.00  0.00    -0.084 Cl
ENDBRANCH  15  17
ENDBRANCH  14  15
ENDBRANCH   7   8
ENDBRANCH   5   7
ENDBRANCH   4   5
ENDBRANCH   3   4
ENDBRANCH   2   3
ENDBRANCH   1   2
BRANCH   1  26
ATOM     26  C   UNL A   1      36.360  23.565  24.663  1.00  0.00     0.202 C 
BRANCH  26  27
ATOM     27  C   UNL A   1      36.961  22.467  25.526  1.00  0.00     0.261 C 
BRANCH  27  28
ATOM     28  O   UNL A   1      38.400  22.364  25.377  1.00  0.00    -0.460 OA
BRANCH  28  29
ATOM     29  C   UNL A   1      39.152  22.546  26.507  1.00  0.00     0.338 C 
ATOM     30  O   UNL A   1      39.678  21.628  27.117  1.00  0.00    -0.246 OA
BRANCH  29  31
ATOM     31  C   UNL A   1      39.430  23.980  26.774  1.00  0.00     0.060 A 
ATOM     32  C   UNL A   1      40.120  24.770  25.839  1.00  0.00     0.016 A 
ATOM     33  C   UNL A   1      39.156  24.479  28.045  1.00  0.00     0.016 A 
ATOM     34  C   UNL A   1      40.687  25.991  26.233  1.00  0.00     0.010 A 
ATOM     35  C   UNL A   1      39.802  25.626  28.456  1.00  0.00     0.010 A 
ATOM     36  C   UNL A   1      40.589  26.380  27.566  1.00  0.00    -0.014 A 
BRANCH  36  37
ATOM     37  C   UNL A   1      41.247  27.524  28.198  1.00  0.00     0.031 A 
ATOM     38  C   UNL A   1      40.451  28.759  28.377  1.00  0.00     0.074 A 
ATOM     39  C   UNL A   1      42.417  27.390  28.860  1.00  0.00     0.049 A 
ATOM     40  N   UNL A   1      40.877  29.798  28.997  1.00  0.00    -0.248 NA
ATOM     41  C   UNL A   1      39.102  28.949  27.838  1.00  0.00     0.031 C 
ATOM     42  C   UNL A   1      42.892  28.134  30.030  1.00  0.00     0.029 A 
ATOM     43  N   UNL A   1      43.464  26.528  28.631  1.00  0.00    -0.354 N 
ATOM     44  C   UNL A   1      39.804  30.611  29.250  1.00  0.00     0.074 A 
ATOM     45  C   UNL A   1      38.749  30.105  28.410  1.00  0.00     0.031 C 
ATOM     46  C   UNL A   1      44.193  27.863  30.245  1.00  0.00     0.029 A 
ATOM     47  C   UNL A   1      44.653  27.044  29.136  1.00  0.00     0.049 A 
ATOM     48  H   UNL A   1      43.384  25.660  28.172  1.00  0.00     0.167 HD
ATOM     49  C   UNL A   1      39.942  31.538  30.236  1.00  0.00     0.037 A 
ATOM     50  C   UNL A   1      45.664  27.341  28.265  1.00  0.00     0.037 A 
ATOM     51  C   UNL A   1      41.361  31.677  30.606  1.00  0.00     0.049 A 
ATOM     52  C   UNL A   1      45.772  28.850  28.084  1.00  0.00     0.074 A 
ATOM     53  C   UNL A   1      42.150  31.323  31.684  1.00  0.00     0.029 A 
ATOM     54  N   UNL A   1      42.247  32.016  29.593  1.00  0.00    -0.354 N 
ATOM     55  N   UNL A   1      44.993  29.688  28.717  1.00  0.00    -0.248 NA
ATOM     56  C   UNL A   1      46.708  29.553  27.210  1.00  0.00     0.031 C 
ATOM     57  C   UNL A   1      43.523  31.367  31.254  1.00  0.00     0.029 A 
ATOM     58  C   UNL A   1      43.564  31.788  29.934  1.00  0.00     0.049 A 
ATOM     59  H   UNL A   1      41.966  32.380  28.723  1.00  0.00     0.167 HD
ATOM     60  C   UNL A   1      45.266  30.970  28.374  1.00  0.00     0.074 A 
ATOM     61  C   UNL A   1      46.336  30.837  27.393  1.00  0.00     0.031 C 
ATOM     62  C   UNL A   1      44.598  32.029  28.924  1.00  0.00     0.037 A 
BRANCH  49  63
ATOM     63  C   UNL A   1      38.810  32.253  30.938  1.00  0.00     0.058 A 
ATOM     64  C   UNL A   1      38.395  31.819  32.214  1.00  0.00     0.135 A 
ATOM     65  C   UNL A   1      38.020  33.288  30.382  1.00  0.00     0.135 A 
ATOM     66  F   UNL A   1      39.042  30.832  32.853  1.00  0.00    -0.206 F 
ATOM     67  C   UNL A   1      37.290  32.356  32.880  1.00  0.00     0.059 A 
ATOM     68  C   UNL A   1      36.939  33.872  31.050  1.00  0.00     0.059 A 
ATOM     69  F   UNL A   1      38.215  33.748  29.141  1.00  0.00    -0.206 F 
ATOM     70  C   UNL A   1      36.566  33.386  32.293  1.00  0.00     0.060 A 
BRANCH  70  71
ATOM     71  S   UNL A   1      35.129  34.050  33.152  1.00  0.00     0.124 S 
ATOM     72  O   UNL A   1      35.136  33.278  34.391  1.00  0.00    -0.237 OA
ATOM     73  O   UNL A   1      35.471  35.463  33.281  1.00  0.00    -0.237 OA
ATOM     74  O   UNL A   1      34.023  33.760  32.244  1.00  0.00    -0.744 OA
ENDBRANCH  70  71
ENDBRANCH  49  63
BRANCH  50  75
ATOM     75  C   UNL A   1      45.802  26.232  27.257  1.00  0.00     0.058 A 
ATOM     76  C   UNL A   1      46.140  24.961  27.787  1.00  0.00     0.135 A 
ATOM     77  C   UNL A   1      45.070  26.237  26.057  1.00  0.00     0.135 A 
ATOM     78  F   UNL A   1      46.813  24.880  28.947  1.00  0.00    -0.206 F 
ATOM     79  C   UNL A   1      45.634  23.772  27.258  1.00  0.00     0.059 A 
ATOM     80  C   UNL A   1      44.558  25.049  25.508  1.00  0.00     0.059 A 
ATOM     81  F   UNL A   1      44.676  27.399  25.515  1.00  0.00    -0.206 F 
ATOM     82  C   UNL A   1      44.809  23.826  26.139  1.00  0.00     0.060 A 
BRANCH  82  83
ATOM     83  S   UNL A   1      43.935  22.311  25.635  1.00  0.00     0.124 S 
ATOM     84  O   UNL A   1      43.154  22.783  24.500  1.00  0.00    -0.237 OA
ATOM     85  O   UNL A   1      45.032  21.403  25.308  1.00  0.00    -0.237 OA
ATOM     86  O   UNL A   1      43.178  21.959  26.830  1.00  0.00    -0.744 OA
ENDBRANCH  82  83
ENDBRANCH  50  75
BRANCH  62  87
ATOM     87  C   UNL A   1      44.892  33.427  28.488  1.00  0.00     0.058 A 
ATOM     88  C   UNL A   1      44.458  33.917  27.249  1.00  0.00     0.135 A 
ATOM     89  C   UNL A   1      45.656  34.305  29.285  1.00  0.00     0.135 A 
ATOM     90  F   UNL A   1      43.811  33.119  26.383  1.00  0.00    -0.206 F 
ATOM     91  C   UNL A   1      44.656  35.240  26.877  1.00  0.00     0.059 A 
ATOM     92  C   UNL A   1      45.935  35.605  28.898  1.00  0.00     0.059 A 
ATOM     93  F   UNL A   1      46.110  33.950  30.496  1.00  0.00    -0.206 F 
ATOM     94  C   UNL A   1      45.384  36.078  27.717  1.00  0.00     0.060 A 
BRANCH  94  95
ATOM     95  S   UNL A   1      45.590  37.805  27.271  1.00  0.00     0.124 S 
ATOM     96  O   UNL A   1      46.525  37.732  26.151  1.00  0.00    -0.237 OA
ATOM     97  O   UNL A   1      44.221  38.176  26.928  1.00  0.00    -0.237 OA
ATOM     98  O   UNL A   1      46.123  38.409  28.487  1.00  0.00    -0.744 OA
ENDBRANCH  94  95
ENDBRANCH  62  87
ENDBRANCH  36  37
ENDBRANCH  29  31
ENDBRANCH  28  29
ENDBRANCH  27  28
ENDBRANCH  26  27
ENDBRANCH   1  26
TORSDOF 20
ENDMDL
MODEL 3
REMARK VINA RESULT:     -11.2      2.762      4.470
REMARK SMILES Cc1ccc(Nc2c(Cl)cc(Cl)cc2Cl)c(CC(=O)OCCOCCOC(=O)c2ccc(-c3c4nc(c(-c5c(F)cc(S(=O)(=O)[O-])cc5F)c5ccc([nH]5)c(-c5c(F)cc(S(=O)(=O)[O-])cc5F)c5nc(c(-c6c(F)cc(S(=O)(=O)[O-])cc6F)c6ccc3[nH]6)C=C5)C=C4)cc2)c1
REMARK SMILES IDX 23 1 22 2 21 3 20 4 18 5 19 6 17 7 16 8 1 9 2 10 3 11 95 12
REMARK SMILES IDX 4 13 5 14 6 15 7 17 8 18 14 19 9 20 10 21 13 22 15 23 11 24
REMARK SMILES IDX 12 25 24 26 25 27 26 28 27 29 28 30 29 31 30 32 94 33 31 34
REMARK SMILES IDX 93 35 32 36 33 37 34 38 87 39 35 40 92 41 86 42 88 43 36 44
REMARK SMILES IDX 91 45 85 46 84 47 37 49 71 50 50 51 70 52 51 53 54 54 69 55
REMARK SMILES IDX 89 56 52 57 53 58 68 60 90 61 55 62 38 63 39 64 48 65 40 66
REMARK SMILES IDX 41 67 47 68 49 69 42 70 43 71 44 72 45 73 46 74 72 75 73 76
REMARK SMILES IDX 82 77 74 78 75 79 81 80 83 81 76 82 77 83 78 84 79 85 80 86
REMARK SMILES IDX 56 87 57 88 66 89 58 90 59 91 65 92 67 93 60 94 61 95 62 96
REMARK SMILES IDX 63 97 64 98
REMARK H PARENT 6 16 88 48 54 59
REMARK Flexibility Score: inf
ROOT
ATOM      1  O   UNL A   1      33.469  31.293  26.997  1.00  0.00    -0.374 OA
ENDROOT
BRANCH   1   2
ATOM      2  C   UNL A   1      32.229  30.620  27.030  1.00  0.00     0.202 C 
BRANCH   2   3
ATOM      3  C   UNL A   1      32.528  29.150  26.841  1.00  0.00     0.261 C 
BRANCH   3   4
ATOM      4  O   UNL A   1      32.054  28.638  25.608  1.00  0.00    -0.463 OA
BRANCH   4   5
ATOM      5  C   UNL A   1      32.861  28.748  24.504  1.00  0.00     0.310 C 
ATOM      6  O   UNL A   1      33.528  29.704  24.171  1.00  0.00    -0.252 OA
BRANCH   5   7
ATOM      7  C   UNL A   1      32.791  27.466  23.685  1.00  0.00     0.160 C 
BRANCH   7   8
ATOM      8  C   UNL A   1      31.342  27.026  23.550  1.00  0.00    -0.013 A 
ATOM      9  C   UNL A   1      28.279  29.104  22.582  1.00  0.00     0.044 C 
ATOM     10  C   UNL A   1      29.126  27.983  23.107  1.00  0.00    -0.051 A 
ATOM     11  C   UNL A   1      28.576  26.994  23.915  1.00  0.00     0.005 A 
ATOM     12  C   UNL A   1      30.498  27.953  22.876  1.00  0.00     0.009 A 
ATOM     13  C   UNL A   1      29.394  26.029  24.520  1.00  0.00     0.026 A 
ATOM     14  C   UNL A   1      30.795  26.021  24.374  1.00  0.00     0.042 A 
BRANCH  14  15
ATOM     15  N   UNL A   1      31.612  25.078  25.063  1.00  0.00    -0.353 N 
ATOM     16  H   UNL A   1      32.121  25.435  25.826  1.00  0.00     0.167 HD
BRANCH  15  17
ATOM     17  C   UNL A   1      31.793  23.691  24.798  1.00  0.00     0.076 A 
ATOM     18  C   UNL A   1      31.372  22.684  25.686  1.00  0.00     0.067 A 
ATOM     19  C   UNL A   1      32.581  23.267  23.704  1.00  0.00     0.067 A 
ATOM     20  Cl  UNL A   1      30.081  22.949  26.815  1.00  0.00    -0.082 Cl
ATOM     21  C   UNL A   1      31.913  21.398  25.637  1.00  0.00     0.043 A 
ATOM     22  C   UNL A   1      33.170  21.998  23.675  1.00  0.00     0.043 A 
ATOM     23  Cl  UNL A   1      32.758  24.254  22.295  1.00  0.00    -0.082 Cl
ATOM     24  C   UNL A   1      32.862  21.084  24.673  1.00  0.00     0.044 A 
ATOM     25  Cl  UNL A   1      33.598  19.530  24.679  1.00  0.00    -0.084 Cl
ENDBRANCH  15  17
ENDBRANCH  14  15
ENDBRANCH   7   8
ENDBRANCH   5   7
ENDBRANCH   4   5
ENDBRANCH   3   4
ENDBRANCH   2   3
ENDBRANCH   1   2
BRANCH   1  26
ATOM     26  C   UNL A   1      33.758  32.077  28.127  1.00  0.00     0.202 C 
BRANCH  26  27
ATOM     27  C   UNL A   1      35.031  31.551  28.772  1.00  0.00     0.261 C 
BRANCH  27  28
ATOM     28  O   UNL A   1      35.975  31.031  27.802  1.00  0.00    -0.460 OA
BRANCH  28  29
ATOM     29  C   UNL A   1      36.334  29.716  27.933  1.00  0.00     0.338 C 
ATOM     30  O   UNL A   1      35.607  28.788  27.614  1.00  0.00    -0.246 OA
BRANCH  29  31
ATOM     31  C   UNL A   1      37.765  29.555  28.295  1.00  0.00     0.060 A 
ATOM     32  C   UNL A   1      38.760  29.496  27.306  1.00  0.00     0.016 A 
ATOM     33  C   UNL A   1      38.081  29.281  29.624  1.00  0.00     0.016 A 
ATOM     34  C   UNL A   1      40.032  28.994  27.617  1.00  0.00     0.010 A 
ATOM     35  C   UNL A   1      39.296  28.691  29.903  1.00  0.00     0.010 A 
ATOM     36  C   UNL A   1      40.272  28.521  28.904  1.00  0.00    -0.014 A 
BRANCH  36  37
ATOM     37  C   UNL A   1      41.467  27.818  29.373  1.00  0.00     0.031 A 
ATOM     38  C   UNL A   1      41.636  26.406  28.963  1.00  0.00     0.074 A 
ATOM     39  C   UNL A   1      42.519  28.485  29.900  1.00  0.00     0.049 A 
ATOM     40  N   UNL A   1      42.679  25.707  29.227  1.00  0.00    -0.248 NA
ATOM     41  C   UNL A   1      40.621  25.637  28.240  1.00  0.00     0.031 C 
ATOM     42  C   UNL A   1      43.943  28.145  29.823  1.00  0.00     0.029 A 
ATOM     43  N   UNL A   1      42.546  29.648  30.633  1.00  0.00    -0.354 N 
ATOM     44  C   UNL A   1      42.645  24.582  28.447  1.00  0.00     0.074 A 
ATOM     45  C   UNL A   1      41.297  24.521  27.943  1.00  0.00     0.031 C 
ATOM     46  C   UNL A   1      44.643  28.928  30.666  1.00  0.00     0.029 A 
ATOM     47  C   UNL A   1      43.684  29.707  31.430  1.00  0.00     0.049 A 
ATOM     48  H   UNL A   1      41.852  30.347  30.598  1.00  0.00     0.167 HD
ATOM     49  C   UNL A   1      43.818  23.921  28.252  1.00  0.00     0.037 A 
ATOM     50  C   UNL A   1      43.536  29.716  32.790  1.00  0.00     0.037 A 
ATOM     51  C   UNL A   1      44.832  24.396  29.209  1.00  0.00     0.049 A 
ATOM     52  C   UNL A   1      43.920  28.358  33.366  1.00  0.00     0.074 A 
ATOM     53  C   UNL A   1      45.976  25.168  29.148  1.00  0.00     0.029 A 
ATOM     54  N   UNL A   1      44.522  24.298  30.558  1.00  0.00    -0.354 N 
ATOM     55  N   UNL A   1      44.344  27.374  32.616  1.00  0.00    -0.248 NA
ATOM     56  C   UNL A   1      43.865  27.967  34.772  1.00  0.00     0.031 C 
ATOM     57  C   UNL A   1      46.280  25.607  30.484  1.00  0.00     0.029 A 
ATOM     58  C   UNL A   1      45.347  25.065  31.355  1.00  0.00     0.049 A 
ATOM     59  H   UNL A   1      43.790  23.742  30.910  1.00  0.00     0.167 HD
ATOM     60  C   UNL A   1      44.599  26.267  33.353  1.00  0.00     0.074 A 
ATOM     61  C   UNL A   1      44.251  26.675  34.708  1.00  0.00     0.031 C 
ATOM     62  C   UNL A   1      45.078  25.114  32.794  1.00  0.00     0.037 A 
BRANCH  49  63
ATOM     63  C   UNL A   1      44.093  22.921  27.152  1.00  0.00     0.058 A 
ATOM     64  C   UNL A   1      43.320  21.744  27.071  1.00  0.00     0.135 A 
ATOM     65  C   UNL A   1      45.156  22.993  26.220  1.00  0.00     0.135 A 
ATOM     66  F   UNL A   1      42.290  21.534  27.905  1.00  0.00    -0.206 F 
ATOM     67  C   UNL A   1      43.581  20.722  26.153  1.00  0.00     0.059 A 
ATOM     68  C   UNL A   1      45.407  22.005  25.263  1.00  0.00     0.059 A 
ATOM     69  F   UNL A   1      46.044  23.994  26.226  1.00  0.00    -0.206 F 
ATOM     70  C   UNL A   1      44.626  20.861  25.249  1.00  0.00     0.060 A 
BRANCH  70  71
ATOM     71  S   UNL A   1      44.966  19.525  24.089  1.00  0.00     0.124 S 
ATOM     72  O   UNL A   1      46.409  19.360  24.233  1.00  0.00    -0.237 OA
ATOM     73  O   UNL A   1      44.146  18.439  24.618  1.00  0.00    -0.237 OA
ATOM     74  O   UNL A   1      44.526  20.065  22.806  1.00  0.00    -0.744 OA
ENDBRANCH  70  71
ENDBRANCH  49  63
BRANCH  50  75
ATOM     75  C   UNL A   1      42.416  30.647  33.168  1.00  0.00     0.058 A 
ATOM     76  C   UNL A   1      41.194  30.023  33.523  1.00  0.00     0.135 A 
ATOM     77  C   UNL A   1      42.670  31.903  33.746  1.00  0.00     0.135 A 
ATOM     78  F   UNL A   1      40.898  28.808  33.031  1.00  0.00    -0.206 F 
ATOM     79  C   UNL A   1      40.359  30.528  34.523  1.00  0.00     0.059 A 
ATOM     80  C   UNL A   1      41.839  32.428  34.750  1.00  0.00     0.059 A 
ATOM     81  F   UNL A   1      43.825  32.538  33.492  1.00  0.00    -0.206 F 
ATOM     82  C   UNL A   1      40.709  31.713  35.161  1.00  0.00     0.060 A 
BRANCH  82  83
ATOM     83  S   UNL A   1      39.772  32.206  36.643  1.00  0.00     0.124 S 
ATOM     84  O   UNL A   1      40.742  31.961  37.701  1.00  0.00    -0.237 OA
ATOM     85  O   UNL A   1      39.472  33.612  36.378  1.00  0.00    -0.237 OA
ATOM     86  O   UNL A   1      38.621  31.313  36.611  1.00  0.00    -0.744 OA
ENDBRANCH  82  83
ENDBRANCH  50  75
BRANCH  62  87
ATOM     87  C   UNL A   1      45.303  23.897  33.629  1.00  0.00     0.058 A 
ATOM     88  C   UNL A   1      44.250  23.048  33.990  1.00  0.00     0.135 A 
ATOM     89  C   UNL A   1      46.582  23.570  34.129  1.00  0.00     0.135 A 
ATOM     90  F   UNL A   1      42.984  23.337  33.645  1.00  0.00    -0.206 F 
ATOM     91  C   UNL A   1      44.468  21.871  34.695  1.00  0.00     0.059 A 
ATOM     92  C   UNL A   1      46.810  22.444  34.902  1.00  0.00     0.059 A 
ATOM     93  F   UNL A   1      47.667  24.300  33.835  1.00  0.00    -0.206 F 
ATOM     94  C   UNL A   1      45.756  21.573  35.133  1.00  0.00     0.060 A 
BRANCH  94  95
ATOM     95  S   UNL A   1      46.056  20.024  35.990  1.00  0.00     0.124 S 
ATOM     96  O   UNL A   1      45.195  19.092  35.267  1.00  0.00    -0.237 OA
ATOM     97  O   UNL A   1      47.490  19.855  35.778  1.00  0.00    -0.237 OA
ATOM     98  O   UNL A   1      45.649  20.310  37.361  1.00  0.00    -0.744 OA
ENDBRANCH  94  95
ENDBRANCH  62  87
ENDBRANCH  36  37
ENDBRANCH  29  31
ENDBRANCH  28  29
ENDBRANCH  27  28
ENDBRANCH  26  27
ENDBRANCH   1  26
TORSDOF 20
ENDMDL
