MODEL 1
REMARK VINA RESULT:     -10.7      0.000      0.000
REMARK SMILES C[C@]([NH3+])(C(=O)N1[C@@H](C(=O)OCCOCCOC(=O)c2ccc(-c3c4nc(c(-c5c(F)cc(S(=O)(=O)[O-])cc5F)c5ccc([nH]5)c(-c5c(F)cc(S(=O)(=O)[O-])cc5F)c5nc(c(-c6c(F)cc(S(=O)(=O)[O-])cc6F)c6ccc3[nH]6)C=C5)C=C4)cc2)C[C@H]2CCCC[C@@H]21)C(F)(F)F
REMARK SMILES IDX 13 1 12 2 11 3 10 4 8 5 9 6 7 7 6 8 91 9 85 10 86 11 90 12
REMARK SMILES IDX 87 13 89 14 88 15 4 16 5 17 2 18 1 19 92 20 93 21 94 22
REMARK SMILES IDX 95 23 3 24 14 28 15 29 16 30 17 31 18 32 19 33 20 34 84 35
REMARK SMILES IDX 21 36 83 37 22 38 23 39 24 40 77 41 25 42 82 43 76 44 78 45
REMARK SMILES IDX 26 46 81 47 75 48 74 49 27 51 61 52 40 53 60 54 41 55 44 56
REMARK SMILES IDX 59 57 79 58 42 59 43 60 58 62 80 63 45 64 28 65 29 66 38 67
REMARK SMILES IDX 30 68 31 69 37 70 39 71 32 72 33 73 34 74 35 75 36 76 62 77
REMARK SMILES IDX 63 78 72 79 64 80 65 81 71 82 73 83 66 84 67 85 68 86 69 87
REMARK SMILES IDX 70 88 46 89 47 90 56 91 48 92 49 93 55 94 57 95 50 96 51 97
REMARK SMILES IDX 52 98 53 99 54 100
REMARK H PARENT 3 25 3 26 3 27 78 50 44 61
REMARK Flexibility Score: inf
ROOT
ATOM      1  O   UNL A   1      39.827  22.311  26.829  1.00  0.00    -0.374 OA
ENDROOT
BRANCH   1   2
ATOM      2  C   UNL A   1      39.249  21.473  25.826  1.00  0.00     0.202 C 
BRANCH   2   3
ATOM      3  C   UNL A   1      37.901  21.909  25.250  1.00  0.00     0.261 C 
BRANCH   3   4
ATOM      4  O   UNL A   1      36.819  21.411  26.059  1.00  0.00    -0.462 OA
BRANCH   4   5
ATOM      5  C   UNL A   1      35.723  22.220  26.127  1.00  0.00     0.328 C 
ATOM      6  O   UNL A   1      35.691  23.382  25.747  1.00  0.00    -0.250 OA
BRANCH   5   7
ATOM      7  C   UNL A   1      34.533  21.445  26.747  1.00  0.00     0.196 C 
ATOM      8  N   UNL A   1      33.520  21.085  25.731  1.00  0.00    -0.320 N 
ATOM      9  C   UNL A   1      32.714  22.269  25.534  1.00  0.00     0.089 C 
ATOM     10  C   UNL A   1      33.798  22.418  27.690  1.00  0.00     0.043 C 
ATOM     11  C   UNL A   1      32.467  22.684  26.984  1.00  0.00     0.014 C 
ATOM     12  C   UNL A   1      31.383  22.168  24.805  1.00  0.00     0.025 C 
ATOM     13  C   UNL A   1      31.910  24.093  27.039  1.00  0.00     0.006 C 
ATOM     14  C   UNL A   1      30.711  23.549  24.834  1.00  0.00     0.002 C 
ATOM     15  C   UNL A   1      30.596  24.142  26.247  1.00  0.00     0.000 C 
BRANCH   8  16
ATOM     16  C   UNL A   1      33.728  20.177  24.700  1.00  0.00     0.294 C 
ATOM     17  O   UNL A   1      34.049  20.571  23.580  1.00  0.00    -0.267 OA
BRANCH  16  18
ATOM     18  C   UNL A   1      33.367  18.690  24.977  1.00  0.00     0.267 C 
ATOM     19  C   UNL A   1      32.184  18.274  24.090  1.00  0.00     0.100 C 
BRANCH  18  20
ATOM     20  C   UNL A   1      34.608  17.841  24.580  1.00  0.00     0.453 C 
ATOM     21  F   UNL A   1      34.678  16.683  25.279  1.00  0.00    -0.164 F 
ATOM     22  F   UNL A   1      34.541  17.485  23.267  1.00  0.00    -0.164 F 
ATOM     23  F   UNL A   1      35.775  18.506  24.728  1.00  0.00    -0.164 F 
ENDBRANCH  18  20
BRANCH  18  24
ATOM     24  N   UNL A   1      32.964  18.474  26.401  1.00  0.00    -0.337 N 
ATOM     25  H   UNL A   1      32.570  19.337  26.777  1.00  0.00     0.345 HD
ATOM     26  H   UNL A   1      33.781  18.207  26.949  1.00  0.00     0.345 HD
ATOM     27  H   UNL A   1      32.266  17.732  26.448  1.00  0.00     0.345 HD
ENDBRANCH  18  24
ENDBRANCH  16  18
ENDBRANCH   8  16
ENDBRANCH   5   7
ENDBRANCH   4   5
ENDBRANCH   3   4
ENDBRANCH   2   3
ENDBRANCH   1   2
BRANCH   1  28
ATOM     28  C   UNL A   1      41.245  22.368  26.929  1.00  0.00     0.202 C 
BRANCH  28  29
ATOM     29  C   UNL A   1      42.025  23.051  25.798  1.00  0.00     0.261 C 
BRANCH  29  30
ATOM     30  O   UNL A   1      42.762  24.199  26.230  1.00  0.00    -0.460 OA
BRANCH  30  31
ATOM     31  C   UNL A   1      42.081  25.361  26.088  1.00  0.00     0.338 C 
ATOM     32  O   UNL A   1      41.439  25.724  25.111  1.00  0.00    -0.246 OA
BRANCH  31  33
ATOM     33  C   UNL A   1      42.054  26.095  27.360  1.00  0.00     0.060 A 
ATOM     34  C   UNL A   1      41.018  25.785  28.249  1.00  0.00     0.016 A 
ATOM     35  C   UNL A   1      42.966  27.113  27.649  1.00  0.00     0.016 A 
ATOM     36  C   UNL A   1      40.854  26.534  29.407  1.00  0.00     0.010 A 
ATOM     37  C   UNL A   1      42.795  27.869  28.813  1.00  0.00     0.010 A 
ATOM     38  C   UNL A   1      41.716  27.606  29.674  1.00  0.00    -0.014 A 
BRANCH  38  39
ATOM     39  C   UNL A   1      41.379  28.520  30.789  1.00  0.00     0.031 A 
ATOM     40  C   UNL A   1      42.223  28.492  32.035  1.00  0.00     0.074 A 
ATOM     41  C   UNL A   1      40.390  29.419  30.647  1.00  0.00     0.049 A 
ATOM     42  N   UNL A   1      42.150  29.248  33.099  1.00  0.00    -0.248 NA
ATOM     43  C   UNL A   1      43.292  27.481  32.088  1.00  0.00     0.031 C 
ATOM     44  C   UNL A   1      39.531  29.549  29.469  1.00  0.00     0.029 A 
ATOM     45  N   UNL A   1      39.948  30.401  31.496  1.00  0.00    -0.354 N 
ATOM     46  C   UNL A   1      43.167  28.814  33.942  1.00  0.00     0.074 A 
ATOM     47  C   UNL A   1      43.817  27.702  33.284  1.00  0.00     0.031 C 
ATOM     48  C   UNL A   1      38.666  30.557  29.670  1.00  0.00     0.029 A 
ATOM     49  C   UNL A   1      38.897  31.130  30.994  1.00  0.00     0.049 A 
ATOM     50  H   UNL A   1      40.346  30.568  32.381  1.00  0.00     0.167 HD
ATOM     51  C   UNL A   1      43.535  29.311  35.146  1.00  0.00     0.037 A 
ATOM     52  C   UNL A   1      38.199  32.140  31.548  1.00  0.00     0.037 A 
ATOM     53  C   UNL A   1      42.880  30.420  35.791  1.00  0.00     0.049 A 
ATOM     54  C   UNL A   1      38.596  32.639  32.912  1.00  0.00     0.074 A 
ATOM     55  C   UNL A   1      43.177  31.005  37.010  1.00  0.00     0.029 A 
ATOM     56  N   UNL A   1      41.795  31.109  35.271  1.00  0.00    -0.354 N 
ATOM     57  N   UNL A   1      39.575  32.232  33.687  1.00  0.00    -0.248 NA
ATOM     58  C   UNL A   1      37.802  33.740  33.473  1.00  0.00     0.031 C 
ATOM     59  C   UNL A   1      42.244  32.022  37.244  1.00  0.00     0.029 A 
ATOM     60  C   UNL A   1      41.396  32.101  36.151  1.00  0.00     0.049 A 
ATOM     61  H   UNL A   1      41.371  30.921  34.403  1.00  0.00     0.167 HD
ATOM     62  C   UNL A   1      39.524  33.041  34.818  1.00  0.00     0.074 A 
ATOM     63  C   UNL A   1      38.435  33.973  34.614  1.00  0.00     0.031 C 
ATOM     64  C   UNL A   1      40.304  33.014  35.927  1.00  0.00     0.037 A 
BRANCH  51  65
ATOM     65  C   UNL A   1      44.690  28.657  35.851  1.00  0.00     0.058 A 
ATOM     66  C   UNL A   1      46.009  29.105  35.675  1.00  0.00     0.135 A 
ATOM     67  C   UNL A   1      44.473  27.602  36.751  1.00  0.00     0.135 A 
ATOM     68  F   UNL A   1      46.276  30.097  34.810  1.00  0.00    -0.206 F 
ATOM     69  C   UNL A   1      47.072  28.524  36.359  1.00  0.00     0.059 A 
ATOM     70  C   UNL A   1      45.518  27.020  37.463  1.00  0.00     0.059 A 
ATOM     71  F   UNL A   1      43.231  27.129  36.950  1.00  0.00    -0.206 F 
ATOM     72  C   UNL A   1      46.816  27.484  37.253  1.00  0.00     0.060 A 
BRANCH  72  73
ATOM     73  S   UNL A   1      48.203  26.759  38.154  1.00  0.00     0.124 S 
ATOM     74  O   UNL A   1      49.327  27.114  37.292  1.00  0.00    -0.237 OA
ATOM     75  O   UNL A   1      48.142  27.455  39.434  1.00  0.00    -0.237 OA
ATOM     76  O   UNL A   1      47.874  25.338  38.199  1.00  0.00    -0.744 OA
ENDBRANCH  72  73
ENDBRANCH  51  65
BRANCH  52  77
ATOM     77  C   UNL A   1      37.047  32.739  30.823  1.00  0.00     0.058 A 
ATOM     78  C   UNL A   1      37.225  33.795  29.917  1.00  0.00     0.135 A 
ATOM     79  C   UNL A   1      35.739  32.278  31.041  1.00  0.00     0.135 A 
ATOM     80  F   UNL A   1      38.455  34.275  29.679  1.00  0.00    -0.206 F 
ATOM     81  C   UNL A   1      36.145  34.391  29.271  1.00  0.00     0.059 A 
ATOM     82  C   UNL A   1      34.647  32.840  30.388  1.00  0.00     0.059 A 
ATOM     83  F   UNL A   1      35.517  31.260  31.886  1.00  0.00    -0.206 F 
ATOM     84  C   UNL A   1      34.859  33.907  29.517  1.00  0.00     0.060 A 
BRANCH  84  85
ATOM     85  S   UNL A   1      33.464  34.666  28.657  1.00  0.00     0.124 S 
ATOM     86  O   UNL A   1      32.552  34.939  29.762  1.00  0.00    -0.237 OA
ATOM     87  O   UNL A   1      34.083  35.833  28.035  1.00  0.00    -0.237 OA
ATOM     88  O   UNL A   1      33.038  33.624  27.728  1.00  0.00    -0.744 OA
ENDBRANCH  84  85
ENDBRANCH  52  77
BRANCH  64  89
ATOM     89  C   UNL A   1      40.013  34.037  36.990  1.00  0.00     0.058 A 
ATOM     90  C   UNL A   1      40.543  35.336  36.926  1.00  0.00     0.135 A 
ATOM     91  C   UNL A   1      39.182  33.721  38.077  1.00  0.00     0.135 A 
ATOM     92  F   UNL A   1      41.345  35.688  35.909  1.00  0.00    -0.206 F 
ATOM     93  C   UNL A   1      40.295  36.271  37.925  1.00  0.00     0.059 A 
ATOM     94  C   UNL A   1      38.898  34.649  39.072  1.00  0.00     0.059 A 
ATOM     95  F   UNL A   1      38.639  32.497  38.179  1.00  0.00    -0.206 F 
ATOM     96  C   UNL A   1      39.476  35.916  38.998  1.00  0.00     0.060 A 
BRANCH  96  97
ATOM     97  S   UNL A   1      39.164  37.135  40.291  1.00  0.00     0.124 S 
ATOM     98  O   UNL A   1      38.476  38.183  39.545  1.00  0.00    -0.237 OA
ATOM     99  O   UNL A   1      38.342  36.388  41.238  1.00  0.00    -0.237 OA
ATOM    100  O   UNL A   1      40.502  37.476  40.765  1.00  0.00    -0.744 OA
ENDBRANCH  96  97
ENDBRANCH  64  89
ENDBRANCH  38  39
ENDBRANCH  31  33
ENDBRANCH  30  31
ENDBRANCH  29  30
ENDBRANCH  28  29
ENDBRANCH   1  28
TORSDOF 21
ENDMDL
MODEL 2
REMARK VINA RESULT:     -10.6      4.594     10.088
REMARK SMILES C[C@]([NH3+])(C(=O)N1[C@@H](C(=O)OCCOCCOC(=O)c2ccc(-c3c4nc(c(-c5c(F)cc(S(=O)(=O)[O-])cc5F)c5ccc([nH]5)c(-c5c(F)cc(S(=O)(=O)[O-])cc5F)c5nc(c(-c6c(F)cc(S(=O)(=O)[O-])cc6F)c6ccc3[nH]6)C=C5)C=C4)cc2)C[C@H]2CCCC[C@@H]21)C(F)(F)F
REMARK SMILES IDX 13 1 12 2 11 3 10 4 8 5 9 6 7 7 6 8 91 9 85 10 86 11 90 12
REMARK SMILES IDX 87 13 89 14 88 15 4 16 5 17 2 18 1 19 92 20 93 21 94 22
REMARK SMILES IDX 95 23 3 24 14 28 15 29 16 30 17 31 18 32 19 33 20 34 84 35
REMARK SMILES IDX 21 36 83 37 22 38 23 39 24 40 77 41 25 42 82 43 76 44 78 45
REMARK SMILES IDX 26 46 81 47 75 48 74 49 27 51 61 52 40 53 60 54 41 55 44 56
REMARK SMILES IDX 59 57 79 58 42 59 43 60 58 62 80 63 45 64 28 65 29 66 38 67
REMARK SMILES IDX 30 68 31 69 37 70 39 71 32 72 33 73 34 74 35 75 36 76 62 77
REMARK SMILES IDX 63 78 72 79 64 80 65 81 71 82 73 83 66 84 67 85 68 86 69 87
REMARK SMILES IDX 70 88 46 89 47 90 56 91 48 92 49 93 55 94 57 95 50 96 51 97
REMARK SMILES IDX 52 98 53 99 54 100
REMARK H PARENT 3 25 3 26 3 27 78 50 44 61
REMARK Flexibility Score: inf
ROOT
ATOM      1  O   UNL A   1      31.830  29.371  24.796  1.00  0.00    -0.374 OA
ENDROOT
BRANCH   1   2
ATOM      2  C   UNL A   1      32.687  29.202  23.665  1.00  0.00     0.202 C 
BRANCH   2   3
ATOM      3  C   UNL A   1      32.329  28.084  22.684  1.00  0.00     0.261 C 
BRANCH   3   4
ATOM      4  O   UNL A   1      32.320  26.808  23.350  1.00  0.00    -0.462 OA
BRANCH   4   5
ATOM      5  C   UNL A   1      33.458  26.069  23.207  1.00  0.00     0.328 C 
ATOM      6  O   UNL A   1      34.000  25.827  22.139  1.00  0.00    -0.250 OA
BRANCH   5   7
ATOM      7  C   UNL A   1      33.955  25.593  24.595  1.00  0.00     0.196 C 
ATOM      8  N   UNL A   1      33.967  24.117  24.701  1.00  0.00    -0.320 N 
ATOM      9  C   UNL A   1      32.606  23.728  24.997  1.00  0.00     0.089 C 
ATOM     10  C   UNL A   1      32.908  26.041  25.633  1.00  0.00     0.043 C 
ATOM     11  C   UNL A   1      32.260  24.734  26.095  1.00  0.00     0.014 C 
ATOM     12  C   UNL A   1      32.311  22.321  25.492  1.00  0.00     0.025 C 
ATOM     13  C   UNL A   1      30.765  24.740  26.347  1.00  0.00     0.006 C 
ATOM     14  C   UNL A   1      30.812  22.228  25.815  1.00  0.00     0.002 C 
ATOM     15  C   UNL A   1      30.324  23.332  26.769  1.00  0.00     0.000 C 
BRANCH   8  16
ATOM     16  C   UNL A   1      34.813  23.283  23.979  1.00  0.00     0.294 C 
ATOM     17  O   UNL A   1      34.478  22.868  22.871  1.00  0.00    -0.267 OA
BRANCH  16  18
ATOM     18  C   UNL A   1      36.090  22.768  24.701  1.00  0.00     0.267 C 
ATOM     19  C   UNL A   1      36.383  23.651  25.922  1.00  0.00     0.100 C 
BRANCH  18  20
ATOM     20  C   UNL A   1      35.779  21.325  25.194  1.00  0.00     0.453 C 
ATOM     21  F   UNL A   1      36.890  20.551  25.236  1.00  0.00    -0.164 F 
ATOM     22  F   UNL A   1      35.291  21.353  26.465  1.00  0.00    -0.164 F 
ATOM     23  F   UNL A   1      34.844  20.699  24.447  1.00  0.00    -0.164 F 
ENDBRANCH  18  20
BRANCH  18  24
ATOM     24  N   UNL A   1      37.288  22.815  23.807  1.00  0.00    -0.337 N 
ATOM     25  H   UNL A   1      37.456  21.889  23.414  1.00  0.00     0.345 HD
ATOM     26  H   UNL A   1      38.104  23.108  24.346  1.00  0.00     0.345 HD
ATOM     27  H   UNL A   1      37.124  23.482  23.052  1.00  0.00     0.345 HD
ENDBRANCH  18  24
ENDBRANCH  16  18
ENDBRANCH   8  16
ENDBRANCH   5   7
ENDBRANCH   4   5
ENDBRANCH   3   4
ENDBRANCH   2   3
ENDBRANCH   1   2
BRANCH   1  28
ATOM     28  C   UNL A   1      32.307  30.130  25.900  1.00  0.00     0.202 C 
BRANCH  28  29
ATOM     29  C   UNL A   1      33.570  29.642  26.623  1.00  0.00     0.261 C 
BRANCH  29  30
ATOM     30  O   UNL A   1      33.597  29.987  28.012  1.00  0.00    -0.460 OA
BRANCH  30  31
ATOM     31  C   UNL A   1      34.563  30.883  28.325  1.00  0.00     0.338 C 
ATOM     32  O   UNL A   1      34.405  32.042  28.684  1.00  0.00    -0.246 OA
BRANCH  31  33
ATOM     33  C   UNL A   1      35.878  30.226  28.353  1.00  0.00     0.060 A 
ATOM     34  C   UNL A   1      36.291  29.686  29.576  1.00  0.00     0.016 A 
ATOM     35  C   UNL A   1      36.721  30.206  27.239  1.00  0.00     0.016 A 
ATOM     36  C   UNL A   1      37.575  29.173  29.707  1.00  0.00     0.010 A 
ATOM     37  C   UNL A   1      38.015  29.695  27.375  1.00  0.00     0.010 A 
ATOM     38  C   UNL A   1      38.457  29.213  28.619  1.00  0.00    -0.014 A 
BRANCH  38  39
ATOM     39  C   UNL A   1      39.879  28.872  28.853  1.00  0.00     0.031 A 
ATOM     40  C   UNL A   1      40.774  29.887  29.511  1.00  0.00     0.074 A 
ATOM     41  C   UNL A   1      40.332  27.641  28.559  1.00  0.00     0.049 A 
ATOM     42  N   UNL A   1      42.026  29.775  29.871  1.00  0.00    -0.248 NA
ATOM     43  C   UNL A   1      40.178  31.201  29.808  1.00  0.00     0.031 C 
ATOM     44  C   UNL A   1      39.541  26.575  27.945  1.00  0.00     0.029 A 
ATOM     45  N   UNL A   1      41.568  27.077  28.748  1.00  0.00    -0.354 N 
ATOM     46  C   UNL A   1      42.365  30.995  30.444  1.00  0.00     0.074 A 
ATOM     47  C   UNL A   1      41.201  31.848  30.348  1.00  0.00     0.031 C 
ATOM     48  C   UNL A   1      40.311  25.482  27.811  1.00  0.00     0.029 A 
ATOM     49  C   UNL A   1      41.652  25.777  28.311  1.00  0.00     0.049 A 
ATOM     50  H   UNL A   1      42.323  27.558  29.158  1.00  0.00     0.167 HD
ATOM     51  C   UNL A   1      43.537  31.362  31.014  1.00  0.00     0.037 A 
ATOM     52  C   UNL A   1      42.697  24.928  28.310  1.00  0.00     0.037 A 
ATOM     53  C   UNL A   1      44.690  30.504  31.105  1.00  0.00     0.049 A 
ATOM     54  C   UNL A   1      44.006  25.380  28.903  1.00  0.00     0.074 A 
ATOM     55  C   UNL A   1      45.925  30.777  31.667  1.00  0.00     0.029 A 
ATOM     56  N   UNL A   1      44.752  29.208  30.617  1.00  0.00    -0.354 N 
ATOM     57  N   UNL A   1      44.304  26.530  29.462  1.00  0.00    -0.248 NA
ATOM     58  C   UNL A   1      45.115  24.419  28.876  1.00  0.00     0.031 C 
ATOM     59  C   UNL A   1      46.745  29.658  31.482  1.00  0.00     0.029 A 
ATOM     60  C   UNL A   1      46.008  28.672  30.846  1.00  0.00     0.049 A 
ATOM     61  H   UNL A   1      44.010  28.736  30.173  1.00  0.00     0.167 HD
ATOM     62  C   UNL A   1      45.630  26.421  29.868  1.00  0.00     0.074 A 
ATOM     63  C   UNL A   1      46.065  25.087  29.513  1.00  0.00     0.031 C 
ATOM     64  C   UNL A   1      46.419  27.341  30.478  1.00  0.00     0.037 A 
BRANCH  51  65
ATOM     65  C   UNL A   1      43.637  32.753  31.576  1.00  0.00     0.058 A 
ATOM     66  C   UNL A   1      44.142  33.819  30.816  1.00  0.00     0.135 A 
ATOM     67  C   UNL A   1      43.175  33.035  32.872  1.00  0.00     0.135 A 
ATOM     68  F   UNL A   1      44.618  33.602  29.579  1.00  0.00    -0.206 F 
ATOM     69  C   UNL A   1      44.198  35.113  31.324  1.00  0.00     0.059 A 
ATOM     70  C   UNL A   1      43.199  34.325  33.392  1.00  0.00     0.059 A 
ATOM     71  F   UNL A   1      42.688  32.050  33.644  1.00  0.00    -0.206 F 
ATOM     72  C   UNL A   1      43.720  35.357  32.612  1.00  0.00     0.060 A 
BRANCH  72  73
ATOM     73  S   UNL A   1      43.772  37.047  33.247  1.00  0.00     0.124 S 
ATOM     74  O   UNL A   1      43.693  37.823  32.013  1.00  0.00    -0.237 OA
ATOM     75  O   UNL A   1      42.592  37.095  34.103  1.00  0.00    -0.237 OA
ATOM     76  O   UNL A   1      45.052  37.110  33.944  1.00  0.00    -0.744 OA
ENDBRANCH  72  73
ENDBRANCH  51  65
BRANCH  52  77
ATOM     77  C   UNL A   1      42.558  23.570  27.719  1.00  0.00     0.058 A 
ATOM     78  C   UNL A   1      42.365  22.439  28.527  1.00  0.00     0.135 A 
ATOM     79  C   UNL A   1      42.637  23.377  26.331  1.00  0.00     0.135 A 
ATOM     80  F   UNL A   1      42.289  22.572  29.860  1.00  0.00    -0.206 F 
ATOM     81  C   UNL A   1      42.282  21.161  27.982  1.00  0.00     0.059 A 
ATOM     82  C   UNL A   1      42.530  22.112  25.762  1.00  0.00     0.059 A 
ATOM     83  F   UNL A   1      42.805  24.427  25.514  1.00  0.00    -0.206 F 
ATOM     84  C   UNL A   1      42.369  21.008  26.597  1.00  0.00     0.060 A 
BRANCH  84  85
ATOM     85  S   UNL A   1      42.233  19.350  25.893  1.00  0.00     0.124 S 
ATOM     86  O   UNL A   1      40.805  19.270  25.608  1.00  0.00    -0.237 OA
ATOM     87  O   UNL A   1      43.115  19.436  24.732  1.00  0.00    -0.237 OA
ATOM     88  O   UNL A   1      42.713  18.491  26.971  1.00  0.00    -0.744 OA
ENDBRANCH  84  85
ENDBRANCH  52  77
BRANCH  64  89
ATOM     89  C   UNL A   1      47.823  26.921  30.811  1.00  0.00     0.058 A 
ATOM     90  C   UNL A   1      48.116  26.188  31.973  1.00  0.00     0.135 A 
ATOM     91  C   UNL A   1      48.887  27.241  29.952  1.00  0.00     0.135 A 
ATOM     92  F   UNL A   1      47.136  25.860  32.828  1.00  0.00    -0.206 F 
ATOM     93  C   UNL A   1      49.420  25.826  32.293  1.00  0.00     0.059 A 
ATOM     94  C   UNL A   1      50.194  26.864  30.238  1.00  0.00     0.059 A 
ATOM     95  F   UNL A   1      48.660  27.928  28.821  1.00  0.00    -0.206 F 
ATOM     96  C   UNL A   1      50.454  26.174  31.422  1.00  0.00     0.060 A 
BRANCH  96  97
ATOM     97  S   UNL A   1      52.142  25.702  31.849  1.00  0.00     0.124 S 
ATOM     98  O   UNL A   1      52.847  25.979  30.602  1.00  0.00    -0.237 OA
ATOM     99  O   UNL A   1      52.448  26.596  32.962  1.00  0.00    -0.237 OA
ATOM    100  O   UNL A   1      52.020  24.291  32.202  1.00  0.00    -0.744 OA
ENDBRANCH  96  97
ENDBRANCH  64  89
ENDBRANCH  38  39
ENDBRANCH  31  33
ENDBRANCH  30  31
ENDBRANCH  29  30
ENDBRANCH  28  29
ENDBRANCH   1  28
TORSDOF 21
ENDMDL
MODEL 3
REMARK VINA RESULT:     -10.5      4.414      9.899
REMARK SMILES C[C@]([NH3+])(C(=O)N1[C@@H](C(=O)OCCOCCOC(=O)c2ccc(-c3c4nc(c(-c5c(F)cc(S(=O)(=O)[O-])cc5F)c5ccc([nH]5)c(-c5c(F)cc(S(=O)(=O)[O-])cc5F)c5nc(c(-c6c(F)cc(S(=O)(=O)[O-])cc6F)c6ccc3[nH]6)C=C5)C=C4)cc2)C[C@H]2CCCC[C@@H]21)C(F)(F)F
REMARK SMILES IDX 13 1 12 2 11 3 10 4 8 5 9 6 7 7 6 8 91 9 85 10 86 11 90 12
REMARK SMILES IDX 87 13 89 14 88 15 4 16 5 17 2 18 1 19 92 20 93 21 94 22
REMARK SMILES IDX 95 23 3 24 14 28 15 29 16 30 17 31 18 32 19 33 20 34 84 35
REMARK SMILES IDX 21 36 83 37 22 38 23 39 24 40 77 41 25 42 82 43 76 44 78 45
REMARK SMILES IDX 26 46 81 47 75 48 74 49 27 51 61 52 40 53 60 54 41 55 44 56
REMARK SMILES IDX 59 57 79 58 42 59 43 60 58 62 80 63 45 64 28 65 29 66 38 67
REMARK SMILES IDX 30 68 31 69 37 70 39 71 32 72 33 73 34 74 35 75 36 76 62 77
REMARK SMILES IDX 63 78 72 79 64 80 65 81 71 82 73 83 66 84 67 85 68 86 69 87
REMARK SMILES IDX 70 88 46 89 47 90 56 91 48 92 49 93 55 94 57 95 50 96 51 97
REMARK SMILES IDX 52 98 53 99 54 100
REMARK H PARENT 3 25 3 26 3 27 78 50 44 61
REMARK Flexibility Score: inf
ROOT
ATOM      1  O   UNL A   1      31.813  26.741  26.514  1.00  0.00    -0.374 OA
ENDROOT
BRANCH   1   2
ATOM      2  C   UNL A   1      31.254  25.730  25.673  1.00  0.00     0.202 C 
BRANCH   2   3
ATOM      3  C   UNL A   1      31.834  24.320  25.803  1.00  0.00     0.261 C 
BRANCH   3   4
ATOM      4  O   UNL A   1      31.474  23.517  24.664  1.00  0.00    -0.462 OA
BRANCH   4   5
ATOM      5  C   UNL A   1      31.515  22.168  24.867  1.00  0.00     0.328 C 
ATOM      6  O   UNL A   1      30.978  21.588  25.800  1.00  0.00    -0.250 OA
BRANCH   5   7
ATOM      7  C   UNL A   1      32.332  21.490  23.739  1.00  0.00     0.196 C 
ATOM      8  N   UNL A   1      33.395  20.613  24.279  1.00  0.00    -0.320 N 
ATOM      9  C   UNL A   1      34.496  21.487  24.623  1.00  0.00     0.089 C 
ATOM     10  C   UNL A   1      33.097  22.604  22.998  1.00  0.00     0.043 C 
ATOM     11  C   UNL A   1      34.561  22.362  23.371  1.00  0.00     0.014 C 
ATOM     12  C   UNL A   1      35.871  20.900  24.900  1.00  0.00     0.025 C 
ATOM     13  C   UNL A   1      35.433  23.575  23.625  1.00  0.00     0.006 C 
ATOM     14  C   UNL A   1      36.850  22.059  25.138  1.00  0.00     0.002 C 
ATOM     15  C   UNL A   1      36.843  23.105  24.011  1.00  0.00     0.000 C 
BRANCH   8  16
ATOM     16  C   UNL A   1      33.163  19.437  24.981  1.00  0.00     0.294 C 
ATOM     17  O   UNL A   1      33.306  19.404  26.202  1.00  0.00    -0.267 OA
BRANCH  16  18
ATOM     18  C   UNL A   1      32.900  18.151  24.148  1.00  0.00     0.267 C 
ATOM     19  C   UNL A   1      32.401  18.537  22.748  1.00  0.00     0.100 C 
BRANCH  18  20
ATOM     20  C   UNL A   1      34.266  17.418  24.003  1.00  0.00     0.453 C 
ATOM     21  F   UNL A   1      34.296  16.256  24.698  1.00  0.00    -0.164 F 
ATOM     22  F   UNL A   1      34.490  17.086  22.702  1.00  0.00    -0.164 F 
ATOM     23  F   UNL A   1      35.317  18.177  24.382  1.00  0.00    -0.164 F 
ENDBRANCH  18  20
BRANCH  18  24
ATOM     24  N   UNL A   1      31.857  17.285  24.779  1.00  0.00    -0.337 N 
ATOM     25  H   UNL A   1      32.234  16.348  24.923  1.00  0.00     0.345 HD
ATOM     26  H   UNL A   1      31.042  17.234  24.168  1.00  0.00     0.345 HD
ATOM     27  H   UNL A   1      31.583  17.683  25.678  1.00  0.00     0.345 HD
ENDBRANCH  18  24
ENDBRANCH  16  18
ENDBRANCH   8  16
ENDBRANCH   5   7
ENDBRANCH   4   5
ENDBRANCH   3   4
ENDBRANCH   2   3
ENDBRANCH   1   2
BRANCH   1  28
ATOM     28  C   UNL A   1      32.117  28.007  25.942  1.00  0.00     0.202 C 
BRANCH  28  29
ATOM     29  C   UNL A   1      33.571  28.496  25.995  1.00  0.00     0.261 C 
BRANCH  29  30
ATOM     30  O   UNL A   1      34.113  28.523  27.319  1.00  0.00    -0.460 OA
BRANCH  30  31
ATOM     31  C   UNL A   1      34.510  29.756  27.712  1.00  0.00     0.338 C 
ATOM     32  O   UNL A   1      33.807  30.751  27.841  1.00  0.00    -0.246 OA
BRANCH  31  33
ATOM     33  C   UNL A   1      35.911  29.724  28.154  1.00  0.00     0.060 A 
ATOM     34  C   UNL A   1      36.887  29.994  27.188  1.00  0.00     0.016 A 
ATOM     35  C   UNL A   1      36.271  29.366  29.456  1.00  0.00     0.016 A 
ATOM     36  C   UNL A   1      38.231  29.848  27.504  1.00  0.00     0.010 A 
ATOM     37  C   UNL A   1      37.625  29.214  29.770  1.00  0.00     0.010 A 
ATOM     38  C   UNL A   1      38.605  29.417  28.783  1.00  0.00    -0.014 A 
BRANCH  38  39
ATOM     39  C   UNL A   1      40.021  29.053  29.018  1.00  0.00     0.031 A 
ATOM     40  C   UNL A   1      40.922  30.040  29.711  1.00  0.00     0.074 A 
ATOM     41  C   UNL A   1      40.463  27.826  28.695  1.00  0.00     0.049 A 
ATOM     42  N   UNL A   1      42.170  29.904  30.077  1.00  0.00    -0.248 NA
ATOM     43  C   UNL A   1      40.339  31.353  30.037  1.00  0.00     0.031 C 
ATOM     44  C   UNL A   1      39.665  26.785  28.048  1.00  0.00     0.029 A 
ATOM     45  N   UNL A   1      41.691  27.243  28.879  1.00  0.00    -0.354 N 
ATOM     46  C   UNL A   1      42.519  31.104  30.685  1.00  0.00     0.074 A 
ATOM     47  C   UNL A   1      41.365  31.973  30.603  1.00  0.00     0.031 C 
ATOM     48  C   UNL A   1      40.423  25.687  27.890  1.00  0.00     0.029 A 
ATOM     49  C   UNL A   1      41.764  25.953  28.409  1.00  0.00     0.049 A 
ATOM     50  H   UNL A   1      42.448  27.703  29.308  1.00  0.00     0.167 HD
ATOM     51  C   UNL A   1      43.690  31.443  31.274  1.00  0.00     0.037 A 
ATOM     52  C   UNL A   1      42.799  25.092  28.393  1.00  0.00     0.037 A 
ATOM     53  C   UNL A   1      44.833  30.570  31.351  1.00  0.00     0.049 A 
ATOM     54  C   UNL A   1      44.108  25.514  29.009  1.00  0.00     0.074 A 
ATOM     55  C   UNL A   1      46.066  30.813  31.930  1.00  0.00     0.029 A 
ATOM     56  N   UNL A   1      44.883  29.286  30.830  1.00  0.00    -0.354 N 
ATOM     57  N   UNL A   1      44.415  26.646  29.600  1.00  0.00    -0.248 NA
ATOM     58  C   UNL A   1      45.206  24.541  28.964  1.00  0.00     0.031 C 
ATOM     59  C   UNL A   1      46.874  29.690  31.722  1.00  0.00     0.029 A 
ATOM     60  C   UNL A   1      46.131  28.730  31.054  1.00  0.00     0.049 A 
ATOM     61  H   UNL A   1      44.139  28.835  30.368  1.00  0.00     0.167 HD
ATOM     62  C   UNL A   1      45.736  26.510  30.014  1.00  0.00     0.074 A 
ATOM     63  C   UNL A   1      46.159  25.181  29.627  1.00  0.00     0.031 C 
ATOM     64  C   UNL A   1      46.530  27.405  30.654  1.00  0.00     0.037 A 
BRANCH  51  65
ATOM     65  C   UNL A   1      43.801  32.817  31.874  1.00  0.00     0.058 A 
ATOM     66  C   UNL A   1      43.452  33.067  33.211  1.00  0.00     0.135 A 
ATOM     67  C   UNL A   1      44.309  33.887  31.120  1.00  0.00     0.135 A 
ATOM     68  F   UNL A   1      42.940  32.085  33.971  1.00  0.00    -0.206 F 
ATOM     69  C   UNL A   1      43.592  34.330  33.776  1.00  0.00     0.059 A 
ATOM     70  C   UNL A   1      44.480  35.153  31.671  1.00  0.00     0.059 A 
ATOM     71  F   UNL A   1      44.651  33.704  29.834  1.00  0.00    -0.206 F 
ATOM     72  C   UNL A   1      44.111  35.366  32.999  1.00  0.00     0.060 A 
BRANCH  72  73
ATOM     73  S   UNL A   1      44.314  36.994  33.754  1.00  0.00     0.124 S 
ATOM     74  O   UNL A   1      45.718  37.275  33.467  1.00  0.00    -0.237 OA
ATOM     75  O   UNL A   1      43.344  37.801  33.023  1.00  0.00    -0.237 OA
ATOM     76  O   UNL A   1      43.997  36.759  35.160  1.00  0.00    -0.744 OA
ENDBRANCH  72  73
ENDBRANCH  51  65
BRANCH  52  77
ATOM     77  C   UNL A   1      42.649  23.753  27.766  1.00  0.00     0.058 A 
ATOM     78  C   UNL A   1      42.415  22.607  28.540  1.00  0.00     0.135 A 
ATOM     79  C   UNL A   1      42.759  23.592  26.376  1.00  0.00     0.135 A 
ATOM     80  F   UNL A   1      42.309  22.708  29.873  1.00  0.00    -0.206 F 
ATOM     81  C   UNL A   1      42.321  21.344  27.961  1.00  0.00     0.059 A 
ATOM     82  C   UNL A   1      42.643  22.344  25.772  1.00  0.00     0.059 A 
ATOM     83  F   UNL A   1      42.967  24.659  25.589  1.00  0.00    -0.206 F 
ATOM     84  C   UNL A   1      42.440  21.223  26.575  1.00  0.00     0.060 A 
BRANCH  84  85
ATOM     85  S   UNL A   1      42.291  19.586  25.827  1.00  0.00     0.124 S 
ATOM     86  O   UNL A   1      42.626  18.720  26.952  1.00  0.00    -0.237 OA
ATOM     87  O   UNL A   1      40.896  19.569  25.399  1.00  0.00    -0.237 OA
ATOM     88  O   UNL A   1      43.269  19.625  24.745  1.00  0.00    -0.744 OA
ENDBRANCH  84  85
ENDBRANCH  52  77
BRANCH  64  89
ATOM     89  C   UNL A   1      47.927  26.959  30.987  1.00  0.00     0.058 A 
ATOM     90  C   UNL A   1      48.225  26.316  32.199  1.00  0.00     0.135 A 
ATOM     91  C   UNL A   1      48.977  27.165  30.078  1.00  0.00     0.135 A 
ATOM     92  F   UNL A   1      47.257  26.099  33.104  1.00  0.00    -0.206 F 
ATOM     93  C   UNL A   1      49.523  25.931  32.517  1.00  0.00     0.059 A 
ATOM     94  C   UNL A   1      50.277  26.762  30.362  1.00  0.00     0.059 A 
ATOM     95  F   UNL A   1      48.744  27.763  28.899  1.00  0.00    -0.206 F 
ATOM     96  C   UNL A   1      50.544  26.164  31.594  1.00  0.00     0.060 A 
BRANCH  96  97
ATOM     97  S   UNL A   1      52.225  25.664  32.018  1.00  0.00     0.124 S 
ATOM     98  O   UNL A   1      52.050  24.240  32.278  1.00  0.00    -0.237 OA
ATOM     99  O   UNL A   1      52.969  26.001  30.807  1.00  0.00    -0.237 OA
ATOM    100  O   UNL A   1      52.538  26.483  33.185  1.00  0.00    -0.744 OA
ENDBRANCH  96  97
ENDBRANCH  64  89
ENDBRANCH  38  39
ENDBRANCH  31  33
ENDBRANCH  30  31
ENDBRANCH  29  30
ENDBRANCH  28  29
ENDBRANCH   1  28
TORSDOF 21
ENDMDL
