MODEL 1
REMARK VINA RESULT:     -12.8      0.000      0.000
REMARK SMILES CC1=Nc2c(c(C)nn2-c2ccc(F)cc2)[C@H](c2ccc(C(=O)OCCOCCOC(=O)c3ccc(-c4c5nc(c(-c6c(F)cc(S(=O)(=O)[O-])cc6F)c6ccc([nH]6)c(-c6c(F)cc(S(=O)(=O)[O-])cc6F)c6nc(c(-c7c(F)cc(S(=O)(=O)[O-])cc7F)c7ccc4[nH]7)C=C6)C=C5)cc3)cc2)S1
REMARK SMILES IDX 28 1 27 2 26 3 25 4 24 5 22 6 23 7 21 8 18 9 19 10 100 11
REMARK SMILES IDX 20 12 99 13 17 14 1 15 2 16 3 17 101 18 4 19 5 20 9 21 6 22
REMARK SMILES IDX 8 23 7 24 10 25 11 26 16 27 12 28 15 29 13 30 14 31 29 32
REMARK SMILES IDX 30 33 31 34 32 35 33 36 34 37 98 38 35 39 97 40 36 41 37 42
REMARK SMILES IDX 38 43 91 44 39 45 96 46 90 47 92 48 40 49 95 50 89 51 88 52
REMARK SMILES IDX 41 54 75 55 54 56 74 57 55 58 58 59 73 60 93 61 56 62 57 63
REMARK SMILES IDX 72 65 94 66 59 67 42 68 43 69 52 70 44 71 45 72 51 73 53 74
REMARK SMILES IDX 46 75 47 76 48 77 49 78 50 79 76 80 77 81 86 82 78 83 79 84
REMARK SMILES IDX 85 85 87 86 80 87 81 88 82 89 83 90 84 91 60 92 61 93 70 94
REMARK SMILES IDX 62 95 63 96 69 97 71 98 64 99 65 100 66 101 67 102 68 103
REMARK H PARENT 92 53 58 64
REMARK Flexibility Score: inf
ROOT
ATOM      1  C   UNL A   1      42.764  20.701  26.154  1.00  0.00     0.202 C 
ENDROOT
BRANCH   1   2
ATOM      2  O   UNL A   1      41.364  20.491  25.997  1.00  0.00    -0.374 OA
BRANCH   2   3
ATOM      3  C   UNL A   1      40.418  21.287  26.712  1.00  0.00     0.202 C 
BRANCH   3   4
ATOM      4  C   UNL A   1      39.447  22.179  25.936  1.00  0.00     0.261 C 
BRANCH   4   5
ATOM      5  O   UNL A   1      38.070  21.828  26.144  1.00  0.00    -0.460 OA
BRANCH   5   6
ATOM      6  C   UNL A   1      37.592  20.958  25.224  1.00  0.00     0.338 C 
ATOM      7  O   UNL A   1      38.110  19.905  24.880  1.00  0.00    -0.246 OA
BRANCH   6   8
ATOM      8  C   UNL A   1      36.235  21.330  24.769  1.00  0.00     0.060 A 
ATOM      9  C   UNL A   1      33.708  22.394  24.103  1.00  0.00    -0.030 A 
ATOM     10  C   UNL A   1      34.894  23.059  23.748  1.00  0.00     0.006 A 
ATOM     11  C   UNL A   1      33.826  21.127  24.714  1.00  0.00     0.006 A 
ATOM     12  C   UNL A   1      36.139  22.531  24.064  1.00  0.00     0.016 A 
ATOM     13  C   UNL A   1      35.084  20.599  25.058  1.00  0.00     0.016 A 
BRANCH   9  14
ATOM     14  C   UNL A   1      32.391  23.131  23.883  1.00  0.00     0.119 C 
ATOM     15  C   UNL A   1      33.012  26.103  21.066  1.00  0.00     0.075 C 
ATOM     16  C   UNL A   1      32.584  25.430  22.344  1.00  0.00     0.074 C 
ATOM     17  N   UNL A   1      32.585  26.140  23.426  1.00  0.00    -0.227 NA
ATOM     18  S   UNL A   1      32.142  23.738  22.186  1.00  0.00    -0.098 SA
ATOM     19  C   UNL A   1      32.306  25.531  24.602  1.00  0.00     0.161 A 
ATOM     20  C   UNL A   1      32.260  24.190  24.906  1.00  0.00     0.038 A 
ATOM     21  N   UNL A   1      32.098  26.214  25.790  1.00  0.00    -0.215 N 
ATOM     22  C   UNL A   1      31.997  24.148  26.303  1.00  0.00     0.067 A 
ATOM     23  N   UNL A   1      32.005  25.370  26.848  1.00  0.00    -0.171 NA
ATOM     24  C   UNL A   1      31.738  22.977  27.178  1.00  0.00     0.069 C 
BRANCH  21  25
ATOM     25  C   UNL A   1      31.948  27.608  25.955  1.00  0.00     0.067 A 
ATOM     26  C   UNL A   1      31.265  28.354  24.982  1.00  0.00     0.031 A 
ATOM     27  C   UNL A   1      32.520  28.234  27.069  1.00  0.00     0.031 A 
ATOM     28  C   UNL A   1      31.165  29.737  25.122  1.00  0.00     0.041 A 
ATOM     29  C   UNL A   1      32.464  29.625  27.169  1.00  0.00     0.041 A 
ATOM     30  C   UNL A   1      31.782  30.360  26.202  1.00  0.00     0.123 A 
ATOM     31  F   UNL A   1      31.711  31.693  26.310  1.00  0.00    -0.207 F 
ENDBRANCH  21  25
ENDBRANCH   9  14
ENDBRANCH   6   8
ENDBRANCH   5   6
ENDBRANCH   4   5
ENDBRANCH   3   4
ENDBRANCH   2   3
ENDBRANCH   1   2
BRANCH   1  32
ATOM     32  C   UNL A   1      43.439  21.850  25.418  1.00  0.00     0.261 C 
BRANCH  32  33
ATOM     33  O   UNL A   1      43.541  22.997  26.238  1.00  0.00    -0.460 OA
BRANCH  33  34
ATOM     34  C   UNL A   1      43.224  24.150  25.602  1.00  0.00     0.338 C 
ATOM     35  O   UNL A   1      43.804  24.658  24.665  1.00  0.00    -0.246 OA
BRANCH  34  36
ATOM     36  C   UNL A   1      42.085  24.758  26.299  1.00  0.00     0.060 A 
ATOM     37  C   UNL A   1      41.500  25.838  25.637  1.00  0.00     0.016 A 
ATOM     38  C   UNL A   1      41.988  24.574  27.684  1.00  0.00     0.016 A 
ATOM     39  C   UNL A   1      41.150  26.926  26.396  1.00  0.00     0.010 A 
ATOM     40  C   UNL A   1      41.673  25.670  28.436  1.00  0.00     0.010 A 
ATOM     41  C   UNL A   1      41.380  26.859  27.771  1.00  0.00    -0.014 A 
BRANCH  41  42
ATOM     42  C   UNL A   1      41.266  28.064  28.555  1.00  0.00     0.031 A 
ATOM     43  C   UNL A   1      42.435  28.947  28.355  1.00  0.00     0.074 A 
ATOM     44  C   UNL A   1      40.141  28.348  29.239  1.00  0.00     0.049 A 
ATOM     45  N   UNL A   1      43.402  29.182  29.178  1.00  0.00    -0.248 NA
ATOM     46  C   UNL A   1      42.695  29.408  26.978  1.00  0.00     0.031 C 
ATOM     47  C   UNL A   1      38.858  27.634  29.246  1.00  0.00     0.029 A 
ATOM     48  N   UNL A   1      39.886  29.430  30.018  1.00  0.00    -0.354 N 
ATOM     49  C   UNL A   1      44.262  30.024  28.482  1.00  0.00     0.074 A 
ATOM     50  C   UNL A   1      43.936  29.877  27.093  1.00  0.00     0.031 C 
ATOM     51  C   UNL A   1      37.907  28.427  29.797  1.00  0.00     0.029 A 
ATOM     52  C   UNL A   1      38.534  29.635  30.297  1.00  0.00     0.049 A 
ATOM     53  H   UNL A   1      40.595  30.021  30.358  1.00  0.00     0.167 HD
ATOM     54  C   UNL A   1      44.957  31.008  29.112  1.00  0.00     0.037 A 
ATOM     55  C   UNL A   1      38.021  30.784  30.816  1.00  0.00     0.037 A 
ATOM     56  C   UNL A   1      44.994  30.782  30.533  1.00  0.00     0.049 A 
ATOM     57  C   UNL A   1      39.169  31.506  31.442  1.00  0.00     0.074 A 
ATOM     58  C   UNL A   1      45.526  29.791  31.334  1.00  0.00     0.029 A 
ATOM     59  N   UNL A   1      44.058  31.432  31.303  1.00  0.00    -0.354 N 
ATOM     60  N   UNL A   1      39.838  31.042  32.468  1.00  0.00    -0.248 NA
ATOM     61  C   UNL A   1      39.892  32.454  30.605  1.00  0.00     0.031 C 
ATOM     62  C   UNL A   1      44.566  29.596  32.368  1.00  0.00     0.029 A 
ATOM     63  C   UNL A   1      43.539  30.526  32.194  1.00  0.00     0.049 A 
ATOM     64  H   UNL A   1      43.804  32.381  31.228  1.00  0.00     0.167 HD
ATOM     65  C   UNL A   1      41.172  31.323  32.188  1.00  0.00     0.074 A 
ATOM     66  C   UNL A   1      41.135  32.227  31.040  1.00  0.00     0.031 C 
ATOM     67  C   UNL A   1      42.187  30.574  32.715  1.00  0.00     0.037 A 
BRANCH  54  68
ATOM     68  C   UNL A   1      45.278  32.339  28.478  1.00  0.00     0.058 A 
ATOM     69  C   UNL A   1      44.344  33.385  28.290  1.00  0.00     0.135 A 
ATOM     70  C   UNL A   1      46.626  32.690  28.267  1.00  0.00     0.135 A 
ATOM     71  F   UNL A   1      43.040  33.254  28.558  1.00  0.00    -0.206 F 
ATOM     72  C   UNL A   1      44.708  34.666  27.907  1.00  0.00     0.059 A 
ATOM     73  C   UNL A   1      47.019  33.991  27.943  1.00  0.00     0.059 A 
ATOM     74  F   UNL A   1      47.600  31.782  28.433  1.00  0.00    -0.206 F 
ATOM     75  C   UNL A   1      46.050  34.971  27.768  1.00  0.00     0.060 A 
BRANCH  75  76
ATOM     76  S   UNL A   1      46.479  36.689  27.457  1.00  0.00     0.124 S 
ATOM     77  O   UNL A   1      45.255  37.186  26.835  1.00  0.00    -0.237 OA
ATOM     78  O   UNL A   1      46.751  37.179  28.805  1.00  0.00    -0.237 OA
ATOM     79  O   UNL A   1      47.639  36.591  26.578  1.00  0.00    -0.744 OA
ENDBRANCH  75  76
ENDBRANCH  54  68
BRANCH  55  80
ATOM     80  C   UNL A   1      36.762  31.479  30.418  1.00  0.00     0.058 A 
ATOM     81  C   UNL A   1      36.526  31.855  29.080  1.00  0.00     0.135 A 
ATOM     82  C   UNL A   1      35.895  32.042  31.376  1.00  0.00     0.135 A 
ATOM     83  F   UNL A   1      37.325  31.427  28.091  1.00  0.00    -0.206 F 
ATOM     84  C   UNL A   1      35.525  32.756  28.717  1.00  0.00     0.059 A 
ATOM     85  C   UNL A   1      34.881  32.950  31.035  1.00  0.00     0.059 A 
ATOM     86  F   UNL A   1      36.061  31.762  32.678  1.00  0.00    -0.206 F 
ATOM     87  C   UNL A   1      34.722  33.320  29.701  1.00  0.00     0.060 A 
BRANCH  87  88
ATOM     88  S   UNL A   1      33.535  34.591  29.199  1.00  0.00     0.124 S 
ATOM     89  O   UNL A   1      32.864  34.886  30.461  1.00  0.00    -0.237 OA
ATOM     90  O   UNL A   1      34.413  35.640  28.691  1.00  0.00    -0.237 OA
ATOM     91  O   UNL A   1      32.717  33.920  28.196  1.00  0.00    -0.744 OA
ENDBRANCH  87  88
ENDBRANCH  55  80
BRANCH  67  92
ATOM     92  C   UNL A   1      41.859  29.555  33.783  1.00  0.00     0.058 A 
ATOM     93  C   UNL A   1      42.210  29.858  35.105  1.00  0.00     0.135 A 
ATOM     94  C   UNL A   1      41.443  28.236  33.517  1.00  0.00     0.135 A 
ATOM     95  F   UNL A   1      42.663  31.084  35.416  1.00  0.00    -0.206 F 
ATOM     96  C   UNL A   1      42.186  28.899  36.113  1.00  0.00     0.059 A 
ATOM     97  C   UNL A   1      41.381  27.261  34.520  1.00  0.00     0.059 A 
ATOM     98  F   UNL A   1      41.170  27.843  32.266  1.00  0.00    -0.206 F 
ATOM     99  C   UNL A   1      41.779  27.600  35.811  1.00  0.00     0.060 A 
BRANCH  99 100
ATOM    100  S   UNL A   1      41.831  26.368  37.132  1.00  0.00     0.124 S 
ATOM    101  O   UNL A   1      40.512  26.520  37.739  1.00  0.00    -0.237 OA
ATOM    102  O   UNL A   1      42.042  25.128  36.391  1.00  0.00    -0.237 OA
ATOM    103  O   UNL A   1      42.952  26.794  37.964  1.00  0.00    -0.744 OA
ENDBRANCH  99 100
ENDBRANCH  67  92
ENDBRANCH  41  42
ENDBRANCH  34  36
ENDBRANCH  33  34
ENDBRANCH  32  33
ENDBRANCH   1  32
TORSDOF 19
ENDMDL
MODEL 2
REMARK VINA RESULT:     -12.7      2.664      3.760
REMARK SMILES CC1=Nc2c(c(C)nn2-c2ccc(F)cc2)[C@H](c2ccc(C(=O)OCCOCCOC(=O)c3ccc(-c4c5nc(c(-c6c(F)cc(S(=O)(=O)[O-])cc6F)c6ccc([nH]6)c(-c6c(F)cc(S(=O)(=O)[O-])cc6F)c6nc(c(-c7c(F)cc(S(=O)(=O)[O-])cc7F)c7ccc4[nH]7)C=C6)C=C5)cc3)cc2)S1
REMARK SMILES IDX 28 1 27 2 26 3 25 4 24 5 22 6 23 7 21 8 18 9 19 10 100 11
REMARK SMILES IDX 20 12 99 13 17 14 1 15 2 16 3 17 101 18 4 19 5 20 9 21 6 22
REMARK SMILES IDX 8 23 7 24 10 25 11 26 16 27 12 28 15 29 13 30 14 31 29 32
REMARK SMILES IDX 30 33 31 34 32 35 33 36 34 37 98 38 35 39 97 40 36 41 37 42
REMARK SMILES IDX 38 43 91 44 39 45 96 46 90 47 92 48 40 49 95 50 89 51 88 52
REMARK SMILES IDX 41 54 75 55 54 56 74 57 55 58 58 59 73 60 93 61 56 62 57 63
REMARK SMILES IDX 72 65 94 66 59 67 42 68 43 69 52 70 44 71 45 72 51 73 53 74
REMARK SMILES IDX 46 75 47 76 48 77 49 78 50 79 76 80 77 81 86 82 78 83 79 84
REMARK SMILES IDX 85 85 87 86 80 87 81 88 82 89 83 90 84 91 60 92 61 93 70 94
REMARK SMILES IDX 62 95 63 96 69 97 71 98 64 99 65 100 66 101 67 102 68 103
REMARK H PARENT 92 53 58 64
REMARK Flexibility Score: inf
ROOT
ATOM      1  C   UNL A   1      42.219  19.478  27.232  1.00  0.00     0.202 C 
ENDROOT
BRANCH   1   2
ATOM      2  O   UNL A   1      40.901  19.996  27.387  1.00  0.00    -0.374 OA
BRANCH   2   3
ATOM      3  C   UNL A   1      40.670  21.402  27.479  1.00  0.00     0.202 C 
BRANCH   3   4
ATOM      4  C   UNL A   1      40.110  22.152  26.269  1.00  0.00     0.261 C 
BRANCH   4   5
ATOM      5  O   UNL A   1      38.686  22.333  26.327  1.00  0.00    -0.460 OA
BRANCH   5   6
ATOM      6  C   UNL A   1      38.006  21.505  25.501  1.00  0.00     0.338 C 
ATOM      7  O   UNL A   1      38.370  20.405  25.109  1.00  0.00    -0.246 OA
BRANCH   6   8
ATOM      8  C   UNL A   1      36.638  22.000  25.232  1.00  0.00     0.060 A 
ATOM      9  C   UNL A   1      34.011  22.648  24.430  1.00  0.00    -0.030 A 
ATOM     10  C   UNL A   1      34.331  21.366  24.910  1.00  0.00     0.006 A 
ATOM     11  C   UNL A   1      35.026  23.628  24.459  1.00  0.00     0.006 A 
ATOM     12  C   UNL A   1      35.620  21.048  25.316  1.00  0.00     0.016 A 
ATOM     13  C   UNL A   1      36.339  23.306  24.847  1.00  0.00     0.016 A 
BRANCH   9  14
ATOM     14  C   UNL A   1      32.623  22.854  23.835  1.00  0.00     0.119 C 
ATOM     15  C   UNL A   1      33.020  24.982  20.303  1.00  0.00     0.075 C 
ATOM     16  C   UNL A   1      32.528  24.588  21.671  1.00  0.00     0.074 C 
ATOM     17  N   UNL A   1      32.126  25.531  22.460  1.00  0.00    -0.227 NA
ATOM     18  S   UNL A   1      32.578  22.866  22.015  1.00  0.00    -0.098 SA
ATOM     19  C   UNL A   1      31.779  25.213  23.728  1.00  0.00     0.161 A 
ATOM     20  C   UNL A   1      32.018  24.060  24.440  1.00  0.00     0.038 A 
ATOM     21  N   UNL A   1      31.165  26.096  24.602  1.00  0.00    -0.215 N 
ATOM     22  C   UNL A   1      31.495  24.323  25.736  1.00  0.00     0.067 A 
ATOM     23  N   UNL A   1      31.077  25.589  25.857  1.00  0.00    -0.171 NA
ATOM     24  C   UNL A   1      31.373  23.416  26.905  1.00  0.00     0.069 C 
BRANCH  21  25
ATOM     25  C   UNL A   1      30.631  27.366  24.291  1.00  0.00     0.067 A 
ATOM     26  C   UNL A   1      29.481  27.461  23.491  1.00  0.00     0.031 A 
ATOM     27  C   UNL A   1      31.281  28.517  24.753  1.00  0.00     0.031 A 
ATOM     28  C   UNL A   1      28.989  28.717  23.144  1.00  0.00     0.041 A 
ATOM     29  C   UNL A   1      30.812  29.769  24.351  1.00  0.00     0.041 A 
ATOM     30  C   UNL A   1      29.670  29.857  23.559  1.00  0.00     0.123 A 
ATOM     31  F   UNL A   1      29.209  31.059  23.191  1.00  0.00    -0.207 F 
ENDBRANCH  21  25
ENDBRANCH   9  14
ENDBRANCH   6   8
ENDBRANCH   5   6
ENDBRANCH   4   5
ENDBRANCH   3   4
ENDBRANCH   2   3
ENDBRANCH   1   2
BRANCH   1  32
ATOM     32  C   UNL A   1      42.847  19.425  25.847  1.00  0.00     0.261 C 
BRANCH  32  33
ATOM     33  O   UNL A   1      43.237  20.712  25.409  1.00  0.00    -0.460 OA
BRANCH  33  34
ATOM     34  C   UNL A   1      44.468  20.744  24.845  1.00  0.00     0.338 C 
ATOM     35  O   UNL A   1      45.143  19.798  24.496  1.00  0.00    -0.246 OA
BRANCH  34  36
ATOM     36  C   UNL A   1      44.914  22.142  24.801  1.00  0.00     0.060 A 
ATOM     37  C   UNL A   1      45.955  22.454  25.677  1.00  0.00     0.016 A 
ATOM     38  C   UNL A   1      44.020  23.102  24.313  1.00  0.00     0.016 A 
ATOM     39  C   UNL A   1      45.867  23.640  26.360  1.00  0.00     0.010 A 
ATOM     40  C   UNL A   1      43.912  24.267  25.018  1.00  0.00     0.010 A 
ATOM     41  C   UNL A   1      44.762  24.454  26.106  1.00  0.00    -0.014 A 
BRANCH  41  42
ATOM     42  C   UNL A   1      44.507  25.572  26.981  1.00  0.00     0.031 A 
ATOM     43  C   UNL A   1      45.533  26.624  26.823  1.00  0.00     0.074 A 
ATOM     44  C   UNL A   1      43.376  25.644  27.710  1.00  0.00     0.049 A 
ATOM     45  N   UNL A   1      46.484  26.934  27.639  1.00  0.00    -0.248 NA
ATOM     46  C   UNL A   1      45.682  27.215  25.479  1.00  0.00     0.031 C 
ATOM     47  C   UNL A   1      42.206  24.757  27.691  1.00  0.00     0.029 A 
ATOM     48  N   UNL A   1      42.997  26.620  28.574  1.00  0.00    -0.354 N 
ATOM     49  C   UNL A   1      47.195  27.937  26.990  1.00  0.00     0.074 A 
ATOM     50  C   UNL A   1      46.847  27.845  25.601  1.00  0.00     0.031 C 
ATOM     51  C   UNL A   1      41.172  25.365  28.321  1.00  0.00     0.029 A 
ATOM     52  C   UNL A   1      41.640  26.611  28.897  1.00  0.00     0.049 A 
ATOM     53  H   UNL A   1      43.628  27.281  28.941  1.00  0.00     0.167 HD
ATOM     54  C   UNL A   1      47.766  28.963  27.677  1.00  0.00     0.037 A 
ATOM     55  C   UNL A   1      40.988  27.635  29.512  1.00  0.00     0.037 A 
ATOM     56  C   UNL A   1      47.881  28.642  29.076  1.00  0.00     0.049 A 
ATOM     57  C   UNL A   1      42.044  28.466  30.165  1.00  0.00     0.074 A 
ATOM     58  C   UNL A   1      48.571  27.682  29.787  1.00  0.00     0.029 A 
ATOM     59  N   UNL A   1      46.888  29.097  29.913  1.00  0.00    -0.354 N 
ATOM     60  N   UNL A   1      42.804  28.030  31.138  1.00  0.00    -0.248 NA
ATOM     61  C   UNL A   1      42.600  29.565  29.386  1.00  0.00     0.031 C 
ATOM     62  C   UNL A   1      47.682  27.280  30.825  1.00  0.00     0.029 A 
ATOM     63  C   UNL A   1      46.530  28.065  30.744  1.00  0.00     0.049 A 
ATOM     64  H   UNL A   1      46.502  30.003  29.915  1.00  0.00     0.167 HD
ATOM     65  C   UNL A   1      44.076  28.516  30.851  1.00  0.00     0.074 A 
ATOM     66  C   UNL A   1      43.876  29.486  29.775  1.00  0.00     0.031 C 
ATOM     67  C   UNL A   1      45.202  27.883  31.297  1.00  0.00     0.037 A 
BRANCH  54  68
ATOM     68  C   UNL A   1      47.877  30.368  27.138  1.00  0.00     0.058 A 
ATOM     69  C   UNL A   1      46.775  31.207  26.851  1.00  0.00     0.135 A 
ATOM     70  C   UNL A   1      49.135  31.002  27.134  1.00  0.00     0.135 A 
ATOM     71  F   UNL A   1      45.505  30.793  26.925  1.00  0.00    -0.206 F 
ATOM     72  C   UNL A   1      46.904  32.556  26.565  1.00  0.00     0.059 A 
ATOM     73  C   UNL A   1      49.281  32.374  26.911  1.00  0.00     0.059 A 
ATOM     74  F   UNL A   1      50.250  30.307  27.409  1.00  0.00    -0.206 F 
ATOM     75  C   UNL A   1      48.157  33.141  26.631  1.00  0.00     0.060 A 
BRANCH  75  76
ATOM     76  S   UNL A   1      48.247  34.926  26.439  1.00  0.00     0.124 S 
ATOM     77  O   UNL A   1      49.691  35.141  26.401  1.00  0.00    -0.237 OA
ATOM     78  O   UNL A   1      47.541  35.129  25.178  1.00  0.00    -0.237 OA
ATOM     79  O   UNL A   1      47.566  35.425  27.628  1.00  0.00    -0.744 OA
ENDBRANCH  75  76
ENDBRANCH  54  68
BRANCH  55  80
ATOM     80  C   UNL A   1      39.632  28.172  29.196  1.00  0.00     0.058 A 
ATOM     81  C   UNL A   1      39.392  28.900  28.013  1.00  0.00     0.135 A 
ATOM     82  C   UNL A   1      38.616  28.231  30.170  1.00  0.00     0.135 A 
ATOM     83  F   UNL A   1      40.315  28.963  27.041  1.00  0.00    -0.206 F 
ATOM     84  C   UNL A   1      38.242  29.664  27.820  1.00  0.00     0.059 A 
ATOM     85  C   UNL A   1      37.451  28.993  29.999  1.00  0.00     0.059 A 
ATOM     86  F   UNL A   1      38.770  27.591  31.340  1.00  0.00    -0.206 F 
ATOM     87  C   UNL A   1      37.286  29.729  28.827  1.00  0.00     0.060 A 
BRANCH  87  88
ATOM     88  S   UNL A   1      35.883  30.847  28.592  1.00  0.00     0.124 S 
ATOM     89  O   UNL A   1      35.560  31.214  29.967  1.00  0.00    -0.237 OA
ATOM     90  O   UNL A   1      36.472  31.904  27.778  1.00  0.00    -0.237 OA
ATOM     91  O   UNL A   1      34.892  30.017  27.916  1.00  0.00    -0.744 OA
ENDBRANCH  87  88
ENDBRANCH  55  80
BRANCH  67  92
ATOM     92  C   UNL A   1      45.055  26.754  32.292  1.00  0.00     0.058 A 
ATOM     93  C   UNL A   1      44.874  25.459  31.790  1.00  0.00     0.135 A 
ATOM     94  C   UNL A   1      44.854  26.939  33.675  1.00  0.00     0.135 A 
ATOM     95  F   UNL A   1      45.000  25.226  30.473  1.00  0.00    -0.206 F 
ATOM     96  C   UNL A   1      44.479  24.401  32.603  1.00  0.00     0.059 A 
ATOM     97  C   UNL A   1      44.487  25.884  34.518  1.00  0.00     0.059 A 
ATOM     98  F   UNL A   1      44.926  28.161  34.219  1.00  0.00    -0.206 F 
ATOM     99  C   UNL A   1      44.279  24.623  33.965  1.00  0.00     0.060 A 
BRANCH  99 100
ATOM    100  S   UNL A   1      43.697  23.240  34.972  1.00  0.00     0.124 S 
ATOM    101  O   UNL A   1      44.492  23.396  36.187  1.00  0.00    -0.237 OA
ATOM    102  O   UNL A   1      42.274  23.534  35.110  1.00  0.00    -0.237 OA
ATOM    103  O   UNL A   1      44.015  22.064  34.168  1.00  0.00    -0.744 OA
ENDBRANCH  99 100
ENDBRANCH  67  92
ENDBRANCH  41  42
ENDBRANCH  34  36
ENDBRANCH  33  34
ENDBRANCH  32  33
ENDBRANCH   1  32
TORSDOF 19
ENDMDL
MODEL 3
REMARK VINA RESULT:     -12.4      3.889      8.012
REMARK SMILES CC1=Nc2c(c(C)nn2-c2ccc(F)cc2)[C@H](c2ccc(C(=O)OCCOCCOC(=O)c3ccc(-c4c5nc(c(-c6c(F)cc(S(=O)(=O)[O-])cc6F)c6ccc([nH]6)c(-c6c(F)cc(S(=O)(=O)[O-])cc6F)c6nc(c(-c7c(F)cc(S(=O)(=O)[O-])cc7F)c7ccc4[nH]7)C=C6)C=C5)cc3)cc2)S1
REMARK SMILES IDX 28 1 27 2 26 3 25 4 24 5 22 6 23 7 21 8 18 9 19 10 100 11
REMARK SMILES IDX 20 12 99 13 17 14 1 15 2 16 3 17 101 18 4 19 5 20 9 21 6 22
REMARK SMILES IDX 8 23 7 24 10 25 11 26 16 27 12 28 15 29 13 30 14 31 29 32
REMARK SMILES IDX 30 33 31 34 32 35 33 36 34 37 98 38 35 39 97 40 36 41 37 42
REMARK SMILES IDX 38 43 91 44 39 45 96 46 90 47 92 48 40 49 95 50 89 51 88 52
REMARK SMILES IDX 41 54 75 55 54 56 74 57 55 58 58 59 73 60 93 61 56 62 57 63
REMARK SMILES IDX 72 65 94 66 59 67 42 68 43 69 52 70 44 71 45 72 51 73 53 74
REMARK SMILES IDX 46 75 47 76 48 77 49 78 50 79 76 80 77 81 86 82 78 83 79 84
REMARK SMILES IDX 85 85 87 86 80 87 81 88 82 89 83 90 84 91 60 92 61 93 70 94
REMARK SMILES IDX 62 95 63 96 69 97 71 98 64 99 65 100 66 101 67 102 68 103
REMARK H PARENT 92 53 58 64
REMARK Flexibility Score: inf
ROOT
ATOM      1  C   UNL A   1      40.795  19.584  26.502  1.00  0.00     0.202 C 
ENDROOT
BRANCH   1   2
ATOM      2  O   UNL A   1      41.590  18.712  25.703  1.00  0.00    -0.374 OA
BRANCH   2   3
ATOM      3  C   UNL A   1      42.874  18.274  26.149  1.00  0.00     0.202 C 
BRANCH   3   4
ATOM      4  C   UNL A   1      44.133  18.897  25.542  1.00  0.00     0.261 C 
BRANCH   4   5
ATOM      5  O   UNL A   1      44.126  20.332  25.575  1.00  0.00    -0.460 OA
BRANCH   5   6
ATOM      6  C   UNL A   1      44.586  20.898  24.436  1.00  0.00     0.338 C 
ATOM      7  O   UNL A   1      44.710  20.352  23.349  1.00  0.00    -0.246 OA
BRANCH   6   8
ATOM      8  C   UNL A   1      44.779  22.357  24.587  1.00  0.00     0.060 A 
ATOM      9  C   UNL A   1      45.404  25.043  25.184  1.00  0.00    -0.030 A 
ATOM     10  C   UNL A   1      46.406  24.124  24.829  1.00  0.00     0.006 A 
ATOM     11  C   UNL A   1      44.065  24.602  25.134  1.00  0.00     0.006 A 
ATOM     12  C   UNL A   1      46.100  22.805  24.523  1.00  0.00     0.016 A 
ATOM     13  C   UNL A   1      43.750  23.261  24.847  1.00  0.00     0.016 A 
BRANCH   9  14
ATOM     14  C   UNL A   1      45.847  26.415  25.682  1.00  0.00     0.119 C 
ATOM     15  C   UNL A   1      49.394  27.410  23.790  1.00  0.00     0.075 C 
ATOM     16  C   UNL A   1      48.394  27.177  24.891  1.00  0.00     0.074 C 
ATOM     17  N   UNL A   1      48.848  26.817  26.048  1.00  0.00    -0.227 NA
ATOM     18  S   UNL A   1      46.714  27.424  24.440  1.00  0.00    -0.098 SA
ATOM     19  C   UNL A   1      47.964  26.501  27.023  1.00  0.00     0.161 A 
ATOM     20  C   UNL A   1      46.615  26.243  26.934  1.00  0.00     0.038 A 
ATOM     21  N   UNL A   1      48.322  26.282  28.343  1.00  0.00    -0.215 N 
ATOM     22  C   UNL A   1      46.228  25.894  28.257  1.00  0.00     0.067 A 
ATOM     23  N   UNL A   1      47.281  25.817  29.079  1.00  0.00    -0.171 NA
ATOM     24  C   UNL A   1      44.875  25.613  28.800  1.00  0.00     0.069 C 
BRANCH  21  25
ATOM     25  C   UNL A   1      49.580  26.528  28.936  1.00  0.00     0.067 A 
ATOM     26  C   UNL A   1      50.207  25.518  29.682  1.00  0.00     0.031 A 
ATOM     27  C   UNL A   1      50.166  27.792  28.805  1.00  0.00     0.031 A 
ATOM     28  C   UNL A   1      51.423  25.782  30.308  1.00  0.00     0.041 A 
ATOM     29  C   UNL A   1      51.354  28.063  29.484  1.00  0.00     0.041 A 
ATOM     30  C   UNL A   1      51.974  27.056  30.220  1.00  0.00     0.123 A 
ATOM     31  F   UNL A   1      53.125  27.311  30.856  1.00  0.00    -0.207 F 
ENDBRANCH  21  25
ENDBRANCH   9  14
ENDBRANCH   6   8
ENDBRANCH   5   6
ENDBRANCH   4   5
ENDBRANCH   3   4
ENDBRANCH   2   3
ENDBRANCH   1   2
BRANCH   1  32
ATOM     32  C   UNL A   1      40.501  20.994  26.010  1.00  0.00     0.261 C 
BRANCH  32  33
ATOM     33  O   UNL A   1      40.222  21.867  27.087  1.00  0.00    -0.460 OA
BRANCH  33  34
ATOM     34  C   UNL A   1      39.614  23.016  26.711  1.00  0.00     0.338 C 
ATOM     35  O   UNL A   1      38.478  23.151  26.306  1.00  0.00    -0.246 OA
BRANCH  34  36
ATOM     36  C   UNL A   1      40.601  24.101  26.785  1.00  0.00     0.060 A 
ATOM     37  C   UNL A   1      41.416  24.077  27.918  1.00  0.00     0.016 A 
ATOM     38  C   UNL A   1      40.348  25.269  26.056  1.00  0.00     0.016 A 
ATOM     39  C   UNL A   1      41.663  25.275  28.538  1.00  0.00     0.010 A 
ATOM     40  C   UNL A   1      40.564  26.458  26.693  1.00  0.00     0.010 A 
ATOM     41  C   UNL A   1      41.106  26.425  27.976  1.00  0.00    -0.014 A 
BRANCH  41  42
ATOM     42  C   UNL A   1      41.130  27.651  28.734  1.00  0.00     0.031 A 
ATOM     43  C   UNL A   1      42.366  28.419  28.476  1.00  0.00     0.074 A 
ATOM     44  C   UNL A   1      40.060  28.051  29.448  1.00  0.00     0.049 A 
ATOM     45  N   UNL A   1      43.378  28.581  29.261  1.00  0.00    -0.248 NA
ATOM     46  C   UNL A   1      42.620  28.826  27.080  1.00  0.00     0.031 C 
ATOM     47  C   UNL A   1      38.718  27.459  29.513  1.00  0.00     0.029 A 
ATOM     48  N   UNL A   1      39.930  29.168  30.209  1.00  0.00    -0.354 N 
ATOM     49  C   UNL A   1      44.287  29.326  28.518  1.00  0.00     0.074 A 
ATOM     50  C   UNL A   1      43.901  29.181  27.144  1.00  0.00     0.031 C 
ATOM     51  C   UNL A   1      37.862  28.347  30.076  1.00  0.00     0.029 A 
ATOM     52  C   UNL A   1      38.613  29.502  30.527  1.00  0.00     0.049 A 
ATOM     53  H   UNL A   1      40.702  29.699  30.511  1.00  0.00     0.167 HD
ATOM     54  C   UNL A   1      45.090  30.255  29.101  1.00  0.00     0.037 A 
ATOM     55  C   UNL A   1      38.225  30.704  31.034  1.00  0.00     0.037 A 
ATOM     56  C   UNL A   1      45.156  30.056  30.525  1.00  0.00     0.049 A 
ATOM     57  C   UNL A   1      39.456  31.330  31.605  1.00  0.00     0.074 A 
ATOM     58  C   UNL A   1      45.622  29.037  31.332  1.00  0.00     0.029 A 
ATOM     59  N   UNL A   1      44.310  30.806  31.309  1.00  0.00    -0.354 N 
ATOM     60  N   UNL A   1      40.114  30.828  32.620  1.00  0.00    -0.248 NA
ATOM     61  C   UNL A   1      40.232  32.190  30.723  1.00  0.00     0.031 C 
ATOM     62  C   UNL A   1      44.685  28.953  32.401  1.00  0.00     0.029 A 
ATOM     63  C   UNL A   1      43.741  29.969  32.238  1.00  0.00     0.049 A 
ATOM     64  H   UNL A   1      44.141  31.772  31.220  1.00  0.00     0.167 HD
ATOM     65  C   UNL A   1      41.458  30.979  32.290  1.00  0.00     0.074 A 
ATOM     66  C   UNL A   1      41.464  31.859  31.122  1.00  0.00     0.031 C 
ATOM     67  C   UNL A   1      42.418  30.152  32.801  1.00  0.00     0.037 A 
BRANCH  54  68
ATOM     68  C   UNL A   1      45.509  31.538  28.426  1.00  0.00     0.058 A 
ATOM     69  C   UNL A   1      46.765  31.747  27.809  1.00  0.00     0.135 A 
ATOM     70  C   UNL A   1      44.538  32.523  28.164  1.00  0.00     0.135 A 
ATOM     71  F   UNL A   1      47.760  30.854  27.860  1.00  0.00    -0.206 F 
ATOM     72  C   UNL A   1      47.045  32.847  27.014  1.00  0.00     0.059 A 
ATOM     73  C   UNL A   1      44.779  33.606  27.314  1.00  0.00     0.059 A 
ATOM     74  F   UNL A   1      43.305  32.419  28.684  1.00  0.00    -0.206 F 
ATOM     75  C   UNL A   1      46.037  33.755  26.743  1.00  0.00     0.060 A 
BRANCH  75  76
ATOM     76  S   UNL A   1      46.395  35.058  25.557  1.00  0.00     0.124 S 
ATOM     77  O   UNL A   1      45.819  36.223  26.223  1.00  0.00    -0.237 OA
ATOM     78  O   UNL A   1      47.853  35.017  25.497  1.00  0.00    -0.237 OA
ATOM     79  O   UNL A   1      45.703  34.614  24.353  1.00  0.00    -0.744 OA
ENDBRANCH  75  76
ENDBRANCH  54  68
BRANCH  55  80
ATOM     80  C   UNL A   1      37.022  31.503  30.661  1.00  0.00     0.058 A 
ATOM     81  C   UNL A   1      36.880  32.051  29.370  1.00  0.00     0.135 A 
ATOM     82  C   UNL A   1      36.126  31.986  31.635  1.00  0.00     0.135 A 
ATOM     83  F   UNL A   1      37.716  31.709  28.379  1.00  0.00    -0.206 F 
ATOM     84  C   UNL A   1      35.941  33.037  29.070  1.00  0.00     0.059 A 
ATOM     85  C   UNL A   1      35.172  32.978  31.357  1.00  0.00     0.059 A 
ATOM     86  F   UNL A   1      36.204  31.541  32.899  1.00  0.00    -0.206 F 
ATOM     87  C   UNL A   1      35.106  33.516  30.073  1.00  0.00     0.060 A 
BRANCH  87  88
ATOM     88  S   UNL A   1      34.005  34.895  29.673  1.00  0.00     0.124 S 
ATOM     89  O   UNL A   1      32.800  34.196  29.236  1.00  0.00    -0.237 OA
ATOM     90  O   UNL A   1      33.906  35.584  30.955  1.00  0.00    -0.237 OA
ATOM     91  O   UNL A   1      34.724  35.616  28.628  1.00  0.00    -0.744 OA
ENDBRANCH  87  88
ENDBRANCH  55  80
BRANCH  67  92
ATOM     92  C   UNL A   1      42.035  29.190  33.904  1.00  0.00     0.058 A 
ATOM     93  C   UNL A   1      42.493  29.465  35.199  1.00  0.00     0.135 A 
ATOM     94  C   UNL A   1      41.456  27.925  33.684  1.00  0.00     0.135 A 
ATOM     95  F   UNL A   1      43.102  30.633  35.463  1.00  0.00    -0.206 F 
ATOM     96  C   UNL A   1      42.416  28.526  36.223  1.00  0.00     0.059 A 
ATOM     97  C   UNL A   1      41.339  26.975  34.706  1.00  0.00     0.059 A 
ATOM     98  F   UNL A   1      41.069  27.552  32.457  1.00  0.00    -0.206 F 
ATOM     99  C   UNL A   1      41.846  27.280  35.967  1.00  0.00     0.060 A 
BRANCH  99 100
ATOM    100  S   UNL A   1      41.830  26.065  37.305  1.00  0.00     0.124 S 
ATOM    101  O   UNL A   1      42.200  24.839  36.603  1.00  0.00    -0.237 OA
ATOM    102  O   UNL A   1      42.838  26.595  38.217  1.00  0.00    -0.237 OA
ATOM    103  O   UNL A   1      40.458  26.108  37.801  1.00  0.00    -0.744 OA
ENDBRANCH  99 100
ENDBRANCH  67  92
ENDBRANCH  41  42
ENDBRANCH  34  36
ENDBRANCH  33  34
ENDBRANCH  32  33
ENDBRANCH   1  32
TORSDOF 19
ENDMDL
