MODEL 1
REMARK VINA RESULT:     -11.3      0.000      0.000
REMARK SMILES COc1ccc(C(=O)OCCOCCOC(=O)c2ccc(-c3c4nc(c(-c5c(F)cc(S(=O)(=O)[O-])cc5F)c5ccc([nH]5)c(-c5c(F)cc(S(=O)(=O)[O-])cc5F)c5nc(c(-c6c(F)cc(S(=O)(=O)[O-])cc6F)c6ccc3[nH]6)C=C5)C=C4)cc2)cc1S(=O)(=O)N(C)Cc1cccc(F)c1
REMARK SMILES IDX 11 1 10 2 9 3 7 4 8 5 6 6 3 7 4 8 85 9 5 10 84 11 2 12 1 13
REMARK SMILES IDX 86 14 87 15 88 16 89 17 90 18 91 19 92 20 93 21 98 22 94 23
REMARK SMILES IDX 96 24 95 25 97 26 12 27 13 28 14 29 15 30 16 31 17 32 18 33
REMARK SMILES IDX 19 34 83 35 20 36 82 37 21 38 22 39 23 40 76 41 24 42 81 43
REMARK SMILES IDX 75 44 77 45 25 46 80 47 74 48 73 49 26 51 60 52 39 53 59 54
REMARK SMILES IDX 40 55 43 56 58 57 78 58 41 59 42 60 57 62 79 63 44 64 27 65
REMARK SMILES IDX 28 66 37 67 29 68 30 69 36 70 38 71 31 72 32 73 33 74 34 75
REMARK SMILES IDX 35 76 61 77 62 78 71 79 63 80 64 81 70 82 72 83 65 84 66 85
REMARK SMILES IDX 67 86 68 87 69 88 45 89 46 90 55 91 47 92 48 93 54 94 56 95
REMARK SMILES IDX 49 96 50 97 51 98 52 99 53 100
REMARK H PARENT 77 50 43 61
REMARK Flexibility Score: inf
ROOT
ATOM      1  C   UNL A   1      38.511  22.041  26.068  1.00  0.00     0.202 C 
ENDROOT
BRANCH   1   2
ATOM      2  C   UNL A   1      37.947  21.154  24.954  1.00  0.00     0.261 C 
BRANCH   2   3
ATOM      3  O   UNL A   1      36.688  21.625  24.450  1.00  0.00    -0.460 OA
BRANCH   3   4
ATOM      4  C   UNL A   1      35.615  20.926  24.891  1.00  0.00     0.338 C 
ATOM      5  O   UNL A   1      35.481  19.713  24.896  1.00  0.00    -0.246 OA
BRANCH   4   6
ATOM      6  C   UNL A   1      34.618  21.826  25.517  1.00  0.00     0.061 A 
ATOM      7  C   UNL A   1      32.549  23.300  26.695  1.00  0.00     0.138 A 
ATOM      8  C   UNL A   1      33.048  22.157  27.327  1.00  0.00     0.049 A 
ATOM      9  C   UNL A   1      33.174  23.784  25.546  1.00  0.00     0.125 A 
ATOM     10  C   UNL A   1      34.071  21.419  26.738  1.00  0.00     0.019 A 
ATOM     11  C   UNL A   1      34.203  23.030  24.944  1.00  0.00     0.041 A 
BRANCH   7  12
ATOM     12  O   UNL A   1      31.471  23.877  27.298  1.00  0.00    -0.495 OA
ATOM     13  C   UNL A   1      30.278  23.154  26.984  1.00  0.00     0.278 C 
ENDBRANCH   7  12
BRANCH   9  14
ATOM     14  S   UNL A   1      32.789  25.305  24.720  1.00  0.00     0.246 S 
ATOM     15  O   UNL A   1      32.608  26.285  25.773  1.00  0.00    -0.207 OA
ATOM     16  O   UNL A   1      33.832  25.460  23.727  1.00  0.00    -0.207 OA
BRANCH  14  17
ATOM     17  N   UNL A   1      31.314  25.171  23.879  1.00  0.00    -0.196 NA
ATOM     18  C   UNL A   1      30.959  23.804  23.417  1.00  0.00     0.125 C 
BRANCH  17  19
ATOM     19  C   UNL A   1      30.163  25.870  24.546  1.00  0.00     0.137 C 
BRANCH  19  20
ATOM     20  C   UNL A   1      29.521  26.942  23.695  1.00  0.00    -0.030 A 
ATOM     21  C   UNL A   1      30.317  27.855  22.987  1.00  0.00     0.005 A 
ATOM     22  C   UNL A   1      28.137  27.158  23.760  1.00  0.00     0.044 A 
ATOM     23  C   UNL A   1      29.761  29.021  22.459  1.00  0.00     0.003 A 
ATOM     24  C   UNL A   1      27.593  28.321  23.226  1.00  0.00     0.123 A 
ATOM     25  C   UNL A   1      28.397  29.265  22.600  1.00  0.00     0.039 A 
ATOM     26  F   UNL A   1      26.284  28.558  23.376  1.00  0.00    -0.207 F 
ENDBRANCH  19  20
ENDBRANCH  17  19
ENDBRANCH  14  17
ENDBRANCH   9  14
ENDBRANCH   4   6
ENDBRANCH   3   4
ENDBRANCH   2   3
ENDBRANCH   1   2
BRANCH   1  27
ATOM     27  O   UNL A   1      39.644  21.565  26.792  1.00  0.00    -0.374 OA
BRANCH  27  28
ATOM     28  C   UNL A   1      40.915  21.607  26.143  1.00  0.00     0.202 C 
BRANCH  28  29
ATOM     29  C   UNL A   1      41.727  22.906  26.223  1.00  0.00     0.261 C 
BRANCH  29  30
ATOM     30  O   UNL A   1      40.909  24.069  26.429  1.00  0.00    -0.460 OA
BRANCH  30  31
ATOM     31  C   UNL A   1      41.540  25.248  26.202  1.00  0.00     0.338 C 
ATOM     32  O   UNL A   1      41.909  25.691  25.129  1.00  0.00    -0.246 OA
BRANCH  31  33
ATOM     33  C   UNL A   1      41.562  26.048  27.441  1.00  0.00     0.060 A 
ATOM     34  C   UNL A   1      40.520  25.853  28.358  1.00  0.00     0.016 A 
ATOM     35  C   UNL A   1      42.535  27.021  27.666  1.00  0.00     0.016 A 
ATOM     36  C   UNL A   1      40.422  26.667  29.483  1.00  0.00     0.010 A 
ATOM     37  C   UNL A   1      42.430  27.842  28.793  1.00  0.00     0.010 A 
ATOM     38  C   UNL A   1      41.354  27.692  29.688  1.00  0.00    -0.014 A 
BRANCH  38  39
ATOM     39  C   UNL A   1      41.130  28.686  30.764  1.00  0.00     0.031 A 
ATOM     40  C   UNL A   1      41.981  28.632  32.003  1.00  0.00     0.074 A 
ATOM     41  C   UNL A   1      40.183  29.632  30.634  1.00  0.00     0.049 A 
ATOM     42  N   UNL A   1      41.928  29.372  33.080  1.00  0.00    -0.248 NA
ATOM     43  C   UNL A   1      43.028  27.599  32.031  1.00  0.00     0.031 C 
ATOM     44  C   UNL A   1      39.315  29.798  29.470  1.00  0.00     0.029 A 
ATOM     45  N   UNL A   1      39.787  30.622  31.496  1.00  0.00    -0.354 N 
ATOM     46  C   UNL A   1      42.922  28.887  33.921  1.00  0.00     0.074 A 
ATOM     47  C   UNL A   1      43.541  27.769  33.241  1.00  0.00     0.031 C 
ATOM     48  C   UNL A   1      38.474  30.822  29.698  1.00  0.00     0.029 A 
ATOM     49  C   UNL A   1      38.723  31.357  31.036  1.00  0.00     0.049 A 
ATOM     50  H   UNL A   1      40.224  30.790  32.363  1.00  0.00     0.167 HD
ATOM     51  C   UNL A   1      43.290  29.338  35.145  1.00  0.00     0.037 A 
ATOM     52  C   UNL A   1      38.012  32.334  31.633  1.00  0.00     0.037 A 
ATOM     53  C   UNL A   1      42.662  30.450  35.813  1.00  0.00     0.049 A 
ATOM     54  C   UNL A   1      38.399  32.788  33.015  1.00  0.00     0.074 A 
ATOM     55  C   UNL A   1      42.980  31.008  37.038  1.00  0.00     0.029 A 
ATOM     56  N   UNL A   1      41.575  31.161  35.322  1.00  0.00    -0.354 N 
ATOM     57  N   UNL A   1      39.367  32.349  33.787  1.00  0.00    -0.248 NA
ATOM     58  C   UNL A   1      37.605  33.873  33.606  1.00  0.00     0.031 C 
ATOM     59  C   UNL A   1      42.048  32.014  37.316  1.00  0.00     0.029 A 
ATOM     60  C   UNL A   1      41.189  32.129  36.235  1.00  0.00     0.049 A 
ATOM     61  H   UNL A   1      41.142  31.001  34.453  1.00  0.00     0.167 HD
ATOM     62  C   UNL A   1      39.312  33.118  34.945  1.00  0.00     0.074 A 
ATOM     63  C   UNL A   1      38.222  34.057  34.767  1.00  0.00     0.031 C 
ATOM     64  C   UNL A   1      40.096  33.056  36.051  1.00  0.00     0.037 A 
BRANCH  51  65
ATOM     65  C   UNL A   1      44.392  28.596  35.853  1.00  0.00     0.058 A 
ATOM     66  C   UNL A   1      44.132  27.528  36.728  1.00  0.00     0.135 A 
ATOM     67  C   UNL A   1      45.734  28.963  35.656  1.00  0.00     0.135 A 
ATOM     68  F   UNL A   1      42.869  27.141  36.965  1.00  0.00    -0.206 F 
ATOM     69  C   UNL A   1      45.155  26.887  37.420  1.00  0.00     0.059 A 
ATOM     70  C   UNL A   1      46.776  28.313  36.311  1.00  0.00     0.059 A 
ATOM     71  F   UNL A   1      46.044  29.974  34.829  1.00  0.00    -0.206 F 
ATOM     72  C   UNL A   1      46.474  27.292  37.210  1.00  0.00     0.060 A 
BRANCH  72  73
ATOM     73  S   UNL A   1      47.788  26.475  38.141  1.00  0.00     0.124 S 
ATOM     74  O   UNL A   1      47.180  25.177  38.421  1.00  0.00    -0.237 OA
ATOM     75  O   UNL A   1      48.889  26.465  37.185  1.00  0.00    -0.237 OA
ATOM     76  O   UNL A   1      47.975  27.342  39.300  1.00  0.00    -0.744 OA
ENDBRANCH  72  73
ENDBRANCH  51  65
BRANCH  52  77
ATOM     77  C   UNL A   1      36.856  32.934  30.916  1.00  0.00     0.058 A 
ATOM     78  C   UNL A   1      35.539  32.586  31.241  1.00  0.00     0.135 A 
ATOM     79  C   UNL A   1      37.051  33.914  29.928  1.00  0.00     0.135 A 
ATOM     80  F   UNL A   1      35.302  31.646  32.168  1.00  0.00    -0.206 F 
ATOM     81  C   UNL A   1      34.452  33.194  30.621  1.00  0.00     0.059 A 
ATOM     82  C   UNL A   1      35.980  34.554  29.313  1.00  0.00     0.059 A 
ATOM     83  F   UNL A   1      38.294  34.288  29.587  1.00  0.00    -0.206 F 
ATOM     84  C   UNL A   1      34.683  34.188  29.668  1.00  0.00     0.060 A 
BRANCH  84  85
ATOM     85  S   UNL A   1      33.264  35.040  28.945  1.00  0.00     0.124 S 
ATOM     86  O   UNL A   1      32.789  34.057  27.978  1.00  0.00    -0.237 OA
ATOM     87  O   UNL A   1      32.412  35.253  30.111  1.00  0.00    -0.237 OA
ATOM     88  O   UNL A   1      33.852  36.251  28.378  1.00  0.00    -0.744 OA
ENDBRANCH  84  85
ENDBRANCH  52  77
BRANCH  64  89
ATOM     89  C   UNL A   1      39.826  34.047  37.152  1.00  0.00     0.058 A 
ATOM     90  C   UNL A   1      38.998  33.738  38.243  1.00  0.00     0.135 A 
ATOM     91  C   UNL A   1      40.452  35.305  37.144  1.00  0.00     0.135 A 
ATOM     92  F   UNL A   1      38.370  32.553  38.301  1.00  0.00    -0.206 F 
ATOM     93  C   UNL A   1      38.782  34.648  39.274  1.00  0.00     0.059 A 
ATOM     94  C   UNL A   1      40.275  36.219  38.178  1.00  0.00     0.059 A 
ATOM     95  F   UNL A   1      41.264  35.650  36.131  1.00  0.00    -0.206 F 
ATOM     96  C   UNL A   1      39.428  35.886  39.234  1.00  0.00     0.060 A 
BRANCH  96  97
ATOM     97  S   UNL A   1      39.165  37.044  40.594  1.00  0.00     0.124 S 
ATOM     98  O   UNL A   1      40.523  37.518  40.843  1.00  0.00    -0.237 OA
ATOM     99  O   UNL A   1      38.253  38.018  40.002  1.00  0.00    -0.237 OA
ATOM    100  O   UNL A   1      38.588  36.212  41.644  1.00  0.00    -0.744 OA
ENDBRANCH  96  97
ENDBRANCH  64  89
ENDBRANCH  38  39
ENDBRANCH  31  33
ENDBRANCH  30  31
ENDBRANCH  29  30
ENDBRANCH  28  29
ENDBRANCH  27  28
ENDBRANCH   1  27
TORSDOF 22
ENDMDL
MODEL 2
REMARK VINA RESULT:     -11.0      6.249     12.051
REMARK SMILES COc1ccc(C(=O)OCCOCCOC(=O)c2ccc(-c3c4nc(c(-c5c(F)cc(S(=O)(=O)[O-])cc5F)c5ccc([nH]5)c(-c5c(F)cc(S(=O)(=O)[O-])cc5F)c5nc(c(-c6c(F)cc(S(=O)(=O)[O-])cc6F)c6ccc3[nH]6)C=C5)C=C4)cc2)cc1S(=O)(=O)N(C)Cc1cccc(F)c1
REMARK SMILES IDX 11 1 10 2 9 3 7 4 8 5 6 6 3 7 4 8 85 9 5 10 84 11 2 12 1 13
REMARK SMILES IDX 86 14 87 15 88 16 89 17 90 18 91 19 92 20 93 21 98 22 94 23
REMARK SMILES IDX 96 24 95 25 97 26 12 27 13 28 14 29 15 30 16 31 17 32 18 33
REMARK SMILES IDX 19 34 83 35 20 36 82 37 21 38 22 39 23 40 76 41 24 42 81 43
REMARK SMILES IDX 75 44 77 45 25 46 80 47 74 48 73 49 26 51 60 52 39 53 59 54
REMARK SMILES IDX 40 55 43 56 58 57 78 58 41 59 42 60 57 62 79 63 44 64 27 65
REMARK SMILES IDX 28 66 37 67 29 68 30 69 36 70 38 71 31 72 32 73 33 74 34 75
REMARK SMILES IDX 35 76 61 77 62 78 71 79 63 80 64 81 70 82 72 83 65 84 66 85
REMARK SMILES IDX 67 86 68 87 69 88 45 89 46 90 55 91 47 92 48 93 54 94 56 95
REMARK SMILES IDX 49 96 50 97 51 98 52 99 53 100
REMARK H PARENT 77 50 43 61
REMARK Flexibility Score: inf
ROOT
ATOM      1  C   UNL A   1      34.386  31.459  28.181  1.00  0.00     0.202 C 
ENDROOT
BRANCH   1   2
ATOM      2  C   UNL A   1      33.261  30.832  27.351  1.00  0.00     0.261 C 
BRANCH   2   3
ATOM      3  O   UNL A   1      33.741  30.175  26.169  1.00  0.00    -0.460 OA
BRANCH   3   4
ATOM      4  C   UNL A   1      34.278  28.951  26.390  1.00  0.00     0.338 C 
ATOM      5  O   UNL A   1      35.048  28.639  27.286  1.00  0.00    -0.246 OA
BRANCH   4   6
ATOM      6  C   UNL A   1      33.709  27.946  25.463  1.00  0.00     0.061 A 
ATOM      7  C   UNL A   1      32.456  26.257  23.614  1.00  0.00     0.138 A 
ATOM      8  C   UNL A   1      33.127  27.404  23.179  1.00  0.00     0.049 A 
ATOM      9  C   UNL A   1      32.526  25.881  24.954  1.00  0.00     0.125 A 
ATOM     10  C   UNL A   1      33.744  28.247  24.098  1.00  0.00     0.019 A 
ATOM     11  C   UNL A   1      33.141  26.743  25.888  1.00  0.00     0.041 A 
BRANCH   7  12
ATOM     12  O   UNL A   1      31.788  25.568  22.645  1.00  0.00    -0.495 OA
ATOM     13  C   UNL A   1      32.592  25.459  21.467  1.00  0.00     0.278 C 
ENDBRANCH   7  12
BRANCH   9  14
ATOM     14  S   UNL A   1      31.889  24.377  25.644  1.00  0.00     0.246 S 
ATOM     15  O   UNL A   1      31.684  24.651  27.053  1.00  0.00    -0.207 OA
ATOM     16  O   UNL A   1      30.780  24.017  24.784  1.00  0.00    -0.207 OA
BRANCH  14  17
ATOM     17  N   UNL A   1      33.042  23.129  25.523  1.00  0.00    -0.196 NA
ATOM     18  C   UNL A   1      32.530  21.755  25.757  1.00  0.00     0.125 C 
BRANCH  17  19
ATOM     19  C   UNL A   1      33.914  23.218  24.302  1.00  0.00     0.137 C 
BRANCH  19  20
ATOM     20  C   UNL A   1      35.393  23.095  24.595  1.00  0.00    -0.030 A 
ATOM     21  C   UNL A   1      36.113  21.979  24.143  1.00  0.00     0.005 A 
ATOM     22  C   UNL A   1      36.012  23.987  25.482  1.00  0.00     0.044 A 
ATOM     23  C   UNL A   1      37.378  21.695  24.658  1.00  0.00     0.003 A 
ATOM     24  C   UNL A   1      37.275  23.697  25.985  1.00  0.00     0.123 A 
ATOM     25  C   UNL A   1      37.951  22.546  25.601  1.00  0.00     0.039 A 
ATOM     26  F   UNL A   1      37.816  24.510  26.901  1.00  0.00    -0.207 F 
ENDBRANCH  19  20
ENDBRANCH  17  19
ENDBRANCH  14  17
ENDBRANCH   9  14
ENDBRANCH   4   6
ENDBRANCH   3   4
ENDBRANCH   2   3
ENDBRANCH   1   2
BRANCH   1  27
ATOM     27  O   UNL A   1      34.257  32.830  28.553  1.00  0.00    -0.374 OA
BRANCH  27  28
ATOM     28  C   UNL A   1      35.009  33.290  29.675  1.00  0.00     0.202 C 
BRANCH  28  29
ATOM     29  C   UNL A   1      35.101  32.381  30.908  1.00  0.00     0.261 C 
BRANCH  29  30
ATOM     30  O   UNL A   1      36.447  31.990  31.219  1.00  0.00    -0.460 OA
BRANCH  30  31
ATOM     31  C   UNL A   1      36.713  30.676  31.014  1.00  0.00     0.338 C 
ATOM     32  O   UNL A   1      35.918  29.753  31.023  1.00  0.00    -0.246 OA
BRANCH  31  33
ATOM     33  C   UNL A   1      38.112  30.513  30.575  1.00  0.00     0.060 A 
ATOM     34  C   UNL A   1      38.359  30.465  29.196  1.00  0.00     0.016 A 
ATOM     35  C   UNL A   1      39.150  30.335  31.490  1.00  0.00     0.016 A 
ATOM     36  C   UNL A   1      39.641  30.189  28.727  1.00  0.00     0.010 A 
ATOM     37  C   UNL A   1      40.434  30.052  31.016  1.00  0.00     0.010 A 
ATOM     38  C   UNL A   1      40.678  29.943  29.635  1.00  0.00    -0.014 A 
BRANCH  38  39
ATOM     39  C   UNL A   1      41.984  29.445  29.141  1.00  0.00     0.031 A 
ATOM     40  C   UNL A   1      43.138  30.402  29.024  1.00  0.00     0.074 A 
ATOM     41  C   UNL A   1      42.141  28.151  28.809  1.00  0.00     0.049 A 
ATOM     42  N   UNL A   1      44.349  30.191  28.577  1.00  0.00    -0.248 NA
ATOM     43  C   UNL A   1      42.889  31.783  29.463  1.00  0.00     0.031 C 
ATOM     44  C   UNL A   1      41.102  27.127  28.906  1.00  0.00     0.029 A 
ATOM     45  N   UNL A   1      43.231  27.483  28.314  1.00  0.00    -0.354 N 
ATOM     46  C   UNL A   1      45.003  31.414  28.667  1.00  0.00     0.074 A 
ATOM     47  C   UNL A   1      44.044  32.368  29.180  1.00  0.00     0.031 C 
ATOM     48  C   UNL A   1      41.602  25.959  28.465  1.00  0.00     0.029 A 
ATOM     49  C   UNL A   1      42.982  26.164  28.025  1.00  0.00     0.049 A 
ATOM     50  H   UNL A   1      44.109  27.908  28.178  1.00  0.00     0.167 HD
ATOM     51  C   UNL A   1      46.289  31.711  28.357  1.00  0.00     0.037 A 
ATOM     52  C   UNL A   1      43.766  25.233  27.447  1.00  0.00     0.037 A 
ATOM     53  C   UNL A   1      47.233  30.753  27.841  1.00  0.00     0.049 A 
ATOM     54  C   UNL A   1      45.175  25.593  27.059  1.00  0.00     0.074 A 
ATOM     55  C   UNL A   1      48.567  30.943  27.526  1.00  0.00     0.029 A 
ATOM     56  N   UNL A   1      46.939  29.428  27.545  1.00  0.00    -0.354 N 
ATOM     57  N   UNL A   1      45.797  26.743  27.184  1.00  0.00    -0.248 NA
ATOM     58  C   UNL A   1      45.992  24.531  26.458  1.00  0.00     0.031 C 
ATOM     59  C   UNL A   1      49.062  29.752  26.983  1.00  0.00     0.029 A 
ATOM     60  C   UNL A   1      48.057  28.799  27.020  1.00  0.00     0.049 A 
ATOM     61  H   UNL A   1      46.065  28.999  27.689  1.00  0.00     0.167 HD
ATOM     62  C   UNL A   1      47.084  26.538  26.698  1.00  0.00     0.074 A 
ATOM     63  C   UNL A   1      47.154  25.149  26.286  1.00  0.00     0.031 C 
ATOM     64  C   UNL A   1      48.114  27.416  26.606  1.00  0.00     0.037 A 
BRANCH  51  65
ATOM     65  C   UNL A   1      46.727  33.142  28.525  1.00  0.00     0.058 A 
ATOM     66  C   UNL A   1      47.275  33.620  29.727  1.00  0.00     0.135 A 
ATOM     67  C   UNL A   1      46.592  34.054  27.464  1.00  0.00     0.135 A 
ATOM     68  F   UNL A   1      47.416  32.798  30.779  1.00  0.00    -0.206 F 
ATOM     69  C   UNL A   1      47.624  34.957  29.889  1.00  0.00     0.059 A 
ATOM     70  C   UNL A   1      46.967  35.389  27.592  1.00  0.00     0.059 A 
ATOM     71  F   UNL A   1      46.079  33.655  26.290  1.00  0.00    -0.206 F 
ATOM     72  C   UNL A   1      47.459  35.836  28.817  1.00  0.00     0.060 A 
BRANCH  72  73
ATOM     73  S   UNL A   1      47.883  37.575  29.052  1.00  0.00     0.124 S 
ATOM     74  O   UNL A   1      49.339  37.535  28.944  1.00  0.00    -0.237 OA
ATOM     75  O   UNL A   1      47.184  38.219  27.947  1.00  0.00    -0.237 OA
ATOM     76  O   UNL A   1      47.362  37.876  30.381  1.00  0.00    -0.744 OA
ENDBRANCH  72  73
ENDBRANCH  51  65
BRANCH  52  77
ATOM     77  C   UNL A   1      43.218  23.873  27.201  1.00  0.00     0.058 A 
ATOM     78  C   UNL A   1      42.605  23.547  25.984  1.00  0.00     0.135 A 
ATOM     79  C   UNL A   1      43.352  22.856  28.161  1.00  0.00     0.135 A 
ATOM     80  F   UNL A   1      42.441  24.486  25.041  1.00  0.00    -0.206 F 
ATOM     81  C   UNL A   1      42.152  22.258  25.721  1.00  0.00     0.059 A 
ATOM     82  C   UNL A   1      42.930  21.555  27.911  1.00  0.00     0.059 A 
ATOM     83  F   UNL A   1      43.940  23.116  29.339  1.00  0.00    -0.206 F 
ATOM     84  C   UNL A   1      42.332  21.265  26.686  1.00  0.00     0.060 A 
BRANCH  84  85
ATOM     85  S   UNL A   1      41.831  19.575  26.292  1.00  0.00     0.124 S 
ATOM     86  O   UNL A   1      40.399  19.736  26.064  1.00  0.00    -0.237 OA
ATOM     87  O   UNL A   1      42.638  19.286  25.110  1.00  0.00    -0.237 OA
ATOM     88  O   UNL A   1      42.200  18.826  27.491  1.00  0.00    -0.744 OA
ENDBRANCH  84  85
ENDBRANCH  52  77
BRANCH  64  89
ATOM     89  C   UNL A   1      49.421  26.903  26.063  1.00  0.00     0.058 A 
ATOM     90  C   UNL A   1      49.786  27.075  24.718  1.00  0.00     0.135 A 
ATOM     91  C   UNL A   1      50.347  26.279  26.915  1.00  0.00     0.135 A 
ATOM     92  F   UNL A   1      48.937  27.660  23.857  1.00  0.00    -0.206 F 
ATOM     93  C   UNL A   1      51.011  26.627  24.233  1.00  0.00     0.059 A 
ATOM     94  C   UNL A   1      51.590  25.850  26.459  1.00  0.00     0.059 A 
ATOM     95  F   UNL A   1      50.057  26.097  28.214  1.00  0.00    -0.206 F 
ATOM     96  C   UNL A   1      51.909  26.018  25.113  1.00  0.00     0.060 A 
BRANCH  96  97
ATOM     97  S   UNL A   1      53.508  25.472  24.478  1.00  0.00     0.124 S 
ATOM     98  O   UNL A   1      53.415  25.859  23.074  1.00  0.00    -0.237 OA
ATOM     99  O   UNL A   1      54.446  26.245  25.288  1.00  0.00    -0.237 OA
ATOM    100  O   UNL A   1      53.505  24.036  24.734  1.00  0.00    -0.744 OA
ENDBRANCH  96  97
ENDBRANCH  64  89
ENDBRANCH  38  39
ENDBRANCH  31  33
ENDBRANCH  30  31
ENDBRANCH  29  30
ENDBRANCH  28  29
ENDBRANCH  27  28
ENDBRANCH   1  27
TORSDOF 22
ENDMDL
MODEL 3
REMARK VINA RESULT:     -10.9      6.258     11.870
REMARK SMILES COc1ccc(C(=O)OCCOCCOC(=O)c2ccc(-c3c4nc(c(-c5c(F)cc(S(=O)(=O)[O-])cc5F)c5ccc([nH]5)c(-c5c(F)cc(S(=O)(=O)[O-])cc5F)c5nc(c(-c6c(F)cc(S(=O)(=O)[O-])cc6F)c6ccc3[nH]6)C=C5)C=C4)cc2)cc1S(=O)(=O)N(C)Cc1cccc(F)c1
REMARK SMILES IDX 11 1 10 2 9 3 7 4 8 5 6 6 3 7 4 8 85 9 5 10 84 11 2 12 1 13
REMARK SMILES IDX 86 14 87 15 88 16 89 17 90 18 91 19 92 20 93 21 98 22 94 23
REMARK SMILES IDX 96 24 95 25 97 26 12 27 13 28 14 29 15 30 16 31 17 32 18 33
REMARK SMILES IDX 19 34 83 35 20 36 82 37 21 38 22 39 23 40 76 41 24 42 81 43
REMARK SMILES IDX 75 44 77 45 25 46 80 47 74 48 73 49 26 51 60 52 39 53 59 54
REMARK SMILES IDX 40 55 43 56 58 57 78 58 41 59 42 60 57 62 79 63 44 64 27 65
REMARK SMILES IDX 28 66 37 67 29 68 30 69 36 70 38 71 31 72 32 73 33 74 34 75
REMARK SMILES IDX 35 76 61 77 62 78 71 79 63 80 64 81 70 82 72 83 65 84 66 85
REMARK SMILES IDX 67 86 68 87 69 88 45 89 46 90 55 91 47 92 48 93 54 94 56 95
REMARK SMILES IDX 49 96 50 97 51 98 52 99 53 100
REMARK H PARENT 77 50 43 61
REMARK Flexibility Score: inf
ROOT
ATOM      1  C   UNL A   1      34.913  31.325  27.635  1.00  0.00     0.202 C 
ENDROOT
BRANCH   1   2
ATOM      2  C   UNL A   1      33.473  30.954  27.270  1.00  0.00     0.261 C 
BRANCH   2   3
ATOM      3  O   UNL A   1      33.398  29.933  26.263  1.00  0.00    -0.460 OA
BRANCH   3   4
ATOM      4  C   UNL A   1      33.091  28.703  26.740  1.00  0.00     0.338 C 
ATOM      5  O   UNL A   1      32.885  28.397  27.904  1.00  0.00    -0.246 OA
BRANCH   4   6
ATOM      6  C   UNL A   1      32.895  27.739  25.632  1.00  0.00     0.061 A 
ATOM      7  C   UNL A   1      32.277  26.058  23.479  1.00  0.00     0.138 A 
ATOM      8  C   UNL A   1      32.445  27.431  23.276  1.00  0.00     0.049 A 
ATOM      9  C   UNL A   1      32.552  25.506  24.729  1.00  0.00     0.125 A 
ATOM     10  C   UNL A   1      32.745  28.268  24.347  1.00  0.00     0.019 A 
ATOM     11  C   UNL A   1      32.844  26.356  25.817  1.00  0.00     0.041 A 
BRANCH   7  12
ATOM     12  O   UNL A   1      31.869  25.351  22.387  1.00  0.00    -0.495 OA
ATOM     13  C   UNL A   1      32.550  25.808  21.215  1.00  0.00     0.278 C 
ENDBRANCH   7  12
BRANCH   9  14
ATOM     14  S   UNL A   1      32.563  23.775  25.118  1.00  0.00     0.246 S 
ATOM     15  O   UNL A   1      33.080  23.683  26.470  1.00  0.00    -0.207 OA
ATOM     16  O   UNL A   1      31.228  23.315  24.796  1.00  0.00    -0.207 OA
BRANCH  14  17
ATOM     17  N   UNL A   1      33.640  22.941  24.095  1.00  0.00    -0.196 NA
ATOM     18  C   UNL A   1      33.016  22.213  22.960  1.00  0.00     0.125 C 
BRANCH  17  19
ATOM     19  C   UNL A   1      34.834  23.750  23.672  1.00  0.00     0.137 C 
BRANCH  19  20
ATOM     20  C   UNL A   1      36.134  23.298  24.300  1.00  0.00    -0.030 A 
ATOM     21  C   UNL A   1      36.663  22.034  23.999  1.00  0.00     0.005 A 
ATOM     22  C   UNL A   1      36.717  24.050  25.330  1.00  0.00     0.044 A 
ATOM     23  C   UNL A   1      37.672  21.482  24.789  1.00  0.00     0.003 A 
ATOM     24  C   UNL A   1      37.726  23.491  26.106  1.00  0.00     0.123 A 
ATOM     25  C   UNL A   1      38.189  22.205  25.861  1.00  0.00     0.039 A 
ATOM     26  F   UNL A   1      38.211  24.185  27.145  1.00  0.00    -0.207 F 
ENDBRANCH  19  20
ENDBRANCH  17  19
ENDBRANCH  14  17
ENDBRANCH   9  14
ENDBRANCH   4   6
ENDBRANCH   3   4
ENDBRANCH   2   3
ENDBRANCH   1   2
BRANCH   1  27
ATOM     27  O   UNL A   1      35.263  32.708  27.649  1.00  0.00    -0.374 OA
BRANCH  27  28
ATOM     28  C   UNL A   1      36.146  33.161  28.675  1.00  0.00     0.202 C 
BRANCH  28  29
ATOM     29  C   UNL A   1      35.837  32.766  30.124  1.00  0.00     0.261 C 
BRANCH  29  30
ATOM     30  O   UNL A   1      36.991  32.290  30.835  1.00  0.00    -0.460 OA
BRANCH  30  31
ATOM     31  C   UNL A   1      36.990  30.955  31.080  1.00  0.00     0.338 C 
ATOM     32  O   UNL A   1      36.091  30.299  31.575  1.00  0.00    -0.246 OA
BRANCH  31  33
ATOM     33  C   UNL A   1      38.186  30.337  30.480  1.00  0.00     0.060 A 
ATOM     34  C   UNL A   1      39.239  29.991  31.338  1.00  0.00     0.016 A 
ATOM     35  C   UNL A   1      38.309  30.170  29.100  1.00  0.00     0.016 A 
ATOM     36  C   UNL A   1      40.440  29.520  30.813  1.00  0.00     0.010 A 
ATOM     37  C   UNL A   1      39.518  29.703  28.576  1.00  0.00     0.010 A 
ATOM     38  C   UNL A   1      40.600  29.410  29.427  1.00  0.00    -0.014 A 
BRANCH  38  39
ATOM     39  C   UNL A   1      41.938  29.113  28.863  1.00  0.00     0.031 A 
ATOM     40  C   UNL A   1      42.234  27.725  28.365  1.00  0.00     0.074 A 
ATOM     41  C   UNL A   1      42.877  30.073  28.788  1.00  0.00     0.049 A 
ATOM     42  N   UNL A   1      43.344  27.238  27.876  1.00  0.00    -0.248 NA
ATOM     43  C   UNL A   1      41.129  26.757  28.435  1.00  0.00     0.031 C 
ATOM     44  C   UNL A   1      42.697  31.460  29.215  1.00  0.00     0.029 A 
ATOM     45  N   UNL A   1      44.170  30.023  28.335  1.00  0.00    -0.354 N 
ATOM     46  C   UNL A   1      43.079  25.903  27.594  1.00  0.00     0.074 A 
ATOM     47  C   UNL A   1      41.712  25.651  27.996  1.00  0.00     0.031 C 
ATOM     48  C   UNL A   1      43.847  32.127  29.020  1.00  0.00     0.029 A 
ATOM     49  C   UNL A   1      44.851  31.206  28.488  1.00  0.00     0.049 A 
ATOM     50  H   UNL A   1      44.573  29.216  27.940  1.00  0.00     0.167 HD
ATOM     51  C   UNL A   1      43.899  24.975  27.042  1.00  0.00     0.037 A 
ATOM     52  C   UNL A   1      46.143  31.507  28.250  1.00  0.00     0.037 A 
ATOM     53  C   UNL A   1      45.260  25.237  26.651  1.00  0.00     0.049 A 
ATOM     54  C   UNL A   1      47.055  30.450  27.688  1.00  0.00     0.074 A 
ATOM     55  C   UNL A   1      46.165  24.378  26.052  1.00  0.00     0.029 A 
ATOM     56  N   UNL A   1      45.922  26.444  26.835  1.00  0.00    -0.354 N 
ATOM     57  N   UNL A   1      46.784  29.201  27.387  1.00  0.00    -0.248 NA
ATOM     58  C   UNL A   1      48.445  30.842  27.424  1.00  0.00     0.031 C 
ATOM     59  C   UNL A   1      47.389  25.044  25.933  1.00  0.00     0.029 A 
ATOM     60  C   UNL A   1      47.231  26.342  26.394  1.00  0.00     0.049 A 
ATOM     61  H   UNL A   1      45.518  27.255  27.222  1.00  0.00     0.167 HD
ATOM     62  C   UNL A   1      47.963  28.664  26.880  1.00  0.00     0.074 A 
ATOM     63  C   UNL A   1      48.946  29.729  26.904  1.00  0.00     0.031 C 
ATOM     64  C   UNL A   1      48.206  27.407  26.430  1.00  0.00     0.037 A 
BRANCH  51  65
ATOM     65  C   UNL A   1      43.353  23.581  26.876  1.00  0.00     0.058 A 
ATOM     66  C   UNL A   1      43.185  22.710  27.965  1.00  0.00     0.135 A 
ATOM     67  C   UNL A   1      42.995  23.107  25.603  1.00  0.00     0.135 A 
ATOM     68  F   UNL A   1      43.521  23.103  29.204  1.00  0.00    -0.206 F 
ATOM     69  C   UNL A   1      42.733  21.405  27.792  1.00  0.00     0.059 A 
ATOM     70  C   UNL A   1      42.509  21.817  25.410  1.00  0.00     0.059 A 
ATOM     71  F   UNL A   1      43.131  23.896  24.525  1.00  0.00    -0.206 F 
ATOM     72  C   UNL A   1      42.404  20.965  26.508  1.00  0.00     0.060 A 
BRANCH  72  73
ATOM     73  S   UNL A   1      41.853  19.260  26.294  1.00  0.00     0.124 S 
ATOM     74  O   UNL A   1      42.764  18.790  25.254  1.00  0.00    -0.237 OA
ATOM     75  O   UNL A   1      42.061  18.694  27.622  1.00  0.00    -0.237 OA
ATOM     76  O   UNL A   1      40.458  19.401  25.888  1.00  0.00    -0.744 OA
ENDBRANCH  72  73
ENDBRANCH  51  65
BRANCH  52  77
ATOM     77  C   UNL A   1      46.638  32.875  28.557  1.00  0.00     0.058 A 
ATOM     78  C   UNL A   1      46.605  33.892  27.594  1.00  0.00     0.135 A 
ATOM     79  C   UNL A   1      47.100  33.204  29.842  1.00  0.00     0.135 A 
ATOM     80  F   UNL A   1      46.185  33.624  26.348  1.00  0.00    -0.206 F 
ATOM     81  C   UNL A   1      47.002  35.191  27.894  1.00  0.00     0.059 A 
ATOM     82  C   UNL A   1      47.478  34.500  30.174  1.00  0.00     0.059 A 
ATOM     83  F   UNL A   1      47.143  32.266  30.802  1.00  0.00    -0.206 F 
ATOM     84  C   UNL A   1      47.424  35.488  29.192  1.00  0.00     0.060 A 
BRANCH  84  85
ATOM     85  S   UNL A   1      47.840  37.199  29.595  1.00  0.00     0.124 S 
ATOM     86  O   UNL A   1      46.819  37.527  30.585  1.00  0.00    -0.237 OA
ATOM     87  O   UNL A   1      49.203  37.069  30.102  1.00  0.00    -0.237 OA
ATOM     88  O   UNL A   1      47.719  37.886  28.312  1.00  0.00    -0.744 OA
ENDBRANCH  84  85
ENDBRANCH  52  77
BRANCH  64  89
ATOM     89  C   UNL A   1      49.584  27.112  25.899  1.00  0.00     0.058 A 
ATOM     90  C   UNL A   1      50.610  26.627  26.726  1.00  0.00     0.135 A 
ATOM     91  C   UNL A   1      49.865  27.263  24.531  1.00  0.00     0.135 A 
ATOM     92  F   UNL A   1      50.400  26.469  28.042  1.00  0.00    -0.206 F 
ATOM     93  C   UNL A   1      51.871  26.325  26.219  1.00  0.00     0.059 A 
ATOM     94  C   UNL A   1      51.108  26.938  23.997  1.00  0.00     0.059 A 
ATOM     95  F   UNL A   1      48.918  27.712  23.691  1.00  0.00    -0.206 F 
ATOM     96  C   UNL A   1      52.110  26.481  24.852  1.00  0.00     0.060 A 
BRANCH  96  97
ATOM     97  S   UNL A   1      53.739  26.053  24.203  1.00  0.00     0.124 S 
ATOM     98  O   UNL A   1      54.550  27.166  24.686  1.00  0.00    -0.237 OA
ATOM     99  O   UNL A   1      53.996  24.761  24.833  1.00  0.00    -0.237 OA
ATOM    100  O   UNL A   1      53.531  26.009  22.759  1.00  0.00    -0.744 OA
ENDBRANCH  96  97
ENDBRANCH  64  89
ENDBRANCH  38  39
ENDBRANCH  31  33
ENDBRANCH  30  31
ENDBRANCH  29  30
ENDBRANCH  28  29
ENDBRANCH  27  28
ENDBRANCH   1  27
TORSDOF 22
ENDMDL
