MODEL 1
REMARK VINA RESULT:     -12.6      0.000      0.000
REMARK SMILES O=C(OCCOCCOC(=O)c1ccc(-n2cc(CSc3nc4ccccc4c(=O)n3-c3ccccc3)nn2)cc1)c1ccc(-c2c3nc(c(-c4c(F)cc(S(=O)(=O)[O-])cc4F)c4ccc([nH]4)c(-c4c(F)cc(S(=O)(=O)[O-])cc4F)c4nc(c(-c5c(F)cc(S(=O)(=O)[O-])cc5F)c5ccc2[nH]5)C=C4)C=C3)cc1
REMARK SMILES IDX 7 1 6 2 5 3 4 4 3 5 2 6 1 7 42 8 43 9 107 10 44 11 106 12
REMARK SMILES IDX 45 13 46 14 47 15 100 16 48 17 105 18 99 19 101 20 49 21
REMARK SMILES IDX 104 22 98 23 97 24 50 26 84 27 63 28 83 29 64 30 67 31 82 32
REMARK SMILES IDX 102 33 65 34 66 35 81 37 103 38 68 39 51 40 52 41 61 42
REMARK SMILES IDX 53 43 54 44 60 45 62 46 55 47 56 48 57 49 58 50 59 51 85 52
REMARK SMILES IDX 86 53 95 54 87 55 88 56 94 57 96 58 89 59 90 60 91 61 92 62
REMARK SMILES IDX 93 63 69 64 70 65 79 66 71 67 72 68 78 69 80 70 73 71 74 72
REMARK SMILES IDX 75 73 76 74 77 75 8 76 9 77 10 78 11 79 12 80 13 81 41 82
REMARK SMILES IDX 14 83 40 84 15 85 16 86 17 87 39 88 18 89 38 90 19 91 20 92
REMARK SMILES IDX 21 93 22 94 31 95 23 96 29 97 24 98 28 99 30 100 25 101
REMARK SMILES IDX 27 102 26 103 32 104 33 105 37 106 34 107 36 108 35 109
REMARK H PARENT 101 25 67 36
REMARK Flexibility Score: inf
ROOT
ATOM      1  C   UNL A   1      40.418  20.090  26.443  1.00  0.00     0.202 C 
ENDROOT
BRANCH   1   2
ATOM      2  O   UNL A   1      41.274  19.186  25.733  1.00  0.00    -0.374 OA
BRANCH   2   3
ATOM      3  C   UNL A   1      42.572  18.984  26.274  1.00  0.00     0.202 C 
BRANCH   3   4
ATOM      4  C   UNL A   1      43.743  18.866  25.305  1.00  0.00     0.261 C 
BRANCH   4   5
ATOM      5  O   UNL A   1      44.688  19.948  25.372  1.00  0.00    -0.460 OA
BRANCH   5   6
ATOM      6  C   UNL A   1      44.549  21.158  24.790  1.00  0.00     0.338 C 
ATOM      7  O   UNL A   1      44.760  21.285  23.584  1.00  0.00    -0.246 OA
BRANCH   6   8
ATOM      8  C   UNL A   1      43.898  22.270  25.533  1.00  0.00     0.060 A 
ATOM      9  C   UNL A   1      43.007  23.186  24.984  1.00  0.00     0.016 A 
ATOM     10  C   UNL A   1      44.342  22.462  26.853  1.00  0.00     0.016 A 
ATOM     11  C   UNL A   1      42.771  24.387  25.624  1.00  0.00     0.010 A 
ATOM     12  C   UNL A   1      44.059  23.637  27.528  1.00  0.00     0.010 A 
ATOM     13  C   UNL A   1      43.360  24.634  26.863  1.00  0.00    -0.014 A 
BRANCH  13  14
ATOM     14  C   UNL A   1      43.128  25.939  27.457  1.00  0.00     0.031 A 
ATOM     15  C   UNL A   1      44.200  26.924  27.149  1.00  0.00     0.074 A 
ATOM     16  C   UNL A   1      42.027  26.228  28.179  1.00  0.00     0.049 A 
ATOM     17  N   UNL A   1      45.068  27.431  27.962  1.00  0.00    -0.248 NA
ATOM     18  C   UNL A   1      44.464  27.226  25.732  1.00  0.00     0.031 C 
ATOM     19  C   UNL A   1      40.811  25.431  28.358  1.00  0.00     0.029 A 
ATOM     20  N   UNL A   1      41.738  27.368  28.862  1.00  0.00    -0.354 N 
ATOM     21  C   UNL A   1      45.846  28.297  27.197  1.00  0.00     0.074 A 
ATOM     22  C   UNL A   1      45.549  27.996  25.822  1.00  0.00     0.031 C 
ATOM     23  C   UNL A   1      39.836  26.210  28.885  1.00  0.00     0.029 A 
ATOM     24  C   UNL A   1      40.402  27.504  29.223  1.00  0.00     0.049 A 
ATOM     25  H   UNL A   1      42.420  28.043  29.082  1.00  0.00     0.167 HD
ATOM     26  C   UNL A   1      46.497  29.348  27.765  1.00  0.00     0.037 A 
ATOM     27  C   UNL A   1      39.813  28.629  29.709  1.00  0.00     0.037 A 
ATOM     28  C   UNL A   1      46.646  29.158  29.185  1.00  0.00     0.049 A 
ATOM     29  C   UNL A   1      40.905  29.475  30.266  1.00  0.00     0.074 A 
ATOM     30  C   UNL A   1      47.287  28.219  29.971  1.00  0.00     0.029 A 
ATOM     31  N   UNL A   1      45.753  29.795  30.012  1.00  0.00    -0.354 N 
ATOM     32  N   UNL A   1      41.623  29.133  31.304  1.00  0.00    -0.248 NA
ATOM     33  C   UNL A   1      41.523  30.444  29.372  1.00  0.00     0.031 C 
ATOM     34  C   UNL A   1      46.406  28.001  31.070  1.00  0.00     0.029 A 
ATOM     35  C   UNL A   1      45.326  28.876  30.936  1.00  0.00     0.049 A 
ATOM     36  H   UNL A   1      45.471  30.736  29.954  1.00  0.00     0.167 HD
ATOM     37  C   UNL A   1      42.919  29.507  30.980  1.00  0.00     0.074 A 
ATOM     38  C   UNL A   1      42.786  30.358  29.797  1.00  0.00     0.031 C 
ATOM     39  C   UNL A   1      44.001  28.871  31.517  1.00  0.00     0.037 A 
BRANCH  26  40
ATOM     40  C   UNL A   1      46.652  30.699  27.109  1.00  0.00     0.058 A 
ATOM     41  C   UNL A   1      47.918  31.321  27.098  1.00  0.00     0.135 A 
ATOM     42  C   UNL A   1      45.564  31.530  26.759  1.00  0.00     0.135 A 
ATOM     43  F   UNL A   1      49.024  30.628  27.415  1.00  0.00    -0.206 F 
ATOM     44  C   UNL A   1      48.079  32.683  26.842  1.00  0.00     0.059 A 
ATOM     45  C   UNL A   1      45.709  32.877  26.453  1.00  0.00     0.059 A 
ATOM     46  F   UNL A   1      44.296  31.106  26.792  1.00  0.00    -0.206 F 
ATOM     47  C   UNL A   1      46.964  33.456  26.537  1.00  0.00     0.060 A 
BRANCH  47  48
ATOM     48  S   UNL A   1      47.152  35.231  26.306  1.00  0.00     0.124 S 
ATOM     49  O   UNL A   1      47.920  35.599  27.488  1.00  0.00    -0.237 OA
ATOM     50  O   UNL A   1      47.863  35.294  25.033  1.00  0.00    -0.237 OA
ATOM     51  O   UNL A   1      45.773  35.712  26.271  1.00  0.00    -0.744 OA
ENDBRANCH  47  48
ENDBRANCH  26  40
BRANCH  27  52
ATOM     52  C   UNL A   1      38.483  29.186  29.328  1.00  0.00     0.058 A 
ATOM     53  C   UNL A   1      37.504  29.480  30.296  1.00  0.00     0.135 A 
ATOM     54  C   UNL A   1      38.251  29.710  28.040  1.00  0.00     0.135 A 
ATOM     55  F   UNL A   1      37.651  29.045  31.556  1.00  0.00    -0.206 F 
ATOM     56  C   UNL A   1      36.387  30.281  30.014  1.00  0.00     0.059 A 
ATOM     57  C   UNL A   1      37.145  30.504  27.734  1.00  0.00     0.059 A 
ATOM     58  F   UNL A   1      39.146  29.543  27.055  1.00  0.00    -0.206 F 
ATOM     59  C   UNL A   1      36.227  30.806  28.731  1.00  0.00     0.060 A 
BRANCH  59  60
ATOM     60  S   UNL A   1      34.884  31.975  28.402  1.00  0.00     0.124 S 
ATOM     61  O   UNL A   1      35.553  32.980  27.582  1.00  0.00    -0.237 OA
ATOM     62  O   UNL A   1      33.906  31.140  27.714  1.00  0.00    -0.237 OA
ATOM     63  O   UNL A   1      34.489  32.422  29.736  1.00  0.00    -0.744 OA
ENDBRANCH  59  60
ENDBRANCH  27  52
BRANCH  39  64
ATOM     64  C   UNL A   1      43.793  27.930  32.675  1.00  0.00     0.058 A 
ATOM     65  C   UNL A   1      43.599  28.332  34.010  1.00  0.00     0.135 A 
ATOM     66  C   UNL A   1      43.567  26.578  32.374  1.00  0.00     0.135 A 
ATOM     67  F   UNL A   1      43.707  29.620  34.363  1.00  0.00    -0.206 F 
ATOM     68  C   UNL A   1      43.208  27.425  34.999  1.00  0.00     0.059 A 
ATOM     69  C   UNL A   1      43.150  25.665  33.336  1.00  0.00     0.059 A 
ATOM     70  F   UNL A   1      43.681  26.146  31.107  1.00  0.00    -0.206 F 
ATOM     71  C   UNL A   1      42.975  26.094  34.650  1.00  0.00     0.060 A 
BRANCH  71  72
ATOM     72  S   UNL A   1      42.355  24.942  35.897  1.00  0.00     0.124 S 
ATOM     73  O   UNL A   1      43.063  25.378  37.096  1.00  0.00    -0.237 OA
ATOM     74  O   UNL A   1      40.918  25.197  35.878  1.00  0.00    -0.237 OA
ATOM     75  O   UNL A   1      42.752  23.634  35.381  1.00  0.00    -0.744 OA
ENDBRANCH  71  72
ENDBRANCH  39  64
ENDBRANCH  13  14
ENDBRANCH   6   8
ENDBRANCH   5   6
ENDBRANCH   4   5
ENDBRANCH   3   4
ENDBRANCH   2   3
ENDBRANCH   1   2
BRANCH   1  76
ATOM     76  C   UNL A   1      40.044  21.433  25.789  1.00  0.00     0.261 C 
BRANCH  76  77
ATOM     77  O   UNL A   1      38.675  21.814  26.035  1.00  0.00    -0.460 OA
BRANCH  77  78
ATOM     78  C   UNL A   1      37.748  21.199  25.254  1.00  0.00     0.338 C 
ATOM     79  O   UNL A   1      37.928  20.294  24.471  1.00  0.00    -0.246 OA
BRANCH  78  80
ATOM     80  C   UNL A   1      36.399  21.641  25.683  1.00  0.00     0.060 A 
ATOM     81  C   UNL A   1      35.335  20.751  25.475  1.00  0.00     0.018 A 
ATOM     82  C   UNL A   1      36.173  22.895  26.260  1.00  0.00     0.018 A 
ATOM     83  C   UNL A   1      34.042  21.101  25.847  1.00  0.00     0.029 A 
ATOM     84  C   UNL A   1      34.869  23.265  26.612  1.00  0.00     0.029 A 
ATOM     85  C   UNL A   1      33.816  22.357  26.411  1.00  0.00     0.066 A 
BRANCH  85  86
ATOM     86  N   UNL A   1      32.485  22.795  26.485  1.00  0.00    -0.220 N 
ATOM     87  C   UNL A   1      31.845  23.450  25.462  1.00  0.00     0.141 A 
ATOM     88  N   UNL A   1      31.760  22.879  27.609  1.00  0.00    -0.062 NA
ATOM     89  C   UNL A   1      30.700  23.972  26.006  1.00  0.00     0.093 A 
ATOM     90  N   UNL A   1      30.642  23.540  27.318  1.00  0.00    -0.134 NA
BRANCH  89  91
ATOM     91  C   UNL A   1      29.808  25.083  25.585  1.00  0.00     0.138 C 
BRANCH  91  92
ATOM     92  S   UNL A   1      29.462  25.631  23.922  1.00  0.00    -0.081 SA
BRANCH  92  93
ATOM     93  C   UNL A   1      29.687  27.328  23.620  1.00  0.00     0.176 A 
ATOM     94  N   UNL A   1      28.551  27.925  23.396  1.00  0.00    -0.223 NA
ATOM     95  N   UNL A   1      30.881  28.029  23.607  1.00  0.00    -0.255 N 
ATOM     96  C   UNL A   1      28.565  29.260  22.979  1.00  0.00     0.079 A 
ATOM     97  C   UNL A   1      30.940  29.014  22.609  1.00  0.00     0.266 A 
ATOM     98  C   UNL A   1      27.413  30.044  23.015  1.00  0.00     0.029 A 
ATOM     99  C   UNL A   1      29.707  29.781  22.392  1.00  0.00     0.066 A 
ATOM    100  O   UNL A   1      31.911  29.265  21.896  1.00  0.00    -0.268 OA
ATOM    101  C   UNL A   1      27.398  31.299  22.395  1.00  0.00     0.002 A 
ATOM    102  C   UNL A   1      29.692  31.000  21.711  1.00  0.00     0.016 A 
ATOM    103  C   UNL A   1      28.523  31.757  21.705  1.00  0.00     0.001 A 
BRANCH  95 104
ATOM    104  C   UNL A   1      32.062  27.803  24.419  1.00  0.00     0.051 A 
ATOM    105  C   UNL A   1      33.001  26.822  24.033  1.00  0.00     0.027 A 
ATOM    106  C   UNL A   1      32.337  28.464  25.618  1.00  0.00     0.027 A 
ATOM    107  C   UNL A   1      33.992  26.357  24.902  1.00  0.00     0.002 A 
ATOM    108  C   UNL A   1      33.277  27.957  26.528  1.00  0.00     0.002 A 
ATOM    109  C   UNL A   1      34.081  26.879  26.182  1.00  0.00     0.000 A 
ENDBRANCH  95 104
ENDBRANCH  92  93
ENDBRANCH  91  92
ENDBRANCH  89  91
ENDBRANCH  85  86
ENDBRANCH  78  80
ENDBRANCH  77  78
ENDBRANCH  76  77
ENDBRANCH   1  76
TORSDOF 22
ENDMDL
MODEL 2
REMARK VINA RESULT:     -11.6      3.665      9.747
REMARK SMILES O=C(OCCOCCOC(=O)c1ccc(-n2cc(CSc3nc4ccccc4c(=O)n3-c3ccccc3)nn2)cc1)c1ccc(-c2c3nc(c(-c4c(F)cc(S(=O)(=O)[O-])cc4F)c4ccc([nH]4)c(-c4c(F)cc(S(=O)(=O)[O-])cc4F)c4nc(c(-c5c(F)cc(S(=O)(=O)[O-])cc5F)c5ccc2[nH]5)C=C4)C=C3)cc1
REMARK SMILES IDX 7 1 6 2 5 3 4 4 3 5 2 6 1 7 42 8 43 9 107 10 44 11 106 12
REMARK SMILES IDX 45 13 46 14 47 15 100 16 48 17 105 18 99 19 101 20 49 21
REMARK SMILES IDX 104 22 98 23 97 24 50 26 84 27 63 28 83 29 64 30 67 31 82 32
REMARK SMILES IDX 102 33 65 34 66 35 81 37 103 38 68 39 51 40 52 41 61 42
REMARK SMILES IDX 53 43 54 44 60 45 62 46 55 47 56 48 57 49 58 50 59 51 85 52
REMARK SMILES IDX 86 53 95 54 87 55 88 56 94 57 96 58 89 59 90 60 91 61 92 62
REMARK SMILES IDX 93 63 69 64 70 65 79 66 71 67 72 68 78 69 80 70 73 71 74 72
REMARK SMILES IDX 75 73 76 74 77 75 8 76 9 77 10 78 11 79 12 80 13 81 41 82
REMARK SMILES IDX 14 83 40 84 15 85 16 86 17 87 39 88 18 89 38 90 19 91 20 92
REMARK SMILES IDX 21 93 22 94 31 95 23 96 29 97 24 98 28 99 30 100 25 101
REMARK SMILES IDX 27 102 26 103 32 104 33 105 37 106 34 107 36 108 35 109
REMARK H PARENT 101 25 67 36
REMARK Flexibility Score: inf
ROOT
ATOM      1  C   UNL A   1      29.035  32.252  23.570  1.00  0.00     0.202 C 
ENDROOT
BRANCH   1   2
ATOM      2  O   UNL A   1      29.679  31.541  24.635  1.00  0.00    -0.374 OA
BRANCH   2   3
ATOM      3  C   UNL A   1      30.659  32.256  25.374  1.00  0.00     0.202 C 
BRANCH   3   4
ATOM      4  C   UNL A   1      31.071  31.709  26.736  1.00  0.00     0.261 C 
BRANCH   4   5
ATOM      5  O   UNL A   1      32.434  31.983  27.104  1.00  0.00    -0.460 OA
BRANCH   5   6
ATOM      6  C   UNL A   1      32.889  33.124  27.667  1.00  0.00     0.338 C 
ATOM      7  O   UNL A   1      32.117  34.063  27.855  1.00  0.00    -0.246 OA
BRANCH   6   8
ATOM      8  C   UNL A   1      34.237  33.157  28.292  1.00  0.00     0.060 A 
ATOM      9  C   UNL A   1      35.307  33.928  27.849  1.00  0.00     0.016 A 
ATOM     10  C   UNL A   1      34.453  32.228  29.325  1.00  0.00     0.016 A 
ATOM     11  C   UNL A   1      36.595  33.605  28.229  1.00  0.00     0.010 A 
ATOM     12  C   UNL A   1      35.736  31.940  29.758  1.00  0.00     0.010 A 
ATOM     13  C   UNL A   1      36.806  32.561  29.129  1.00  0.00    -0.014 A 
BRANCH  13  14
ATOM     14  C   UNL A   1      38.183  32.225  29.441  1.00  0.00     0.031 A 
ATOM     15  C   UNL A   1      38.500  30.787  29.229  1.00  0.00     0.074 A 
ATOM     16  C   UNL A   1      39.086  33.141  29.843  1.00  0.00     0.049 A 
ATOM     17  N   UNL A   1      38.763  29.892  30.124  1.00  0.00    -0.248 NA
ATOM     18  C   UNL A   1      38.302  30.235  27.878  1.00  0.00     0.031 C 
ATOM     19  C   UNL A   1      38.964  34.601  29.869  1.00  0.00     0.029 A 
ATOM     20  N   UNL A   1      40.368  32.944  30.254  1.00  0.00    -0.354 N 
ATOM     21  C   UNL A   1      38.992  28.709  29.426  1.00  0.00     0.074 A 
ATOM     22  C   UNL A   1      38.524  28.937  28.085  1.00  0.00     0.031 C 
ATOM     23  C   UNL A   1      40.190  35.153  30.033  1.00  0.00     0.029 A 
ATOM     24  C   UNL A   1      41.151  34.093  30.280  1.00  0.00     0.049 A 
ATOM     25  H   UNL A   1      40.713  32.058  30.511  1.00  0.00     0.167 HD
ATOM     26  C   UNL A   1      39.762  27.717  29.952  1.00  0.00     0.037 A 
ATOM     27  C   UNL A   1      42.500  34.139  30.437  1.00  0.00     0.037 A 
ATOM     28  C   UNL A   1      39.879  27.856  31.381  1.00  0.00     0.049 A 
ATOM     29  C   UNL A   1      42.899  32.858  31.082  1.00  0.00     0.074 A 
ATOM     30  C   UNL A   1      38.979  27.836  32.429  1.00  0.00     0.029 A 
ATOM     31  N   UNL A   1      41.020  28.441  31.874  1.00  0.00    -0.354 N 
ATOM     32  N   UNL A   1      42.546  32.523  32.296  1.00  0.00    -0.248 NA
ATOM     33  C   UNL A   1      43.255  31.750  30.208  1.00  0.00     0.031 C 
ATOM     34  C   UNL A   1      39.438  28.847  33.322  1.00  0.00     0.029 A 
ATOM     35  C   UNL A   1      40.632  29.362  32.813  1.00  0.00     0.049 A 
ATOM     36  H   UNL A   1      41.945  28.237  31.606  1.00  0.00     0.167 HD
ATOM     37  C   UNL A   1      42.231  31.173  32.216  1.00  0.00     0.074 A 
ATOM     38  C   UNL A   1      42.739  30.741  30.914  1.00  0.00     0.031 C 
ATOM     39  C   UNL A   1      41.342  30.595  33.075  1.00  0.00     0.037 A 
BRANCH  26  40
ATOM     40  C   UNL A   1      40.708  26.865  29.141  1.00  0.00     0.058 A 
ATOM     41  C   UNL A   1      41.914  27.426  28.671  1.00  0.00     0.135 A 
ATOM     42  C   UNL A   1      40.348  25.628  28.560  1.00  0.00     0.135 A 
ATOM     43  F   UNL A   1      42.355  28.601  29.151  1.00  0.00    -0.206 F 
ATOM     44  C   UNL A   1      42.659  26.845  27.644  1.00  0.00     0.059 A 
ATOM     45  C   UNL A   1      41.101  25.008  27.572  1.00  0.00     0.059 A 
ATOM     46  F   UNL A   1      39.199  25.006  28.849  1.00  0.00    -0.206 F 
ATOM     47  C   UNL A   1      42.232  25.643  27.089  1.00  0.00     0.060 A 
BRANCH  47  48
ATOM     48  S   UNL A   1      43.132  24.940  25.697  1.00  0.00     0.124 S 
ATOM     49  O   UNL A   1      44.503  24.969  26.193  1.00  0.00    -0.237 OA
ATOM     50  O   UNL A   1      42.520  23.621  25.579  1.00  0.00    -0.237 OA
ATOM     51  O   UNL A   1      42.834  25.863  24.606  1.00  0.00    -0.744 OA
ENDBRANCH  47  48
ENDBRANCH  26  40
BRANCH  27  52
ATOM     52  C   UNL A   1      43.466  34.992  29.684  1.00  0.00     0.058 A 
ATOM     53  C   UNL A   1      43.464  35.040  28.277  1.00  0.00     0.135 A 
ATOM     54  C   UNL A   1      44.217  35.995  30.333  1.00  0.00     0.135 A 
ATOM     55  F   UNL A   1      42.758  34.142  27.574  1.00  0.00    -0.206 F 
ATOM     56  C   UNL A   1      44.129  36.045  27.560  1.00  0.00     0.059 A 
ATOM     57  C   UNL A   1      44.891  37.002  29.641  1.00  0.00     0.059 A 
ATOM     58  F   UNL A   1      44.242  36.081  31.671  1.00  0.00    -0.206 F 
ATOM     59  C   UNL A   1      44.825  37.036  28.254  1.00  0.00     0.060 A 
BRANCH  59  60
ATOM     60  S   UNL A   1      45.543  38.429  27.348  1.00  0.00     0.124 S 
ATOM     61  O   UNL A   1      46.645  37.791  26.636  1.00  0.00    -0.237 OA
ATOM     62  O   UNL A   1      44.425  38.874  26.524  1.00  0.00    -0.237 OA
ATOM     63  O   UNL A   1      45.939  39.355  28.408  1.00  0.00    -0.744 OA
ENDBRANCH  59  60
ENDBRANCH  27  52
BRANCH  39  64
ATOM     64  C   UNL A   1      40.897  31.366  34.291  1.00  0.00     0.058 A 
ATOM     65  C   UNL A   1      39.752  32.182  34.347  1.00  0.00     0.135 A 
ATOM     66  C   UNL A   1      41.546  31.087  35.504  1.00  0.00     0.135 A 
ATOM     67  F   UNL A   1      39.025  32.424  33.248  1.00  0.00    -0.206 F 
ATOM     68  C   UNL A   1      39.283  32.703  35.557  1.00  0.00     0.059 A 
ATOM     69  C   UNL A   1      41.079  31.570  36.721  1.00  0.00     0.059 A 
ATOM     70  F   UNL A   1      42.610  30.267  35.522  1.00  0.00    -0.206 F 
ATOM     71  C   UNL A   1      39.947  32.382  36.741  1.00  0.00     0.060 A 
BRANCH  71  72
ATOM     72  S   UNL A   1      39.279  32.954  38.320  1.00  0.00     0.124 S 
ATOM     73  O   UNL A   1      40.406  32.747  39.223  1.00  0.00    -0.237 OA
ATOM     74  O   UNL A   1      38.940  34.346  38.035  1.00  0.00    -0.237 OA
ATOM     75  O   UNL A   1      38.131  32.078  38.544  1.00  0.00    -0.744 OA
ENDBRANCH  71  72
ENDBRANCH  39  64
ENDBRANCH  13  14
ENDBRANCH   6   8
ENDBRANCH   5   6
ENDBRANCH   4   5
ENDBRANCH   3   4
ENDBRANCH   2   3
ENDBRANCH   1   2
BRANCH   1  76
ATOM     76  C   UNL A   1      27.587  31.889  23.197  1.00  0.00     0.261 C 
BRANCH  76  77
ATOM     77  O   UNL A   1      27.316  30.477  23.309  1.00  0.00    -0.460 OA
BRANCH  77  78
ATOM     78  C   UNL A   1      27.874  29.697  22.346  1.00  0.00     0.338 C 
ATOM     79  O   UNL A   1      27.981  29.946  21.166  1.00  0.00    -0.246 OA
BRANCH  78  80
ATOM     80  C   UNL A   1      28.573  28.564  23.000  1.00  0.00     0.060 A 
ATOM     81  C   UNL A   1      27.779  27.513  23.484  1.00  0.00     0.018 A 
ATOM     82  C   UNL A   1      29.963  28.533  23.151  1.00  0.00     0.018 A 
ATOM     83  C   UNL A   1      28.367  26.422  24.115  1.00  0.00     0.029 A 
ATOM     84  C   UNL A   1      30.559  27.449  23.809  1.00  0.00     0.029 A 
ATOM     85  C   UNL A   1      29.752  26.397  24.276  1.00  0.00     0.066 A 
BRANCH  85  86
ATOM     86  N   UNL A   1      30.276  25.455  25.174  1.00  0.00    -0.220 N 
ATOM     87  C   UNL A   1      31.115  24.435  24.800  1.00  0.00     0.141 A 
ATOM     88  N   UNL A   1      29.840  25.256  26.426  1.00  0.00    -0.062 NA
ATOM     89  C   UNL A   1      31.161  23.574  25.866  1.00  0.00     0.093 A 
ATOM     90  N   UNL A   1      30.418  24.147  26.882  1.00  0.00    -0.134 NA
BRANCH  89  91
ATOM     91  C   UNL A   1      31.525  22.138  25.977  1.00  0.00     0.138 C 
BRANCH  91  92
ATOM     92  S   UNL A   1      32.390  21.139  24.777  1.00  0.00    -0.081 SA
BRANCH  92  93
ATOM     93  C   UNL A   1      34.090  21.462  24.604  1.00  0.00     0.176 A 
ATOM     94  N   UNL A   1      34.805  20.416  24.904  1.00  0.00    -0.223 NA
ATOM     95  N   UNL A   1      34.683  22.647  24.201  1.00  0.00    -0.255 N 
ATOM     96  C   UNL A   1      36.195  20.551  24.972  1.00  0.00     0.079 A 
ATOM     97  C   UNL A   1      35.866  22.944  24.896  1.00  0.00     0.266 A 
ATOM     98  C   UNL A   1      37.034  19.438  24.983  1.00  0.00     0.029 A 
ATOM     99  C   UNL A   1      36.752  21.805  25.168  1.00  0.00     0.066 A 
ATOM    100  O   UNL A   1      36.202  24.052  25.311  1.00  0.00    -0.268 OA
ATOM    101  C   UNL A   1      38.396  19.586  25.269  1.00  0.00     0.002 A 
ATOM    102  C   UNL A   1      38.094  21.967  25.520  1.00  0.00     0.016 A 
ATOM    103  C   UNL A   1      38.917  20.845  25.581  1.00  0.00     0.001 A 
BRANCH  95 104
ATOM    104  C   UNL A   1      34.187  23.619  23.244  1.00  0.00     0.051 A 
ATOM    105  C   UNL A   1      34.342  24.998  23.502  1.00  0.00     0.027 A 
ATOM    106  C   UNL A   1      33.504  23.295  22.069  1.00  0.00     0.027 A 
ATOM    107  C   UNL A   1      33.645  25.972  22.782  1.00  0.00     0.002 A 
ATOM    108  C   UNL A   1      32.741  24.255  21.386  1.00  0.00     0.002 A 
ATOM    109  C   UNL A   1      32.784  25.590  21.766  1.00  0.00     0.000 A 
ENDBRANCH  95 104
ENDBRANCH  92  93
ENDBRANCH  91  92
ENDBRANCH  89  91
ENDBRANCH  85  86
ENDBRANCH  78  80
ENDBRANCH  77  78
ENDBRANCH  76  77
ENDBRANCH   1  76
TORSDOF 22
ENDMDL
MODEL 3
REMARK VINA RESULT:     -11.5      2.393     10.099
REMARK SMILES O=C(OCCOCCOC(=O)c1ccc(-n2cc(CSc3nc4ccccc4c(=O)n3-c3ccccc3)nn2)cc1)c1ccc(-c2c3nc(c(-c4c(F)cc(S(=O)(=O)[O-])cc4F)c4ccc([nH]4)c(-c4c(F)cc(S(=O)(=O)[O-])cc4F)c4nc(c(-c5c(F)cc(S(=O)(=O)[O-])cc5F)c5ccc2[nH]5)C=C4)C=C3)cc1
REMARK SMILES IDX 7 1 6 2 5 3 4 4 3 5 2 6 1 7 42 8 43 9 107 10 44 11 106 12
REMARK SMILES IDX 45 13 46 14 47 15 100 16 48 17 105 18 99 19 101 20 49 21
REMARK SMILES IDX 104 22 98 23 97 24 50 26 84 27 63 28 83 29 64 30 67 31 82 32
REMARK SMILES IDX 102 33 65 34 66 35 81 37 103 38 68 39 51 40 52 41 61 42
REMARK SMILES IDX 53 43 54 44 60 45 62 46 55 47 56 48 57 49 58 50 59 51 85 52
REMARK SMILES IDX 86 53 95 54 87 55 88 56 94 57 96 58 89 59 90 60 91 61 92 62
REMARK SMILES IDX 93 63 69 64 70 65 79 66 71 67 72 68 78 69 80 70 73 71 74 72
REMARK SMILES IDX 75 73 76 74 77 75 8 76 9 77 10 78 11 79 12 80 13 81 41 82
REMARK SMILES IDX 14 83 40 84 15 85 16 86 17 87 39 88 18 89 38 90 19 91 20 92
REMARK SMILES IDX 21 93 22 94 31 95 23 96 29 97 24 98 28 99 30 100 25 101
REMARK SMILES IDX 27 102 26 103 32 104 33 105 37 106 34 107 36 108 35 109
REMARK H PARENT 101 25 67 36
REMARK Flexibility Score: inf
ROOT
ATOM      1  C   UNL A   1      30.207  31.737  24.388  1.00  0.00     0.202 C 
ENDROOT
BRANCH   1   2
ATOM      2  O   UNL A   1      30.305  31.628  25.814  1.00  0.00    -0.374 OA
BRANCH   2   3
ATOM      3  C   UNL A   1      31.494  32.130  26.408  1.00  0.00     0.202 C 
BRANCH   3   4
ATOM      4  C   UNL A   1      32.291  31.199  27.315  1.00  0.00     0.261 C 
BRANCH   4   5
ATOM      5  O   UNL A   1      33.715  31.254  27.126  1.00  0.00    -0.460 OA
BRANCH   5   6
ATOM      6  C   UNL A   1      34.627  31.578  28.068  1.00  0.00     0.338 C 
ATOM      7  O   UNL A   1      34.259  32.076  29.131  1.00  0.00    -0.246 OA
BRANCH   6   8
ATOM      8  C   UNL A   1      36.030  31.103  27.938  1.00  0.00     0.060 A 
ATOM      9  C   UNL A   1      36.421  29.920  27.318  1.00  0.00     0.016 A 
ATOM     10  C   UNL A   1      36.997  31.863  28.620  1.00  0.00     0.016 A 
ATOM     11  C   UNL A   1      37.662  29.377  27.588  1.00  0.00     0.010 A 
ATOM     12  C   UNL A   1      38.265  31.353  28.844  1.00  0.00     0.010 A 
ATOM     13  C   UNL A   1      38.551  30.066  28.411  1.00  0.00    -0.014 A 
BRANCH  13  14
ATOM     14  C   UNL A   1      39.814  29.416  28.712  1.00  0.00     0.031 A 
ATOM     15  C   UNL A   1      40.089  29.311  30.170  1.00  0.00     0.074 A 
ATOM     16  C   UNL A   1      40.628  28.925  27.757  1.00  0.00     0.049 A 
ATOM     17  N   UNL A   1      40.993  29.933  30.853  1.00  0.00    -0.248 NA
ATOM     18  C   UNL A   1      39.114  28.582  30.998  1.00  0.00     0.031 C 
ATOM     19  C   UNL A   1      40.370  28.762  26.324  1.00  0.00     0.029 A 
ATOM     20  N   UNL A   1      41.869  28.386  27.897  1.00  0.00    -0.354 N 
ATOM     21  C   UNL A   1      40.847  29.494  32.167  1.00  0.00     0.074 A 
ATOM     22  C   UNL A   1      39.581  28.814  32.226  1.00  0.00     0.031 C 
ATOM     23  C   UNL A   1      41.310  27.949  25.786  1.00  0.00     0.029 A 
ATOM     24  C   UNL A   1      42.315  27.665  26.794  1.00  0.00     0.049 A 
ATOM     25  H   UNL A   1      42.407  28.496  28.714  1.00  0.00     0.167 HD
ATOM     26  C   UNL A   1      41.890  29.527  33.042  1.00  0.00     0.037 A 
ATOM     27  C   UNL A   1      43.406  26.854  26.755  1.00  0.00     0.037 A 
ATOM     28  C   UNL A   1      42.910  30.441  32.596  1.00  0.00     0.049 A 
ATOM     29  C   UNL A   1      44.292  27.277  27.874  1.00  0.00     0.074 A 
ATOM     30  C   UNL A   1      42.949  31.802  32.359  1.00  0.00     0.029 A 
ATOM     31  N   UNL A   1      44.002  29.914  31.952  1.00  0.00    -0.354 N 
ATOM     32  N   UNL A   1      44.884  28.442  27.924  1.00  0.00    -0.248 NA
ATOM     33  C   UNL A   1      44.113  26.612  29.157  1.00  0.00     0.031 C 
ATOM     34  C   UNL A   1      43.753  31.945  31.191  1.00  0.00     0.029 A 
ATOM     35  C   UNL A   1      44.225  30.679  30.835  1.00  0.00     0.049 A 
ATOM     36  H   UNL A   1      44.529  29.133  32.238  1.00  0.00     0.167 HD
ATOM     37  C   UNL A   1      44.771  28.842  29.248  1.00  0.00     0.074 A 
ATOM     38  C   UNL A   1      44.332  27.648  29.971  1.00  0.00     0.031 C 
ATOM     39  C   UNL A   1      44.764  30.162  29.597  1.00  0.00     0.037 A 
BRANCH  26  40
ATOM     40  C   UNL A   1      42.153  28.463  34.080  1.00  0.00     0.058 A 
ATOM     41  C   UNL A   1      42.014  28.782  35.447  1.00  0.00     0.135 A 
ATOM     42  C   UNL A   1      42.817  27.246  33.805  1.00  0.00     0.135 A 
ATOM     43  F   UNL A   1      41.401  29.915  35.827  1.00  0.00    -0.206 F 
ATOM     44  C   UNL A   1      42.566  27.994  36.458  1.00  0.00     0.059 A 
ATOM     45  C   UNL A   1      43.330  26.423  34.799  1.00  0.00     0.059 A 
ATOM     46  F   UNL A   1      43.088  26.841  32.559  1.00  0.00    -0.206 F 
ATOM     47  C   UNL A   1      43.238  26.824  36.120  1.00  0.00     0.060 A 
BRANCH  47  48
ATOM     48  S   UNL A   1      44.039  25.858  37.411  1.00  0.00     0.124 S 
ATOM     49  O   UNL A   1      45.421  26.304  37.292  1.00  0.00    -0.237 OA
ATOM     50  O   UNL A   1      43.323  26.299  38.603  1.00  0.00    -0.237 OA
ATOM     51  O   UNL A   1      43.781  24.479  37.005  1.00  0.00    -0.744 OA
ENDBRANCH  47  48
ENDBRANCH  26  40
BRANCH  27  52
ATOM     52  C   UNL A   1      43.505  25.509  26.118  1.00  0.00     0.058 A 
ATOM     53  C   UNL A   1      44.555  25.188  25.236  1.00  0.00     0.135 A 
ATOM     54  C   UNL A   1      42.738  24.420  26.583  1.00  0.00     0.135 A 
ATOM     55  F   UNL A   1      45.353  26.154  24.760  1.00  0.00    -0.206 F 
ATOM     56  C   UNL A   1      44.852  23.866  24.873  1.00  0.00     0.059 A 
ATOM     57  C   UNL A   1      43.011  23.098  26.232  1.00  0.00     0.059 A 
ATOM     58  F   UNL A   1      41.751  24.602  27.473  1.00  0.00    -0.206 F 
ATOM     59  C   UNL A   1      44.084  22.823  25.394  1.00  0.00     0.060 A 
BRANCH  59  60
ATOM     60  S   UNL A   1      44.562  21.108  25.068  1.00  0.00     0.124 S 
ATOM     61  O   UNL A   1      43.382  20.375  25.514  1.00  0.00    -0.237 OA
ATOM     62  O   UNL A   1      44.799  21.119  23.629  1.00  0.00    -0.237 OA
ATOM     63  O   UNL A   1      45.756  20.926  25.892  1.00  0.00    -0.744 OA
ENDBRANCH  59  60
ENDBRANCH  27  52
BRANCH  39  64
ATOM     64  C   UNL A   1      45.149  31.190  28.565  1.00  0.00     0.058 A 
ATOM     65  C   UNL A   1      44.284  31.695  27.576  1.00  0.00     0.135 A 
ATOM     66  C   UNL A   1      46.381  31.841  28.731  1.00  0.00     0.135 A 
ATOM     67  F   UNL A   1      43.055  31.188  27.413  1.00  0.00    -0.206 F 
ATOM     68  C   UNL A   1      44.638  32.791  26.784  1.00  0.00     0.059 A 
ATOM     69  C   UNL A   1      46.741  32.950  27.975  1.00  0.00     0.059 A 
ATOM     70  F   UNL A   1      47.225  31.441  29.698  1.00  0.00    -0.206 F 
ATOM     71  C   UNL A   1      45.865  33.420  26.998  1.00  0.00     0.060 A 
BRANCH  71  72
ATOM     72  S   UNL A   1      46.279  34.908  26.060  1.00  0.00     0.124 S 
ATOM     73  O   UNL A   1      45.637  34.650  24.776  1.00  0.00    -0.237 OA
ATOM     74  O   UNL A   1      45.683  35.968  26.868  1.00  0.00    -0.237 OA
ATOM     75  O   UNL A   1      47.740  34.903  26.038  1.00  0.00    -0.744 OA
ENDBRANCH  71  72
ENDBRANCH  39  64
ENDBRANCH  13  14
ENDBRANCH   6   8
ENDBRANCH   5   6
ENDBRANCH   4   5
ENDBRANCH   3   4
ENDBRANCH   2   3
ENDBRANCH   1   2
BRANCH   1  76
ATOM     76  C   UNL A   1      28.835  32.025  23.752  1.00  0.00     0.261 C 
BRANCH  76  77
ATOM     77  O   UNL A   1      28.091  30.826  23.457  1.00  0.00    -0.460 OA
BRANCH  77  78
ATOM     78  C   UNL A   1      28.593  30.058  22.454  1.00  0.00     0.338 C 
ATOM     79  O   UNL A   1      28.912  30.415  21.343  1.00  0.00    -0.246 OA
BRANCH  78  80
ATOM     80  C   UNL A   1      28.936  28.725  23.005  1.00  0.00     0.060 A 
ATOM     81  C   UNL A   1      30.295  28.377  23.046  1.00  0.00     0.018 A 
ATOM     82  C   UNL A   1      27.961  27.831  23.457  1.00  0.00     0.018 A 
ATOM     83  C   UNL A   1      30.689  27.140  23.543  1.00  0.00     0.029 A 
ATOM     84  C   UNL A   1      28.349  26.572  23.935  1.00  0.00     0.029 A 
ATOM     85  C   UNL A   1      29.715  26.244  23.983  1.00  0.00     0.066 A 
BRANCH  85  86
ATOM     86  N   UNL A   1      30.111  24.913  24.181  1.00  0.00    -0.220 N 
ATOM     87  C   UNL A   1      30.371  24.376  25.418  1.00  0.00     0.141 A 
ATOM     88  N   UNL A   1      30.539  24.082  23.220  1.00  0.00    -0.062 NA
ATOM     89  C   UNL A   1      31.006  23.184  25.185  1.00  0.00     0.093 A 
ATOM     90  N   UNL A   1      31.031  22.998  23.815  1.00  0.00    -0.134 NA
BRANCH  89  91
ATOM     91  C   UNL A   1      31.888  22.338  26.031  1.00  0.00     0.138 C 
BRANCH  91  92
ATOM     92  S   UNL A   1      33.013  21.061  25.492  1.00  0.00    -0.081 SA
BRANCH  92  93
ATOM     93  C   UNL A   1      34.671  21.545  25.294  1.00  0.00     0.176 A 
ATOM     94  N   UNL A   1      35.465  20.513  25.248  1.00  0.00    -0.223 NA
ATOM     95  N   UNL A   1      35.163  22.835  25.187  1.00  0.00    -0.255 N 
ATOM     96  C   UNL A   1      36.847  20.728  25.252  1.00  0.00     0.079 A 
ATOM     97  C   UNL A   1      36.386  23.023  25.851  1.00  0.00     0.266 A 
ATOM     98  C   UNL A   1      37.740  19.718  24.901  1.00  0.00     0.029 A 
ATOM     99  C   UNL A   1      37.351  21.923  25.740  1.00  0.00     0.066 A 
ATOM    100  O   UNL A   1      36.698  24.003  26.527  1.00  0.00    -0.268 OA
ATOM    101  C   UNL A   1      39.113  19.886  25.120  1.00  0.00     0.002 A 
ATOM    102  C   UNL A   1      38.709  22.085  26.028  1.00  0.00     0.016 A 
ATOM    103  C   UNL A   1      39.592  21.052  25.724  1.00  0.00     0.001 A 
BRANCH  95 104
ATOM    104  C   UNL A   1      34.534  23.986  24.567  1.00  0.00     0.051 A 
ATOM    105  C   UNL A   1      34.273  23.978  23.179  1.00  0.00     0.027 A 
ATOM    106  C   UNL A   1      34.196  25.162  25.239  1.00  0.00     0.027 A 
ATOM    107  C   UNL A   1      33.944  25.141  22.478  1.00  0.00     0.002 A 
ATOM    108  C   UNL A   1      33.940  26.351  24.539  1.00  0.00     0.002 A 
ATOM    109  C   UNL A   1      33.849  26.346  23.153  1.00  0.00     0.000 A 
ENDBRANCH  95 104
ENDBRANCH  92  93
ENDBRANCH  91  92
ENDBRANCH  89  91
ENDBRANCH  85  86
ENDBRANCH  78  80
ENDBRANCH  77  78
ENDBRANCH  76  77
ENDBRANCH   1  76
TORSDOF 22
ENDMDL
