MODEL 1
REMARK VINA RESULT:      -9.9      0.000      0.000
REMARK SMILES O=C(Nc1ccc(N2CC[NH+](CC(=O)N3CCOCC3)CC2)c(C(=O)OCCOCCOC(=O)c2ccc(-c3c4nc(c(-c5c(F)cc(S(=O)(=O)[O-])cc5F)c5ccc([nH]5)c(-c5c(F)cc(S(=O)(=O)[O-])cc5F)c5nc(c(-c6c(F)cc(S(=O)(=O)[O-])cc6F)c6ccc3[nH]6)C=C5)C=C4)cc2)c1)c1cccc(Cl)c1
REMARK SMILES IDX 29 1 28 2 27 3 26 4 24 5 25 6 23 7 4 8 5 9 101 10 6 11 7 12
REMARK SMILES IDX 3 13 1 14 2 15 102 17 103 18 108 19 104 20 106 21 105 22
REMARK SMILES IDX 107 23 8 24 9 25 22 26 10 27 21 28 11 29 12 31 13 32 14 33
REMARK SMILES IDX 15 34 16 35 20 36 17 37 19 38 18 39 30 40 31 41 32 42 33 43
REMARK SMILES IDX 34 44 35 45 36 46 100 47 37 48 99 49 38 50 39 51 40 52 93 53
REMARK SMILES IDX 41 54 98 55 92 56 94 57 42 58 97 59 91 60 90 61 43 63 77 64
REMARK SMILES IDX 56 65 76 66 57 67 60 68 75 69 95 70 58 71 59 72 74 74 96 75
REMARK SMILES IDX 61 76 44 77 45 78 54 79 46 80 47 81 53 82 55 83 48 84 49 85
REMARK SMILES IDX 50 86 51 87 52 88 78 89 79 90 88 91 80 92 81 93 87 94 89 95
REMARK SMILES IDX 82 96 83 97 84 98 85 99 86 100 62 101 63 102 72 103 64 104
REMARK SMILES IDX 65 105 71 106 73 107 66 108 67 109 68 110 69 111 70 112
REMARK H PARENT 3 16 11 30 94 62 60 73
REMARK Flexibility Score: inf
ROOT
ATOM      1  O   UNL A   1      49.785  23.665  39.421  1.00  0.00    -0.374 OA
ENDROOT
BRANCH   1   2
ATOM      2  C   UNL A   1      48.958  22.512  39.643  1.00  0.00     0.202 C 
BRANCH   2   3
ATOM      3  C   UNL A   1      49.665  21.338  40.328  1.00  0.00     0.261 C 
BRANCH   3   4
ATOM      4  O   UNL A   1      49.536  20.179  39.491  1.00  0.00    -0.460 OA
BRANCH   4   5
ATOM      5  C   UNL A   1      48.717  19.207  39.957  1.00  0.00     0.340 C 
ATOM      6  O   UNL A   1      48.839  18.610  41.011  1.00  0.00    -0.246 OA
BRANCH   5   7
ATOM      7  C   UNL A   1      47.564  19.088  39.020  1.00  0.00     0.085 A 
ATOM      8  C   UNL A   1      46.831  19.357  36.741  1.00  0.00     0.042 A 
ATOM      9  C   UNL A   1      45.677  18.634  37.030  1.00  0.00     0.028 A 
ATOM     10  C   UNL A   1      47.686  19.704  37.776  1.00  0.00     0.044 A 
ATOM     11  C   UNL A   1      45.477  18.122  38.324  1.00  0.00     0.029 A 
ATOM     12  C   UNL A   1      46.424  18.315  39.343  1.00  0.00     0.052 A 
BRANCH   8  13
ATOM     13  N   UNL A   1      47.170  19.606  35.398  1.00  0.00    -0.322 N 
ATOM     14  O   UNL A   1      47.056  20.699  33.406  1.00  0.00    -0.269 OA
ATOM     15  C   UNL A   1      46.782  20.681  34.602  1.00  0.00     0.255 C 
ATOM     16  H   UNL A   1      47.751  18.938  34.968  1.00  0.00     0.170 HD
BRANCH  15  17
ATOM     17  C   UNL A   1      46.085  21.849  35.211  1.00  0.00     0.041 A 
ATOM     18  C   UNL A   1      46.572  22.446  36.387  1.00  0.00     0.014 A 
ATOM     19  C   UNL A   1      44.844  22.228  34.691  1.00  0.00     0.034 A 
ATOM     20  C   UNL A   1      45.761  23.321  37.111  1.00  0.00     0.002 A 
ATOM     21  C   UNL A   1      44.052  23.121  35.413  1.00  0.00     0.041 A 
ATOM     22  C   UNL A   1      44.492  23.646  36.630  1.00  0.00     0.020 A 
ATOM     23  Cl  UNL A   1      42.477  23.513  34.846  1.00  0.00    -0.084 Cl
ENDBRANCH  15  17
ENDBRANCH   8  13
BRANCH  12  24
ATOM     24  N   UNL A   1      46.200  17.887  40.648  1.00  0.00    -0.360 N 
ATOM     25  C   UNL A   1      46.049  16.482  41.056  1.00  0.00     0.178 C 
ATOM     26  C   UNL A   1      45.358  18.810  41.405  1.00  0.00     0.178 C 
ATOM     27  C   UNL A   1      46.026  16.343  42.617  1.00  0.00     0.284 C 
ATOM     28  C   UNL A   1      45.592  18.695  42.903  1.00  0.00     0.284 C 
ATOM     29  N   UNL A   1      45.295  17.358  43.407  1.00  0.00    -0.324 N 
ATOM     30  H   UNL A   1      45.669  17.265  44.351  1.00  0.00     0.348 HD
BRANCH  29  31
ATOM     31  C   UNL A   1      43.875  17.117  43.708  1.00  0.00     0.363 C 
BRANCH  31  32
ATOM     32  C   UNL A   1      43.243  15.794  43.252  1.00  0.00     0.277 C 
ATOM     33  O   UNL A   1      42.736  15.710  42.127  1.00  0.00    -0.268 OA
ATOM     34  N   UNL A   1      43.366  14.666  44.070  1.00  0.00    -0.333 N 
ATOM     35  C   UNL A   1      43.261  14.686  45.533  1.00  0.00     0.148 C 
ATOM     36  C   UNL A   1      43.069  13.360  43.478  1.00  0.00     0.148 C 
ATOM     37  C   UNL A   1      43.867  13.468  46.233  1.00  0.00     0.181 C 
ATOM     38  C   UNL A   1      43.757  12.224  44.242  1.00  0.00     0.181 C 
ATOM     39  O   UNL A   1      43.405  12.252  45.632  1.00  0.00    -0.378 OA
ENDBRANCH  31  32
ENDBRANCH  29  31
ENDBRANCH  12  24
ENDBRANCH   5   7
ENDBRANCH   4   5
ENDBRANCH   3   4
ENDBRANCH   2   3
ENDBRANCH   1   2
BRANCH   1  40
ATOM     40  C   UNL A   1      49.207  24.927  39.753  1.00  0.00     0.202 C 
BRANCH  40  41
ATOM     41  C   UNL A   1      47.876  25.281  39.097  1.00  0.00     0.261 C 
BRANCH  41  42
ATOM     42  O   UNL A   1      47.968  26.530  38.417  1.00  0.00    -0.460 OA
BRANCH  42  43
ATOM     43  C   UNL A   1      47.857  26.426  37.073  1.00  0.00     0.338 C 
ATOM     44  O   UNL A   1      48.415  25.621  36.345  1.00  0.00    -0.246 OA
BRANCH  43  45
ATOM     45  C   UNL A   1      46.770  27.314  36.632  1.00  0.00     0.060 A 
ATOM     46  C   UNL A   1      45.467  26.941  36.975  1.00  0.00     0.016 A 
ATOM     47  C   UNL A   1      47.023  28.491  35.921  1.00  0.00     0.016 A 
ATOM     48  C   UNL A   1      44.397  27.719  36.553  1.00  0.00     0.010 A 
ATOM     49  C   UNL A   1      45.950  29.267  35.493  1.00  0.00     0.010 A 
ATOM     50  C   UNL A   1      44.637  28.856  35.774  1.00  0.00    -0.014 A 
BRANCH  50  51
ATOM     51  C   UNL A   1      43.501  29.503  35.090  1.00  0.00     0.031 A 
ATOM     52  C   UNL A   1      43.190  29.080  33.684  1.00  0.00     0.074 A 
ATOM     53  C   UNL A   1      42.754  30.415  35.734  1.00  0.00     0.049 A 
ATOM     54  N   UNL A   1      42.254  29.505  32.880  1.00  0.00    -0.248 NA
ATOM     55  C   UNL A   1      44.055  28.036  33.104  1.00  0.00     0.031 C 
ATOM     56  C   UNL A   1      42.967  30.861  37.110  1.00  0.00     0.029 A 
ATOM     57  N   UNL A   1      41.666  31.129  35.309  1.00  0.00    -0.354 N 
ATOM     58  C   UNL A   1      42.422  28.792  31.699  1.00  0.00     0.074 A 
ATOM     59  C   UNL A   1      43.566  27.928  31.879  1.00  0.00     0.031 C 
ATOM     60  C   UNL A   1      42.038  31.783  37.416  1.00  0.00     0.029 A 
ATOM     61  C   UNL A   1      41.187  32.008  36.250  1.00  0.00     0.049 A 
ATOM     62  H   UNL A   1      41.267  31.024  34.416  1.00  0.00     0.167 HD
ATOM     63  C   UNL A   1      41.678  28.851  30.570  1.00  0.00     0.037 A 
ATOM     64  C   UNL A   1      40.184  32.902  36.162  1.00  0.00     0.037 A 
ATOM     65  C   UNL A   1      40.542  29.719  30.416  1.00  0.00     0.049 A 
ATOM     66  C   UNL A   1      39.403  32.984  34.876  1.00  0.00     0.074 A 
ATOM     67  C   UNL A   1      39.699  29.851  29.328  1.00  0.00     0.029 A 
ATOM     68  N   UNL A   1      40.097  30.614  31.380  1.00  0.00    -0.354 N 
ATOM     69  N   UNL A   1      39.547  32.283  33.775  1.00  0.00    -0.248 NA
ATOM     70  C   UNL A   1      38.320  33.974  34.820  1.00  0.00     0.031 C 
ATOM     71  C   UNL A   1      38.775  30.862  29.615  1.00  0.00     0.029 A 
ATOM     72  C   UNL A   1      39.007  31.321  30.904  1.00  0.00     0.049 A 
ATOM     73  H   UNL A   1      40.498  30.729  32.272  1.00  0.00     0.167 HD
ATOM     74  C   UNL A   1      38.557  32.729  32.905  1.00  0.00     0.074 A 
ATOM     75  C   UNL A   1      37.814  33.751  33.615  1.00  0.00     0.031 C 
ATOM     76  C   UNL A   1      38.284  32.330  31.638  1.00  0.00     0.037 A 
BRANCH  63  77
ATOM     77  C   UNL A   1      42.091  27.980  29.417  1.00  0.00     0.058 A 
ATOM     78  C   UNL A   1      41.357  26.844  29.042  1.00  0.00     0.135 A 
ATOM     79  C   UNL A   1      43.233  28.298  28.663  1.00  0.00     0.135 A 
ATOM     80  F   UNL A   1      40.270  26.479  29.743  1.00  0.00    -0.206 F 
ATOM     81  C   UNL A   1      41.753  26.040  27.978  1.00  0.00     0.059 A 
ATOM     82  C   UNL A   1      43.632  27.524  27.578  1.00  0.00     0.059 A 
ATOM     83  F   UNL A   1      43.978  29.368  28.983  1.00  0.00    -0.206 F 
ATOM     84  C   UNL A   1      42.893  26.389  27.251  1.00  0.00     0.060 A 
BRANCH  84  85
ATOM     85  S   UNL A   1      43.390  25.340  25.868  1.00  0.00     0.124 S 
ATOM     86  O   UNL A   1      44.715  25.870  25.562  1.00  0.00    -0.237 OA
ATOM     87  O   UNL A   1      43.364  24.008  26.463  1.00  0.00    -0.237 OA
ATOM     88  O   UNL A   1      42.364  25.595  24.862  1.00  0.00    -0.744 OA
ENDBRANCH  84  85
ENDBRANCH  63  77
BRANCH  64  89
ATOM     89  C   UNL A   1      39.866  33.780  37.318  1.00  0.00     0.058 A 
ATOM     90  C   UNL A   1      40.424  35.061  37.430  1.00  0.00     0.135 A 
ATOM     91  C   UNL A   1      38.988  33.360  38.330  1.00  0.00     0.135 A 
ATOM     92  F   UNL A   1      41.274  35.506  36.492  1.00  0.00    -0.206 F 
ATOM     93  C   UNL A   1      40.137  35.890  38.510  1.00  0.00     0.059 A 
ATOM     94  C   UNL A   1      38.665  34.180  39.407  1.00  0.00     0.059 A 
ATOM     95  F   UNL A   1      38.417  32.146  38.265  1.00  0.00    -0.206 F 
ATOM     96  C   UNL A   1      39.253  35.440  39.493  1.00  0.00     0.060 A 
BRANCH  96  97
ATOM     97  S   UNL A   1      38.857  36.542  40.868  1.00  0.00     0.124 S 
ATOM     98  O   UNL A   1      40.164  36.717  41.491  1.00  0.00    -0.237 OA
ATOM     99  O   UNL A   1      38.318  37.710  40.179  1.00  0.00    -0.237 OA
ATOM    100  O   UNL A   1      37.885  35.777  41.643  1.00  0.00    -0.744 OA
ENDBRANCH  96  97
ENDBRANCH  64  89
BRANCH  76 101
ATOM    101  C   UNL A   1      37.111  32.973  30.953  1.00  0.00     0.058 A 
ATOM    102  C   UNL A   1      37.279  33.936  29.946  1.00  0.00     0.135 A 
ATOM    103  C   UNL A   1      35.801  32.580  31.273  1.00  0.00     0.135 A 
ATOM    104  F   UNL A   1      38.510  34.350  29.606  1.00  0.00    -0.206 F 
ATOM    105  C   UNL A   1      36.189  34.508  29.299  1.00  0.00     0.059 A 
ATOM    106  C   UNL A   1      34.697  33.115  30.618  1.00  0.00     0.059 A 
ATOM    107  F   UNL A   1      35.585  31.651  32.219  1.00  0.00    -0.206 F 
ATOM    108  C   UNL A   1      34.901  34.090  29.642  1.00  0.00     0.060 A 
BRANCH 108 109
ATOM    109  S   UNL A   1      33.495  34.818  28.775  1.00  0.00     0.124 S 
ATOM    110  O   UNL A   1      32.538  34.991  29.863  1.00  0.00    -0.237 OA
ATOM    111  O   UNL A   1      34.066  36.046  28.231  1.00  0.00    -0.237 OA
ATOM    112  O   UNL A   1      33.144  33.804  27.785  1.00  0.00    -0.744 OA
ENDBRANCH 108 109
ENDBRANCH  76 101
ENDBRANCH  50  51
ENDBRANCH  43  45
ENDBRANCH  42  43
ENDBRANCH  41  42
ENDBRANCH  40  41
ENDBRANCH   1  40
TORSDOF 22
ENDMDL
MODEL 2
REMARK VINA RESULT:      -9.9     10.125     19.410
REMARK SMILES O=C(Nc1ccc(N2CC[NH+](CC(=O)N3CCOCC3)CC2)c(C(=O)OCCOCCOC(=O)c2ccc(-c3c4nc(c(-c5c(F)cc(S(=O)(=O)[O-])cc5F)c5ccc([nH]5)c(-c5c(F)cc(S(=O)(=O)[O-])cc5F)c5nc(c(-c6c(F)cc(S(=O)(=O)[O-])cc6F)c6ccc3[nH]6)C=C5)C=C4)cc2)c1)c1cccc(Cl)c1
REMARK SMILES IDX 29 1 28 2 27 3 26 4 24 5 25 6 23 7 4 8 5 9 101 10 6 11 7 12
REMARK SMILES IDX 3 13 1 14 2 15 102 17 103 18 108 19 104 20 106 21 105 22
REMARK SMILES IDX 107 23 8 24 9 25 22 26 10 27 21 28 11 29 12 31 13 32 14 33
REMARK SMILES IDX 15 34 16 35 20 36 17 37 19 38 18 39 30 40 31 41 32 42 33 43
REMARK SMILES IDX 34 44 35 45 36 46 100 47 37 48 99 49 38 50 39 51 40 52 93 53
REMARK SMILES IDX 41 54 98 55 92 56 94 57 42 58 97 59 91 60 90 61 43 63 77 64
REMARK SMILES IDX 56 65 76 66 57 67 60 68 75 69 95 70 58 71 59 72 74 74 96 75
REMARK SMILES IDX 61 76 44 77 45 78 54 79 46 80 47 81 53 82 55 83 48 84 49 85
REMARK SMILES IDX 50 86 51 87 52 88 78 89 79 90 88 91 80 92 81 93 87 94 89 95
REMARK SMILES IDX 82 96 83 97 84 98 85 99 86 100 62 101 63 102 72 103 64 104
REMARK SMILES IDX 65 105 71 106 73 107 66 108 67 109 68 110 69 111 70 112
REMARK H PARENT 3 16 11 30 94 62 60 73
REMARK Flexibility Score: inf
ROOT
ATOM      1  O   UNL A   1      47.863  38.511  25.771  1.00  0.00    -0.374 OA
ENDROOT
BRANCH   1   2
ATOM      2  C   UNL A   1      46.906  39.136  24.900  1.00  0.00     0.202 C 
BRANCH   2   3
ATOM      3  C   UNL A   1      47.258  40.567  24.483  1.00  0.00     0.261 C 
BRANCH   3   4
ATOM      4  O   UNL A   1      46.184  41.084  23.684  1.00  0.00    -0.460 OA
BRANCH   4   5
ATOM      5  C   UNL A   1      46.506  42.110  22.860  1.00  0.00     0.340 C 
ATOM      6  O   UNL A   1      47.593  42.303  22.346  1.00  0.00    -0.246 OA
BRANCH   5   7
ATOM      7  C   UNL A   1      45.264  42.886  22.584  1.00  0.00     0.085 A 
ATOM      8  C   UNL A   1      43.398  43.166  21.086  1.00  0.00     0.042 A 
ATOM      9  C   UNL A   1      42.756  43.954  22.037  1.00  0.00     0.028 A 
ATOM     10  C   UNL A   1      44.707  42.768  21.312  1.00  0.00     0.044 A 
ATOM     11  C   UNL A   1      43.373  44.195  23.278  1.00  0.00     0.029 A 
ATOM     12  C   UNL A   1      44.629  43.648  23.591  1.00  0.00     0.052 A 
BRANCH   8  13
ATOM     13  N   UNL A   1      42.666  42.684  19.984  1.00  0.00    -0.322 N 
ATOM     14  O   UNL A   1      41.623  42.839  17.968  1.00  0.00    -0.269 OA
ATOM     15  C   UNL A   1      42.382  43.342  18.791  1.00  0.00     0.255 C 
ATOM     16  H   UNL A   1      42.312  41.769  20.068  1.00  0.00     0.170 HD
BRANCH  15  17
ATOM     17  C   UNL A   1      43.046  44.638  18.476  1.00  0.00     0.041 A 
ATOM     18  C   UNL A   1      42.289  45.806  18.277  1.00  0.00     0.014 A 
ATOM     19  C   UNL A   1      44.418  44.636  18.210  1.00  0.00     0.034 A 
ATOM     20  C   UNL A   1      42.878  46.926  17.687  1.00  0.00     0.002 A 
ATOM     21  C   UNL A   1      45.000  45.769  17.641  1.00  0.00     0.041 A 
ATOM     22  C   UNL A   1      44.232  46.900  17.354  1.00  0.00     0.020 A 
ATOM     23  Cl  UNL A   1      46.663  45.745  17.204  1.00  0.00    -0.084 Cl
ENDBRANCH  15  17
ENDBRANCH   8  13
BRANCH  12  24
ATOM     24  N   UNL A   1      45.286  43.948  24.780  1.00  0.00    -0.360 N 
ATOM     25  C   UNL A   1      46.721  44.255  24.891  1.00  0.00     0.178 C 
ATOM     26  C   UNL A   1      44.758  43.201  25.918  1.00  0.00     0.178 C 
ATOM     27  C   UNL A   1      47.085  44.755  26.330  1.00  0.00     0.284 C 
ATOM     28  C   UNL A   1      45.018  43.914  27.236  1.00  0.00     0.284 C 
ATOM     29  N   UNL A   1      46.442  44.101  27.491  1.00  0.00    -0.324 N 
ATOM     30  H   UNL A   1      46.562  44.763  28.257  1.00  0.00     0.348 HD
BRANCH  29  31
ATOM     31  C   UNL A   1      47.114  42.940  28.097  1.00  0.00     0.363 C 
BRANCH  31  32
ATOM     32  C   UNL A   1      46.608  42.423  29.451  1.00  0.00     0.277 C 
ATOM     33  O   UNL A   1      47.140  42.814  30.497  1.00  0.00    -0.268 OA
ATOM     34  N   UNL A   1      45.466  41.615  29.484  1.00  0.00    -0.333 N 
ATOM     35  C   UNL A   1      45.163  40.564  28.507  1.00  0.00     0.148 C 
ATOM     36  C   UNL A   1      44.806  41.421  30.778  1.00  0.00     0.148 C 
ATOM     37  C   UNL A   1      43.696  40.135  28.465  1.00  0.00     0.181 C 
ATOM     38  C   UNL A   1      43.336  41.028  30.608  1.00  0.00     0.181 C 
ATOM     39  O   UNL A   1      43.206  39.863  29.784  1.00  0.00    -0.378 OA
ENDBRANCH  31  32
ENDBRANCH  29  31
ENDBRANCH  12  24
ENDBRANCH   5   7
ENDBRANCH   4   5
ENDBRANCH   3   4
ENDBRANCH   2   3
ENDBRANCH   1   2
BRANCH   1  40
ATOM     40  C   UNL A   1      48.404  39.335  26.804  1.00  0.00     0.202 C 
BRANCH  40  41
ATOM     41  C   UNL A   1      48.405  38.768  28.221  1.00  0.00     0.261 C 
BRANCH  41  42
ATOM     42  O   UNL A   1      48.266  37.350  28.194  1.00  0.00    -0.460 OA
BRANCH  42  43
ATOM     43  C   UNL A   1      47.541  36.858  29.225  1.00  0.00     0.338 C 
ATOM     44  O   UNL A   1      46.996  37.491  30.115  1.00  0.00    -0.246 OA
BRANCH  43  45
ATOM     45  C   UNL A   1      47.323  35.422  28.989  1.00  0.00     0.060 A 
ATOM     46  C   UNL A   1      46.913  35.044  27.707  1.00  0.00     0.016 A 
ATOM     47  C   UNL A   1      47.539  34.470  29.990  1.00  0.00     0.016 A 
ATOM     48  C   UNL A   1      46.654  33.708  27.435  1.00  0.00     0.010 A 
ATOM     49  C   UNL A   1      47.274  33.131  29.719  1.00  0.00     0.010 A 
ATOM     50  C   UNL A   1      46.791  32.758  28.454  1.00  0.00    -0.014 A 
BRANCH  50  51
ATOM     51  C   UNL A   1      46.240  31.405  28.245  1.00  0.00     0.031 A 
ATOM     52  C   UNL A   1      47.150  30.351  27.686  1.00  0.00     0.074 A 
ATOM     53  C   UNL A   1      44.970  31.132  28.586  1.00  0.00     0.049 A 
ATOM     54  N   UNL A   1      46.896  29.101  27.409  1.00  0.00    -0.248 NA
ATOM     55  C   UNL A   1      48.536  30.764  27.397  1.00  0.00     0.031 C 
ATOM     56  C   UNL A   1      44.027  32.089  29.164  1.00  0.00     0.029 A 
ATOM     57  N   UNL A   1      44.258  29.968  28.491  1.00  0.00    -0.354 N 
ATOM     58  C   UNL A   1      48.082  28.581  26.905  1.00  0.00     0.074 A 
ATOM     59  C   UNL A   1      49.048  29.656  26.885  1.00  0.00     0.031 C 
ATOM     60  C   UNL A   1      42.851  31.470  29.368  1.00  0.00     0.029 A 
ATOM     61  C   UNL A   1      42.954  30.088  28.909  1.00  0.00     0.049 A 
ATOM     62  H   UNL A   1      44.642  29.127  28.154  1.00  0.00     0.167 HD
ATOM     63  C   UNL A   1      48.338  27.315  26.502  1.00  0.00     0.037 A 
ATOM     64  C   UNL A   1      41.961  29.179  28.901  1.00  0.00     0.037 A 
ATOM     65  C   UNL A   1      47.360  26.261  26.533  1.00  0.00     0.049 A 
ATOM     66  C   UNL A   1      42.258  27.789  28.401  1.00  0.00     0.074 A 
ATOM     67  C   UNL A   1      47.509  24.935  26.171  1.00  0.00     0.029 A 
ATOM     68  N   UNL A   1      46.042  26.421  26.941  1.00  0.00    -0.354 N 
ATOM     69  N   UNL A   1      43.391  27.296  27.955  1.00  0.00    -0.248 NA
ATOM     70  C   UNL A   1      41.146  26.830  28.405  1.00  0.00     0.031 C 
ATOM     71  C   UNL A   1      46.268  24.305  26.312  1.00  0.00     0.029 A 
ATOM     72  C   UNL A   1      45.359  25.224  26.816  1.00  0.00     0.049 A 
ATOM     73  H   UNL A   1      45.650  27.263  27.270  1.00  0.00     0.167 HD
ATOM     74  C   UNL A   1      43.135  25.963  27.652  1.00  0.00     0.074 A 
ATOM     75  C   UNL A   1      41.742  25.726  27.977  1.00  0.00     0.031 C 
ATOM     76  C   UNL A   1      43.972  25.019  27.153  1.00  0.00     0.037 A 
BRANCH  63  77
ATOM     77  C   UNL A   1      49.713  27.017  25.972  1.00  0.00     0.058 A 
ATOM     78  C   UNL A   1      50.035  27.167  24.613  1.00  0.00     0.135 A 
ATOM     79  C   UNL A   1      50.730  26.590  26.841  1.00  0.00     0.135 A 
ATOM     80  F   UNL A   1      49.095  27.549  23.733  1.00  0.00    -0.206 F 
ATOM     81  C   UNL A   1      51.308  26.880  24.131  1.00  0.00     0.059 A 
ATOM     82  C   UNL A   1      52.018  26.324  26.386  1.00  0.00     0.059 A 
ATOM     83  F   UNL A   1      50.475  26.420  28.147  1.00  0.00    -0.206 F 
ATOM     84  C   UNL A   1      52.294  26.459  25.026  1.00  0.00     0.060 A 
BRANCH  84  85
ATOM     85  S   UNL A   1      53.943  26.098  24.387  1.00  0.00     0.124 S 
ATOM     86  O   UNL A   1      54.077  24.681  24.710  1.00  0.00    -0.237 OA
ATOM     87  O   UNL A   1      53.803  26.413  22.969  1.00  0.00    -0.237 OA
ATOM     88  O   UNL A   1      54.806  26.999  25.145  1.00  0.00    -0.744 OA
ENDBRANCH  84  85
ENDBRANCH  63  77
BRANCH  64  89
ATOM     89  C   UNL A   1      40.605  29.555  29.381  1.00  0.00     0.058 A 
ATOM     90  C   UNL A   1      40.344  29.733  30.748  1.00  0.00     0.135 A 
ATOM     91  C   UNL A   1      39.545  29.755  28.483  1.00  0.00     0.135 A 
ATOM     92  F   UNL A   1      41.322  29.547  31.647  1.00  0.00    -0.206 F 
ATOM     93  C   UNL A   1      39.078  30.080  31.208  1.00  0.00     0.059 A 
ATOM     94  C   UNL A   1      38.277  30.129  28.917  1.00  0.00     0.059 A 
ATOM     95  F   UNL A   1      39.745  29.608  27.163  1.00  0.00    -0.206 F 
ATOM     96  C   UNL A   1      38.051  30.279  30.283  1.00  0.00     0.060 A 
BRANCH  96  97
ATOM     97  S   UNL A   1      36.423  30.770  30.892  1.00  0.00     0.124 S 
ATOM     98  O   UNL A   1      36.111  29.682  31.811  1.00  0.00    -0.237 OA
ATOM     99  O   UNL A   1      36.705  32.064  31.508  1.00  0.00    -0.237 OA
ATOM    100  O   UNL A   1      35.612  30.826  29.679  1.00  0.00    -0.744 OA
ENDBRANCH  96  97
ENDBRANCH  64  89
BRANCH  76 101
ATOM    101  C   UNL A   1      43.414  23.636  26.965  1.00  0.00     0.058 A 
ATOM    102  C   UNL A   1      43.100  23.132  25.693  1.00  0.00     0.135 A 
ATOM    103  C   UNL A   1      43.242  22.785  28.069  1.00  0.00     0.135 A 
ATOM    104  F   UNL A   1      43.241  23.907  24.606  1.00  0.00    -0.206 F 
ATOM    105  C   UNL A   1      42.608  21.842  25.525  1.00  0.00     0.059 A 
ATOM    106  C   UNL A   1      42.781  21.481  27.921  1.00  0.00     0.059 A 
ATOM    107  F   UNL A   1      43.542  23.213  29.306  1.00  0.00    -0.206 F 
ATOM    108  C   UNL A   1      42.453  21.024  26.646  1.00  0.00     0.060 A 
BRANCH 108 109
ATOM    109  S   UNL A   1      41.841  19.342  26.412  1.00  0.00     0.124 S 
ATOM    110  O   UNL A   1      40.401  19.561  26.341  1.00  0.00    -0.237 OA
ATOM    111  O   UNL A   1      42.485  18.947  25.163  1.00  0.00    -0.237 OA
ATOM    112  O   UNL A   1      42.312  18.640  27.603  1.00  0.00    -0.744 OA
ENDBRANCH 108 109
ENDBRANCH  76 101
ENDBRANCH  50  51
ENDBRANCH  43  45
ENDBRANCH  42  43
ENDBRANCH  41  42
ENDBRANCH  40  41
ENDBRANCH   1  40
TORSDOF 22
ENDMDL
MODEL 3
REMARK VINA RESULT:      -9.7     10.021     20.335
REMARK SMILES O=C(Nc1ccc(N2CC[NH+](CC(=O)N3CCOCC3)CC2)c(C(=O)OCCOCCOC(=O)c2ccc(-c3c4nc(c(-c5c(F)cc(S(=O)(=O)[O-])cc5F)c5ccc([nH]5)c(-c5c(F)cc(S(=O)(=O)[O-])cc5F)c5nc(c(-c6c(F)cc(S(=O)(=O)[O-])cc6F)c6ccc3[nH]6)C=C5)C=C4)cc2)c1)c1cccc(Cl)c1
REMARK SMILES IDX 29 1 28 2 27 3 26 4 24 5 25 6 23 7 4 8 5 9 101 10 6 11 7 12
REMARK SMILES IDX 3 13 1 14 2 15 102 17 103 18 108 19 104 20 106 21 105 22
REMARK SMILES IDX 107 23 8 24 9 25 22 26 10 27 21 28 11 29 12 31 13 32 14 33
REMARK SMILES IDX 15 34 16 35 20 36 17 37 19 38 18 39 30 40 31 41 32 42 33 43
REMARK SMILES IDX 34 44 35 45 36 46 100 47 37 48 99 49 38 50 39 51 40 52 93 53
REMARK SMILES IDX 41 54 98 55 92 56 94 57 42 58 97 59 91 60 90 61 43 63 77 64
REMARK SMILES IDX 56 65 76 66 57 67 60 68 75 69 95 70 58 71 59 72 74 74 96 75
REMARK SMILES IDX 61 76 44 77 45 78 54 79 46 80 47 81 53 82 55 83 48 84 49 85
REMARK SMILES IDX 50 86 51 87 52 88 78 89 79 90 88 91 80 92 81 93 87 94 89 95
REMARK SMILES IDX 82 96 83 97 84 98 85 99 86 100 62 101 63 102 72 103 64 104
REMARK SMILES IDX 65 105 71 106 73 107 66 108 67 109 68 110 69 111 70 112
REMARK H PARENT 3 16 11 30 94 62 60 73
REMARK Flexibility Score: inf
ROOT
ATOM      1  O   UNL A   1      47.573  38.713  25.960  1.00  0.00    -0.374 OA
ENDROOT
BRANCH   1   2
ATOM      2  C   UNL A   1      46.670  39.290  25.004  1.00  0.00     0.202 C 
BRANCH   2   3
ATOM      3  C   UNL A   1      47.154  40.601  24.376  1.00  0.00     0.261 C 
BRANCH   3   4
ATOM      4  O   UNL A   1      46.095  41.136  23.568  1.00  0.00    -0.460 OA
BRANCH   4   5
ATOM      5  C   UNL A   1      46.379  42.289  22.917  1.00  0.00     0.340 C 
ATOM      6  O   UNL A   1      47.468  42.621  22.486  1.00  0.00    -0.246 OA
BRANCH   5   7
ATOM      7  C   UNL A   1      45.099  43.023  22.702  1.00  0.00     0.085 A 
ATOM      8  C   UNL A   1      43.160  43.246  21.290  1.00  0.00     0.042 A 
ATOM      9  C   UNL A   1      42.533  44.004  22.276  1.00  0.00     0.028 A 
ATOM     10  C   UNL A   1      44.491  42.893  21.455  1.00  0.00     0.044 A 
ATOM     11  C   UNL A   1      43.195  44.259  23.489  1.00  0.00     0.029 A 
ATOM     12  C   UNL A   1      44.482  43.755  23.743  1.00  0.00     0.052 A 
BRANCH   8  13
ATOM     13  N   UNL A   1      42.397  42.745  20.218  1.00  0.00    -0.322 N 
ATOM     14  O   UNL A   1      41.261  42.876  18.251  1.00  0.00    -0.269 OA
ATOM     15  C   UNL A   1      42.037  43.402  19.044  1.00  0.00     0.255 C 
ATOM     16  H   UNL A   1      42.080  41.818  20.310  1.00  0.00     0.170 HD
BRANCH  15  17
ATOM     17  C   UNL A   1      42.640  44.723  18.711  1.00  0.00     0.041 A 
ATOM     18  C   UNL A   1      41.862  45.746  18.143  1.00  0.00     0.014 A 
ATOM     19  C   UNL A   1      44.027  44.867  18.811  1.00  0.00     0.034 A 
ATOM     20  C   UNL A   1      42.484  46.850  17.556  1.00  0.00     0.002 A 
ATOM     21  C   UNL A   1      44.635  45.985  18.240  1.00  0.00     0.041 A 
ATOM     22  C   UNL A   1      43.874  46.960  17.592  1.00  0.00     0.020 A 
ATOM     23  Cl  UNL A   1      46.349  46.123  18.256  1.00  0.00    -0.084 Cl
ENDBRANCH  15  17
ENDBRANCH   8  13
BRANCH  12  24
ATOM     24  N   UNL A   1      45.181  44.070  24.904  1.00  0.00    -0.360 N 
ATOM     25  C   UNL A   1      46.571  44.549  24.943  1.00  0.00     0.178 C 
ATOM     26  C   UNL A   1      44.830  43.201  26.024  1.00  0.00     0.178 C 
ATOM     27  C   UNL A   1      46.972  45.012  26.385  1.00  0.00     0.284 C 
ATOM     28  C   UNL A   1      45.093  43.868  27.366  1.00  0.00     0.284 C 
ATOM     29  N   UNL A   1      46.498  44.219  27.541  1.00  0.00    -0.324 N 
ATOM     30  H   UNL A   1      46.589  44.849  28.338  1.00  0.00     0.348 HD
BRANCH  29  31
ATOM     31  C   UNL A   1      47.349  43.122  28.028  1.00  0.00     0.363 C 
BRANCH  31  32
ATOM     32  C   UNL A   1      47.565  42.977  29.542  1.00  0.00     0.277 C 
ATOM     33  O   UNL A   1      48.620  43.371  30.053  1.00  0.00    -0.268 OA
ATOM     34  N   UNL A   1      46.508  42.520  30.337  1.00  0.00    -0.333 N 
ATOM     35  C   UNL A   1      45.583  41.448  29.952  1.00  0.00     0.148 C 
ATOM     36  C   UNL A   1      46.612  42.713  31.785  1.00  0.00     0.148 C 
ATOM     37  C   UNL A   1      44.272  41.425  30.738  1.00  0.00     0.181 C 
ATOM     38  C   UNL A   1      45.235  42.706  32.455  1.00  0.00     0.181 C 
ATOM     39  O   UNL A   1      44.519  41.503  32.147  1.00  0.00    -0.378 OA
ENDBRANCH  31  32
ENDBRANCH  29  31
ENDBRANCH  12  24
ENDBRANCH   5   7
ENDBRANCH   4   5
ENDBRANCH   3   4
ENDBRANCH   2   3
ENDBRANCH   1   2
BRANCH   1  40
ATOM     40  C   UNL A   1      48.009  39.572  27.013  1.00  0.00     0.202 C 
BRANCH  40  41
ATOM     41  C   UNL A   1      47.869  39.055  28.441  1.00  0.00     0.261 C 
BRANCH  41  42
ATOM     42  O   UNL A   1      47.898  37.630  28.464  1.00  0.00    -0.460 OA
BRANCH  42  43
ATOM     43  C   UNL A   1      47.094  37.086  29.406  1.00  0.00     0.338 C 
ATOM     44  O   UNL A   1      46.422  37.677  30.236  1.00  0.00    -0.246 OA
BRANCH  43  45
ATOM     45  C   UNL A   1      46.982  35.644  29.137  1.00  0.00     0.060 A 
ATOM     46  C   UNL A   1      46.558  35.267  27.859  1.00  0.00     0.016 A 
ATOM     47  C   UNL A   1      47.306  34.687  30.104  1.00  0.00     0.016 A 
ATOM     48  C   UNL A   1      46.396  33.922  27.558  1.00  0.00     0.010 A 
ATOM     49  C   UNL A   1      47.138  33.338  29.804  1.00  0.00     0.010 A 
ATOM     50  C   UNL A   1      46.642  32.960  28.546  1.00  0.00    -0.014 A 
BRANCH  50  51
ATOM     51  C   UNL A   1      46.192  31.574  28.317  1.00  0.00     0.031 A 
ATOM     52  C   UNL A   1      44.787  31.216  28.705  1.00  0.00     0.074 A 
ATOM     53  C   UNL A   1      47.014  30.681  27.744  1.00  0.00     0.049 A 
ATOM     54  N   UNL A   1      44.169  30.070  28.611  1.00  0.00    -0.248 NA
ATOM     55  C   UNL A   1      43.967  32.297  29.282  1.00  0.00     0.031 C 
ATOM     56  C   UNL A   1      48.383  30.953  27.308  1.00  0.00     0.029 A 
ATOM     57  N   UNL A   1      46.814  29.363  27.434  1.00  0.00    -0.354 N 
ATOM     58  C   UNL A   1      42.895  30.287  29.123  1.00  0.00     0.074 A 
ATOM     59  C   UNL A   1      42.837  31.665  29.555  1.00  0.00     0.031 C 
ATOM     60  C   UNL A   1      48.906  29.828  26.789  1.00  0.00     0.029 A 
ATOM     61  C   UNL A   1      47.917  28.757  26.884  1.00  0.00     0.049 A 
ATOM     62  H   UNL A   1      45.963  28.895  27.591  1.00  0.00     0.167 HD
ATOM     63  C   UNL A   1      41.867  29.413  29.215  1.00  0.00     0.037 A 
ATOM     64  C   UNL A   1      48.102  27.474  26.517  1.00  0.00     0.037 A 
ATOM     65  C   UNL A   1      41.950  28.045  28.776  1.00  0.00     0.049 A 
ATOM     66  C   UNL A   1      46.958  26.507  26.676  1.00  0.00     0.074 A 
ATOM     67  C   UNL A   1      40.969  27.072  28.798  1.00  0.00     0.029 A 
ATOM     68  N   UNL A   1      43.090  27.456  28.244  1.00  0.00    -0.354 N 
ATOM     69  N   UNL A   1      45.746  26.728  27.132  1.00  0.00    -0.248 NA
ATOM     70  C   UNL A   1      47.202  25.118  26.268  1.00  0.00     0.031 C 
ATOM     71  C   UNL A   1      41.530  25.880  28.327  1.00  0.00     0.029 A 
ATOM     72  C   UNL A   1      42.845  26.125  27.958  1.00  0.00     0.049 A 
ATOM     73  H   UNL A   1      43.947  27.917  28.093  1.00  0.00     0.167 HD
ATOM     74  C   UNL A   1      45.075  25.513  27.040  1.00  0.00     0.074 A 
ATOM     75  C   UNL A   1      46.014  24.565  26.474  1.00  0.00     0.031 C 
ATOM     76  C   UNL A   1      43.800  25.207  27.389  1.00  0.00     0.037 A 
BRANCH  63  77
ATOM     77  C   UNL A   1      40.589  29.902  29.836  1.00  0.00     0.058 A 
ATOM     78  C   UNL A   1      39.446  30.179  29.068  1.00  0.00     0.135 A 
ATOM     79  C   UNL A   1      40.501  30.081  31.226  1.00  0.00     0.135 A 
ATOM     80  F   UNL A   1      39.481  30.048  27.732  1.00  0.00    -0.206 F 
ATOM     81  C   UNL A   1      38.271  30.639  29.652  1.00  0.00     0.059 A 
ATOM     82  C   UNL A   1      39.327  30.514  31.836  1.00  0.00     0.059 A 
ATOM     83  F   UNL A   1      41.565  29.841  32.007  1.00  0.00    -0.206 F 
ATOM     84  C   UNL A   1      38.221  30.804  31.039  1.00  0.00     0.060 A 
BRANCH  84  85
ATOM     85  S   UNL A   1      36.686  31.395  31.783  1.00  0.00     0.124 S 
ATOM     86  O   UNL A   1      36.134  32.209  30.704  1.00  0.00    -0.237 OA
ATOM     87  O   UNL A   1      35.977  30.151  32.063  1.00  0.00    -0.237 OA
ATOM     88  O   UNL A   1      37.140  32.133  32.957  1.00  0.00    -0.744 OA
ENDBRANCH  84  85
ENDBRANCH  63  77
BRANCH  64  89
ATOM     89  C   UNL A   1      49.412  27.039  25.967  1.00  0.00     0.058 A 
ATOM     90  C   UNL A   1      49.702  27.165  24.600  1.00  0.00     0.135 A 
ATOM     91  C   UNL A   1      50.407  26.499  26.798  1.00  0.00     0.135 A 
ATOM     92  F   UNL A   1      48.783  27.670  23.764  1.00  0.00    -0.206 F 
ATOM     93  C   UNL A   1      50.924  26.756  24.074  1.00  0.00     0.059 A 
ATOM     94  C   UNL A   1      51.645  26.108  26.300  1.00  0.00     0.059 A 
ATOM     95  F   UNL A   1      50.183  26.367  28.115  1.00  0.00    -0.206 F 
ATOM     96  C   UNL A   1      51.890  26.231  24.934  1.00  0.00     0.060 A 
BRANCH  96  97
ATOM     97  S   UNL A   1      53.487  25.744  24.244  1.00  0.00     0.124 S 
ATOM     98  O   UNL A   1      53.629  24.388  24.761  1.00  0.00    -0.237 OA
ATOM     99  O   UNL A   1      53.247  25.856  22.808  1.00  0.00    -0.237 OA
ATOM    100  O   UNL A   1      54.409  26.731  24.796  1.00  0.00    -0.744 OA
ENDBRANCH  96  97
ENDBRANCH  64  89
BRANCH  76 101
ATOM    101  C   UNL A   1      43.337  23.800  27.132  1.00  0.00     0.058 A 
ATOM    102  C   UNL A   1      43.431  22.800  28.113  1.00  0.00     0.135 A 
ATOM    103  C   UNL A   1      42.742  23.463  25.905  1.00  0.00     0.135 A 
ATOM    104  F   UNL A   1      43.996  23.070  29.300  1.00  0.00    -0.206 F 
ATOM    105  C   UNL A   1      42.976  21.507  27.876  1.00  0.00     0.059 A 
ATOM    106  C   UNL A   1      42.251  22.185  25.658  1.00  0.00     0.059 A 
ATOM    107  F   UNL A   1      42.613  24.387  24.939  1.00  0.00    -0.206 F 
ATOM    108  C   UNL A   1      42.387  21.210  26.646  1.00  0.00     0.060 A 
BRANCH 108 109
ATOM    109  S   UNL A   1      41.774  19.536  26.361  1.00  0.00     0.124 S 
ATOM    110  O   UNL A   1      42.602  19.108  25.238  1.00  0.00    -0.237 OA
ATOM    111  O   UNL A   1      42.049  18.882  27.637  1.00  0.00    -0.237 OA
ATOM    112  O   UNL A   1      40.360  19.739  26.058  1.00  0.00    -0.744 OA
ENDBRANCH 108 109
ENDBRANCH  76 101
ENDBRANCH  50  51
ENDBRANCH  43  45
ENDBRANCH  42  43
ENDBRANCH  41  42
ENDBRANCH  40  41
ENDBRANCH   1  40
TORSDOF 22
ENDMDL
