MODEL 1
REMARK VINA RESULT:     -10.1      0.000      0.000
REMARK SMILES Nc1ccccc1C(=O)NCc1ccc(C(=O)OCCOCCOC(=O)c2ccc(-c3c4nc(c(-c5c(F)cc(S(=O)(=O)[O-])cc5F)c5ccc([nH]5)c(-c5c(F)cc(S(=O)(=O)[O-])cc5F)c5nc(c(-c6c(F)cc(S(=O)(=O)[O-])cc6F)c6ccc3[nH]6)C=C5)C=C4)cc2)o1
REMARK SMILES IDX 20 1 19 2 18 3 16 4 17 5 15 6 12 7 13 8 93 9 14 10 11 11
REMARK SMILES IDX 10 12 8 13 9 14 7 16 2 17 3 18 4 19 6 20 5 21 1 22 21 25
REMARK SMILES IDX 22 26 23 27 24 28 25 29 26 30 27 31 28 32 92 33 29 34 91 35
REMARK SMILES IDX 30 36 31 37 32 38 85 39 33 40 90 41 84 42 86 43 34 44 89 45
REMARK SMILES IDX 83 46 82 47 35 49 69 50 48 51 68 52 49 53 52 54 67 55 87 56
REMARK SMILES IDX 50 57 51 58 66 60 88 61 53 62 36 63 37 64 46 65 38 66 39 67
REMARK SMILES IDX 45 68 47 69 40 70 41 71 42 72 43 73 44 74 70 75 71 76 80 77
REMARK SMILES IDX 72 78 73 79 79 80 81 81 74 82 75 83 76 84 77 85 78 86 54 87
REMARK SMILES IDX 55 88 64 89 56 90 57 91 63 92 65 93 58 94 59 95 60 96 61 97
REMARK SMILES IDX 62 98
REMARK H PARENT 10 15 1 23 1 24 86 48 52 59
REMARK Flexibility Score: inf
ROOT
ATOM      1  C   UNL A   1      33.879  28.626  23.498  1.00  0.00     0.202 C 
ENDROOT
BRANCH   1   2
ATOM      2  C   UNL A   1      33.741  28.161  22.045  1.00  0.00     0.261 C 
BRANCH   2   3
ATOM      3  O   UNL A   1      34.063  26.765  21.931  1.00  0.00    -0.457 OA
BRANCH   3   4
ATOM      4  C   UNL A   1      33.034  25.965  21.531  1.00  0.00     0.374 C 
ATOM      5  O   UNL A   1      32.955  25.424  20.437  1.00  0.00    -0.242 OA
BRANCH   4   6
ATOM      6  C   UNL A   1      32.142  25.722  22.641  1.00  0.00     0.211 A 
ATOM      7  C   UNL A   1      31.791  25.187  24.755  1.00  0.00     0.124 A 
ATOM      8  C   UNL A   1      30.579  25.623  24.266  1.00  0.00     0.048 A 
ATOM      9  O   UNL A   1      32.715  25.196  23.759  1.00  0.00    -0.452 OA
ATOM     10  C   UNL A   1      30.810  25.988  22.906  1.00  0.00     0.058 A 
BRANCH   7  11
ATOM     11  C   UNL A   1      32.360  24.862  26.082  1.00  0.00     0.191 C 
BRANCH  11  12
ATOM     12  N   UNL A   1      32.334  23.453  26.390  1.00  0.00    -0.345 N 
ATOM     13  C   UNL A   1      33.320  22.511  26.218  1.00  0.00     0.253 C 
ATOM     14  O   UNL A   1      33.128  21.371  26.643  1.00  0.00    -0.269 OA
ATOM     15  H   UNL A   1      31.493  23.121  26.777  1.00  0.00     0.164 HD
BRANCH  13  16
ATOM     16  C   UNL A   1      34.568  22.792  25.458  1.00  0.00     0.062 A 
ATOM     17  C   UNL A   1      34.716  22.690  24.061  1.00  0.00     0.044 A 
ATOM     18  C   UNL A   1      35.995  22.890  23.513  1.00  0.00     0.026 A 
ATOM     19  C   UNL A   1      37.077  23.277  24.309  1.00  0.00     0.002 A 
ATOM     20  C   UNL A   1      35.654  23.221  26.245  1.00  0.00     0.016 A 
ATOM     21  C   UNL A   1      36.900  23.470  25.673  1.00  0.00     0.001 A 
BRANCH  17  22
ATOM     22  N   UNL A   1      33.672  22.403  23.189  1.00  0.00    -0.398 N 
ATOM     23  H   UNL A   1      32.770  22.755  23.369  1.00  0.00     0.156 HD
ATOM     24  H   UNL A   1      33.834  21.850  22.392  1.00  0.00     0.156 HD
ENDBRANCH  17  22
ENDBRANCH  13  16
ENDBRANCH  11  12
ENDBRANCH   7  11
ENDBRANCH   4   6
ENDBRANCH   3   4
ENDBRANCH   2   3
ENDBRANCH   1   2
BRANCH   1  25
ATOM     25  O   UNL A   1      32.641  28.895  24.159  1.00  0.00    -0.374 OA
BRANCH  25  26
ATOM     26  C   UNL A   1      32.621  28.723  25.579  1.00  0.00     0.202 C 
BRANCH  26  27
ATOM     27  C   UNL A   1      33.930  28.212  26.195  1.00  0.00     0.261 C 
BRANCH  27  28
ATOM     28  O   UNL A   1      34.064  28.651  27.561  1.00  0.00    -0.460 OA
BRANCH  28  29
ATOM     29  C   UNL A   1      34.583  29.892  27.725  1.00  0.00     0.338 C 
ATOM     30  O   UNL A   1      33.983  30.952  27.692  1.00  0.00    -0.246 OA
BRANCH  29  31
ATOM     31  C   UNL A   1      35.991  29.777  28.155  1.00  0.00     0.060 A 
ATOM     32  C   UNL A   1      36.988  30.020  27.200  1.00  0.00     0.016 A 
ATOM     33  C   UNL A   1      36.332  29.400  29.456  1.00  0.00     0.016 A 
ATOM     34  C   UNL A   1      38.332  29.847  27.531  1.00  0.00     0.010 A 
ATOM     35  C   UNL A   1      37.679  29.211  29.782  1.00  0.00     0.010 A 
ATOM     36  C   UNL A   1      38.680  29.405  28.812  1.00  0.00    -0.014 A 
BRANCH  36  37
ATOM     37  C   UNL A   1      40.068  28.979  29.106  1.00  0.00     0.031 A 
ATOM     38  C   UNL A   1      41.019  29.987  29.689  1.00  0.00     0.074 A 
ATOM     39  C   UNL A   1      40.482  27.728  28.840  1.00  0.00     0.049 A 
ATOM     40  N   UNL A   1      42.305  29.891  29.894  1.00  0.00    -0.248 NA
ATOM     41  C   UNL A   1      40.438  31.281  30.086  1.00  0.00     0.031 C 
ATOM     42  C   UNL A   1      39.639  26.649  28.326  1.00  0.00     0.029 A 
ATOM     43  N   UNL A   1      41.727  27.161  28.948  1.00  0.00    -0.354 N 
ATOM     44  C   UNL A   1      42.692  31.114  30.429  1.00  0.00     0.074 A 
ATOM     45  C   UNL A   1      41.508  31.941  30.504  1.00  0.00     0.031 C 
ATOM     46  C   UNL A   1      40.399  25.555  28.140  1.00  0.00     0.029 A 
ATOM     47  C   UNL A   1      41.785  25.868  28.483  1.00  0.00     0.049 A 
ATOM     48  H   UNL A   1      42.505  27.635  29.322  1.00  0.00     0.167 HD
ATOM     49  C   UNL A   1      43.927  31.512  30.819  1.00  0.00     0.037 A 
ATOM     50  C   UNL A   1      42.843  25.048  28.321  1.00  0.00     0.037 A 
ATOM     51  C   UNL A   1      45.100  30.685  30.741  1.00  0.00     0.049 A 
ATOM     52  C   UNL A   1      44.218  25.532  28.701  1.00  0.00     0.074 A 
ATOM     53  C   UNL A   1      46.399  30.995  31.105  1.00  0.00     0.029 A 
ATOM     54  N   UNL A   1      45.118  29.384  30.262  1.00  0.00    -0.354 N 
ATOM     55  N   UNL A   1      44.575  26.693  29.197  1.00  0.00    -0.248 NA
ATOM     56  C   UNL A   1      45.336  24.600  28.495  1.00  0.00     0.031 C 
ATOM     57  C   UNL A   1      47.208  29.892  30.815  1.00  0.00     0.029 A 
ATOM     58  C   UNL A   1      46.406  28.881  30.309  1.00  0.00     0.049 A 
ATOM     59  H   UNL A   1      44.330  28.891  29.936  1.00  0.00     0.167 HD
ATOM     60  C   UNL A   1      45.950  26.619  29.395  1.00  0.00     0.074 A 
ATOM     61  C   UNL A   1      46.363  25.301  28.959  1.00  0.00     0.031 C 
ATOM     62  C   UNL A   1      46.792  27.554  29.896  1.00  0.00     0.037 A 
BRANCH  49  63
ATOM     63  C   UNL A   1      44.070  32.915  31.335  1.00  0.00     0.058 A 
ATOM     64  C   UNL A   1      43.759  33.248  32.663  1.00  0.00     0.135 A 
ATOM     65  C   UNL A   1      44.536  33.937  30.493  1.00  0.00     0.135 A 
ATOM     66  F   UNL A   1      43.289  32.312  33.502  1.00  0.00    -0.206 F 
ATOM     67  C   UNL A   1      43.880  34.552  33.131  1.00  0.00     0.059 A 
ATOM     68  C   UNL A   1      44.687  35.243  30.946  1.00  0.00     0.059 A 
ATOM     69  F   UNL A   1      44.842  33.671  29.213  1.00  0.00    -0.206 F 
ATOM     70  C   UNL A   1      44.340  35.545  32.263  1.00  0.00     0.060 A 
BRANCH  70  71
ATOM     71  S   UNL A   1      44.483  37.235  32.878  1.00  0.00     0.124 S 
ATOM     72  O   UNL A   1      45.604  37.112  33.806  1.00  0.00    -0.237 OA
ATOM     73  O   UNL A   1      44.750  37.992  31.661  1.00  0.00    -0.237 OA
ATOM     74  O   UNL A   1      43.183  37.483  33.494  1.00  0.00    -0.744 OA
ENDBRANCH  70  71
ENDBRANCH  49  63
BRANCH  50  75
ATOM     75  C   UNL A   1      42.645  23.689  27.755  1.00  0.00     0.058 A 
ATOM     76  C   UNL A   1      42.731  23.462  26.373  1.00  0.00     0.135 A 
ATOM     77  C   UNL A   1      42.375  22.588  28.583  1.00  0.00     0.135 A 
ATOM     78  F   UNL A   1      42.975  24.485  25.540  1.00  0.00    -0.206 F 
ATOM     79  C   UNL A   1      42.549  22.194  25.831  1.00  0.00     0.059 A 
ATOM     80  C   UNL A   1      42.210  21.308  28.067  1.00  0.00     0.059 A 
ATOM     81  F   UNL A   1      42.292  22.752  29.913  1.00  0.00    -0.206 F 
ATOM     82  C   UNL A   1      42.292  21.121  26.688  1.00  0.00     0.060 A 
BRANCH  82  83
ATOM     83  S   UNL A   1      42.113  19.469  25.980  1.00  0.00     0.124 S 
ATOM     84  O   UNL A   1      40.672  19.392  25.775  1.00  0.00    -0.237 OA
ATOM     85  O   UNL A   1      42.927  19.562  24.772  1.00  0.00    -0.237 OA
ATOM     86  O   UNL A   1      42.652  18.600  27.023  1.00  0.00    -0.744 OA
ENDBRANCH  82  83
ENDBRANCH  50  75
BRANCH  62  87
ATOM     87  C   UNL A   1      48.239  27.183  30.060  1.00  0.00     0.058 A 
ATOM     88  C   UNL A   1      49.184  27.437  29.057  1.00  0.00     0.135 A 
ATOM     89  C   UNL A   1      48.696  26.658  31.280  1.00  0.00     0.135 A 
ATOM     90  F   UNL A   1      48.796  27.933  27.872  1.00  0.00    -0.206 F 
ATOM     91  C   UNL A   1      50.538  27.186  29.259  1.00  0.00     0.059 A 
ATOM     92  C   UNL A   1      50.046  26.418  31.510  1.00  0.00     0.059 A 
ATOM     93  F   UNL A   1      47.829  26.405  32.274  1.00  0.00    -0.206 F 
ATOM     94  C   UNL A   1      50.960  26.683  30.492  1.00  0.00     0.060 A 
BRANCH  94  95
ATOM     95  S   UNL A   1      52.727  26.434  30.769  1.00  0.00     0.124 S 
ATOM     96  O   UNL A   1      53.215  26.246  29.407  1.00  0.00    -0.237 OA
ATOM     97  O   UNL A   1      53.122  27.680  31.417  1.00  0.00    -0.237 OA
ATOM     98  O   UNL A   1      52.772  25.250  31.623  1.00  0.00    -0.744 OA
ENDBRANCH  94  95
ENDBRANCH  62  87
ENDBRANCH  36  37
ENDBRANCH  29  31
ENDBRANCH  28  29
ENDBRANCH  27  28
ENDBRANCH  26  27
ENDBRANCH  25  26
ENDBRANCH   1  25
TORSDOF 21
ENDMDL
MODEL 2
REMARK VINA RESULT:     -10.1      2.591      3.407
REMARK SMILES Nc1ccccc1C(=O)NCc1ccc(C(=O)OCCOCCOC(=O)c2ccc(-c3c4nc(c(-c5c(F)cc(S(=O)(=O)[O-])cc5F)c5ccc([nH]5)c(-c5c(F)cc(S(=O)(=O)[O-])cc5F)c5nc(c(-c6c(F)cc(S(=O)(=O)[O-])cc6F)c6ccc3[nH]6)C=C5)C=C4)cc2)o1
REMARK SMILES IDX 20 1 19 2 18 3 16 4 17 5 15 6 12 7 13 8 93 9 14 10 11 11
REMARK SMILES IDX 10 12 8 13 9 14 7 16 2 17 3 18 4 19 6 20 5 21 1 22 21 25
REMARK SMILES IDX 22 26 23 27 24 28 25 29 26 30 27 31 28 32 92 33 29 34 91 35
REMARK SMILES IDX 30 36 31 37 32 38 85 39 33 40 90 41 84 42 86 43 34 44 89 45
REMARK SMILES IDX 83 46 82 47 35 49 69 50 48 51 68 52 49 53 52 54 67 55 87 56
REMARK SMILES IDX 50 57 51 58 66 60 88 61 53 62 36 63 37 64 46 65 38 66 39 67
REMARK SMILES IDX 45 68 47 69 40 70 41 71 42 72 43 73 44 74 70 75 71 76 80 77
REMARK SMILES IDX 72 78 73 79 79 80 81 81 74 82 75 83 76 84 77 85 78 86 54 87
REMARK SMILES IDX 55 88 64 89 56 90 57 91 63 92 65 93 58 94 59 95 60 96 61 97
REMARK SMILES IDX 62 98
REMARK H PARENT 10 15 1 23 1 24 86 48 52 59
REMARK Flexibility Score: inf
ROOT
ATOM      1  C   UNL A   1      32.427  30.570  25.954  1.00  0.00     0.202 C 
ENDROOT
BRANCH   1   2
ATOM      2  C   UNL A   1      31.647  29.299  25.608  1.00  0.00     0.261 C 
BRANCH   2   3
ATOM      3  O   UNL A   1      32.378  28.133  26.021  1.00  0.00    -0.457 OA
BRANCH   3   4
ATOM      4  C   UNL A   1      31.722  27.321  26.900  1.00  0.00     0.374 C 
ATOM      5  O   UNL A   1      31.355  27.654  28.018  1.00  0.00    -0.242 OA
BRANCH   4   6
ATOM      6  C   UNL A   1      31.385  26.073  26.255  1.00  0.00     0.211 A 
ATOM      7  C   UNL A   1      31.506  23.871  26.125  1.00  0.00     0.124 A 
ATOM      8  C   UNL A   1      30.539  24.255  25.220  1.00  0.00     0.048 A 
ATOM      9  O   UNL A   1      32.050  24.973  26.704  1.00  0.00    -0.452 OA
ATOM     10  C   UNL A   1      30.447  25.675  25.318  1.00  0.00     0.058 A 
BRANCH   7  11
ATOM     11  C   UNL A   1      31.982  22.601  26.713  1.00  0.00     0.191 C 
BRANCH  11  12
ATOM     12  N   UNL A   1      31.731  21.450  25.880  1.00  0.00    -0.345 N 
ATOM     13  C   UNL A   1      32.531  20.891  24.912  1.00  0.00     0.253 C 
ATOM     14  O   UNL A   1      32.169  19.841  24.381  1.00  0.00    -0.269 OA
ATOM     15  H   UNL A   1      30.866  21.005  26.025  1.00  0.00     0.164 HD
BRANCH  13  16
ATOM     16  C   UNL A   1      33.769  21.554  24.419  1.00  0.00     0.062 A 
ATOM     17  C   UNL A   1      35.086  21.131  24.687  1.00  0.00     0.044 A 
ATOM     18  C   UNL A   1      36.145  21.934  24.231  1.00  0.00     0.026 A 
ATOM     19  C   UNL A   1      35.916  23.069  23.447  1.00  0.00     0.002 A 
ATOM     20  C   UNL A   1      33.549  22.675  23.595  1.00  0.00     0.016 A 
ATOM     21  C   UNL A   1      34.617  23.424  23.106  1.00  0.00     0.001 A 
BRANCH  17  22
ATOM     22  N   UNL A   1      35.401  19.966  25.377  1.00  0.00    -0.398 N 
ATOM     23  H   UNL A   1      35.990  19.294  24.964  1.00  0.00     0.156 HD
ATOM     24  H   UNL A   1      35.036  19.814  26.278  1.00  0.00     0.156 HD
ENDBRANCH  17  22
ENDBRANCH  13  16
ENDBRANCH  11  12
ENDBRANCH   7  11
ENDBRANCH   4   6
ENDBRANCH   3   4
ENDBRANCH   2   3
ENDBRANCH   1   2
BRANCH   1  25
ATOM     25  O   UNL A   1      32.774  30.701  27.334  1.00  0.00    -0.374 OA
BRANCH  25  26
ATOM     26  C   UNL A   1      34.156  30.922  27.631  1.00  0.00     0.202 C 
BRANCH  26  27
ATOM     27  C   UNL A   1      34.441  32.086  28.590  1.00  0.00     0.261 C 
BRANCH  27  28
ATOM     28  O   UNL A   1      35.834  32.123  28.957  1.00  0.00    -0.460 OA
BRANCH  28  29
ATOM     29  C   UNL A   1      36.177  31.349  30.015  1.00  0.00     0.338 C 
ATOM     30  O   UNL A   1      35.516  31.137  31.017  1.00  0.00    -0.246 OA
BRANCH  29  31
ATOM     31  C   UNL A   1      37.418  30.615  29.700  1.00  0.00     0.060 A 
ATOM     32  C   UNL A   1      38.247  30.243  30.768  1.00  0.00     0.016 A 
ATOM     33  C   UNL A   1      37.789  30.332  28.384  1.00  0.00     0.016 A 
ATOM     34  C   UNL A   1      39.470  29.620  30.522  1.00  0.00     0.010 A 
ATOM     35  C   UNL A   1      39.022  29.722  28.137  1.00  0.00     0.010 A 
ATOM     36  C   UNL A   1      39.879  29.392  29.203  1.00  0.00    -0.014 A 
BRANCH  36  37
ATOM     37  C   UNL A   1      41.268  28.964  28.914  1.00  0.00     0.031 A 
ATOM     38  C   UNL A   1      42.355  30.002  28.925  1.00  0.00     0.074 A 
ATOM     39  C   UNL A   1      41.555  27.682  28.628  1.00  0.00     0.049 A 
ATOM     40  N   UNL A   1      43.607  29.896  28.567  1.00  0.00    -0.248 NA
ATOM     41  C   UNL A   1      41.973  31.344  29.398  1.00  0.00     0.031 C 
ATOM     42  C   UNL A   1      40.596  26.577  28.640  1.00  0.00     0.029 A 
ATOM     43  N   UNL A   1      42.737  27.098  28.249  1.00  0.00    -0.354 N 
ATOM     44  C   UNL A   1      44.159  31.157  28.754  1.00  0.00     0.074 A 
ATOM     45  C   UNL A   1      43.105  32.016  29.245  1.00  0.00     0.031 C 
ATOM     46  C   UNL A   1      41.226  25.452  28.260  1.00  0.00     0.029 A 
ATOM     47  C   UNL A   1      42.617  25.764  27.941  1.00  0.00     0.049 A 
ATOM     48  H   UNL A   1      43.590  27.588  28.202  1.00  0.00     0.167 HD
ATOM     49  C   UNL A   1      45.433  31.561  28.534  1.00  0.00     0.037 A 
ATOM     50  C   UNL A   1      43.521  24.905  27.427  1.00  0.00     0.037 A 
ATOM     51  C   UNL A   1      46.477  30.702  28.045  1.00  0.00     0.049 A 
ATOM     52  C   UNL A   1      44.915  25.390  27.127  1.00  0.00     0.074 A 
ATOM     53  C   UNL A   1      47.799  31.015  27.782  1.00  0.00     0.029 A 
ATOM     54  N   UNL A   1      46.315  29.358  27.742  1.00  0.00    -0.354 N 
ATOM     55  N   UNL A   1      45.425  26.587  27.299  1.00  0.00    -0.248 NA
ATOM     56  C   UNL A   1      45.857  24.414  26.559  1.00  0.00     0.031 C 
ATOM     57  C   UNL A   1      48.428  29.868  27.289  1.00  0.00     0.029 A 
ATOM     58  C   UNL A   1      47.509  28.830  27.284  1.00  0.00     0.049 A 
ATOM     59  H   UNL A   1      45.474  28.855  27.839  1.00  0.00     0.167 HD
ATOM     60  C   UNL A   1      46.753  26.498  26.894  1.00  0.00     0.074 A 
ATOM     61  C   UNL A   1      46.968  25.133  26.461  1.00  0.00     0.031 C 
ATOM     62  C   UNL A   1      47.709  27.459  26.885  1.00  0.00     0.037 A 
BRANCH  49  63
ATOM     63  C   UNL A   1      45.754  33.006  28.790  1.00  0.00     0.058 A 
ATOM     64  C   UNL A   1      46.233  33.446  30.033  1.00  0.00     0.135 A 
ATOM     65  C   UNL A   1      45.590  33.961  27.773  1.00  0.00     0.135 A 
ATOM     66  F   UNL A   1      46.387  32.576  31.044  1.00  0.00    -0.206 F 
ATOM     67  C   UNL A   1      46.515  34.787  30.269  1.00  0.00     0.059 A 
ATOM     68  C   UNL A   1      45.888  35.304  27.980  1.00  0.00     0.059 A 
ATOM     69  F   UNL A   1      45.129  33.592  26.568  1.00  0.00    -0.206 F 
ATOM     70  C   UNL A   1      46.334  35.710  29.237  1.00  0.00     0.060 A 
BRANCH  70  71
ATOM     71  S   UNL A   1      46.693  37.450  29.557  1.00  0.00     0.124 S 
ATOM     72  O   UNL A   1      45.526  38.099  28.966  1.00  0.00    -0.237 OA
ATOM     73  O   UNL A   1      46.770  37.492  31.013  1.00  0.00    -0.237 OA
ATOM     74  O   UNL A   1      47.955  37.670  28.859  1.00  0.00    -0.744 OA
ENDBRANCH  70  71
ENDBRANCH  49  63
BRANCH  50  75
ATOM     75  C   UNL A   1      43.128  23.500  27.144  1.00  0.00     0.058 A 
ATOM     76  C   UNL A   1      42.887  23.067  25.831  1.00  0.00     0.135 A 
ATOM     77  C   UNL A   1      42.995  22.560  28.178  1.00  0.00     0.135 A 
ATOM     78  F   UNL A   1      42.990  23.931  24.811  1.00  0.00    -0.206 F 
ATOM     79  C   UNL A   1      42.520  21.754  25.554  1.00  0.00     0.059 A 
ATOM     80  C   UNL A   1      42.650  21.237  27.924  1.00  0.00     0.059 A 
ATOM     81  F   UNL A   1      43.224  22.923  29.450  1.00  0.00    -0.206 F 
ATOM     82  C   UNL A   1      42.407  20.845  26.608  1.00  0.00     0.060 A 
BRANCH  82  83
ATOM     83  S   UNL A   1      41.986  19.129  26.234  1.00  0.00     0.124 S 
ATOM     84  O   UNL A   1      42.430  18.447  27.443  1.00  0.00    -0.237 OA
ATOM     85  O   UNL A   1      40.541  19.204  26.036  1.00  0.00    -0.237 OA
ATOM     86  O   UNL A   1      42.761  18.851  25.028  1.00  0.00    -0.744 OA
ENDBRANCH  82  83
ENDBRANCH  50  75
BRANCH  62  87
ATOM     87  C   UNL A   1      49.093  27.070  26.450  1.00  0.00     0.058 A 
ATOM     88  C   UNL A   1      50.040  26.575  27.356  1.00  0.00     0.135 A 
ATOM     89  C   UNL A   1      49.436  27.100  25.087  1.00  0.00     0.135 A 
ATOM     90  F   UNL A   1      49.761  26.532  28.668  1.00  0.00    -0.206 F 
ATOM     91  C   UNL A   1      51.283  26.118  26.927  1.00  0.00     0.059 A 
ATOM     92  C   UNL A   1      50.664  26.631  24.635  1.00  0.00     0.059 A 
ATOM     93  F   UNL A   1      48.559  27.558  24.180  1.00  0.00    -0.206 F 
ATOM     94  C   UNL A   1      51.582  26.144  25.563  1.00  0.00     0.060 A 
BRANCH  94  95
ATOM     95  S   UNL A   1      53.167  25.478  25.010  1.00  0.00     0.124 S 
ATOM     96  O   UNL A   1      54.106  26.226  25.838  1.00  0.00    -0.237 OA
ATOM     97  O   UNL A   1      53.038  24.058  25.324  1.00  0.00    -0.237 OA
ATOM     98  O   UNL A   1      53.191  25.798  23.586  1.00  0.00    -0.744 OA
ENDBRANCH  94  95
ENDBRANCH  62  87
ENDBRANCH  36  37
ENDBRANCH  29  31
ENDBRANCH  28  29
ENDBRANCH  27  28
ENDBRANCH  26  27
ENDBRANCH  25  26
ENDBRANCH   1  25
TORSDOF 21
ENDMDL
MODEL 3
REMARK VINA RESULT:      -9.9      4.792     10.355
REMARK SMILES Nc1ccccc1C(=O)NCc1ccc(C(=O)OCCOCCOC(=O)c2ccc(-c3c4nc(c(-c5c(F)cc(S(=O)(=O)[O-])cc5F)c5ccc([nH]5)c(-c5c(F)cc(S(=O)(=O)[O-])cc5F)c5nc(c(-c6c(F)cc(S(=O)(=O)[O-])cc6F)c6ccc3[nH]6)C=C5)C=C4)cc2)o1
REMARK SMILES IDX 20 1 19 2 18 3 16 4 17 5 15 6 12 7 13 8 93 9 14 10 11 11
REMARK SMILES IDX 10 12 8 13 9 14 7 16 2 17 3 18 4 19 6 20 5 21 1 22 21 25
REMARK SMILES IDX 22 26 23 27 24 28 25 29 26 30 27 31 28 32 92 33 29 34 91 35
REMARK SMILES IDX 30 36 31 37 32 38 85 39 33 40 90 41 84 42 86 43 34 44 89 45
REMARK SMILES IDX 83 46 82 47 35 49 69 50 48 51 68 52 49 53 52 54 67 55 87 56
REMARK SMILES IDX 50 57 51 58 66 60 88 61 53 62 36 63 37 64 46 65 38 66 39 67
REMARK SMILES IDX 45 68 47 69 40 70 41 71 42 72 43 73 44 74 70 75 71 76 80 77
REMARK SMILES IDX 72 78 73 79 79 80 81 81 74 82 75 83 76 84 77 85 78 86 54 87
REMARK SMILES IDX 55 88 64 89 56 90 57 91 63 92 65 93 58 94 59 95 60 96 61 97
REMARK SMILES IDX 62 98
REMARK H PARENT 10 15 1 23 1 24 86 48 52 59
REMARK Flexibility Score: inf
ROOT
ATOM      1  C   UNL A   1      36.382  21.871  24.885  1.00  0.00     0.202 C 
ENDROOT
BRANCH   1   2
ATOM      2  C   UNL A   1      35.238  21.149  25.602  1.00  0.00     0.261 C 
BRANCH   2   3
ATOM      3  O   UNL A   1      34.264  20.683  24.653  1.00  0.00    -0.457 OA
BRANCH   3   4
ATOM      4  C   UNL A   1      32.993  20.572  25.136  1.00  0.00     0.374 C 
ATOM      5  O   UNL A   1      32.479  19.529  25.516  1.00  0.00    -0.242 OA
BRANCH   4   6
ATOM      6  C   UNL A   1      32.409  21.885  25.283  1.00  0.00     0.211 A 
ATOM      7  C   UNL A   1      31.430  23.670  24.426  1.00  0.00     0.124 A 
ATOM      8  C   UNL A   1      31.346  23.808  25.795  1.00  0.00     0.048 A 
ATOM      9  O   UNL A   1      32.120  22.539  24.124  1.00  0.00    -0.452 OA
ATOM     10  C   UNL A   1      31.961  22.646  26.348  1.00  0.00     0.058 A 
BRANCH   7  11
ATOM     11  C   UNL A   1      30.851  24.340  23.241  1.00  0.00     0.191 C 
BRANCH  11  12
ATOM     12  N   UNL A   1      31.829  24.680  22.237  1.00  0.00    -0.345 N 
ATOM     13  C   UNL A   1      32.731  25.717  22.221  1.00  0.00     0.253 C 
ATOM     14  O   UNL A   1      33.554  25.771  21.307  1.00  0.00    -0.269 OA
ATOM     15  H   UNL A   1      31.853  24.086  21.453  1.00  0.00     0.164 HD
BRANCH  13  16
ATOM     16  C   UNL A   1      32.691  26.824  23.215  1.00  0.00     0.062 A 
ATOM     17  C   UNL A   1      31.863  27.962  23.139  1.00  0.00     0.044 A 
ATOM     18  C   UNL A   1      32.026  28.966  24.109  1.00  0.00     0.026 A 
ATOM     19  C   UNL A   1      32.910  28.808  25.181  1.00  0.00     0.002 A 
ATOM     20  C   UNL A   1      33.548  26.657  24.320  1.00  0.00     0.016 A 
ATOM     21  C   UNL A   1      33.651  27.641  25.301  1.00  0.00     0.001 A 
BRANCH  17  22
ATOM     22  N   UNL A   1      30.894  28.152  22.162  1.00  0.00    -0.398 N 
ATOM     23  H   UNL A   1      31.112  27.994  21.215  1.00  0.00     0.156 HD
ATOM     24  H   UNL A   1      29.988  28.444  22.416  1.00  0.00     0.156 HD
ENDBRANCH  17  22
ENDBRANCH  13  16
ENDBRANCH  11  12
ENDBRANCH   7  11
ENDBRANCH   4   6
ENDBRANCH   3   4
ENDBRANCH   2   3
ENDBRANCH   1   2
BRANCH   1  25
ATOM     25  O   UNL A   1      37.450  22.291  25.735  1.00  0.00    -0.374 OA
BRANCH  25  26
ATOM     26  C   UNL A   1      38.630  21.483  25.733  1.00  0.00     0.202 C 
BRANCH  26  27
ATOM     27  C   UNL A   1      39.801  22.032  26.560  1.00  0.00     0.261 C 
BRANCH  27  28
ATOM     28  O   UNL A   1      39.712  23.463  26.694  1.00  0.00    -0.460 OA
BRANCH  28  29
ATOM     29  C   UNL A   1      40.893  24.104  26.872  1.00  0.00     0.338 C 
ATOM     30  O   UNL A   1      41.957  23.850  26.335  1.00  0.00    -0.246 OA
BRANCH  29  31
ATOM     31  C   UNL A   1      40.672  25.316  27.686  1.00  0.00     0.060 A 
ATOM     32  C   UNL A   1      41.670  26.301  27.678  1.00  0.00     0.016 A 
ATOM     33  C   UNL A   1      39.530  25.471  28.476  1.00  0.00     0.016 A 
ATOM     34  C   UNL A   1      41.549  27.427  28.490  1.00  0.00     0.010 A 
ATOM     35  C   UNL A   1      39.418  26.593  29.302  1.00  0.00     0.010 A 
ATOM     36  C   UNL A   1      40.441  27.559  29.334  1.00  0.00    -0.014 A 
BRANCH  36  37
ATOM     37  C   UNL A   1      40.414  28.612  30.377  1.00  0.00     0.031 A 
ATOM     38  C   UNL A   1      41.351  28.486  31.546  1.00  0.00     0.074 A 
ATOM     39  C   UNL A   1      39.561  29.647  30.297  1.00  0.00     0.049 A 
ATOM     40  N   UNL A   1      41.411  29.197  32.640  1.00  0.00    -0.248 NA
ATOM     41  C   UNL A   1      42.350  27.407  31.470  1.00  0.00     0.031 C 
ATOM     42  C   UNL A   1      38.645  29.905  29.186  1.00  0.00     0.029 A 
ATOM     43  N   UNL A   1      39.313  30.666  31.182  1.00  0.00    -0.354 N 
ATOM     44  C   UNL A   1      42.441  28.643  33.392  1.00  0.00     0.074 A 
ATOM     45  C   UNL A   1      42.969  27.530  32.635  1.00  0.00     0.031 C 
ATOM     46  C   UNL A   1      37.916  30.999  29.470  1.00  0.00     0.029 A 
ATOM     47  C   UNL A   1      38.286  31.493  30.795  1.00  0.00     0.049 A 
ATOM     48  H   UNL A   1      39.822  30.792  32.016  1.00  0.00     0.167 HD
ATOM     49  C   UNL A   1      42.901  29.029  34.605  1.00  0.00     0.037 A 
ATOM     50  C   UNL A   1      37.691  32.509  31.452  1.00  0.00     0.037 A 
ATOM     51  C   UNL A   1      42.370  30.136  35.352  1.00  0.00     0.049 A 
ATOM     52  C   UNL A   1      38.175  32.881  32.830  1.00  0.00     0.074 A 
ATOM     53  C   UNL A   1      42.762  30.606  36.594  1.00  0.00     0.029 A 
ATOM     54  N   UNL A   1      41.328  30.948  34.928  1.00  0.00    -0.354 N 
ATOM     55  N   UNL A   1      39.143  32.346  33.535  1.00  0.00    -0.248 NA
ATOM     56  C   UNL A   1      37.486  33.991  33.505  1.00  0.00     0.031 C 
ATOM     57  C   UNL A   1      41.934  31.680  36.934  1.00  0.00     0.029 A 
ATOM     58  C   UNL A   1      41.055  31.906  35.886  1.00  0.00     0.049 A 
ATOM     59  H   UNL A   1      40.853  30.854  34.070  1.00  0.00     0.167 HD
ATOM     60  C   UNL A   1      39.201  33.074  34.720  1.00  0.00     0.074 A 
ATOM     61  C   UNL A   1      38.167  34.084  34.640  1.00  0.00     0.031 C 
ATOM     62  C   UNL A   1      40.038  32.923  35.775  1.00  0.00     0.037 A 
BRANCH  49  63
ATOM     63  C   UNL A   1      44.014  28.222  35.211  1.00  0.00     0.058 A 
ATOM     64  C   UNL A   1      43.758  27.102  36.017  1.00  0.00     0.135 A 
ATOM     65  C   UNL A   1      45.353  28.568  34.971  1.00  0.00     0.135 A 
ATOM     66  F   UNL A   1      42.495  26.743  36.294  1.00  0.00    -0.206 F 
ATOM     67  C   UNL A   1      44.792  26.367  36.587  1.00  0.00     0.059 A 
ATOM     68  C   UNL A   1      46.404  27.833  35.512  1.00  0.00     0.059 A 
ATOM     69  F   UNL A   1      45.651  29.634  34.211  1.00  0.00    -0.206 F 
ATOM     70  C   UNL A   1      46.113  26.744  36.332  1.00  0.00     0.060 A 
BRANCH  70  71
ATOM     71  S   UNL A   1      47.446  25.789  37.085  1.00  0.00     0.124 S 
ATOM     72  O   UNL A   1      47.198  24.460  36.534  1.00  0.00    -0.237 OA
ATOM     73  O   UNL A   1      48.638  26.467  36.589  1.00  0.00    -0.237 OA
ATOM     74  O   UNL A   1      47.198  25.931  38.517  1.00  0.00    -0.744 OA
ENDBRANCH  70  71
ENDBRANCH  49  63
BRANCH  50  75
ATOM     75  C   UNL A   1      36.558  33.235  30.823  1.00  0.00     0.058 A 
ATOM     76  C   UNL A   1      35.247  33.081  31.299  1.00  0.00     0.135 A 
ATOM     77  C   UNL A   1      36.763  34.103  29.740  1.00  0.00     0.135 A 
ATOM     78  F   UNL A   1      35.000  32.253  32.325  1.00  0.00    -0.206 F 
ATOM     79  C   UNL A   1      34.178  33.757  30.719  1.00  0.00     0.059 A 
ATOM     80  C   UNL A   1      35.714  34.805  29.156  1.00  0.00     0.059 A 
ATOM     81  F   UNL A   1      38.000  34.291  29.253  1.00  0.00    -0.206 F 
ATOM     82  C   UNL A   1      34.423  34.620  29.649  1.00  0.00     0.060 A 
BRANCH  82  83
ATOM     83  S   UNL A   1      33.037  35.535  28.939  1.00  0.00     0.124 S 
ATOM     84  O   UNL A   1      33.726  36.609  28.233  1.00  0.00    -0.237 OA
ATOM     85  O   UNL A   1      32.400  34.525  28.100  1.00  0.00    -0.237 OA
ATOM     86  O   UNL A   1      32.268  35.939  30.113  1.00  0.00    -0.744 OA
ENDBRANCH  82  83
ENDBRANCH  50  75
BRANCH  62  87
ATOM     87  C   UNL A   1      39.921  33.898  36.911  1.00  0.00     0.058 A 
ATOM     88  C   UNL A   1      39.161  33.613  38.053  1.00  0.00     0.135 A 
ATOM     89  C   UNL A   1      40.664  35.090  36.894  1.00  0.00     0.135 A 
ATOM     90  F   UNL A   1      38.429  32.489  38.115  1.00  0.00    -0.206 F 
ATOM     91  C   UNL A   1      39.142  34.476  39.145  1.00  0.00     0.059 A 
ATOM     92  C   UNL A   1      40.676  35.957  37.981  1.00  0.00     0.059 A 
ATOM     93  F   UNL A   1      41.414  35.403  35.825  1.00  0.00    -0.206 F 
ATOM     94  C   UNL A   1      39.910  35.642  39.102  1.00  0.00     0.060 A 
BRANCH  94  95
ATOM     95  S   UNL A   1      39.939  36.716  40.553  1.00  0.00     0.124 S 
ATOM     96  O   UNL A   1      38.612  37.320  40.500  1.00  0.00    -0.237 OA
ATOM     97  O   UNL A   1      40.161  35.768  41.641  1.00  0.00    -0.237 OA
ATOM     98  O   UNL A   1      41.053  37.621  40.283  1.00  0.00    -0.744 OA
ENDBRANCH  94  95
ENDBRANCH  62  87
ENDBRANCH  36  37
ENDBRANCH  29  31
ENDBRANCH  28  29
ENDBRANCH  27  28
ENDBRANCH  26  27
ENDBRANCH  25  26
ENDBRANCH   1  25
TORSDOF 21
ENDMDL
