MODEL 1
REMARK VINA RESULT:     -11.2      0.000      0.000
REMARK SMILES CCCc1cc(OC(F)(F)F)cc2c1O[C@@H](C(F)(F)F)C(C(=O)OCCOCCOC(=O)c1ccc(-c3c4nc(c(-c5c(F)cc(S(=O)(=O)[O-])cc5F)c5ccc([nH]5)c(-c5c(F)cc(S(=O)(=O)[O-])cc5F)c5nc(c(-c6c(F)cc(S(=O)(=O)[O-])cc6F)c6ccc3[nH]6)C=C5)C=C4)cc1)=C2
REMARK SMILES IDX 28 1 27 2 26 3 25 4 24 5 22 6 23 7 21 8 4 9 5 10 14 11 6 12
REMARK SMILES IDX 13 13 15 14 12 15 99 16 16 17 3 18 2 19 1 20 7 21 8 22 9 23
REMARK SMILES IDX 10 24 11 25 17 26 18 27 19 28 20 29 29 30 30 31 31 32 32 33
REMARK SMILES IDX 33 34 34 35 98 36 35 37 97 38 36 39 37 40 38 41 91 42 39 43
REMARK SMILES IDX 96 44 90 45 92 46 40 47 95 48 89 49 88 50 41 52 75 53 54 54
REMARK SMILES IDX 74 55 55 56 58 57 73 58 93 59 56 60 57 61 72 63 94 64 59 65
REMARK SMILES IDX 42 66 43 67 52 68 44 69 45 70 51 71 53 72 46 73 47 74 48 75
REMARK SMILES IDX 49 76 50 77 76 78 77 79 86 80 78 81 79 82 85 83 87 84 80 85
REMARK SMILES IDX 81 86 82 87 83 88 84 89 60 90 61 91 70 92 62 93 63 94 69 95
REMARK SMILES IDX 71 96 64 97 65 98 66 99 67 100 68 101
REMARK H PARENT 92 51 58 62
REMARK Flexibility Score: inf
ROOT
ATOM      1  C   UNL A   1      39.915  21.469  26.510  1.00  0.00     0.202 C 
ENDROOT
BRANCH   1   2
ATOM      2  O   UNL A   1      39.038  21.996  25.518  1.00  0.00    -0.374 OA
BRANCH   2   3
ATOM      3  C   UNL A   1      37.695  21.524  25.469  1.00  0.00     0.202 C 
BRANCH   3   4
ATOM      4  C   UNL A   1      36.568  22.506  25.806  1.00  0.00     0.261 C 
BRANCH   4   5
ATOM      5  O   UNL A   1      35.415  22.308  24.977  1.00  0.00    -0.460 OA
BRANCH   5   6
ATOM      6  C   UNL A   1      35.306  23.181  23.948  1.00  0.00     0.338 C 
ATOM      7  O   UNL A   1      35.888  23.120  22.878  1.00  0.00    -0.246 OA
BRANCH   6   8
ATOM      8  C   UNL A   1      34.272  24.192  24.226  1.00  0.00     0.087 C 
ATOM      9  C   UNL A   1      31.601  27.364  23.762  1.00  0.00    -0.002 A 
ATOM     10  C   UNL A   1      31.914  28.584  24.381  1.00  0.00     0.054 A 
ATOM     11  C   UNL A   1      32.459  26.277  23.992  1.00  0.00     0.131 A 
ATOM     12  C   UNL A   1      32.982  28.708  25.273  1.00  0.00     0.130 A 
ATOM     13  C   UNL A   1      33.586  26.406  24.823  1.00  0.00     0.021 A 
ATOM     14  O   UNL A   1      32.219  25.124  23.285  1.00  0.00    -0.475 OA
ATOM     15  C   UNL A   1      33.815  27.610  25.493  1.00  0.00     0.058 A 
ATOM     16  C   UNL A   1      34.603  25.353  24.814  1.00  0.00     0.027 C 
ATOM     17  C   UNL A   1      32.842  23.929  23.818  1.00  0.00     0.316 C 
BRANCH   9  18
ATOM     18  C   UNL A   1      30.450  27.276  22.779  1.00  0.00     0.039 C 
BRANCH  18  19
ATOM     19  C   UNL A   1      29.080  27.773  23.269  1.00  0.00     0.001 C 
ATOM     20  C   UNL A   1      28.178  26.701  23.867  1.00  0.00     0.004 C 
ENDBRANCH  18  19
ENDBRANCH   9  18
BRANCH  12  21
ATOM     21  O   UNL A   1      33.337  29.846  25.942  1.00  0.00    -0.406 OA
BRANCH  21  22
ATOM     22  C   UNL A   1      32.394  30.398  26.847  1.00  0.00     0.573 C 
ATOM     23  F   UNL A   1      31.779  29.430  27.560  1.00  0.00    -0.132 F 
ATOM     24  F   UNL A   1      32.982  31.272  27.694  1.00  0.00    -0.132 F 
ATOM     25  F   UNL A   1      31.451  31.067  26.147  1.00  0.00    -0.132 F 
ENDBRANCH  21  22
ENDBRANCH  12  21
BRANCH  17  26
ATOM     26  C   UNL A   1      32.536  22.758  22.869  1.00  0.00     0.430 C 
ATOM     27  F   UNL A   1      31.204  22.615  22.669  1.00  0.00    -0.167 F 
ATOM     28  F   UNL A   1      33.065  23.014  21.639  1.00  0.00    -0.167 F 
ATOM     29  F   UNL A   1      33.054  21.584  23.276  1.00  0.00    -0.167 F 
ENDBRANCH  17  26
ENDBRANCH   6   8
ENDBRANCH   5   6
ENDBRANCH   4   5
ENDBRANCH   3   4
ENDBRANCH   2   3
ENDBRANCH   1   2
BRANCH   1  30
ATOM     30  C   UNL A   1      41.279  22.136  26.736  1.00  0.00     0.261 C 
BRANCH  30  31
ATOM     31  O   UNL A   1      41.222  23.291  27.586  1.00  0.00    -0.460 OA
BRANCH  31  32
ATOM     32  C   UNL A   1      41.544  24.454  26.964  1.00  0.00     0.338 C 
ATOM     33  O   UNL A   1      41.944  24.590  25.820  1.00  0.00    -0.246 OA
BRANCH  32  34
ATOM     34  C   UNL A   1      41.159  25.600  27.807  1.00  0.00     0.060 A 
ATOM     35  C   UNL A   1      42.069  26.658  27.916  1.00  0.00     0.016 A 
ATOM     36  C   UNL A   1      39.974  25.597  28.544  1.00  0.00     0.016 A 
ATOM     37  C   UNL A   1      41.818  27.704  28.799  1.00  0.00     0.010 A 
ATOM     38  C   UNL A   1      39.728  26.645  29.438  1.00  0.00     0.010 A 
ATOM     39  C   UNL A   1      40.665  27.683  29.595  1.00  0.00    -0.014 A 
BRANCH  39  40
ATOM     40  C   UNL A   1      40.518  28.679  30.685  1.00  0.00     0.031 A 
ATOM     41  C   UNL A   1      41.411  28.581  31.891  1.00  0.00     0.074 A 
ATOM     42  C   UNL A   1      39.626  29.680  30.577  1.00  0.00     0.049 A 
ATOM     43  N   UNL A   1      41.443  29.333  32.961  1.00  0.00    -0.248 NA
ATOM     44  C   UNL A   1      42.398  27.490  31.893  1.00  0.00     0.031 C 
ATOM     45  C   UNL A   1      38.733  29.896  29.439  1.00  0.00     0.029 A 
ATOM     46  N   UNL A   1      39.324  30.702  31.440  1.00  0.00    -0.354 N 
ATOM     47  C   UNL A   1      42.445  28.803  33.767  1.00  0.00     0.074 A 
ATOM     48  C   UNL A   1      42.973  27.645  33.078  1.00  0.00     0.031 C 
ATOM     49  C   UNL A   1      37.978  30.981  29.678  1.00  0.00     0.029 A 
ATOM     50  C   UNL A   1      38.309  31.515  30.997  1.00  0.00     0.049 A 
ATOM     51  H   UNL A   1      39.790  30.840  32.297  1.00  0.00     0.167 HD
ATOM     52  C   UNL A   1      42.891  29.248  34.965  1.00  0.00     0.037 A 
ATOM     53  C   UNL A   1      37.703  32.560  31.598  1.00  0.00     0.037 A 
ATOM     54  C   UNL A   1      42.361  30.405  35.641  1.00  0.00     0.049 A 
ATOM     55  C   UNL A   1      38.174  32.999  32.960  1.00  0.00     0.074 A 
ATOM     56  C   UNL A   1      42.759  30.953  36.847  1.00  0.00     0.029 A 
ATOM     57  N   UNL A   1      41.312  31.185  35.176  1.00  0.00    -0.354 N 
ATOM     58  N   UNL A   1      39.142  32.507  33.698  1.00  0.00    -0.248 NA
ATOM     59  C   UNL A   1      37.474  34.137  33.570  1.00  0.00     0.031 C 
ATOM     60  C   UNL A   1      41.914  32.028  37.141  1.00  0.00     0.029 A 
ATOM     61  C   UNL A   1      41.029  32.190  36.087  1.00  0.00     0.049 A 
ATOM     62  H   UNL A   1      40.838  31.044  34.325  1.00  0.00     0.167 HD
ATOM     63  C   UNL A   1      39.184  33.292  34.845  1.00  0.00     0.074 A 
ATOM     64  C   UNL A   1      38.156  34.301  34.696  1.00  0.00     0.031 C 
ATOM     65  C   UNL A   1      40.000  33.190  35.924  1.00  0.00     0.037 A 
BRANCH  52  66
ATOM     66  C   UNL A   1      43.989  28.469  35.637  1.00  0.00     0.058 A 
ATOM     67  C   UNL A   1      45.346  28.737  35.394  1.00  0.00     0.135 A 
ATOM     68  C   UNL A   1      43.680  27.462  36.567  1.00  0.00     0.135 A 
ATOM     69  F   UNL A   1      45.702  29.676  34.503  1.00  0.00    -0.206 F 
ATOM     70  C   UNL A   1      46.355  28.018  36.028  1.00  0.00     0.059 A 
ATOM     71  C   UNL A   1      44.672  26.751  37.236  1.00  0.00     0.059 A 
ATOM     72  F   UNL A   1      42.399  27.162  36.836  1.00  0.00    -0.206 F 
ATOM     73  C   UNL A   1      46.008  27.027  36.949  1.00  0.00     0.060 A 
BRANCH  73  74
ATOM     74  S   UNL A   1      47.329  26.109  37.767  1.00  0.00     0.124 S 
ATOM     75  O   UNL A   1      48.442  26.319  36.847  1.00  0.00    -0.237 OA
ATOM     76  O   UNL A   1      47.432  26.792  39.052  1.00  0.00    -0.237 OA
ATOM     77  O   UNL A   1      46.812  24.745  37.824  1.00  0.00    -0.744 OA
ENDBRANCH  73  74
ENDBRANCH  52  66
BRANCH  53  78
ATOM     78  C   UNL A   1      36.577  33.256  30.918  1.00  0.00     0.058 A 
ATOM     79  C   UNL A   1      35.252  33.076  31.337  1.00  0.00     0.135 A 
ATOM     80  C   UNL A   1      36.807  34.116  29.832  1.00  0.00     0.135 A 
ATOM     81  F   UNL A   1      34.978  32.255  32.363  1.00  0.00    -0.206 F 
ATOM     82  C   UNL A   1      34.192  33.711  30.698  1.00  0.00     0.059 A 
ATOM     83  C   UNL A   1      35.767  34.785  29.195  1.00  0.00     0.059 A 
ATOM     84  F   UNL A   1      38.059  34.332  29.397  1.00  0.00    -0.206 F 
ATOM     85  C   UNL A   1      34.461  34.567  29.629  1.00  0.00     0.060 A 
BRANCH  85  86
ATOM     86  S   UNL A   1      33.083  35.426  28.839  1.00  0.00     0.124 S 
ATOM     87  O   UNL A   1      32.339  35.914  29.993  1.00  0.00    -0.237 OA
ATOM     88  O   UNL A   1      33.772  36.439  28.045  1.00  0.00    -0.237 OA
ATOM     89  O   UNL A   1      32.431  34.372  28.067  1.00  0.00    -0.744 OA
ENDBRANCH  85  86
ENDBRANCH  53  78
BRANCH  65  90
ATOM     90  C   UNL A   1      39.837  34.212  37.019  1.00  0.00     0.058 A 
ATOM     91  C   UNL A   1      40.465  35.466  36.961  1.00  0.00     0.135 A 
ATOM     92  C   UNL A   1      39.003  33.948  38.119  1.00  0.00     0.135 A 
ATOM     93  F   UNL A   1      41.276  35.769  35.936  1.00  0.00    -0.206 F 
ATOM     94  C   UNL A   1      40.298  36.410  37.971  1.00  0.00     0.059 A 
ATOM     95  C   UNL A   1      38.796  34.890  39.122  1.00  0.00     0.059 A 
ATOM     96  F   UNL A   1      38.366  32.770  38.218  1.00  0.00    -0.206 F 
ATOM     97  C   UNL A   1      39.460  36.112  39.046  1.00  0.00     0.060 A 
BRANCH  97  98
ATOM     98  S   UNL A   1      39.234  37.355  40.336  1.00  0.00     0.124 S 
ATOM     99  O   UNL A   1      40.578  37.914  40.443  1.00  0.00    -0.237 OA
ATOM    100  O   UNL A   1      38.227  38.234  39.749  1.00  0.00    -0.237 OA
ATOM    101  O   UNL A   1      38.785  36.576  41.485  1.00  0.00    -0.744 OA
ENDBRANCH  97  98
ENDBRANCH  65  90
ENDBRANCH  39  40
ENDBRANCH  32  34
ENDBRANCH  31  32
ENDBRANCH  30  31
ENDBRANCH   1  30
TORSDOF 22
ENDMDL
MODEL 2
REMARK VINA RESULT:     -10.8      4.984      6.535
REMARK SMILES CCCc1cc(OC(F)(F)F)cc2c1O[C@@H](C(F)(F)F)C(C(=O)OCCOCCOC(=O)c1ccc(-c3c4nc(c(-c5c(F)cc(S(=O)(=O)[O-])cc5F)c5ccc([nH]5)c(-c5c(F)cc(S(=O)(=O)[O-])cc5F)c5nc(c(-c6c(F)cc(S(=O)(=O)[O-])cc6F)c6ccc3[nH]6)C=C5)C=C4)cc1)=C2
REMARK SMILES IDX 28 1 27 2 26 3 25 4 24 5 22 6 23 7 21 8 4 9 5 10 14 11 6 12
REMARK SMILES IDX 13 13 15 14 12 15 99 16 16 17 3 18 2 19 1 20 7 21 8 22 9 23
REMARK SMILES IDX 10 24 11 25 17 26 18 27 19 28 20 29 29 30 30 31 31 32 32 33
REMARK SMILES IDX 33 34 34 35 98 36 35 37 97 38 36 39 37 40 38 41 91 42 39 43
REMARK SMILES IDX 96 44 90 45 92 46 40 47 95 48 89 49 88 50 41 52 75 53 54 54
REMARK SMILES IDX 74 55 55 56 58 57 73 58 93 59 56 60 57 61 72 63 94 64 59 65
REMARK SMILES IDX 42 66 43 67 52 68 44 69 45 70 51 71 53 72 46 73 47 74 48 75
REMARK SMILES IDX 49 76 50 77 76 78 77 79 86 80 78 81 79 82 85 83 87 84 80 85
REMARK SMILES IDX 81 86 82 87 83 88 84 89 60 90 61 91 70 92 62 93 63 94 69 95
REMARK SMILES IDX 71 96 64 97 65 98 66 99 67 100 68 101
REMARK H PARENT 92 51 58 62
REMARK Flexibility Score: inf
ROOT
ATOM      1  C   UNL A   1      35.941  20.880  25.352  1.00  0.00     0.202 C 
ENDROOT
BRANCH   1   2
ATOM      2  O   UNL A   1      34.942  20.977  24.340  1.00  0.00    -0.374 OA
BRANCH   2   3
ATOM      3  C   UNL A   1      33.578  21.098  24.732  1.00  0.00     0.202 C 
BRANCH   3   4
ATOM      4  C   UNL A   1      32.532  21.372  23.646  1.00  0.00     0.261 C 
BRANCH   4   5
ATOM      5  O   UNL A   1      32.203  22.765  23.555  1.00  0.00    -0.460 OA
BRANCH   5   6
ATOM      6  C   UNL A   1      33.025  23.486  22.756  1.00  0.00     0.338 C 
ATOM      7  O   UNL A   1      33.764  23.048  21.889  1.00  0.00    -0.246 OA
BRANCH   6   8
ATOM      8  C   UNL A   1      32.836  24.929  22.976  1.00  0.00     0.087 C 
ATOM      9  C   UNL A   1      31.567  28.561  24.591  1.00  0.00    -0.002 A 
ATOM     10  C   UNL A   1      30.595  29.290  23.889  1.00  0.00     0.054 A 
ATOM     11  C   UNL A   1      32.052  27.383  24.002  1.00  0.00     0.131 A 
ATOM     12  C   UNL A   1      30.183  28.926  22.604  1.00  0.00     0.130 A 
ATOM     13  C   UNL A   1      31.587  26.957  22.744  1.00  0.00     0.021 A 
ATOM     14  O   UNL A   1      32.907  26.610  24.748  1.00  0.00    -0.475 OA
ATOM     15  C   UNL A   1      30.687  27.756  22.034  1.00  0.00     0.058 A 
ATOM     16  C   UNL A   1      31.894  25.599  22.293  1.00  0.00     0.027 C 
ATOM     17  C   UNL A   1      33.686  25.646  23.998  1.00  0.00     0.316 C 
BRANCH   9  18
ATOM     18  C   UNL A   1      31.968  28.974  25.994  1.00  0.00     0.039 C 
BRANCH  18  19
ATOM     19  C   UNL A   1      32.607  30.363  26.152  1.00  0.00     0.001 C 
ATOM     20  C   UNL A   1      31.799  31.358  26.973  1.00  0.00     0.004 C 
ENDBRANCH  18  19
ENDBRANCH   9  18
BRANCH  12  21
ATOM     21  O   UNL A   1      29.270  29.594  21.838  1.00  0.00    -0.406 OA
BRANCH  21  22
ATOM     22  C   UNL A   1      28.013  29.895  22.425  1.00  0.00     0.573 C 
ATOM     23  F   UNL A   1      27.328  28.767  22.713  1.00  0.00    -0.132 F 
ATOM     24  F   UNL A   1      28.161  30.627  23.552  1.00  0.00    -0.132 F 
ATOM     25  F   UNL A   1      27.280  30.619  21.551  1.00  0.00    -0.132 F 
ENDBRANCH  21  22
ENDBRANCH  12  21
BRANCH  17  26
ATOM     26  C   UNL A   1      34.522  24.821  24.991  1.00  0.00     0.430 C 
ATOM     27  F   UNL A   1      35.462  24.082  24.355  1.00  0.00    -0.167 F 
ATOM     28  F   UNL A   1      35.211  25.656  25.818  1.00  0.00    -0.167 F 
ATOM     29  F   UNL A   1      33.783  24.017  25.780  1.00  0.00    -0.167 F 
ENDBRANCH  17  26
ENDBRANCH   6   8
ENDBRANCH   5   6
ENDBRANCH   4   5
ENDBRANCH   3   4
ENDBRANCH   2   3
ENDBRANCH   1   2
BRANCH   1  30
ATOM     30  C   UNL A   1      37.395  21.229  25.007  1.00  0.00     0.261 C 
BRANCH  30  31
ATOM     31  O   UNL A   1      37.894  22.378  25.707  1.00  0.00    -0.460 OA
BRANCH  31  32
ATOM     32  C   UNL A   1      39.077  22.171  26.341  1.00  0.00     0.338 C 
ATOM     33  O   UNL A   1      39.782  21.178  26.277  1.00  0.00    -0.246 OA
BRANCH  32  34
ATOM     34  C   UNL A   1      39.522  23.413  26.998  1.00  0.00     0.060 A 
ATOM     35  C   UNL A   1      38.892  24.606  26.620  1.00  0.00     0.016 A 
ATOM     36  C   UNL A   1      40.591  23.422  27.894  1.00  0.00     0.016 A 
ATOM     37  C   UNL A   1      39.358  25.823  27.108  1.00  0.00     0.010 A 
ATOM     38  C   UNL A   1      41.063  24.648  28.376  1.00  0.00     0.010 A 
ATOM     39  C   UNL A   1      40.471  25.854  27.957  1.00  0.00    -0.014 A 
BRANCH  39  40
ATOM     40  C   UNL A   1      41.093  27.159  28.290  1.00  0.00     0.031 A 
ATOM     41  C   UNL A   1      42.572  27.340  28.081  1.00  0.00     0.074 A 
ATOM     42  C   UNL A   1      40.338  28.181  28.734  1.00  0.00     0.049 A 
ATOM     43  N   UNL A   1      43.320  28.386  28.319  1.00  0.00    -0.248 NA
ATOM     44  C   UNL A   1      43.305  26.187  27.534  1.00  0.00     0.031 C 
ATOM     45  C   UNL A   1      38.892  28.133  28.940  1.00  0.00     0.029 A 
ATOM     46  N   UNL A   1      40.688  29.458  29.092  1.00  0.00    -0.354 N 
ATOM     47  C   UNL A   1      44.612  28.017  27.958  1.00  0.00     0.074 A 
ATOM     48  C   UNL A   1      44.551  26.639  27.520  1.00  0.00     0.031 C 
ATOM     49  C   UNL A   1      38.477  29.327  29.396  1.00  0.00     0.029 A 
ATOM     50  C   UNL A   1      39.632  30.211  29.545  1.00  0.00     0.049 A 
ATOM     51  H   UNL A   1      41.608  29.802  29.032  1.00  0.00     0.167 HD
ATOM     52  C   UNL A   1      45.741  28.763  27.981  1.00  0.00     0.037 A 
ATOM     53  C   UNL A   1      39.604  31.464  30.042  1.00  0.00     0.037 A 
ATOM     54  C   UNL A   1      45.791  30.136  28.416  1.00  0.00     0.049 A 
ATOM     55  C   UNL A   1      40.884  32.253  30.117  1.00  0.00     0.074 A 
ATOM     56  C   UNL A   1      46.881  30.987  28.455  1.00  0.00     0.029 A 
ATOM     57  N   UNL A   1      44.706  30.855  28.898  1.00  0.00    -0.354 N 
ATOM     58  N   UNL A   1      42.094  31.903  29.746  1.00  0.00    -0.248 NA
ATOM     59  C   UNL A   1      40.797  33.610  30.674  1.00  0.00     0.031 C 
ATOM     60  C   UNL A   1      46.469  32.201  29.015  1.00  0.00     0.029 A 
ATOM     61  C   UNL A   1      45.108  32.129  29.265  1.00  0.00     0.049 A 
ATOM     62  H   UNL A   1      43.787  30.511  28.968  1.00  0.00     0.167 HD
ATOM     63  C   UNL A   1      42.905  33.004  30.000  1.00  0.00     0.074 A 
ATOM     64  C   UNL A   1      42.046  34.037  30.540  1.00  0.00     0.031 C 
ATOM     65  C   UNL A   1      44.240  33.150  29.803  1.00  0.00     0.037 A 
BRANCH  52  66
ATOM     66  C   UNL A   1      47.024  28.105  27.548  1.00  0.00     0.058 A 
ATOM     67  C   UNL A   1      47.488  28.180  26.224  1.00  0.00     0.135 A 
ATOM     68  C   UNL A   1      47.821  27.420  28.480  1.00  0.00     0.135 A 
ATOM     69  F   UNL A   1      46.759  28.807  25.287  1.00  0.00    -0.206 F 
ATOM     70  C   UNL A   1      48.680  27.577  25.835  1.00  0.00     0.059 A 
ATOM     71  C   UNL A   1      49.032  26.835  28.120  1.00  0.00     0.059 A 
ATOM     72  F   UNL A   1      47.425  27.314  29.759  1.00  0.00    -0.206 F 
ATOM     73  C   UNL A   1      49.446  26.907  26.791  1.00  0.00     0.060 A 
BRANCH  73  74
ATOM     74  S   UNL A   1      50.994  26.137  26.272  1.00  0.00     0.124 S 
ATOM     75  O   UNL A   1      51.978  27.060  26.827  1.00  0.00    -0.237 OA
ATOM     76  O   UNL A   1      50.920  24.828  26.912  1.00  0.00    -0.237 OA
ATOM     77  O   UNL A   1      50.897  26.126  24.815  1.00  0.00    -0.744 OA
ENDBRANCH  73  74
ENDBRANCH  52  66
BRANCH  53  78
ATOM     78  C   UNL A   1      38.319  32.045  30.519  1.00  0.00     0.058 A 
ATOM     79  C   UNL A   1      37.466  32.736  29.648  1.00  0.00     0.135 A 
ATOM     80  C   UNL A   1      37.921  31.920  31.860  1.00  0.00     0.135 A 
ATOM     81  F   UNL A   1      37.806  32.892  28.359  1.00  0.00    -0.206 F 
ATOM     82  C   UNL A   1      36.271  33.295  30.089  1.00  0.00     0.059 A 
ATOM     83  C   UNL A   1      36.717  32.445  32.319  1.00  0.00     0.059 A 
ATOM     84  F   UNL A   1      38.697  31.258  32.734  1.00  0.00    -0.206 F 
ATOM     85  C   UNL A   1      35.904  33.140  31.426  1.00  0.00     0.060 A 
BRANCH  85  86
ATOM     86  S   UNL A   1      34.327  33.826  31.977  1.00  0.00     0.124 S 
ATOM     87  O   UNL A   1      34.765  34.900  32.860  1.00  0.00    -0.237 OA
ATOM     88  O   UNL A   1      33.719  34.241  30.716  1.00  0.00    -0.237 OA
ATOM     89  O   UNL A   1      33.679  32.694  32.632  1.00  0.00    -0.744 OA
ENDBRANCH  85  86
ENDBRANCH  53  78
BRANCH  65  90
ATOM     90  C   UNL A   1      44.851  34.483  30.144  1.00  0.00     0.058 A 
ATOM     91  C   UNL A   1      44.906  35.533  29.214  1.00  0.00     0.135 A 
ATOM     92  C   UNL A   1      45.351  34.726  31.435  1.00  0.00     0.135 A 
ATOM     93  F   UNL A   1      44.448  35.355  27.965  1.00  0.00    -0.206 F 
ATOM     94  C   UNL A   1      45.461  36.767  29.542  1.00  0.00     0.059 A 
ATOM     95  C   UNL A   1      45.880  35.962  31.793  1.00  0.00     0.059 A 
ATOM     96  F   UNL A   1      45.312  33.761  32.368  1.00  0.00    -0.206 F 
ATOM     97  C   UNL A   1      45.944  36.971  30.835  1.00  0.00     0.060 A 
BRANCH  97  98
ATOM     98  S   UNL A   1      46.641  38.584  31.253  1.00  0.00     0.124 S 
ATOM     99  O   UNL A   1      47.846  38.203  31.982  1.00  0.00    -0.237 OA
ATOM    100  O   UNL A   1      46.858  39.180  29.938  1.00  0.00    -0.237 OA
ATOM    101  O   UNL A   1      45.594  39.210  32.054  1.00  0.00    -0.744 OA
ENDBRANCH  97  98
ENDBRANCH  65  90
ENDBRANCH  39  40
ENDBRANCH  32  34
ENDBRANCH  31  32
ENDBRANCH  30  31
ENDBRANCH   1  30
TORSDOF 22
ENDMDL
MODEL 3
REMARK VINA RESULT:     -10.7      2.387      8.729
REMARK SMILES CCCc1cc(OC(F)(F)F)cc2c1O[C@@H](C(F)(F)F)C(C(=O)OCCOCCOC(=O)c1ccc(-c3c4nc(c(-c5c(F)cc(S(=O)(=O)[O-])cc5F)c5ccc([nH]5)c(-c5c(F)cc(S(=O)(=O)[O-])cc5F)c5nc(c(-c6c(F)cc(S(=O)(=O)[O-])cc6F)c6ccc3[nH]6)C=C5)C=C4)cc1)=C2
REMARK SMILES IDX 28 1 27 2 26 3 25 4 24 5 22 6 23 7 21 8 4 9 5 10 14 11 6 12
REMARK SMILES IDX 13 13 15 14 12 15 99 16 16 17 3 18 2 19 1 20 7 21 8 22 9 23
REMARK SMILES IDX 10 24 11 25 17 26 18 27 19 28 20 29 29 30 30 31 31 32 32 33
REMARK SMILES IDX 33 34 34 35 98 36 35 37 97 38 36 39 37 40 38 41 91 42 39 43
REMARK SMILES IDX 96 44 90 45 92 46 40 47 95 48 89 49 88 50 41 52 75 53 54 54
REMARK SMILES IDX 74 55 55 56 58 57 73 58 93 59 56 60 57 61 72 63 94 64 59 65
REMARK SMILES IDX 42 66 43 67 52 68 44 69 45 70 51 71 53 72 46 73 47 74 48 75
REMARK SMILES IDX 49 76 50 77 76 78 77 79 86 80 78 81 79 82 85 83 87 84 80 85
REMARK SMILES IDX 81 86 82 87 83 88 84 89 60 90 61 91 70 92 62 93 63 94 69 95
REMARK SMILES IDX 71 96 64 97 65 98 66 99 67 100 68 101
REMARK H PARENT 92 51 58 62
REMARK Flexibility Score: inf
ROOT
ATOM      1  C   UNL A   1      33.641  30.705  27.256  1.00  0.00     0.202 C 
ENDROOT
BRANCH   1   2
ATOM      2  O   UNL A   1      32.251  30.481  27.033  1.00  0.00    -0.374 OA
BRANCH   2   3
ATOM      3  C   UNL A   1      31.768  30.452  25.693  1.00  0.00     0.202 C 
BRANCH   3   4
ATOM      4  C   UNL A   1      31.259  29.119  25.134  1.00  0.00     0.261 C 
BRANCH   4   5
ATOM      5  O   UNL A   1      32.284  28.116  25.115  1.00  0.00    -0.460 OA
BRANCH   5   6
ATOM      6  C   UNL A   1      32.041  27.049  25.911  1.00  0.00     0.338 C 
ATOM      7  O   UNL A   1      31.360  27.037  26.923  1.00  0.00    -0.246 OA
BRANCH   6   8
ATOM      8  C   UNL A   1      32.616  25.823  25.334  1.00  0.00     0.087 C 
ATOM      9  C   UNL A   1      33.419  21.801  24.564  1.00  0.00    -0.002 A 
ATOM     10  C   UNL A   1      34.636  21.274  25.022  1.00  0.00     0.054 A 
ATOM     11  C   UNL A   1      33.192  23.173  24.751  1.00  0.00     0.131 A 
ATOM     12  C   UNL A   1      35.638  22.086  25.560  1.00  0.00     0.130 A 
ATOM     13  C   UNL A   1      34.157  23.992  25.366  1.00  0.00     0.021 A 
ATOM     14  O   UNL A   1      31.951  23.658  24.416  1.00  0.00    -0.475 OA
ATOM     15  C   UNL A   1      35.393  23.450  25.726  1.00  0.00     0.058 A 
ATOM     16  C   UNL A   1      33.779  25.338  25.797  1.00  0.00     0.027 C 
ATOM     17  C   UNL A   1      31.874  25.095  24.239  1.00  0.00     0.316 C 
BRANCH   9  18
ATOM     18  C   UNL A   1      32.347  20.884  24.011  1.00  0.00     0.039 C 
BRANCH  18  19
ATOM     19  C   UNL A   1      32.483  19.386  24.328  1.00  0.00     0.001 C 
ATOM     20  C   UNL A   1      32.470  18.463  23.117  1.00  0.00     0.004 C 
ENDBRANCH  18  19
ENDBRANCH   9  18
BRANCH  12  21
ATOM     21  O   UNL A   1      36.861  21.661  25.999  1.00  0.00    -0.406 OA
BRANCH  21  22
ATOM     22  C   UNL A   1      37.764  21.145  25.034  1.00  0.00     0.573 C 
ATOM     23  F   UNL A   1      39.044  21.404  25.376  1.00  0.00    -0.132 F 
ATOM     24  F   UNL A   1      37.605  19.811  24.879  1.00  0.00    -0.132 F 
ATOM     25  F   UNL A   1      37.520  21.734  23.843  1.00  0.00    -0.132 F 
ENDBRANCH  21  22
ENDBRANCH  12  21
BRANCH  17  26
ATOM     26  C   UNL A   1      30.411  25.469  23.948  1.00  0.00     0.430 C 
ATOM     27  F   UNL A   1      30.325  26.606  23.218  1.00  0.00    -0.167 F 
ATOM     28  F   UNL A   1      29.832  24.500  23.184  1.00  0.00    -0.167 F 
ATOM     29  F   UNL A   1      29.654  25.592  25.055  1.00  0.00    -0.167 F 
ENDBRANCH  17  26
ENDBRANCH   6   8
ENDBRANCH   5   6
ENDBRANCH   4   5
ENDBRANCH   3   4
ENDBRANCH   2   3
ENDBRANCH   1   2
BRANCH   1  30
ATOM     30  C   UNL A   1      34.102  32.058  27.814  1.00  0.00     0.261 C 
BRANCH  30  31
ATOM     31  O   UNL A   1      33.062  33.046  27.865  1.00  0.00    -0.460 OA
BRANCH  31  32
ATOM     32  C   UNL A   1      33.412  34.186  28.516  1.00  0.00     0.338 C 
ATOM     33  O   UNL A   1      32.853  35.268  28.456  1.00  0.00    -0.246 OA
BRANCH  32  34
ATOM     34  C   UNL A   1      34.480  33.902  29.491  1.00  0.00     0.060 A 
ATOM     35  C   UNL A   1      35.793  34.221  29.123  1.00  0.00     0.016 A 
ATOM     36  C   UNL A   1      34.213  33.255  30.698  1.00  0.00     0.016 A 
ATOM     37  C   UNL A   1      36.855  33.857  29.946  1.00  0.00     0.010 A 
ATOM     38  C   UNL A   1      35.283  32.881  31.519  1.00  0.00     0.010 A 
ATOM     39  C   UNL A   1      36.608  33.149  31.130  1.00  0.00    -0.014 A 
BRANCH  39  40
ATOM     40  C   UNL A   1      37.750  32.573  31.882  1.00  0.00     0.031 A 
ATOM     41  C   UNL A   1      38.489  31.398  31.303  1.00  0.00     0.074 A 
ATOM     42  C   UNL A   1      38.145  33.121  33.046  1.00  0.00     0.049 A 
ATOM     43  N   UNL A   1      39.502  30.732  31.796  1.00  0.00    -0.248 NA
ATOM     44  C   UNL A   1      38.025  30.906  29.997  1.00  0.00     0.031 C 
ATOM     45  C   UNL A   1      37.527  34.282  33.684  1.00  0.00     0.029 A 
ATOM     46  N   UNL A   1      39.160  32.768  33.898  1.00  0.00    -0.354 N 
ATOM     47  C   UNL A   1      39.791  29.739  30.866  1.00  0.00     0.074 A 
ATOM     48  C   UNL A   1      38.825  29.868  29.797  1.00  0.00     0.031 C 
ATOM     49  C   UNL A   1      38.174  34.543  34.833  1.00  0.00     0.029 A 
ATOM     50  C   UNL A   1      39.227  33.548  35.027  1.00  0.00     0.049 A 
ATOM     51  H   UNL A   1      39.781  32.026  33.718  1.00  0.00     0.167 HD
ATOM     52  C   UNL A   1      40.779  28.814  30.897  1.00  0.00     0.037 A 
ATOM     53  C   UNL A   1      40.034  33.457  36.103  1.00  0.00     0.037 A 
ATOM     54  C   UNL A   1      41.738  28.697  31.965  1.00  0.00     0.049 A 
ATOM     55  C   UNL A   1      41.085  32.379  36.145  1.00  0.00     0.074 A 
ATOM     56  C   UNL A   1      42.793  27.808  32.081  1.00  0.00     0.029 A 
ATOM     57  N   UNL A   1      41.755  29.484  33.108  1.00  0.00    -0.354 N 
ATOM     58  N   UNL A   1      41.367  31.464  35.245  1.00  0.00    -0.248 NA
ATOM     59  C   UNL A   1      41.931  32.321  37.344  1.00  0.00     0.031 C 
ATOM     60  C   UNL A   1      43.411  28.019  33.318  1.00  0.00     0.029 A 
ATOM     61  C   UNL A   1      42.782  29.082  33.947  1.00  0.00     0.049 A 
ATOM     62  H   UNL A   1      41.129  30.221  33.294  1.00  0.00     0.167 HD
ATOM     63  C   UNL A   1      42.439  30.742  35.759  1.00  0.00     0.074 A 
ATOM     64  C   UNL A   1      42.765  31.335  37.039  1.00  0.00     0.031 C 
ATOM     65  C   UNL A   1      43.096  29.684  35.221  1.00  0.00     0.037 A 
BRANCH  52  66
ATOM     66  C   UNL A   1      40.857  27.835  29.756  1.00  0.00     0.058 A 
ATOM     67  C   UNL A   1      39.894  26.830  29.573  1.00  0.00     0.135 A 
ATOM     68  C   UNL A   1      41.892  27.927  28.810  1.00  0.00     0.135 A 
ATOM     69  F   UNL A   1      38.892  26.683  30.455  1.00  0.00    -0.206 F 
ATOM     70  C   UNL A   1      39.968  25.936  28.509  1.00  0.00     0.059 A 
ATOM     71  C   UNL A   1      41.969  27.063  27.722  1.00  0.00     0.059 A 
ATOM     72  F   UNL A   1      42.841  28.867  28.938  1.00  0.00    -0.206 F 
ATOM     73  C   UNL A   1      41.010  26.061  27.588  1.00  0.00     0.060 A 
BRANCH  73  74
ATOM     74  S   UNL A   1      41.088  24.897  26.211  1.00  0.00     0.124 S 
ATOM     75  O   UNL A   1      39.733  24.353  26.213  1.00  0.00    -0.237 OA
ATOM     76  O   UNL A   1      41.419  25.766  25.087  1.00  0.00    -0.237 OA
ATOM     77  O   UNL A   1      42.138  23.965  26.610  1.00  0.00    -0.744 OA
ENDBRANCH  73  74
ENDBRANCH  52  66
BRANCH  53  78
ATOM     78  C   UNL A   1      39.871  34.409  37.236  1.00  0.00     0.058 A 
ATOM     79  C   UNL A   1      40.546  35.637  37.256  1.00  0.00     0.135 A 
ATOM     80  C   UNL A   1      39.035  34.105  38.322  1.00  0.00     0.135 A 
ATOM     81  F   UNL A   1      41.365  35.970  36.247  1.00  0.00    -0.206 F 
ATOM     82  C   UNL A   1      40.411  36.526  38.318  1.00  0.00     0.059 A 
ATOM     83  C   UNL A   1      38.861  34.989  39.382  1.00  0.00     0.059 A 
ATOM     84  F   UNL A   1      38.357  32.946  38.347  1.00  0.00    -0.206 F 
ATOM     85  C   UNL A   1      39.562  36.194  39.375  1.00  0.00     0.060 A 
BRANCH  85  86
ATOM     86  S   UNL A   1      39.355  37.376  40.724  1.00  0.00     0.124 S 
ATOM     87  O   UNL A   1      38.849  36.520  41.790  1.00  0.00    -0.237 OA
ATOM     88  O   UNL A   1      40.713  37.880  40.898  1.00  0.00    -0.237 OA
ATOM     89  O   UNL A   1      38.402  38.340  40.182  1.00  0.00    -0.744 OA
ENDBRANCH  85  86
ENDBRANCH  53  78
BRANCH  65  90
ATOM     90  C   UNL A   1      44.254  29.116  35.998  1.00  0.00     0.058 A 
ATOM     91  C   UNL A   1      45.547  29.651  35.898  1.00  0.00     0.135 A 
ATOM     92  C   UNL A   1      44.055  28.047  36.890  1.00  0.00     0.135 A 
ATOM     93  F   UNL A   1      45.795  30.669  35.059  1.00  0.00    -0.206 F 
ATOM     94  C   UNL A   1      46.609  29.128  36.631  1.00  0.00     0.059 A 
ATOM     95  C   UNL A   1      45.096  27.531  37.656  1.00  0.00     0.059 A 
ATOM     96  F   UNL A   1      42.835  27.505  37.035  1.00  0.00    -0.206 F 
ATOM     97  C   UNL A   1      46.372  28.069  37.508  1.00  0.00     0.060 A 
BRANCH  97  98
ATOM     98  S   UNL A   1      47.755  27.416  38.469  1.00  0.00     0.124 S 
ATOM     99  O   UNL A   1      47.686  25.994  38.152  1.00  0.00    -0.237 OA
ATOM    100  O   UNL A   1      48.893  28.137  37.906  1.00  0.00    -0.237 OA
ATOM    101  O   UNL A   1      47.413  27.771  39.843  1.00  0.00    -0.744 OA
ENDBRANCH  97  98
ENDBRANCH  65  90
ENDBRANCH  39  40
ENDBRANCH  32  34
ENDBRANCH  31  32
ENDBRANCH  30  31
ENDBRANCH   1  30
TORSDOF 22
ENDMDL
