MODEL 1
REMARK VINA RESULT:     -10.4      0.000      0.000
REMARK SMILES C[C@]([NH2+]Cc1nc(-c2ccsc2)no1)(C(=O)OCCOCCOC(=O)c1ccc(-c2c3nc(c(-c4c(F)cc(S(=O)(=O)[O-])cc4F)c4ccc([nH]4)c(-c4c(F)cc(S(=O)(=O)[O-])cc4F)c4nc(c(-c5c(F)cc(S(=O)(=O)[O-])cc5F)c5ccc2[nH]5)C=C4)C=C3)cc1)C(F)(F)F
REMARK SMILES IDX 19 1 18 2 17 3 15 4 16 5 2 6 1 7 92 8 93 9 94 10 95 11 3 12
REMARK SMILES IDX 4 15 5 16 6 17 14 18 7 19 13 20 8 21 9 22 12 23 10 24 11 25
REMARK SMILES IDX 20 26 21 27 22 28 23 29 24 30 25 31 26 32 27 33 91 34 28 35
REMARK SMILES IDX 90 36 29 37 30 38 31 39 84 40 32 41 89 42 83 43 85 44 33 45
REMARK SMILES IDX 88 46 82 47 81 48 34 50 68 51 47 52 67 53 48 54 51 55 66 56
REMARK SMILES IDX 86 57 49 58 50 59 65 61 87 62 52 63 35 64 36 65 45 66 37 67
REMARK SMILES IDX 38 68 44 69 46 70 39 71 40 72 41 73 42 74 43 75 69 76 70 77
REMARK SMILES IDX 79 78 71 79 72 80 78 81 80 82 73 83 74 84 75 85 76 86 77 87
REMARK SMILES IDX 53 88 54 89 63 90 55 91 56 92 62 93 64 94 57 95 58 96 59 97
REMARK SMILES IDX 60 98 61 99
REMARK H PARENT 3 13 3 14 85 49 51 60
REMARK Flexibility Score: inf
ROOT
ATOM      1  C   UNL A   1      37.101  23.229  25.106  1.00  0.00     0.202 C 
ENDROOT
BRANCH   1   2
ATOM      2  C   UNL A   1      35.916  24.187  24.952  1.00  0.00     0.261 C 
BRANCH   2   3
ATOM      3  O   UNL A   1      34.658  23.571  25.286  1.00  0.00    -0.458 OA
BRANCH   3   4
ATOM      4  C   UNL A   1      34.112  22.798  24.301  1.00  0.00     0.377 C 
ATOM      5  O   UNL A   1      34.215  23.058  23.107  1.00  0.00    -0.244 OA
BRANCH   4   6
ATOM      6  C   UNL A   1      33.283  21.621  24.841  1.00  0.00     0.287 C 
ATOM      7  C   UNL A   1      32.435  21.128  23.655  1.00  0.00     0.103 C 
BRANCH   6   8
ATOM      8  C   UNL A   1      34.357  20.562  25.209  1.00  0.00     0.455 C 
ATOM      9  F   UNL A   1      34.797  20.711  26.481  1.00  0.00    -0.164 F 
ATOM     10  F   UNL A   1      33.833  19.308  25.127  1.00  0.00    -0.164 F 
ATOM     11  F   UNL A   1      35.429  20.555  24.391  1.00  0.00    -0.164 F 
ENDBRANCH   6   8
BRANCH   6  12
ATOM     12  N   UNL A   1      32.368  22.051  25.985  1.00  0.00    -0.317 N 
ATOM     13  H   UNL A   1      32.827  22.798  26.505  1.00  0.00     0.347 HD
ATOM     14  H   UNL A   1      32.201  21.228  26.566  1.00  0.00     0.347 HD
BRANCH  12  15
ATOM     15  C   UNL A   1      31.055  22.538  25.524  1.00  0.00     0.363 C 
BRANCH  15  16
ATOM     16  C   UNL A   1      30.857  24.019  25.572  1.00  0.00     0.282 A 
ATOM     17  N   UNL A   1      30.864  24.874  24.573  1.00  0.00    -0.186 NA
ATOM     18  O   UNL A   1      30.490  24.577  26.762  1.00  0.00    -0.333 OA
ATOM     19  C   UNL A   1      30.493  26.042  25.191  1.00  0.00     0.203 A 
ATOM     20  N   UNL A   1      30.263  25.935  26.506  1.00  0.00    -0.057 NA
BRANCH  19  21
ATOM     21  C   UNL A   1      30.351  27.276  24.415  1.00  0.00     0.033 A 
ATOM     22  C   UNL A   1      31.028  28.488  24.760  1.00  0.00     0.024 A 
ATOM     23  C   UNL A   1      29.576  27.429  23.285  1.00  0.00     0.077 A 
ATOM     24  C   UNL A   1      30.740  29.512  23.884  1.00  0.00     0.065 A 
ATOM     25  S   UNL A   1      29.652  29.022  22.658  1.00  0.00    -0.152 S 
ENDBRANCH  19  21
ENDBRANCH  15  16
ENDBRANCH  12  15
ENDBRANCH   6  12
ENDBRANCH   4   6
ENDBRANCH   3   4
ENDBRANCH   2   3
ENDBRANCH   1   2
BRANCH   1  26
ATOM     26  O   UNL A   1      38.220  23.694  25.856  1.00  0.00    -0.374 OA
BRANCH  26  27
ATOM     27  C   UNL A   1      39.025  22.727  26.530  1.00  0.00     0.202 C 
BRANCH  27  28
ATOM     28  C   UNL A   1      39.197  21.351  25.873  1.00  0.00     0.261 C 
BRANCH  28  29
ATOM     29  O   UNL A   1      39.829  20.390  26.734  1.00  0.00    -0.460 OA
BRANCH  29  30
ATOM     30  C   UNL A   1      41.079  20.037  26.348  1.00  0.00     0.338 C 
ATOM     31  O   UNL A   1      41.402  19.012  25.761  1.00  0.00    -0.246 OA
BRANCH  30  32
ATOM     32  C   UNL A   1      42.030  21.143  26.560  1.00  0.00     0.060 A 
ATOM     33  C   UNL A   1      42.276  21.521  27.886  1.00  0.00     0.016 A 
ATOM     34  C   UNL A   1      42.582  21.870  25.502  1.00  0.00     0.016 A 
ATOM     35  C   UNL A   1      42.996  22.680  28.159  1.00  0.00     0.010 A 
ATOM     36  C   UNL A   1      43.304  23.039  25.778  1.00  0.00     0.010 A 
ATOM     37  C   UNL A   1      43.460  23.478  27.106  1.00  0.00    -0.014 A 
BRANCH  37  38
ATOM     38  C   UNL A   1      43.903  24.860  27.416  1.00  0.00     0.031 A 
ATOM     39  C   UNL A   1      45.348  25.222  27.181  1.00  0.00     0.074 A 
ATOM     40  C   UNL A   1      43.024  25.800  27.806  1.00  0.00     0.049 A 
ATOM     41  N   UNL A   1      45.942  26.381  27.297  1.00  0.00    -0.248 NA
ATOM     42  C   UNL A   1      46.239  24.131  26.754  1.00  0.00     0.031 C 
ATOM     43  C   UNL A   1      41.596  25.581  28.032  1.00  0.00     0.029 A 
ATOM     44  N   UNL A   1      43.206  27.136  28.065  1.00  0.00    -0.354 N 
ATOM     45  C   UNL A   1      47.275  26.158  26.961  1.00  0.00     0.074 A 
ATOM     46  C   UNL A   1      47.408  24.748  26.670  1.00  0.00     0.031 C 
ATOM     47  C   UNL A   1      41.029  26.746  28.392  1.00  0.00     0.029 A 
ATOM     48  C   UNL A   1      42.054  27.788  28.433  1.00  0.00     0.049 A 
ATOM     49  H   UNL A   1      44.079  27.584  27.993  1.00  0.00     0.167 HD
ATOM     50  C   UNL A   1      48.292  27.048  26.887  1.00  0.00     0.037 A 
ATOM     51  C   UNL A   1      41.852  29.079  28.762  1.00  0.00     0.037 A 
ATOM     52  C   UNL A   1      48.156  28.454  27.165  1.00  0.00     0.049 A 
ATOM     53  C   UNL A   1      43.005  30.047  28.702  1.00  0.00     0.074 A 
ATOM     54  C   UNL A   1      49.122  29.443  27.103  1.00  0.00     0.029 A 
ATOM     55  N   UNL A   1      46.977  29.070  27.559  1.00  0.00    -0.354 N 
ATOM     56  N   UNL A   1      44.252  29.826  28.357  1.00  0.00    -0.248 NA
ATOM     57  C   UNL A   1      42.720  31.442  29.063  1.00  0.00     0.031 C 
ATOM     58  C   UNL A   1      48.536  30.651  27.497  1.00  0.00     0.029 A 
ATOM     59  C   UNL A   1      47.194  30.423  27.760  1.00  0.00     0.049 A 
ATOM     60  H   UNL A   1      46.113  28.613  27.679  1.00  0.00     0.167 HD
ATOM     61  C   UNL A   1      44.890  31.060  28.425  1.00  0.00     0.074 A 
ATOM     62  C   UNL A   1      43.891  32.023  28.840  1.00  0.00     0.031 C 
ATOM     63  C   UNL A   1      46.185  31.370  28.161  1.00  0.00     0.037 A 
BRANCH  50  64
ATOM     64  C   UNL A   1      49.648  26.521  26.511  1.00  0.00     0.058 A 
ATOM     65  C   UNL A   1      50.099  26.519  25.181  1.00  0.00     0.135 A 
ATOM     66  C   UNL A   1      50.513  26.022  27.497  1.00  0.00     0.135 A 
ATOM     67  F   UNL A   1      49.302  26.966  24.196  1.00  0.00    -0.206 F 
ATOM     68  C   UNL A   1      51.350  26.017  24.838  1.00  0.00     0.059 A 
ATOM     69  C   UNL A   1      51.779  25.537  27.181  1.00  0.00     0.059 A 
ATOM     70  F   UNL A   1      50.130  25.997  28.783  1.00  0.00    -0.206 F 
ATOM     71  C   UNL A   1      52.182  25.524  25.846  1.00  0.00     0.060 A 
BRANCH  71  72
ATOM     72  S   UNL A   1      53.803  24.872  25.389  1.00  0.00     0.124 S 
ATOM     73  O   UNL A   1      53.467  23.508  24.993  1.00  0.00    -0.237 OA
ATOM     74  O   UNL A   1      54.208  25.764  24.307  1.00  0.00    -0.237 OA
ATOM     75  O   UNL A   1      54.577  24.995  26.621  1.00  0.00    -0.744 OA
ENDBRANCH  71  72
ENDBRANCH  50  64
BRANCH  51  76
ATOM     76  C   UNL A   1      40.495  29.540  29.162  1.00  0.00     0.058 A 
ATOM     77  C   UNL A   1      40.197  29.845  30.499  1.00  0.00     0.135 A 
ATOM     78  C   UNL A   1      39.471  29.680  28.215  1.00  0.00     0.135 A 
ATOM     79  F   UNL A   1      41.142  29.716  31.443  1.00  0.00    -0.206 F 
ATOM     80  C   UNL A   1      38.927  30.259  30.885  1.00  0.00     0.059 A 
ATOM     81  C   UNL A   1      38.199  30.114  28.573  1.00  0.00     0.059 A 
ATOM     82  F   UNL A   1      39.709  29.411  26.921  1.00  0.00    -0.206 F 
ATOM     83  C   UNL A   1      37.934  30.392  29.913  1.00  0.00     0.060 A 
BRANCH  83  84
ATOM     84  S   UNL A   1      36.300  30.980  30.413  1.00  0.00     0.124 S 
ATOM     85  O   UNL A   1      35.910  29.969  31.389  1.00  0.00    -0.237 OA
ATOM     86  O   UNL A   1      36.600  32.303  30.949  1.00  0.00    -0.237 OA
ATOM     87  O   UNL A   1      35.548  30.975  29.162  1.00  0.00    -0.744 OA
ENDBRANCH  83  84
ENDBRANCH  51  76
BRANCH  63  88
ATOM     88  C   UNL A   1      46.584  32.815  28.267  1.00  0.00     0.058 A 
ATOM     89  C   UNL A   1      46.443  33.703  27.190  1.00  0.00     0.135 A 
ATOM     90  C   UNL A   1      47.085  33.325  29.477  1.00  0.00     0.135 A 
ATOM     91  F   UNL A   1      45.971  33.267  26.011  1.00  0.00    -0.206 F 
ATOM     92  C   UNL A   1      46.815  35.040  27.298  1.00  0.00     0.059 A 
ATOM     93  C   UNL A   1      47.439  34.663  29.614  1.00  0.00     0.059 A 
ATOM     94  F   UNL A   1      47.226  32.521  30.542  1.00  0.00    -0.206 F 
ATOM     95  C   UNL A   1      47.317  35.509  28.513  1.00  0.00     0.060 A 
BRANCH  95  96
ATOM     96  S   UNL A   1      47.789  37.247  28.648  1.00  0.00     0.124 S 
ATOM     97  O   UNL A   1      48.115  37.352  30.067  1.00  0.00    -0.237 OA
ATOM     98  O   UNL A   1      48.921  37.338  27.730  1.00  0.00    -0.237 OA
ATOM     99  O   UNL A   1      46.588  37.958  28.224  1.00  0.00    -0.744 OA
ENDBRANCH  95  96
ENDBRANCH  63  88
ENDBRANCH  37  38
ENDBRANCH  30  32
ENDBRANCH  29  30
ENDBRANCH  28  29
ENDBRANCH  27  28
ENDBRANCH  26  27
ENDBRANCH   1  26
TORSDOF 22
ENDMDL
MODEL 2
REMARK VINA RESULT:     -10.3      2.124      3.620
REMARK SMILES C[C@]([NH2+]Cc1nc(-c2ccsc2)no1)(C(=O)OCCOCCOC(=O)c1ccc(-c2c3nc(c(-c4c(F)cc(S(=O)(=O)[O-])cc4F)c4ccc([nH]4)c(-c4c(F)cc(S(=O)(=O)[O-])cc4F)c4nc(c(-c5c(F)cc(S(=O)(=O)[O-])cc5F)c5ccc2[nH]5)C=C4)C=C3)cc1)C(F)(F)F
REMARK SMILES IDX 19 1 18 2 17 3 15 4 16 5 2 6 1 7 92 8 93 9 94 10 95 11 3 12
REMARK SMILES IDX 4 15 5 16 6 17 14 18 7 19 13 20 8 21 9 22 12 23 10 24 11 25
REMARK SMILES IDX 20 26 21 27 22 28 23 29 24 30 25 31 26 32 27 33 91 34 28 35
REMARK SMILES IDX 90 36 29 37 30 38 31 39 84 40 32 41 89 42 83 43 85 44 33 45
REMARK SMILES IDX 88 46 82 47 81 48 34 50 68 51 47 52 67 53 48 54 51 55 66 56
REMARK SMILES IDX 86 57 49 58 50 59 65 61 87 62 52 63 35 64 36 65 45 66 37 67
REMARK SMILES IDX 38 68 44 69 46 70 39 71 40 72 41 73 42 74 43 75 69 76 70 77
REMARK SMILES IDX 79 78 71 79 72 80 78 81 80 82 73 83 74 84 75 85 76 86 77 87
REMARK SMILES IDX 53 88 54 89 63 90 55 91 56 92 62 93 64 94 57 95 58 96 59 97
REMARK SMILES IDX 60 98 61 99
REMARK H PARENT 3 13 3 14 85 49 51 60
REMARK Flexibility Score: inf
ROOT
ATOM      1  C   UNL A   1      36.772  23.049  25.752  1.00  0.00     0.202 C 
ENDROOT
BRANCH   1   2
ATOM      2  C   UNL A   1      36.145  23.131  24.358  1.00  0.00     0.261 C 
BRANCH   2   3
ATOM      3  O   UNL A   1      35.143  24.161  24.260  1.00  0.00    -0.458 OA
BRANCH   3   4
ATOM      4  C   UNL A   1      34.160  23.927  23.341  1.00  0.00     0.377 C 
ATOM      5  O   UNL A   1      34.343  23.296  22.306  1.00  0.00    -0.244 OA
BRANCH   4   6
ATOM      6  C   UNL A   1      32.825  24.607  23.691  1.00  0.00     0.287 C 
ATOM      7  C   UNL A   1      33.029  25.236  25.081  1.00  0.00     0.103 C 
BRANCH   6   8
ATOM      8  C   UNL A   1      32.694  25.717  22.614  1.00  0.00     0.455 C 
ATOM      9  F   UNL A   1      33.900  26.221  22.260  1.00  0.00    -0.164 F 
ATOM     10  F   UNL A   1      32.141  25.210  21.477  1.00  0.00    -0.164 F 
ATOM     11  F   UNL A   1      31.896  26.744  22.971  1.00  0.00    -0.164 F 
ENDBRANCH   6   8
BRANCH   6  12
ATOM     12  N   UNL A   1      31.676  23.604  23.743  1.00  0.00    -0.317 N 
ATOM     13  H   UNL A   1      31.881  22.841  23.099  1.00  0.00     0.347 HD
ATOM     14  H   UNL A   1      30.825  24.105  23.483  1.00  0.00     0.347 HD
BRANCH  12  15
ATOM     15  C   UNL A   1      31.461  23.039  25.088  1.00  0.00     0.363 C 
BRANCH  15  16
ATOM     16  C   UNL A   1      32.172  21.756  25.375  1.00  0.00     0.282 A 
ATOM     17  N   UNL A   1      31.959  20.571  24.844  1.00  0.00    -0.186 NA
ATOM     18  O   UNL A   1      33.271  21.800  26.182  1.00  0.00    -0.333 OA
ATOM     19  C   UNL A   1      32.986  19.830  25.374  1.00  0.00     0.203 A 
ATOM     20  N   UNL A   1      33.804  20.504  26.193  1.00  0.00    -0.057 NA
BRANCH  19  21
ATOM     21  C   UNL A   1      33.141  18.418  25.015  1.00  0.00     0.033 A 
ATOM     22  C   UNL A   1      33.796  17.994  23.817  1.00  0.00     0.024 A 
ATOM     23  C   UNL A   1      32.696  17.348  25.760  1.00  0.00     0.077 A 
ATOM     24  C   UNL A   1      33.820  16.621  23.696  1.00  0.00     0.065 A 
ATOM     25  S   UNL A   1      33.051  15.847  25.013  1.00  0.00    -0.152 S 
ENDBRANCH  19  21
ENDBRANCH  15  16
ENDBRANCH  12  15
ENDBRANCH   6  12
ENDBRANCH   4   6
ENDBRANCH   3   4
ENDBRANCH   2   3
ENDBRANCH   1   2
BRANCH   1  26
ATOM     26  O   UNL A   1      38.119  23.496  25.887  1.00  0.00    -0.374 OA
BRANCH  26  27
ATOM     27  C   UNL A   1      39.064  22.607  26.482  1.00  0.00     0.202 C 
BRANCH  27  28
ATOM     28  C   UNL A   1      39.197  21.198  25.890  1.00  0.00     0.261 C 
BRANCH  28  29
ATOM     29  O   UNL A   1      39.905  20.290  26.751  1.00  0.00    -0.460 OA
BRANCH  29  30
ATOM     30  C   UNL A   1      41.143  19.958  26.309  1.00  0.00     0.338 C 
ATOM     31  O   UNL A   1      41.451  18.955  25.678  1.00  0.00    -0.246 OA
BRANCH  30  32
ATOM     32  C   UNL A   1      42.094  21.064  26.524  1.00  0.00     0.060 A 
ATOM     33  C   UNL A   1      42.345  21.435  27.851  1.00  0.00     0.016 A 
ATOM     34  C   UNL A   1      42.641  21.797  25.467  1.00  0.00     0.016 A 
ATOM     35  C   UNL A   1      43.066  22.592  28.127  1.00  0.00     0.010 A 
ATOM     36  C   UNL A   1      43.364  22.965  25.747  1.00  0.00     0.010 A 
ATOM     37  C   UNL A   1      43.525  23.396  27.076  1.00  0.00    -0.014 A 
BRANCH  37  38
ATOM     38  C   UNL A   1      43.968  24.777  27.392  1.00  0.00     0.031 A 
ATOM     39  C   UNL A   1      45.420  25.131  27.187  1.00  0.00     0.074 A 
ATOM     40  C   UNL A   1      43.087  25.723  27.760  1.00  0.00     0.049 A 
ATOM     41  N   UNL A   1      46.018  26.287  27.312  1.00  0.00    -0.248 NA
ATOM     42  C   UNL A   1      46.314  24.033  26.782  1.00  0.00     0.031 C 
ATOM     43  C   UNL A   1      41.653  25.512  27.957  1.00  0.00     0.029 A 
ATOM     44  N   UNL A   1      43.269  27.059  28.019  1.00  0.00    -0.354 N 
ATOM     45  C   UNL A   1      47.356  26.056  27.005  1.00  0.00     0.074 A 
ATOM     46  C   UNL A   1      47.488  24.645  26.721  1.00  0.00     0.031 C 
ATOM     47  C   UNL A   1      41.085  26.680  28.301  1.00  0.00     0.029 A 
ATOM     48  C   UNL A   1      42.113  27.718  28.361  1.00  0.00     0.049 A 
ATOM     49  H   UNL A   1      44.147  27.502  27.965  1.00  0.00     0.167 HD
ATOM     50  C   UNL A   1      48.379  26.941  26.950  1.00  0.00     0.037 A 
ATOM     51  C   UNL A   1      41.911  29.011  28.682  1.00  0.00     0.037 A 
ATOM     52  C   UNL A   1      48.245  28.348  27.222  1.00  0.00     0.049 A 
ATOM     53  C   UNL A   1      43.071  29.972  28.644  1.00  0.00     0.074 A 
ATOM     54  C   UNL A   1      49.217  29.332  27.178  1.00  0.00     0.029 A 
ATOM     55  N   UNL A   1      47.061  28.971  27.589  1.00  0.00    -0.354 N 
ATOM     56  N   UNL A   1      44.323  29.744  28.326  1.00  0.00    -0.248 NA
ATOM     57  C   UNL A   1      42.786  31.370  28.995  1.00  0.00     0.031 C 
ATOM     58  C   UNL A   1      48.629  30.544  27.556  1.00  0.00     0.029 A 
ATOM     59  C   UNL A   1      47.281  30.323  27.791  1.00  0.00     0.049 A 
ATOM     60  H   UNL A   1      46.193  28.519  27.692  1.00  0.00     0.167 HD
ATOM     61  C   UNL A   1      44.966  30.974  28.404  1.00  0.00     0.074 A 
ATOM     62  C   UNL A   1      43.964  31.944  28.796  1.00  0.00     0.031 C 
ATOM     63  C   UNL A   1      46.268  31.277  28.168  1.00  0.00     0.037 A 
BRANCH  50  64
ATOM     64  C   UNL A   1      49.741  26.405  26.605  1.00  0.00     0.058 A 
ATOM     65  C   UNL A   1      50.622  25.934  27.590  1.00  0.00     0.135 A 
ATOM     66  C   UNL A   1      50.163  26.351  25.268  1.00  0.00     0.135 A 
ATOM     67  F   UNL A   1      50.276  25.983  28.887  1.00  0.00    -0.206 F 
ATOM     68  C   UNL A   1      51.886  25.453  27.265  1.00  0.00     0.059 A 
ATOM     69  C   UNL A   1      51.413  25.851  24.916  1.00  0.00     0.059 A 
ATOM     70  F   UNL A   1      49.360  26.793  24.286  1.00  0.00    -0.206 F 
ATOM     71  C   UNL A   1      52.274  25.419  25.924  1.00  0.00     0.060 A 
BRANCH  71  72
ATOM     72  S   UNL A   1      53.918  24.795  25.513  1.00  0.00     0.124 S 
ATOM     73  O   UNL A   1      54.312  25.698  24.438  1.00  0.00    -0.237 OA
ATOM     74  O   UNL A   1      54.639  24.955  26.772  1.00  0.00    -0.237 OA
ATOM     75  O   UNL A   1      53.665  23.413  25.112  1.00  0.00    -0.744 OA
ENDBRANCH  71  72
ENDBRANCH  50  64
BRANCH  51  76
ATOM     76  C   UNL A   1      40.549  29.479  29.052  1.00  0.00     0.058 A 
ATOM     77  C   UNL A   1      39.552  29.654  28.080  1.00  0.00     0.135 A 
ATOM     78  C   UNL A   1      40.220  29.764  30.385  1.00  0.00     0.135 A 
ATOM     79  F   UNL A   1      39.823  29.403  26.790  1.00  0.00    -0.206 F 
ATOM     80  C   UNL A   1      38.281  30.108  28.415  1.00  0.00     0.059 A 
ATOM     81  C   UNL A   1      38.949  30.198  30.748  1.00  0.00     0.059 A 
ATOM     82  F   UNL A   1      41.135  29.602  31.354  1.00  0.00    -0.206 F 
ATOM     83  C   UNL A   1      37.988  30.376  29.753  1.00  0.00     0.060 A 
BRANCH  83  84
ATOM     84  S   UNL A   1      36.320  30.918  30.187  1.00  0.00     0.124 S 
ATOM     85  O   UNL A   1      35.511  30.169  29.234  1.00  0.00    -0.237 OA
ATOM     86  O   UNL A   1      36.215  30.501  31.582  1.00  0.00    -0.237 OA
ATOM     87  O   UNL A   1      36.374  32.362  29.976  1.00  0.00    -0.744 OA
ENDBRANCH  83  84
ENDBRANCH  51  76
BRANCH  63  88
ATOM     88  C   UNL A   1      46.673  32.721  28.278  1.00  0.00     0.058 A 
ATOM     89  C   UNL A   1      46.538  33.612  27.203  1.00  0.00     0.135 A 
ATOM     90  C   UNL A   1      47.172  33.225  29.490  1.00  0.00     0.135 A 
ATOM     91  F   UNL A   1      46.067  33.180  26.022  1.00  0.00    -0.206 F 
ATOM     92  C   UNL A   1      46.914  34.947  27.315  1.00  0.00     0.059 A 
ATOM     93  C   UNL A   1      47.531  34.561  29.632  1.00  0.00     0.059 A 
ATOM     94  F   UNL A   1      47.307  32.418  30.554  1.00  0.00    -0.206 F 
ATOM     95  C   UNL A   1      47.415  35.411  28.532  1.00  0.00     0.060 A 
BRANCH  95  96
ATOM     96  S   UNL A   1      47.894  37.146  28.673  1.00  0.00     0.124 S 
ATOM     97  O   UNL A   1      48.000  37.535  27.270  1.00  0.00    -0.237 OA
ATOM     98  O   UNL A   1      46.771  37.725  29.406  1.00  0.00    -0.237 OA
ATOM     99  O   UNL A   1      49.153  37.092  29.408  1.00  0.00    -0.744 OA
ENDBRANCH  95  96
ENDBRANCH  63  88
ENDBRANCH  37  38
ENDBRANCH  30  32
ENDBRANCH  29  30
ENDBRANCH  28  29
ENDBRANCH  27  28
ENDBRANCH  26  27
ENDBRANCH   1  26
TORSDOF 22
ENDMDL
MODEL 3
REMARK VINA RESULT:     -10.2      3.636      8.986
REMARK SMILES C[C@]([NH2+]Cc1nc(-c2ccsc2)no1)(C(=O)OCCOCCOC(=O)c1ccc(-c2c3nc(c(-c4c(F)cc(S(=O)(=O)[O-])cc4F)c4ccc([nH]4)c(-c4c(F)cc(S(=O)(=O)[O-])cc4F)c4nc(c(-c5c(F)cc(S(=O)(=O)[O-])cc5F)c5ccc2[nH]5)C=C4)C=C3)cc1)C(F)(F)F
REMARK SMILES IDX 19 1 18 2 17 3 15 4 16 5 2 6 1 7 92 8 93 9 94 10 95 11 3 12
REMARK SMILES IDX 4 15 5 16 6 17 14 18 7 19 13 20 8 21 9 22 12 23 10 24 11 25
REMARK SMILES IDX 20 26 21 27 22 28 23 29 24 30 25 31 26 32 27 33 91 34 28 35
REMARK SMILES IDX 90 36 29 37 30 38 31 39 84 40 32 41 89 42 83 43 85 44 33 45
REMARK SMILES IDX 88 46 82 47 81 48 34 50 68 51 47 52 67 53 48 54 51 55 66 56
REMARK SMILES IDX 86 57 49 58 50 59 65 61 87 62 52 63 35 64 36 65 45 66 37 67
REMARK SMILES IDX 38 68 44 69 46 70 39 71 40 72 41 73 42 74 43 75 69 76 70 77
REMARK SMILES IDX 79 78 71 79 72 80 78 81 80 82 73 83 74 84 75 85 76 86 77 87
REMARK SMILES IDX 53 88 54 89 63 90 55 91 56 92 62 93 64 94 57 95 58 96 59 97
REMARK SMILES IDX 60 98 61 99
REMARK H PARENT 3 13 3 14 85 49 51 60
REMARK Flexibility Score: inf
ROOT
ATOM      1  C   UNL A   1      32.889  28.911  24.308  1.00  0.00     0.202 C 
ENDROOT
BRANCH   1   2
ATOM      2  C   UNL A   1      33.308  27.438  24.337  1.00  0.00     0.261 C 
BRANCH   2   3
ATOM      3  O   UNL A   1      32.395  26.616  25.086  1.00  0.00    -0.458 OA
BRANCH   3   4
ATOM      4  C   UNL A   1      32.338  25.309  24.695  1.00  0.00     0.377 C 
ATOM      5  O   UNL A   1      33.270  24.730  24.147  1.00  0.00    -0.244 OA
BRANCH   4   6
ATOM      6  C   UNL A   1      30.962  24.662  24.929  1.00  0.00     0.287 C 
ATOM      7  C   UNL A   1      30.650  23.871  23.647  1.00  0.00     0.103 C 
BRANCH   6   8
ATOM      8  C   UNL A   1      31.219  23.689  26.111  1.00  0.00     0.455 C 
ATOM      9  F   UNL A   1      31.708  24.332  27.198  1.00  0.00    -0.164 F 
ATOM     10  F   UNL A   1      30.054  23.103  26.503  1.00  0.00    -0.164 F 
ATOM     11  F   UNL A   1      32.050  22.668  25.817  1.00  0.00    -0.164 F 
ENDBRANCH   6   8
BRANCH   6  12
ATOM     12  N   UNL A   1      29.878  25.710  25.167  1.00  0.00    -0.317 N 
ATOM     13  H   UNL A   1      30.326  26.592  25.409  1.00  0.00     0.347 HD
ATOM     14  H   UNL A   1      29.282  25.364  25.920  1.00  0.00     0.347 HD
BRANCH  12  15
ATOM     15  C   UNL A   1      29.017  25.927  23.990  1.00  0.00     0.363 C 
BRANCH  15  16
ATOM     16  C   UNL A   1      29.252  27.198  23.238  1.00  0.00     0.282 A 
ATOM     17  N   UNL A   1      28.568  28.320  23.302  1.00  0.00    -0.186 NA
ATOM     18  O   UNL A   1      30.384  27.294  22.481  1.00  0.00    -0.333 OA
ATOM     19  C   UNL A   1      29.319  29.159  22.516  1.00  0.00     0.203 A 
ATOM     20  N   UNL A   1      30.416  28.603  21.986  1.00  0.00    -0.057 NA
BRANCH  19  21
ATOM     21  C   UNL A   1      28.915  30.555  22.330  1.00  0.00     0.033 A 
ATOM     22  C   UNL A   1      28.214  31.007  21.168  1.00  0.00     0.024 A 
ATOM     23  C   UNL A   1      29.144  31.582  23.220  1.00  0.00     0.077 A 
ATOM     24  C   UNL A   1      27.942  32.357  21.218  1.00  0.00     0.065 A 
ATOM     25  S   UNL A   1      28.534  33.079  22.651  1.00  0.00    -0.152 S 
ENDBRANCH  19  21
ENDBRANCH  15  16
ENDBRANCH  12  15
ENDBRANCH   6  12
ENDBRANCH   4   6
ENDBRANCH   3   4
ENDBRANCH   2   3
ENDBRANCH   1   2
BRANCH   1  26
ATOM     26  O   UNL A   1      31.908  29.327  25.255  1.00  0.00    -0.374 OA
BRANCH  26  27
ATOM     27  C   UNL A   1      32.058  30.614  25.854  1.00  0.00     0.202 C 
BRANCH  27  28
ATOM     28  C   UNL A   1      32.631  30.684  27.275  1.00  0.00     0.261 C 
BRANCH  28  29
ATOM     29  O   UNL A   1      34.067  30.637  27.306  1.00  0.00    -0.460 OA
BRANCH  29  30
ATOM     30  C   UNL A   1      34.575  29.438  27.683  1.00  0.00     0.338 C 
ATOM     31  O   UNL A   1      34.044  28.343  27.547  1.00  0.00    -0.246 OA
BRANCH  30  32
ATOM     32  C   UNL A   1      35.972  29.574  28.135  1.00  0.00     0.060 A 
ATOM     33  C   UNL A   1      36.926  29.887  27.159  1.00  0.00     0.016 A 
ATOM     34  C   UNL A   1      36.364  29.295  29.447  1.00  0.00     0.016 A 
ATOM     35  C   UNL A   1      38.282  29.830  27.466  1.00  0.00     0.010 A 
ATOM     36  C   UNL A   1      37.730  29.235  29.754  1.00  0.00     0.010 A 
ATOM     37  C   UNL A   1      38.692  29.444  28.748  1.00  0.00    -0.014 A 
BRANCH  37  38
ATOM     38  C   UNL A   1      40.111  29.053  28.943  1.00  0.00     0.031 A 
ATOM     39  C   UNL A   1      41.041  30.035  29.610  1.00  0.00     0.074 A 
ATOM     40  C   UNL A   1      40.542  27.821  28.624  1.00  0.00     0.049 A 
ATOM     41  N   UNL A   1      42.292  29.885  29.961  1.00  0.00    -0.248 NA
ATOM     42  C   UNL A   1      40.484  31.361  29.926  1.00  0.00     0.031 C 
ATOM     43  C   UNL A   1      39.729  26.773  28.008  1.00  0.00     0.029 A 
ATOM     44  N   UNL A   1      41.774  27.237  28.790  1.00  0.00    -0.354 N 
ATOM     45  C   UNL A   1      42.671  31.095  30.535  1.00  0.00     0.074 A 
ATOM     46  C   UNL A   1      41.530  31.978  30.455  1.00  0.00     0.031 C 
ATOM     47  C   UNL A   1      40.483  25.672  27.852  1.00  0.00     0.029 A 
ATOM     48  C   UNL A   1      41.833  25.939  28.346  1.00  0.00     0.049 A 
ATOM     49  H   UNL A   1      42.541  27.706  29.190  1.00  0.00     0.167 HD
ATOM     50  C   UNL A   1      43.857  31.435  31.092  1.00  0.00     0.037 A 
ATOM     51  C   UNL A   1      42.861  25.067  28.342  1.00  0.00     0.037 A 
ATOM     52  C   UNL A   1      44.990  30.551  31.183  1.00  0.00     0.049 A 
ATOM     53  C   UNL A   1      44.181  25.478  28.940  1.00  0.00     0.074 A 
ATOM     54  C   UNL A   1      46.231  30.794  31.744  1.00  0.00     0.029 A 
ATOM     55  N   UNL A   1      45.017  29.252  30.698  1.00  0.00    -0.354 N 
ATOM     56  N   UNL A   1      44.515  26.615  29.503  1.00  0.00    -0.248 NA
ATOM     57  C   UNL A   1      45.260  24.480  28.915  1.00  0.00     0.031 C 
ATOM     58  C   UNL A   1      47.023  29.654  31.564  1.00  0.00     0.029 A 
ATOM     59  C   UNL A   1      46.259  28.686  30.932  1.00  0.00     0.049 A 
ATOM     60  H   UNL A   1      44.264  28.799  30.254  1.00  0.00     0.167 HD
ATOM     61  C   UNL A   1      45.830  26.457  29.930  1.00  0.00     0.074 A 
ATOM     62  C   UNL A   1      46.228  25.113  29.564  1.00  0.00     0.031 C 
ATOM     63  C   UNL A   1      46.634  27.342  30.573  1.00  0.00     0.037 A 
BRANCH  50  64
ATOM     64  C   UNL A   1      43.996  32.833  31.627  1.00  0.00     0.058 A 
ATOM     65  C   UNL A   1      43.739  33.140  32.972  1.00  0.00     0.135 A 
ATOM     66  C   UNL A   1      44.404  33.878  30.783  1.00  0.00     0.135 A 
ATOM     67  F   UNL A   1      43.325  32.181  33.818  1.00  0.00    -0.206 F 
ATOM     68  C   UNL A   1      43.855  34.438  33.458  1.00  0.00     0.059 A 
ATOM     69  C   UNL A   1      44.552  35.180  31.252  1.00  0.00     0.059 A 
ATOM     70  F   UNL A   1      44.659  33.640  29.487  1.00  0.00    -0.206 F 
ATOM     71  C   UNL A   1      44.260  35.453  32.587  1.00  0.00     0.060 A 
BRANCH  71  72
ATOM     72  S   UNL A   1      44.405  37.136  33.227  1.00  0.00     0.124 S 
ATOM     73  O   UNL A   1      44.907  37.850  32.057  1.00  0.00    -0.237 OA
ATOM     74  O   UNL A   1      43.033  37.444  33.617  1.00  0.00    -0.237 OA
ATOM     75  O   UNL A   1      45.350  36.998  34.332  1.00  0.00    -0.744 OA
ENDBRANCH  71  72
ENDBRANCH  50  64
BRANCH  51  76
ATOM     76  C   UNL A   1      42.678  23.708  27.767  1.00  0.00     0.058 A 
ATOM     77  C   UNL A   1      42.796  23.481  26.387  1.00  0.00     0.135 A 
ATOM     78  C   UNL A   1      42.379  22.610  28.587  1.00  0.00     0.135 A 
ATOM     79  F   UNL A   1      43.071  24.502  25.561  1.00  0.00    -0.206 F 
ATOM     80  C   UNL A   1      42.609  22.217  25.839  1.00  0.00     0.059 A 
ATOM     81  C   UNL A   1      42.210  21.331  28.064  1.00  0.00     0.059 A 
ATOM     82  F   UNL A   1      42.267  22.772  29.915  1.00  0.00    -0.206 F 
ATOM     83  C   UNL A   1      42.319  21.147  26.686  1.00  0.00     0.060 A 
BRANCH  83  84
ATOM     84  S   UNL A   1      42.128  19.498  25.973  1.00  0.00     0.124 S 
ATOM     85  O   UNL A   1      42.948  19.601  24.772  1.00  0.00    -0.237 OA
ATOM     86  O   UNL A   1      42.650  18.642  27.033  1.00  0.00    -0.237 OA
ATOM     87  O   UNL A   1      40.689  19.396  25.750  1.00  0.00    -0.744 OA
ENDBRANCH  83  84
ENDBRANCH  51  76
BRANCH  63  88
ATOM     88  C   UNL A   1      48.006  26.869  30.964  1.00  0.00     0.058 A 
ATOM     89  C   UNL A   1      48.228  26.125  32.132  1.00  0.00     0.135 A 
ATOM     90  C   UNL A   1      49.110  27.139  30.138  1.00  0.00     0.135 A 
ATOM     91  F   UNL A   1      47.207  25.841  32.957  1.00  0.00    -0.206 F 
ATOM     92  C   UNL A   1      49.503  25.691  32.486  1.00  0.00     0.059 A 
ATOM     93  C   UNL A   1      50.388  26.694  30.459  1.00  0.00     0.059 A 
ATOM     94  F   UNL A   1      48.950  27.835  29.001  1.00  0.00    -0.206 F 
ATOM     95  C   UNL A   1      50.577  25.986  31.645  1.00  0.00     0.060 A 
BRANCH  95  96
ATOM     96  S   UNL A   1      52.226  25.413  32.106  1.00  0.00     0.124 S 
ATOM     97  O   UNL A   1      51.990  23.990  32.329  1.00  0.00    -0.237 OA
ATOM     98  O   UNL A   1      53.017  25.745  30.925  1.00  0.00    -0.237 OA
ATOM     99  O   UNL A   1      52.535  26.194  33.299  1.00  0.00    -0.744 OA
ENDBRANCH  95  96
ENDBRANCH  63  88
ENDBRANCH  37  38
ENDBRANCH  30  32
ENDBRANCH  29  30
ENDBRANCH  28  29
ENDBRANCH  27  28
ENDBRANCH  26  27
ENDBRANCH   1  26
TORSDOF 22
ENDMDL
