MODEL 1
REMARK VINA RESULT:     -11.1      0.000      0.000
REMARK SMILES CCc1cc(OC(F)(F)F)cc2c1O[C@@H](C(F)(F)F)C(C(=O)OCCOCCOC(=O)c1ccc(-c3c4nc(c(-c5c(F)cc(S(=O)(=O)[O-])cc5F)c5ccc([nH]5)c(-c5c(F)cc(S(=O)(=O)[O-])cc5F)c5nc(c(-c6c(F)cc(S(=O)(=O)[O-])cc6F)c6ccc3[nH]6)C=C5)C=C4)cc1)=C2
REMARK SMILES IDX 27 1 26 2 25 3 24 4 23 5 21 6 22 7 20 8 3 9 4 10 13 11 5 12
REMARK SMILES IDX 12 13 14 14 11 15 98 16 15 17 2 18 1 19 6 20 7 21 8 22 9 23
REMARK SMILES IDX 10 24 16 25 17 26 18 27 19 28 28 29 29 30 30 31 31 32 32 33
REMARK SMILES IDX 33 34 97 35 34 36 96 37 35 38 36 39 37 40 90 41 38 42 95 43
REMARK SMILES IDX 89 44 91 45 39 46 94 47 88 48 87 49 40 51 74 52 53 53 73 54
REMARK SMILES IDX 54 55 57 56 72 57 92 58 55 59 56 60 71 62 93 63 58 64 41 65
REMARK SMILES IDX 42 66 51 67 43 68 44 69 50 70 52 71 45 72 46 73 47 74 48 75
REMARK SMILES IDX 49 76 75 77 76 78 85 79 77 80 78 81 84 82 86 83 79 84 80 85
REMARK SMILES IDX 81 86 82 87 83 88 59 89 60 90 69 91 61 92 62 93 68 94 70 95
REMARK SMILES IDX 63 96 64 97 65 98 66 99 67 100
REMARK H PARENT 91 50 57 61
REMARK Flexibility Score: inf
ROOT
ATOM      1  C   UNL A   1      34.606  31.487  28.209  1.00  0.00     0.202 C 
ENDROOT
BRANCH   1   2
ATOM      2  O   UNL A   1      33.284  31.613  27.686  1.00  0.00    -0.374 OA
BRANCH   2   3
ATOM      3  C   UNL A   1      32.942  30.793  26.568  1.00  0.00     0.202 C 
BRANCH   3   4
ATOM      4  C   UNL A   1      31.907  29.695  26.828  1.00  0.00     0.261 C 
BRANCH   4   5
ATOM      5  O   UNL A   1      32.078  28.588  25.930  1.00  0.00    -0.460 OA
BRANCH   5   6
ATOM      6  C   UNL A   1      31.961  27.366  26.500  1.00  0.00     0.338 C 
ATOM      7  O   UNL A   1      31.383  27.100  27.539  1.00  0.00    -0.246 OA
BRANCH   6   8
ATOM      8  C   UNL A   1      32.529  26.328  25.624  1.00  0.00     0.087 C 
ATOM      9  C   UNL A   1      33.583  22.804  23.647  1.00  0.00    -0.002 A 
ATOM     10  C   UNL A   1      34.928  22.395  23.647  1.00  0.00     0.054 A 
ATOM     11  C   UNL A   1      33.240  23.984  24.318  1.00  0.00     0.131 A 
ATOM     12  C   UNL A   1      35.903  23.136  24.320  1.00  0.00     0.130 A 
ATOM     13  C   UNL A   1      34.208  24.737  25.003  1.00  0.00     0.021 A 
ATOM     14  O   UNL A   1      31.914  24.339  24.343  1.00  0.00    -0.475 OA
ATOM     15  C   UNL A   1      35.540  24.313  24.986  1.00  0.00     0.058 A 
ATOM     16  C   UNL A   1      33.779  25.878  25.818  1.00  0.00     0.027 C 
ATOM     17  C   UNL A   1      31.679  25.761  24.513  1.00  0.00     0.316 C 
BRANCH   9  18
ATOM     18  C   UNL A   1      32.545  21.948  22.955  1.00  0.00     0.036 C 
ATOM     19  C   UNL A   1      32.327  20.624  23.674  1.00  0.00     0.009 C 
ENDBRANCH   9  18
BRANCH  12  20
ATOM     20  O   UNL A   1      37.231  22.816  24.406  1.00  0.00    -0.406 OA
BRANCH  20  21
ATOM     21  C   UNL A   1      37.596  21.788  25.311  1.00  0.00     0.573 C 
ATOM     22  F   UNL A   1      37.873  20.634  24.664  1.00  0.00    -0.132 F 
ATOM     23  F   UNL A   1      38.667  22.152  26.051  1.00  0.00    -0.132 F 
ATOM     24  F   UNL A   1      36.566  21.559  26.155  1.00  0.00    -0.132 F 
ENDBRANCH  20  21
ENDBRANCH  12  20
BRANCH  17  25
ATOM     25  C   UNL A   1      30.160  25.999  24.542  1.00  0.00     0.430 C 
ATOM     26  F   UNL A   1      29.526  25.271  23.593  1.00  0.00    -0.167 F 
ATOM     27  F   UNL A   1      29.651  25.571  25.731  1.00  0.00    -0.167 F 
ATOM     28  F   UNL A   1      29.813  27.294  24.414  1.00  0.00    -0.167 F 
ENDBRANCH  17  25
ENDBRANCH   6   8
ENDBRANCH   5   6
ENDBRANCH   4   5
ENDBRANCH   3   4
ENDBRANCH   2   3
ENDBRANCH   1   2
BRANCH   1  29
ATOM     29  C   UNL A   1      34.916  32.274  29.489  1.00  0.00     0.261 C 
BRANCH  29  30
ATOM     30  O   UNL A   1      36.313  32.214  29.831  1.00  0.00    -0.460 OA
BRANCH  30  31
ATOM     31  C   UNL A   1      36.662  31.183  30.644  1.00  0.00     0.338 C 
ATOM     32  O   UNL A   1      35.989  30.680  31.526  1.00  0.00    -0.246 OA
BRANCH  31  33
ATOM     33  C   UNL A   1      37.938  30.606  30.179  1.00  0.00     0.060 A 
ATOM     34  C   UNL A   1      38.905  30.301  31.145  1.00  0.00     0.016 A 
ATOM     35  C   UNL A   1      38.197  30.401  28.823  1.00  0.00     0.016 A 
ATOM     36  C   UNL A   1      40.146  29.797  30.755  1.00  0.00     0.010 A 
ATOM     37  C   UNL A   1      39.449  29.911  28.433  1.00  0.00     0.010 A 
ATOM     38  C   UNL A   1      40.433  29.620  29.395  1.00  0.00    -0.014 A 
BRANCH  38  39
ATOM     39  C   UNL A   1      41.787  29.193  28.970  1.00  0.00     0.031 A 
ATOM     40  C   UNL A   1      42.893  30.206  28.889  1.00  0.00     0.074 A 
ATOM     41  C   UNL A   1      42.020  27.905  28.654  1.00  0.00     0.049 A 
ATOM     42  N   UNL A   1      44.124  30.054  28.477  1.00  0.00    -0.248 NA
ATOM     43  C   UNL A   1      42.567  31.571  29.329  1.00  0.00     0.031 C 
ATOM     44  C   UNL A   1      41.035  26.828  28.727  1.00  0.00     0.029 A 
ATOM     45  N   UNL A   1      43.157  27.292  28.193  1.00  0.00    -0.354 N 
ATOM     46  C   UNL A   1      44.723  31.301  28.605  1.00  0.00     0.074 A 
ATOM     47  C   UNL A   1      43.712  32.205  29.111  1.00  0.00     0.031 C 
ATOM     48  C   UNL A   1      41.606  25.686  28.306  1.00  0.00     0.029 A 
ATOM     49  C   UNL A   1      42.983  25.960  27.901  1.00  0.00     0.049 A 
ATOM     50  H   UNL A   1      44.016  27.760  28.082  1.00  0.00     0.167 HD
ATOM     51  C   UNL A   1      46.001  31.657  28.330  1.00  0.00     0.037 A 
ATOM     52  C   UNL A   1      43.828  25.072  27.343  1.00  0.00     0.037 A 
ATOM     53  C   UNL A   1      47.000  30.754  27.819  1.00  0.00     0.049 A 
ATOM     54  C   UNL A   1      45.219  25.511  26.967  1.00  0.00     0.074 A 
ATOM     55  C   UNL A   1      48.330  31.012  27.538  1.00  0.00     0.029 A 
ATOM     56  N   UNL A   1      46.775  29.423  27.497  1.00  0.00    -0.354 N 
ATOM     57  N   UNL A   1      45.782  26.685  27.122  1.00  0.00    -0.248 NA
ATOM     58  C   UNL A   1      46.087  24.507  26.335  1.00  0.00     0.031 C 
ATOM     59  C   UNL A   1      48.897  29.850  27.000  1.00  0.00     0.029 A 
ATOM     60  C   UNL A   1      47.932  28.856  26.988  1.00  0.00     0.049 A 
ATOM     61  H   UNL A   1      45.919  28.951  27.615  1.00  0.00     0.167 HD
ATOM     62  C   UNL A   1      47.072  26.559  26.620  1.00  0.00     0.074 A 
ATOM     63  C   UNL A   1      47.212  25.189  26.171  1.00  0.00     0.031 C 
ATOM     64  C   UNL A   1      48.052  27.492  26.535  1.00  0.00     0.037 A 
BRANCH  51  65
ATOM     65  C   UNL A   1      46.387  33.092  28.553  1.00  0.00     0.058 A 
ATOM     66  C   UNL A   1      46.845  33.546  29.799  1.00  0.00     0.135 A 
ATOM     67  C   UNL A   1      46.332  34.016  27.498  1.00  0.00     0.135 A 
ATOM     68  F   UNL A   1      46.902  32.707  30.846  1.00  0.00    -0.206 F 
ATOM     69  C   UNL A   1      47.215  34.873  29.998  1.00  0.00     0.059 A 
ATOM     70  C   UNL A   1      46.717  35.343  27.668  1.00  0.00     0.059 A 
ATOM     71  F   UNL A   1      45.897  33.634  26.287  1.00  0.00    -0.206 F 
ATOM     72  C   UNL A   1      47.146  35.764  28.926  1.00  0.00     0.060 A 
BRANCH  72  73
ATOM     73  S   UNL A   1      47.630  37.482  29.197  1.00  0.00     0.124 S 
ATOM     74  O   UNL A   1      46.935  37.787  30.445  1.00  0.00    -0.237 OA
ATOM     75  O   UNL A   1      49.083  37.387  29.290  1.00  0.00    -0.237 OA
ATOM     76  O   UNL A   1      47.124  38.170  28.014  1.00  0.00    -0.744 OA
ENDBRANCH  72  73
ENDBRANCH  51  65
BRANCH  52  77
ATOM     77  C   UNL A   1      43.372  23.682  27.077  1.00  0.00     0.058 A 
ATOM     78  C   UNL A   1      43.239  22.751  28.116  1.00  0.00     0.135 A 
ATOM     79  C   UNL A   1      43.054  23.263  25.775  1.00  0.00     0.135 A 
ATOM     80  F   UNL A   1      43.543  23.102  29.374  1.00  0.00    -0.206 F 
ATOM     81  C   UNL A   1      42.813  21.449  27.875  1.00  0.00     0.059 A 
ATOM     82  C   UNL A   1      42.604  21.973  25.513  1.00  0.00     0.059 A 
ATOM     83  F   UNL A   1      43.156  24.120  24.748  1.00  0.00    -0.206 F 
ATOM     84  C   UNL A   1      42.494  21.070  26.569  1.00  0.00     0.060 A 
BRANCH  84  85
ATOM     85  S   UNL A   1      41.886  19.395  26.273  1.00  0.00     0.124 S 
ATOM     86  O   UNL A   1      42.568  19.051  25.032  1.00  0.00    -0.237 OA
ATOM     87  O   UNL A   1      42.339  18.690  27.469  1.00  0.00    -0.237 OA
ATOM     88  O   UNL A   1      40.441  19.579  26.173  1.00  0.00    -0.744 OA
ENDBRANCH  84  85
ENDBRANCH  52  77
BRANCH  64  89
ATOM     89  C   UNL A   1      49.365  27.065  25.941  1.00  0.00     0.058 A 
ATOM     90  C   UNL A   1      49.638  27.231  24.575  1.00  0.00     0.135 A 
ATOM     91  C   UNL A   1      50.379  26.531  26.753  1.00  0.00     0.135 A 
ATOM     92  F   UNL A   1      48.700  27.730  23.754  1.00  0.00    -0.206 F 
ATOM     93  C   UNL A   1      50.866  26.868  24.029  1.00  0.00     0.059 A 
ATOM     94  C   UNL A   1      51.622  26.182  26.233  1.00  0.00     0.059 A 
ATOM     95  F   UNL A   1      50.171  26.358  28.068  1.00  0.00    -0.206 F 
ATOM     96  C   UNL A   1      51.852  26.345  24.868  1.00  0.00     0.060 A 
BRANCH  96  97
ATOM     97  S   UNL A   1      53.454  25.911  24.155  1.00  0.00     0.124 S 
ATOM     98  O   UNL A   1      54.297  26.997  24.643  1.00  0.00    -0.237 OA
ATOM     99  O   UNL A   1      53.711  24.597  24.737  1.00  0.00    -0.237 OA
ATOM    100  O   UNL A   1      53.197  25.913  22.718  1.00  0.00    -0.744 OA
ENDBRANCH  96  97
ENDBRANCH  64  89
ENDBRANCH  38  39
ENDBRANCH  31  33
ENDBRANCH  30  31
ENDBRANCH  29  30
ENDBRANCH   1  29
TORSDOF 21
ENDMDL
MODEL 2
REMARK VINA RESULT:     -10.9      0.829      1.861
REMARK SMILES CCc1cc(OC(F)(F)F)cc2c1O[C@@H](C(F)(F)F)C(C(=O)OCCOCCOC(=O)c1ccc(-c3c4nc(c(-c5c(F)cc(S(=O)(=O)[O-])cc5F)c5ccc([nH]5)c(-c5c(F)cc(S(=O)(=O)[O-])cc5F)c5nc(c(-c6c(F)cc(S(=O)(=O)[O-])cc6F)c6ccc3[nH]6)C=C5)C=C4)cc1)=C2
REMARK SMILES IDX 27 1 26 2 25 3 24 4 23 5 21 6 22 7 20 8 3 9 4 10 13 11 5 12
REMARK SMILES IDX 12 13 14 14 11 15 98 16 15 17 2 18 1 19 6 20 7 21 8 22 9 23
REMARK SMILES IDX 10 24 16 25 17 26 18 27 19 28 28 29 29 30 30 31 31 32 32 33
REMARK SMILES IDX 33 34 97 35 34 36 96 37 35 38 36 39 37 40 90 41 38 42 95 43
REMARK SMILES IDX 89 44 91 45 39 46 94 47 88 48 87 49 40 51 74 52 53 53 73 54
REMARK SMILES IDX 54 55 57 56 72 57 92 58 55 59 56 60 71 62 93 63 58 64 41 65
REMARK SMILES IDX 42 66 51 67 43 68 44 69 50 70 52 71 45 72 46 73 47 74 48 75
REMARK SMILES IDX 49 76 75 77 76 78 85 79 77 80 78 81 84 82 86 83 79 84 80 85
REMARK SMILES IDX 81 86 82 87 83 88 59 89 60 90 69 91 61 92 62 93 68 94 70 95
REMARK SMILES IDX 63 96 64 97 65 98 66 99 67 100
REMARK H PARENT 91 50 57 61
REMARK Flexibility Score: inf
ROOT
ATOM      1  C   UNL A   1      33.678  31.770  28.065  1.00  0.00     0.202 C 
ENDROOT
BRANCH   1   2
ATOM      2  O   UNL A   1      32.893  31.423  26.924  1.00  0.00    -0.374 OA
BRANCH   2   3
ATOM      3  C   UNL A   1      32.975  30.076  26.458  1.00  0.00     0.202 C 
BRANCH   3   4
ATOM      4  C   UNL A   1      31.712  29.509  25.804  1.00  0.00     0.261 C 
BRANCH   4   5
ATOM      5  O   UNL A   1      31.955  28.218  25.225  1.00  0.00    -0.460 OA
BRANCH   5   6
ATOM      6  C   UNL A   1      31.705  27.169  26.043  1.00  0.00     0.338 C 
ATOM      7  O   UNL A   1      31.000  27.172  27.037  1.00  0.00    -0.246 OA
BRANCH   6   8
ATOM      8  C   UNL A   1      32.308  25.938  25.507  1.00  0.00     0.087 C 
ATOM      9  C   UNL A   1      33.289  22.025  24.426  1.00  0.00    -0.002 A 
ATOM     10  C   UNL A   1      34.531  21.498  24.819  1.00  0.00     0.054 A 
ATOM     11  C   UNL A   1      32.969  23.336  24.799  1.00  0.00     0.131 A 
ATOM     12  C   UNL A   1      35.423  22.254  25.584  1.00  0.00     0.130 A 
ATOM     13  C   UNL A   1      33.852  24.107  25.573  1.00  0.00     0.021 A 
ATOM     14  O   UNL A   1      31.731  23.814  24.443  1.00  0.00    -0.475 OA
ATOM     15  C   UNL A   1      35.083  23.563  25.948  1.00  0.00     0.058 A 
ATOM     16  C   UNL A   1      33.411  25.414  26.068  1.00  0.00     0.027 C 
ATOM     17  C   UNL A   1      31.660  25.259  24.325  1.00  0.00     0.316 C 
BRANCH   9  18
ATOM     18  C   UNL A   1      32.327  21.159  23.644  1.00  0.00     0.036 C 
ATOM     19  C   UNL A   1      32.536  19.677  23.925  1.00  0.00     0.009 C 
ENDBRANCH   9  18
BRANCH  12  20
ATOM     20  O   UNL A   1      36.641  21.831  26.041  1.00  0.00    -0.406 OA
BRANCH  20  21
ATOM     21  C   UNL A   1      37.777  22.145  25.254  1.00  0.00     0.573 C 
ATOM     22  F   UNL A   1      38.071  23.463  25.312  1.00  0.00    -0.132 F 
ATOM     23  F   UNL A   1      38.854  21.431  25.651  1.00  0.00    -0.132 F 
ATOM     24  F   UNL A   1      37.521  21.828  23.966  1.00  0.00    -0.132 F 
ENDBRANCH  20  21
ENDBRANCH  12  20
BRANCH  17  25
ATOM     25  C   UNL A   1      30.220  25.641  23.944  1.00  0.00     0.430 C 
ATOM     26  F   UNL A   1      29.666  24.723  23.118  1.00  0.00    -0.167 F 
ATOM     27  F   UNL A   1      29.437  25.649  25.059  1.00  0.00    -0.167 F 
ATOM     28  F   UNL A   1      30.115  26.863  23.386  1.00  0.00    -0.167 F 
ENDBRANCH  17  25
ENDBRANCH   6   8
ENDBRANCH   5   6
ENDBRANCH   4   5
ENDBRANCH   3   4
ENDBRANCH   2   3
ENDBRANCH   1   2
BRANCH   1  29
ATOM     29  C   UNL A   1      35.198  31.625  27.923  1.00  0.00     0.261 C 
BRANCH  29  30
ATOM     30  O   UNL A   1      35.666  30.361  28.429  1.00  0.00    -0.460 OA
BRANCH  30  31
ATOM     31  C   UNL A   1      36.337  30.426  29.608  1.00  0.00     0.338 C 
ATOM     32  O   UNL A   1      35.858  30.547  30.722  1.00  0.00    -0.246 OA
BRANCH  31  33
ATOM     33  C   UNL A   1      37.763  30.130  29.375  1.00  0.00     0.060 A 
ATOM     34  C   UNL A   1      38.156  29.797  28.072  1.00  0.00     0.016 A 
ATOM     35  C   UNL A   1      38.692  30.142  30.417  1.00  0.00     0.016 A 
ATOM     36  C   UNL A   1      39.484  29.463  27.808  1.00  0.00     0.010 A 
ATOM     37  C   UNL A   1      40.021  29.790  30.151  1.00  0.00     0.010 A 
ATOM     38  C   UNL A   1      40.419  29.436  28.850  1.00  0.00    -0.014 A 
BRANCH  38  39
ATOM     39  C   UNL A   1      41.804  28.973  28.595  1.00  0.00     0.031 A 
ATOM     40  C   UNL A   1      42.934  29.962  28.627  1.00  0.00     0.074 A 
ATOM     41  C   UNL A   1      42.044  27.676  28.329  1.00  0.00     0.049 A 
ATOM     42  N   UNL A   1      44.201  29.778  28.365  1.00  0.00    -0.248 NA
ATOM     43  C   UNL A   1      42.590  31.342  29.004  1.00  0.00     0.031 C 
ATOM     44  C   UNL A   1      41.033  26.620  28.304  1.00  0.00     0.029 A 
ATOM     45  N   UNL A   1      43.213  27.031  28.015  1.00  0.00    -0.354 N 
ATOM     46  C   UNL A   1      44.809  31.014  28.543  1.00  0.00     0.074 A 
ATOM     47  C   UNL A   1      43.766  31.948  28.912  1.00  0.00     0.031 C 
ATOM     48  C   UNL A   1      41.623  25.459  27.970  1.00  0.00     0.029 A 
ATOM     49  C   UNL A   1      43.044  25.698  27.726  1.00  0.00     0.049 A 
ATOM     50  H   UNL A   1      44.089  27.479  27.998  1.00  0.00     0.167 HD
ATOM     51  C   UNL A   1      46.118  31.339  28.414  1.00  0.00     0.037 A 
ATOM     52  C   UNL A   1      43.929  24.782  27.286  1.00  0.00     0.037 A 
ATOM     53  C   UNL A   1      47.150  30.406  28.039  1.00  0.00     0.049 A 
ATOM     54  C   UNL A   1      45.363  25.185  27.069  1.00  0.00     0.074 A 
ATOM     55  C   UNL A   1      48.509  30.632  27.912  1.00  0.00     0.029 A 
ATOM     56  N   UNL A   1      46.934  29.074  27.715  1.00  0.00    -0.354 N 
ATOM     57  N   UNL A   1      45.930  26.351  27.270  1.00  0.00    -0.248 NA
ATOM     58  C   UNL A   1      46.276  24.152  26.559  1.00  0.00     0.031 C 
ATOM     59  C   UNL A   1      49.108  29.449  27.464  1.00  0.00     0.029 A 
ATOM     60  C   UNL A   1      48.130  28.474  27.354  1.00  0.00     0.049 A 
ATOM     61  H   UNL A   1      46.060  28.622  27.738  1.00  0.00     0.167 HD
ATOM     62  C   UNL A   1      47.268  26.189  26.924  1.00  0.00     0.074 A 
ATOM     63  C   UNL A   1      47.429  24.808  26.517  1.00  0.00     0.031 C 
ATOM     64  C   UNL A   1      48.272  27.100  26.941  1.00  0.00     0.037 A 
BRANCH  51  65
ATOM     65  C   UNL A   1      46.507  32.769  28.658  1.00  0.00     0.058 A 
ATOM     66  C   UNL A   1      46.584  33.701  27.611  1.00  0.00     0.135 A 
ATOM     67  C   UNL A   1      46.771  33.222  29.960  1.00  0.00     0.135 A 
ATOM     68  F   UNL A   1      46.357  33.316  26.345  1.00  0.00    -0.206 F 
ATOM     69  C   UNL A   1      46.932  35.028  27.844  1.00  0.00     0.059 A 
ATOM     70  C   UNL A   1      47.099  34.551  30.219  1.00  0.00     0.059 A 
ATOM     71  F   UNL A   1      46.715  32.372  30.997  1.00  0.00    -0.206 F 
ATOM     72  C   UNL A   1      47.188  35.443  29.152  1.00  0.00     0.060 A 
BRANCH  72  73
ATOM     73  S   UNL A   1      47.636  37.169  29.439  1.00  0.00     0.124 S 
ATOM     74  O   UNL A   1      47.820  37.652  28.074  1.00  0.00    -0.237 OA
ATOM     75  O   UNL A   1      46.464  37.683  30.140  1.00  0.00    -0.237 OA
ATOM     76  O   UNL A   1      48.851  37.076  30.240  1.00  0.00    -0.744 OA
ENDBRANCH  72  73
ENDBRANCH  51  65
BRANCH  52  77
ATOM     77  C   UNL A   1      43.476  23.397  26.990  1.00  0.00     0.058 A 
ATOM     78  C   UNL A   1      43.316  22.953  25.671  1.00  0.00     0.135 A 
ATOM     79  C   UNL A   1      43.201  22.490  28.026  1.00  0.00     0.135 A 
ATOM     80  F   UNL A   1      43.555  23.788  24.648  1.00  0.00    -0.206 F 
ATOM     81  C   UNL A   1      42.893  21.658  25.386  1.00  0.00     0.059 A 
ATOM     82  C   UNL A   1      42.799  21.184  27.765  1.00  0.00     0.059 A 
ATOM     83  F   UNL A   1      43.349  22.864  29.306  1.00  0.00    -0.206 F 
ATOM     84  C   UNL A   1      42.640  20.780  26.441  1.00  0.00     0.060 A 
BRANCH  84  85
ATOM     85  S   UNL A   1      42.147  19.084  26.061  1.00  0.00     0.124 S 
ATOM     86  O   UNL A   1      42.980  18.790  24.902  1.00  0.00    -0.237 OA
ATOM     87  O   UNL A   1      42.494  18.382  27.293  1.00  0.00    -0.237 OA
ATOM     88  O   UNL A   1      40.716  19.204  25.800  1.00  0.00    -0.744 OA
ENDBRANCH  84  85
ENDBRANCH  52  77
BRANCH  64  89
ATOM     89  C   UNL A   1      49.635  26.635  26.511  1.00  0.00     0.058 A 
ATOM     90  C   UNL A   1      50.498  25.978  27.402  1.00  0.00     0.135 A 
ATOM     91  C   UNL A   1      50.063  26.801  25.184  1.00  0.00     0.135 A 
ATOM     92  F   UNL A   1      50.139  25.801  28.683  1.00  0.00    -0.206 F 
ATOM     93  C   UNL A   1      51.746  25.516  26.997  1.00  0.00     0.059 A 
ATOM     94  C   UNL A   1      51.297  26.326  24.751  1.00  0.00     0.059 A 
ATOM     95  F   UNL A   1      49.272  27.415  24.290  1.00  0.00    -0.206 F 
ATOM     96  C   UNL A   1      52.136  25.694  25.667  1.00  0.00     0.060 A 
BRANCH  96  97
ATOM     97  S   UNL A   1      53.743  25.058  25.144  1.00  0.00     0.124 S 
ATOM     98  O   UNL A   1      53.904  25.696  23.843  1.00  0.00    -0.237 OA
ATOM     99  O   UNL A   1      54.630  25.538  26.200  1.00  0.00    -0.237 OA
ATOM    100  O   UNL A   1      53.542  23.612  25.114  1.00  0.00    -0.744 OA
ENDBRANCH  96  97
ENDBRANCH  64  89
ENDBRANCH  38  39
ENDBRANCH  31  33
ENDBRANCH  30  31
ENDBRANCH  29  30
ENDBRANCH   1  29
TORSDOF 21
ENDMDL
MODEL 3
REMARK VINA RESULT:     -10.7      6.244     11.750
REMARK SMILES CCc1cc(OC(F)(F)F)cc2c1O[C@@H](C(F)(F)F)C(C(=O)OCCOCCOC(=O)c1ccc(-c3c4nc(c(-c5c(F)cc(S(=O)(=O)[O-])cc5F)c5ccc([nH]5)c(-c5c(F)cc(S(=O)(=O)[O-])cc5F)c5nc(c(-c6c(F)cc(S(=O)(=O)[O-])cc6F)c6ccc3[nH]6)C=C5)C=C4)cc1)=C2
REMARK SMILES IDX 27 1 26 2 25 3 24 4 23 5 21 6 22 7 20 8 3 9 4 10 13 11 5 12
REMARK SMILES IDX 12 13 14 14 11 15 98 16 15 17 2 18 1 19 6 20 7 21 8 22 9 23
REMARK SMILES IDX 10 24 16 25 17 26 18 27 19 28 28 29 29 30 30 31 31 32 32 33
REMARK SMILES IDX 33 34 97 35 34 36 96 37 35 38 36 39 37 40 90 41 38 42 95 43
REMARK SMILES IDX 89 44 91 45 39 46 94 47 88 48 87 49 40 51 74 52 53 53 73 54
REMARK SMILES IDX 54 55 57 56 72 57 92 58 55 59 56 60 71 62 93 63 58 64 41 65
REMARK SMILES IDX 42 66 51 67 43 68 44 69 50 70 52 71 45 72 46 73 47 74 48 75
REMARK SMILES IDX 49 76 75 77 76 78 85 79 77 80 78 81 84 82 86 83 79 84 80 85
REMARK SMILES IDX 81 86 82 87 83 88 59 89 60 90 69 91 61 92 62 93 68 94 70 95
REMARK SMILES IDX 63 96 64 97 65 98 66 99 67 100
REMARK H PARENT 91 50 57 61
REMARK Flexibility Score: inf
ROOT
ATOM      1  C   UNL A   1      39.185  22.746  26.540  1.00  0.00     0.202 C 
ENDROOT
BRANCH   1   2
ATOM      2  O   UNL A   1      39.045  21.523  25.816  1.00  0.00    -0.374 OA
BRANCH   2   3
ATOM      3  C   UNL A   1      37.905  21.392  24.967  1.00  0.00     0.202 C 
BRANCH   3   4
ATOM      4  C   UNL A   1      36.586  21.939  25.519  1.00  0.00     0.261 C 
BRANCH   4   5
ATOM      5  O   UNL A   1      35.541  21.879  24.536  1.00  0.00    -0.460 OA
BRANCH   5   6
ATOM      6  C   UNL A   1      35.399  22.996  23.784  1.00  0.00     0.338 C 
ATOM      7  O   UNL A   1      35.969  23.245  22.735  1.00  0.00    -0.246 OA
BRANCH   6   8
ATOM      8  C   UNL A   1      34.344  23.862  24.333  1.00  0.00     0.087 C 
ATOM      9  C   UNL A   1      31.265  26.606  24.992  1.00  0.00    -0.002 A 
ATOM     10  C   UNL A   1      31.478  27.673  25.882  1.00  0.00     0.054 A 
ATOM     11  C   UNL A   1      32.307  25.696  24.774  1.00  0.00     0.131 A 
ATOM     12  C   UNL A   1      32.708  27.838  26.524  1.00  0.00     0.130 A 
ATOM     13  C   UNL A   1      33.551  25.851  25.408  1.00  0.00     0.021 A 
ATOM     14  O   UNL A   1      32.091  24.689  23.865  1.00  0.00    -0.475 OA
ATOM     15  C   UNL A   1      33.738  26.916  26.292  1.00  0.00     0.058 A 
ATOM     16  C   UNL A   1      34.657  24.965  25.033  1.00  0.00     0.027 C 
ATOM     17  C   UNL A   1      32.898  23.503  24.085  1.00  0.00     0.316 C 
BRANCH   9  18
ATOM     18  C   UNL A   1      29.940  26.491  24.273  1.00  0.00     0.036 C 
ATOM     19  C   UNL A   1      29.846  27.448  23.092  1.00  0.00     0.009 C 
ENDBRANCH   9  18
BRANCH  12  20
ATOM     20  O   UNL A   1      33.030  28.850  27.386  1.00  0.00    -0.406 OA
BRANCH  20  21
ATOM     21  C   UNL A   1      33.429  30.087  26.818  1.00  0.00     0.573 C 
ATOM     22  F   UNL A   1      34.725  30.360  27.087  1.00  0.00    -0.132 F 
ATOM     23  F   UNL A   1      33.242  30.088  25.480  1.00  0.00    -0.132 F 
ATOM     24  F   UNL A   1      32.673  31.076  27.344  1.00  0.00    -0.132 F 
ENDBRANCH  20  21
ENDBRANCH  12  20
BRANCH  17  25
ATOM     25  C   UNL A   1      32.563  22.481  22.985  1.00  0.00     0.430 C 
ATOM     26  F   UNL A   1      32.939  21.230  23.341  1.00  0.00    -0.167 F 
ATOM     27  F   UNL A   1      31.213  22.421  22.811  1.00  0.00    -0.167 F 
ATOM     28  F   UNL A   1      33.097  22.783  21.786  1.00  0.00    -0.167 F 
ENDBRANCH  17  25
ENDBRANCH   6   8
ENDBRANCH   5   6
ENDBRANCH   4   5
ENDBRANCH   3   4
ENDBRANCH   2   3
ENDBRANCH   1   2
BRANCH   1  29
ATOM     29  C   UNL A   1      40.410  22.866  27.455  1.00  0.00     0.261 C 
BRANCH  29  30
ATOM     30  O   UNL A   1      41.460  23.642  26.848  1.00  0.00    -0.460 OA
BRANCH  30  31
ATOM     31  C   UNL A   1      41.084  24.869  26.401  1.00  0.00     0.338 C 
ATOM     32  O   UNL A   1      40.640  25.148  25.301  1.00  0.00    -0.246 OA
BRANCH  31  33
ATOM     33  C   UNL A   1      41.105  25.825  27.524  1.00  0.00     0.060 A 
ATOM     34  C   UNL A   1      39.950  25.933  28.310  1.00  0.00     0.016 A 
ATOM     35  C   UNL A   1      42.218  26.627  27.782  1.00  0.00     0.016 A 
ATOM     36  C   UNL A   1      39.901  26.855  29.355  1.00  0.00     0.010 A 
ATOM     37  C   UNL A   1      42.160  27.563  28.820  1.00  0.00     0.010 A 
ATOM     38  C   UNL A   1      40.998  27.692  29.602  1.00  0.00    -0.014 A 
BRANCH  38  39
ATOM     39  C   UNL A   1      40.908  28.749  30.636  1.00  0.00     0.031 A 
ATOM     40  C   UNL A   1      41.843  28.716  31.813  1.00  0.00     0.074 A 
ATOM     41  C   UNL A   1      39.992  29.728  30.524  1.00  0.00     0.049 A 
ATOM     42  N   UNL A   1      41.884  29.502  32.857  1.00  0.00    -0.248 NA
ATOM     43  C   UNL A   1      42.863  27.657  31.812  1.00  0.00     0.031 C 
ATOM     44  C   UNL A   1      39.056  29.882  29.412  1.00  0.00     0.029 A 
ATOM     45  N   UNL A   1      39.689  30.768  31.366  1.00  0.00    -0.354 N 
ATOM     46  C   UNL A   1      42.932  29.035  33.640  1.00  0.00     0.074 A 
ATOM     47  C   UNL A   1      43.486  27.882  32.962  1.00  0.00     0.031 C 
ATOM     48  C   UNL A   1      38.268  30.945  29.649  1.00  0.00     0.029 A 
ATOM     49  C   UNL A   1      38.621  31.523  30.944  1.00  0.00     0.049 A 
ATOM     50  H   UNL A   1      40.189  30.956  32.193  1.00  0.00     0.167 HD
ATOM     51  C   UNL A   1      43.393  29.527  34.815  1.00  0.00     0.037 A 
ATOM     52  C   UNL A   1      37.982  32.544  31.548  1.00  0.00     0.037 A 
ATOM     53  C   UNL A   1      42.833  30.670  35.489  1.00  0.00     0.049 A 
ATOM     54  C   UNL A   1      38.459  33.021  32.894  1.00  0.00     0.074 A 
ATOM     55  C   UNL A   1      43.249  31.264  36.668  1.00  0.00     0.029 A 
ATOM     56  N   UNL A   1      41.726  31.384  35.052  1.00  0.00    -0.354 N 
ATOM     57  N   UNL A   1      39.470  32.590  33.610  1.00  0.00    -0.248 NA
ATOM     58  C   UNL A   1      37.705  34.118  33.518  1.00  0.00     0.031 C 
ATOM     59  C   UNL A   1      42.364  32.306  36.968  1.00  0.00     0.029 A 
ATOM     60  C   UNL A   1      41.423  32.390  35.954  1.00  0.00     0.049 A 
ATOM     61  H   UNL A   1      41.229  31.202  34.221  1.00  0.00     0.167 HD
ATOM     62  C   UNL A   1      39.482  33.370  34.761  1.00  0.00     0.074 A 
ATOM     63  C   UNL A   1      38.388  34.311  34.638  1.00  0.00     0.031 C 
ATOM     64  C   UNL A   1      40.322  33.313  35.824  1.00  0.00     0.037 A 
BRANCH  51  65
ATOM     65  C   UNL A   1      44.547  28.816  35.462  1.00  0.00     0.058 A 
ATOM     66  C   UNL A   1      45.878  29.163  35.181  1.00  0.00     0.135 A 
ATOM     67  C   UNL A   1      44.319  27.798  36.402  1.00  0.00     0.135 A 
ATOM     68  F   UNL A   1      46.151  30.118  34.278  1.00  0.00    -0.206 F 
ATOM     69  C   UNL A   1      46.944  28.511  35.794  1.00  0.00     0.059 A 
ATOM     70  C   UNL A   1      45.370  27.147  37.043  1.00  0.00     0.059 A 
ATOM     71  F   UNL A   1      43.066  27.425  36.705  1.00  0.00    -0.206 F 
ATOM     72  C   UNL A   1      46.680  27.503  36.723  1.00  0.00     0.060 A 
BRANCH  72  73
ATOM     73  S   UNL A   1      48.072  26.666  37.510  1.00  0.00     0.124 S 
ATOM     74  O   UNL A   1      48.524  25.783  36.439  1.00  0.00    -0.237 OA
ATOM     75  O   UNL A   1      48.963  27.777  37.832  1.00  0.00    -0.237 OA
ATOM     76  O   UNL A   1      47.465  26.001  38.658  1.00  0.00    -0.744 OA
ENDBRANCH  72  73
ENDBRANCH  51  65
BRANCH  52  77
ATOM     77  C   UNL A   1      36.799  33.166  30.897  1.00  0.00     0.058 A 
ATOM     78  C   UNL A   1      35.498  32.885  31.337  1.00  0.00     0.135 A 
ATOM     79  C   UNL A   1      36.950  34.059  29.825  1.00  0.00     0.135 A 
ATOM     80  F   UNL A   1      35.303  32.027  32.350  1.00  0.00    -0.206 F 
ATOM     81  C   UNL A   1      34.386  33.463  30.733  1.00  0.00     0.059 A 
ATOM     82  C   UNL A   1      35.855  34.667  29.220  1.00  0.00     0.059 A 
ATOM     83  F   UNL A   1      38.175  34.368  29.374  1.00  0.00    -0.206 F 
ATOM     84  C   UNL A   1      34.575  34.356  29.677  1.00  0.00     0.060 A 
BRANCH  84  85
ATOM     85  S   UNL A   1      33.129  35.146  28.937  1.00  0.00     0.124 S 
ATOM     86  O   UNL A   1      33.715  36.353  28.366  1.00  0.00    -0.237 OA
ATOM     87  O   UNL A   1      32.685  34.137  27.980  1.00  0.00    -0.237 OA
ATOM     88  O   UNL A   1      32.241  35.350  30.077  1.00  0.00    -0.744 OA
ENDBRANCH  84  85
ENDBRANCH  52  77
BRANCH  64  89
ATOM     89  C   UNL A   1      40.096  34.296  36.938  1.00  0.00     0.058 A 
ATOM     90  C   UNL A   1      40.645  35.586  36.898  1.00  0.00     0.135 A 
ATOM     91  C   UNL A   1      39.280  33.963  38.031  1.00  0.00     0.135 A 
ATOM     92  F   UNL A   1      41.439  35.951  35.878  1.00  0.00    -0.206 F 
ATOM     93  C   UNL A   1      40.408  36.509  37.912  1.00  0.00     0.059 A 
ATOM     94  C   UNL A   1      39.010  34.878  39.045  1.00  0.00     0.059 A 
ATOM     95  F   UNL A   1      38.723  32.744  38.114  1.00  0.00    -0.206 F 
ATOM     96  C   UNL A   1      39.587  36.145  38.982  1.00  0.00     0.060 A 
BRANCH  96  97
ATOM     97  S   UNL A   1      39.257  37.363  40.273  1.00  0.00     0.124 S 
ATOM     98  O   UNL A   1      40.603  37.820  40.598  1.00  0.00    -0.237 OA
ATOM     99  O   UNL A   1      38.408  38.330  39.584  1.00  0.00    -0.237 OA
ATOM    100  O   UNL A   1      38.591  36.584  41.313  1.00  0.00    -0.744 OA
ENDBRANCH  96  97
ENDBRANCH  64  89
ENDBRANCH  38  39
ENDBRANCH  31  33
ENDBRANCH  30  31
ENDBRANCH  29  30
ENDBRANCH   1  29
TORSDOF 21
ENDMDL
