MODEL 1
REMARK VINA RESULT:     -10.2      0.000      0.000
REMARK SMILES CCCC[C@@H](C(=O)OCCOCCOC(=O)c1ccc(-c2c3nc(c(-c4c(F)cc(S(=O)(=O)[O-])cc4F)c4ccc([nH]4)c(-c4c(F)cc(S(=O)(=O)[O-])cc4F)c4nc(c(-c5c(F)cc(S(=O)(=O)[O-])cc5F)c5ccc2[nH]5)C=C4)C=C3)cc1)[C@H](O)c1ccc(OC)c(O)c1
REMARK SMILES IDX 11 1 10 2 9 3 8 4 6 5 7 6 5 7 4 8 3 9 2 10 1 11 83 12 85 13
REMARK SMILES IDX 86 14 93 15 87 16 91 17 88 18 92 19 89 21 90 22 84 23 12 25
REMARK SMILES IDX 13 26 14 27 15 28 16 29 17 30 18 31 82 32 19 33 81 34 20 35
REMARK SMILES IDX 21 36 22 37 75 38 23 39 80 40 74 41 76 42 24 43 79 44 73 45
REMARK SMILES IDX 72 46 25 48 59 49 38 50 58 51 39 52 42 53 57 54 77 55 40 56
REMARK SMILES IDX 41 57 56 59 78 60 43 61 26 62 27 63 36 64 28 65 29 66 35 67
REMARK SMILES IDX 37 68 30 69 31 70 32 71 33 72 34 73 60 74 61 75 70 76 62 77
REMARK SMILES IDX 63 78 69 79 71 80 64 81 65 82 66 83 67 84 68 85 44 86 45 87
REMARK SMILES IDX 54 88 46 89 47 90 53 91 55 92 48 93 49 94 50 95 51 96 52 97
REMARK H PARENT 92 20 84 24 76 47 42 58
REMARK Flexibility Score: inf
ROOT
ATOM      1  O   UNL A   1      39.257  22.044  25.601  1.00  0.00    -0.374 OA
ENDROOT
BRANCH   1   2
ATOM      2  C   UNL A   1      37.839  21.874  25.680  1.00  0.00     0.202 C 
BRANCH   2   3
ATOM      3  C   UNL A   1      37.006  22.979  25.023  1.00  0.00     0.261 C 
BRANCH   3   4
ATOM      4  O   UNL A   1      35.783  22.435  24.485  1.00  0.00    -0.463 OA
BRANCH   4   5
ATOM      5  C   UNL A   1      34.622  22.819  25.075  1.00  0.00     0.312 C 
ATOM      6  O   UNL A   1      34.471  22.931  26.285  1.00  0.00    -0.252 OA
BRANCH   5   7
ATOM      7  C   UNL A   1      33.520  23.048  24.052  1.00  0.00     0.132 C 
BRANCH   7   8
ATOM      8  C   UNL A   1      32.975  24.494  23.930  1.00  0.00     0.018 C 
BRANCH   8   9
ATOM      9  C   UNL A   1      33.992  25.646  23.956  1.00  0.00     0.001 C 
BRANCH   9  10
ATOM     10  C   UNL A   1      33.552  26.931  24.652  1.00  0.00    -0.003 C 
ATOM     11  C   UNL A   1      33.038  26.714  26.066  1.00  0.00     0.004 C 
ENDBRANCH   9  10
ENDBRANCH   8   9
ENDBRANCH   7   8
BRANCH   7  12
ATOM     12  C   UNL A   1      32.404  21.985  24.275  1.00  0.00     0.159 C 
BRANCH  12  13
ATOM     13  C   UNL A   1      32.621  20.490  24.052  1.00  0.00    -0.015 A 
ATOM     14  C   UNL A   1      33.474  19.817  24.944  1.00  0.00     0.010 A 
ATOM     15  C   UNL A   1      32.090  19.741  22.996  1.00  0.00     0.056 A 
ATOM     16  C   UNL A   1      33.770  18.459  24.787  1.00  0.00     0.051 A 
ATOM     17  C   UNL A   1      32.378  18.372  22.842  1.00  0.00     0.158 A 
ATOM     18  C   UNL A   1      33.223  17.716  23.739  1.00  0.00     0.160 A 
BRANCH  17  19
ATOM     19  O   UNL A   1      31.825  17.709  21.780  1.00  0.00    -0.504 OA
ATOM     20  H   UNL A   1      30.906  17.777  21.612  1.00  0.00     0.293 HD
ENDBRANCH  17  19
BRANCH  18  21
ATOM     21  O   UNL A   1      33.626  16.409  23.733  1.00  0.00    -0.493 OA
ATOM     22  C   UNL A   1      33.737  15.738  24.980  1.00  0.00     0.278 C 
ENDBRANCH  18  21
ENDBRANCH  12  13
BRANCH  12  23
ATOM     23  O   UNL A   1      31.893  22.167  25.607  1.00  0.00    -0.388 OA
ATOM     24  H   UNL A   1      32.207  23.013  25.961  1.00  0.00     0.211 HD
ENDBRANCH  12  23
ENDBRANCH   7  12
ENDBRANCH   5   7
ENDBRANCH   4   5
ENDBRANCH   3   4
ENDBRANCH   2   3
ENDBRANCH   1   2
BRANCH   1  25
ATOM     25  C   UNL A   1      40.030  21.440  26.631  1.00  0.00     0.202 C 
BRANCH  25  26
ATOM     26  C   UNL A   1      41.103  22.325  27.274  1.00  0.00     0.261 C 
BRANCH  26  27
ATOM     27  O   UNL A   1      41.025  23.683  26.815  1.00  0.00    -0.460 OA
BRANCH  27  28
ATOM     28  C   UNL A   1      42.018  24.472  27.288  1.00  0.00     0.338 C 
ATOM     29  O   UNL A   1      43.215  24.363  27.050  1.00  0.00    -0.246 OA
BRANCH  28  30
ATOM     30  C   UNL A   1      41.469  25.624  28.024  1.00  0.00     0.060 A 
ATOM     31  C   UNL A   1      42.351  26.680  28.282  1.00  0.00     0.016 A 
ATOM     32  C   UNL A   1      40.167  25.644  28.533  1.00  0.00     0.016 A 
ATOM     33  C   UNL A   1      41.966  27.718  29.124  1.00  0.00     0.010 A 
ATOM     34  C   UNL A   1      39.782  26.690  29.382  1.00  0.00     0.010 A 
ATOM     35  C   UNL A   1      40.701  27.699  29.724  1.00  0.00    -0.014 A 
BRANCH  35  36
ATOM     36  C   UNL A   1      40.446  28.632  30.851  1.00  0.00     0.031 A 
ATOM     37  C   UNL A   1      41.302  28.525  32.087  1.00  0.00     0.074 A 
ATOM     38  C   UNL A   1      39.541  29.620  30.736  1.00  0.00     0.049 A 
ATOM     39  N   UNL A   1      41.315  29.280  33.153  1.00  0.00    -0.248 NA
ATOM     40  C   UNL A   1      42.273  27.418  32.124  1.00  0.00     0.031 C 
ATOM     41  C   UNL A   1      38.675  29.841  29.578  1.00  0.00     0.029 A 
ATOM     42  N   UNL A   1      39.210  30.630  31.602  1.00  0.00    -0.354 N 
ATOM     43  C   UNL A   1      42.291  28.744  33.986  1.00  0.00     0.074 A 
ATOM     44  C   UNL A   1      42.824  27.577  33.318  1.00  0.00     0.031 C 
ATOM     45  C   UNL A   1      37.910  30.924  29.807  1.00  0.00     0.029 A 
ATOM     46  C   UNL A   1      38.222  31.462  31.130  1.00  0.00     0.049 A 
ATOM     47  H   UNL A   1      39.639  30.749  32.480  1.00  0.00     0.167 HD
ATOM     48  C   UNL A   1      42.717  29.190  35.192  1.00  0.00     0.037 A 
ATOM     49  C   UNL A   1      37.637  32.532  31.703  1.00  0.00     0.037 A 
ATOM     50  C   UNL A   1      42.195  30.360  35.848  1.00  0.00     0.049 A 
ATOM     51  C   UNL A   1      38.116  32.998  33.054  1.00  0.00     0.074 A 
ATOM     52  C   UNL A   1      42.570  30.903  37.065  1.00  0.00     0.029 A 
ATOM     53  N   UNL A   1      41.188  31.168  35.344  1.00  0.00    -0.354 N 
ATOM     54  N   UNL A   1      39.057  32.493  33.817  1.00  0.00    -0.248 NA
ATOM     55  C   UNL A   1      37.465  34.191  33.613  1.00  0.00     0.031 C 
ATOM     56  C   UNL A   1      41.762  32.019  37.313  1.00  0.00     0.029 A 
ATOM     57  C   UNL A   1      40.919  32.197  36.229  1.00  0.00     0.049 A 
ATOM     58  H   UNL A   1      40.732  31.030  34.482  1.00  0.00     0.167 HD
ATOM     59  C   UNL A   1      39.133  33.326  34.930  1.00  0.00     0.074 A 
ATOM     60  C   UNL A   1      38.150  34.372  34.734  1.00  0.00     0.031 C 
ATOM     61  C   UNL A   1      39.944  33.237  36.014  1.00  0.00     0.037 A 
BRANCH  48  62
ATOM     62  C   UNL A   1      43.789  28.400  35.889  1.00  0.00     0.058 A 
ATOM     63  C   UNL A   1      43.479  27.360  36.782  1.00  0.00     0.135 A 
ATOM     64  C   UNL A   1      45.144  28.660  35.633  1.00  0.00     0.135 A 
ATOM     65  F   UNL A   1      42.200  27.084  37.080  1.00  0.00    -0.206 F 
ATOM     66  C   UNL A   1      44.476  26.620  37.409  1.00  0.00     0.059 A 
ATOM     67  C   UNL A   1      46.158  27.916  36.230  1.00  0.00     0.059 A 
ATOM     68  F   UNL A   1      45.495  29.646  34.792  1.00  0.00    -0.206 F 
ATOM     69  C   UNL A   1      45.813  26.905  37.125  1.00  0.00     0.060 A 
BRANCH  69  70
ATOM     70  S   UNL A   1      47.097  25.926  37.934  1.00  0.00     0.124 S 
ATOM     71  O   UNL A   1      47.866  26.961  38.618  1.00  0.00    -0.237 OA
ATOM     72  O   UNL A   1      46.320  25.040  38.795  1.00  0.00    -0.237 OA
ATOM     73  O   UNL A   1      47.777  25.272  36.820  1.00  0.00    -0.744 OA
ENDBRANCH  69  70
ENDBRANCH  48  62
BRANCH  49  74
ATOM     74  C   UNL A   1      36.534  33.241  31.002  1.00  0.00     0.058 A 
ATOM     75  C   UNL A   1      36.776  34.029  29.868  1.00  0.00     0.135 A 
ATOM     76  C   UNL A   1      35.212  33.152  31.468  1.00  0.00     0.135 A 
ATOM     77  F   UNL A   1      38.024  34.151  29.389  1.00  0.00    -0.206 F 
ATOM     78  C   UNL A   1      35.752  34.725  29.232  1.00  0.00     0.059 A 
ATOM     79  C   UNL A   1      34.169  33.817  30.834  1.00  0.00     0.059 A 
ATOM     80  F   UNL A   1      34.927  32.400  32.542  1.00  0.00    -0.206 F 
ATOM     81  C   UNL A   1      34.450  34.612  29.724  1.00  0.00     0.060 A 
BRANCH  81  82
ATOM     82  S   UNL A   1      33.120  35.488  28.874  1.00  0.00     0.124 S 
ATOM     83  O   UNL A   1      32.468  34.403  28.151  1.00  0.00    -0.237 OA
ATOM     84  O   UNL A   1      32.367  36.060  29.986  1.00  0.00    -0.237 OA
ATOM     85  O   UNL A   1      33.834  36.458  28.047  1.00  0.00    -0.744 OA
ENDBRANCH  81  82
ENDBRANCH  49  74
BRANCH  61  86
ATOM     86  C   UNL A   1      39.836  34.326  37.047  1.00  0.00     0.058 A 
ATOM     87  C   UNL A   1      39.055  34.176  38.203  1.00  0.00     0.135 A 
ATOM     88  C   UNL A   1      40.541  35.528  36.883  1.00  0.00     0.135 A 
ATOM     89  F   UNL A   1      38.360  33.046  38.408  1.00  0.00    -0.206 F 
ATOM     90  C   UNL A   1      38.943  35.198  39.140  1.00  0.00     0.059 A 
ATOM     91  C   UNL A   1      40.467  36.552  37.821  1.00  0.00     0.059 A 
ATOM     92  F   UNL A   1      41.317  35.716  35.803  1.00  0.00    -0.206 F 
ATOM     93  C   UNL A   1      39.648  36.386  38.937  1.00  0.00     0.060 A 
BRANCH  93  94
ATOM     94  S   UNL A   1      39.490  37.711  40.153  1.00  0.00     0.124 S 
ATOM     95  O   UNL A   1      38.459  38.545  39.546  1.00  0.00    -0.237 OA
ATOM     96  O   UNL A   1      39.094  36.986  41.357  1.00  0.00    -0.237 OA
ATOM     97  O   UNL A   1      40.828  38.293  40.193  1.00  0.00    -0.744 OA
ENDBRANCH  93  94
ENDBRANCH  61  86
ENDBRANCH  35  36
ENDBRANCH  28  30
ENDBRANCH  27  28
ENDBRANCH  26  27
ENDBRANCH  25  26
ENDBRANCH   1  25
TORSDOF 25
ENDMDL
MODEL 2
REMARK VINA RESULT:     -10.1      5.445      7.846
REMARK SMILES CCCC[C@@H](C(=O)OCCOCCOC(=O)c1ccc(-c2c3nc(c(-c4c(F)cc(S(=O)(=O)[O-])cc4F)c4ccc([nH]4)c(-c4c(F)cc(S(=O)(=O)[O-])cc4F)c4nc(c(-c5c(F)cc(S(=O)(=O)[O-])cc5F)c5ccc2[nH]5)C=C4)C=C3)cc1)[C@H](O)c1ccc(OC)c(O)c1
REMARK SMILES IDX 11 1 10 2 9 3 8 4 6 5 7 6 5 7 4 8 3 9 2 10 1 11 83 12 85 13
REMARK SMILES IDX 86 14 93 15 87 16 91 17 88 18 92 19 89 21 90 22 84 23 12 25
REMARK SMILES IDX 13 26 14 27 15 28 16 29 17 30 18 31 82 32 19 33 81 34 20 35
REMARK SMILES IDX 21 36 22 37 75 38 23 39 80 40 74 41 76 42 24 43 79 44 73 45
REMARK SMILES IDX 72 46 25 48 59 49 38 50 58 51 39 52 42 53 57 54 77 55 40 56
REMARK SMILES IDX 41 57 56 59 78 60 43 61 26 62 27 63 36 64 28 65 29 66 35 67
REMARK SMILES IDX 37 68 30 69 31 70 32 71 33 72 34 73 60 74 61 75 70 76 62 77
REMARK SMILES IDX 63 78 69 79 71 80 64 81 65 82 66 83 67 84 68 85 44 86 45 87
REMARK SMILES IDX 54 88 46 89 47 90 53 91 55 92 48 93 49 94 50 95 51 96 52 97
REMARK H PARENT 92 20 84 24 76 47 42 58
REMARK Flexibility Score: inf
ROOT
ATOM      1  O   UNL A   1      35.391  21.774  25.490  1.00  0.00    -0.374 OA
ENDROOT
BRANCH   1   2
ATOM      2  C   UNL A   1      34.369  22.664  25.030  1.00  0.00     0.202 C 
BRANCH   2   3
ATOM      3  C   UNL A   1      33.079  22.666  25.854  1.00  0.00     0.261 C 
BRANCH   3   4
ATOM      4  O   UNL A   1      32.128  23.599  25.299  1.00  0.00    -0.463 OA
BRANCH   4   5
ATOM      5  C   UNL A   1      31.705  24.605  26.107  1.00  0.00     0.312 C 
ATOM      6  O   UNL A   1      31.296  24.444  27.249  1.00  0.00    -0.252 OA
BRANCH   5   7
ATOM      7  C   UNL A   1      31.759  25.952  25.401  1.00  0.00     0.132 C 
BRANCH   7   8
ATOM      8  C   UNL A   1      32.633  27.048  26.062  1.00  0.00     0.018 C 
BRANCH   8   9
ATOM      9  C   UNL A   1      32.038  27.818  27.251  1.00  0.00     0.001 C 
BRANCH   9  10
ATOM     10  C   UNL A   1      31.741  29.298  27.028  1.00  0.00    -0.003 C 
ATOM     11  C   UNL A   1      32.920  30.080  26.472  1.00  0.00     0.004 C 
ENDBRANCH   9  10
ENDBRANCH   8   9
ENDBRANCH   7   8
BRANCH   7  12
ATOM     12  C   UNL A   1      30.302  26.419  25.106  1.00  0.00     0.159 C 
BRANCH  12  13
ATOM     13  C   UNL A   1      29.963  27.481  24.063  1.00  0.00    -0.015 A 
ATOM     14  C   UNL A   1      28.603  27.711  23.790  1.00  0.00     0.010 A 
ATOM     15  C   UNL A   1      30.892  28.205  23.308  1.00  0.00     0.056 A 
ATOM     16  C   UNL A   1      28.200  28.629  22.814  1.00  0.00     0.051 A 
ATOM     17  C   UNL A   1      30.489  29.137  22.334  1.00  0.00     0.158 A 
ATOM     18  C   UNL A   1      29.135  29.359  22.078  1.00  0.00     0.160 A 
BRANCH  17  19
ATOM     19  O   UNL A   1      31.459  29.802  21.634  1.00  0.00    -0.504 OA
ATOM     20  H   UNL A   1      31.480  29.752  20.699  1.00  0.00     0.293 HD
ENDBRANCH  17  19
BRANCH  18  21
ATOM     21  O   UNL A   1      28.566  30.202  21.163  1.00  0.00    -0.493 OA
ATOM     22  C   UNL A   1      28.030  31.432  21.631  1.00  0.00     0.278 C 
ENDBRANCH  18  21
ENDBRANCH  12  13
BRANCH  12  23
ATOM     23  O   UNL A   1      29.522  25.245  24.818  1.00  0.00    -0.388 OA
ATOM     24  H   UNL A   1      28.620  25.367  25.149  1.00  0.00     0.211 HD
ENDBRANCH  12  23
ENDBRANCH   7  12
ENDBRANCH   5   7
ENDBRANCH   4   5
ENDBRANCH   3   4
ENDBRANCH   2   3
ENDBRANCH   1   2
BRANCH   1  25
ATOM     25  C   UNL A   1      36.478  21.539  24.603  1.00  0.00     0.202 C 
BRANCH  25  26
ATOM     26  C   UNL A   1      37.830  21.241  25.258  1.00  0.00     0.261 C 
BRANCH  26  27
ATOM     27  O   UNL A   1      38.529  22.442  25.615  1.00  0.00    -0.460 OA
BRANCH  27  28
ATOM     28  C   UNL A   1      39.552  22.238  26.479  1.00  0.00     0.338 C 
ATOM     29  O   UNL A   1      40.238  21.227  26.573  1.00  0.00    -0.246 OA
BRANCH  28  30
ATOM     30  C   UNL A   1      39.871  23.471  27.218  1.00  0.00     0.060 A 
ATOM     31  C   UNL A   1      39.224  24.638  26.798  1.00  0.00     0.016 A 
ATOM     32  C   UNL A   1      40.838  23.518  28.227  1.00  0.00     0.016 A 
ATOM     33  C   UNL A   1      39.604  25.871  27.319  1.00  0.00     0.010 A 
ATOM     34  C   UNL A   1      41.220  24.760  28.750  1.00  0.00     0.010 A 
ATOM     35  C   UNL A   1      40.643  25.944  28.255  1.00  0.00    -0.014 A 
BRANCH  35  36
ATOM     36  C   UNL A   1      41.234  27.275  28.543  1.00  0.00     0.031 A 
ATOM     37  C   UNL A   1      42.686  27.510  28.213  1.00  0.00     0.074 A 
ATOM     38  C   UNL A   1      40.468  28.286  28.993  1.00  0.00     0.049 A 
ATOM     39  N   UNL A   1      43.388  28.608  28.300  1.00  0.00    -0.248 NA
ATOM     40  C   UNL A   1      43.446  26.350  27.717  1.00  0.00     0.031 C 
ATOM     41  C   UNL A   1      39.046  28.187  29.320  1.00  0.00     0.029 A 
ATOM     42  N   UNL A   1      40.781  29.598  29.240  1.00  0.00    -0.354 N 
ATOM     43  C   UNL A   1      44.669  28.275  27.873  1.00  0.00     0.074 A 
ATOM     44  C   UNL A   1      44.657  26.863  27.560  1.00  0.00     0.031 C 
ATOM     45  C   UNL A   1      38.608  29.392  29.726  1.00  0.00     0.029 A 
ATOM     46  C   UNL A   1      39.720  30.341  29.699  1.00  0.00     0.049 A 
ATOM     47  H   UNL A   1      41.680  29.972  29.102  1.00  0.00     0.167 HD
ATOM     48  C   UNL A   1      45.753  29.074  27.737  1.00  0.00     0.037 A 
ATOM     49  C   UNL A   1      39.656  31.639  30.059  1.00  0.00     0.037 A 
ATOM     50  C   UNL A   1      45.759  30.483  28.035  1.00  0.00     0.049 A 
ATOM     51  C   UNL A   1      40.881  32.504  29.916  1.00  0.00     0.074 A 
ATOM     52  C   UNL A   1      46.803  31.384  27.917  1.00  0.00     0.029 A 
ATOM     53  N   UNL A   1      44.669  31.196  28.509  1.00  0.00    -0.354 N 
ATOM     54  N   UNL A   1      42.078  32.178  29.487  1.00  0.00    -0.248 NA
ATOM     55  C   UNL A   1      40.743  33.918  30.291  1.00  0.00     0.031 C 
ATOM     56  C   UNL A   1      46.354  32.634  28.356  1.00  0.00     0.029 A 
ATOM     57  C   UNL A   1      45.017  32.522  28.701  1.00  0.00     0.049 A 
ATOM     58  H   UNL A   1      43.777  30.815  28.682  1.00  0.00     0.167 HD
ATOM     59  C   UNL A   1      42.824  33.353  29.508  1.00  0.00     0.074 A 
ATOM     60  C   UNL A   1      41.940  34.398  29.983  1.00  0.00     0.031 C 
ATOM     61  C   UNL A   1      44.122  33.552  29.164  1.00  0.00     0.037 A 
BRANCH  48  62
ATOM     62  C   UNL A   1      47.032  28.442  27.263  1.00  0.00     0.058 A 
ATOM     63  C   UNL A   1      47.305  28.260  25.896  1.00  0.00     0.135 A 
ATOM     64  C   UNL A   1      48.014  28.047  28.184  1.00  0.00     0.135 A 
ATOM     65  F   UNL A   1      46.390  28.599  24.974  1.00  0.00    -0.206 F 
ATOM     66  C   UNL A   1      48.499  27.692  25.463  1.00  0.00     0.059 A 
ATOM     67  C   UNL A   1      49.226  27.500  27.772  1.00  0.00     0.059 A 
ATOM     68  F   UNL A   1      47.802  28.194  29.502  1.00  0.00    -0.206 F 
ATOM     69  C   UNL A   1      49.454  27.317  26.410  1.00  0.00     0.060 A 
BRANCH  69  70
ATOM     70  S   UNL A   1      51.006  26.596  25.833  1.00  0.00     0.124 S 
ATOM     71  O   UNL A   1      50.868  25.214  26.277  1.00  0.00    -0.237 OA
ATOM     72  O   UNL A   1      50.933  26.809  24.391  1.00  0.00    -0.237 OA
ATOM     73  O   UNL A   1      52.023  27.380  26.527  1.00  0.00    -0.744 OA
ENDBRANCH  69  70
ENDBRANCH  48  62
BRANCH  49  74
ATOM     74  C   UNL A   1      38.385  32.202  30.586  1.00  0.00     0.058 A 
ATOM     75  C   UNL A   1      38.058  32.120  31.948  1.00  0.00     0.135 A 
ATOM     76  C   UNL A   1      37.463  32.823  29.728  1.00  0.00     0.135 A 
ATOM     77  F   UNL A   1      38.903  31.529  32.806  1.00  0.00    -0.206 F 
ATOM     78  C   UNL A   1      36.853  32.612  32.439  1.00  0.00     0.059 A 
ATOM     79  C   UNL A   1      36.264  33.345  30.199  1.00  0.00     0.059 A 
ATOM     80  F   UNL A   1      37.735  32.939  28.419  1.00  0.00    -0.206 F 
ATOM     81  C   UNL A   1      35.961  33.223  31.555  1.00  0.00     0.060 A 
BRANCH  81  82
ATOM     82  S   UNL A   1      34.414  33.892  32.203  1.00  0.00     0.124 S 
ATOM     83  O   UNL A   1      34.898  34.850  33.188  1.00  0.00    -0.237 OA
ATOM     84  O   UNL A   1      33.798  34.458  31.007  1.00  0.00    -0.237 OA
ATOM     85  O   UNL A   1      33.742  32.713  32.745  1.00  0.00    -0.744 OA
ENDBRANCH  81  82
ENDBRANCH  49  74
BRANCH  61  86
ATOM     86  C   UNL A   1      44.647  34.960  29.241  1.00  0.00     0.058 A 
ATOM     87  C   UNL A   1      45.254  35.462  30.402  1.00  0.00     0.135 A 
ATOM     88  C   UNL A   1      44.557  35.810  28.127  1.00  0.00     0.135 A 
ATOM     89  F   UNL A   1      45.365  34.690  31.495  1.00  0.00    -0.206 F 
ATOM     90  C   UNL A   1      45.715  36.773  30.470  1.00  0.00     0.059 A 
ATOM     91  C   UNL A   1      45.037  37.114  28.164  1.00  0.00     0.059 A 
ATOM     92  F   UNL A   1      44.001  35.373  26.986  1.00  0.00    -0.206 F 
ATOM     93  C   UNL A   1      45.595  37.594  29.347  1.00  0.00     0.060 A 
BRANCH  93  94
ATOM     94  S   UNL A   1      46.188  39.296  29.448  1.00  0.00     0.124 S 
ATOM     95  O   UNL A   1      47.512  39.181  28.847  1.00  0.00    -0.237 OA
ATOM     96  O   UNL A   1      45.195  40.022  28.661  1.00  0.00    -0.237 OA
ATOM     97  O   UNL A   1      46.169  39.576  30.880  1.00  0.00    -0.744 OA
ENDBRANCH  93  94
ENDBRANCH  61  86
ENDBRANCH  35  36
ENDBRANCH  28  30
ENDBRANCH  27  28
ENDBRANCH  26  27
ENDBRANCH  25  26
ENDBRANCH   1  25
TORSDOF 25
ENDMDL
MODEL 3
REMARK VINA RESULT:      -9.9      2.729      9.214
REMARK SMILES CCCC[C@@H](C(=O)OCCOCCOC(=O)c1ccc(-c2c3nc(c(-c4c(F)cc(S(=O)(=O)[O-])cc4F)c4ccc([nH]4)c(-c4c(F)cc(S(=O)(=O)[O-])cc4F)c4nc(c(-c5c(F)cc(S(=O)(=O)[O-])cc5F)c5ccc2[nH]5)C=C4)C=C3)cc1)[C@H](O)c1ccc(OC)c(O)c1
REMARK SMILES IDX 11 1 10 2 9 3 8 4 6 5 7 6 5 7 4 8 3 9 2 10 1 11 83 12 85 13
REMARK SMILES IDX 86 14 93 15 87 16 91 17 88 18 92 19 89 21 90 22 84 23 12 25
REMARK SMILES IDX 13 26 14 27 15 28 16 29 17 30 18 31 82 32 19 33 81 34 20 35
REMARK SMILES IDX 21 36 22 37 75 38 23 39 80 40 74 41 76 42 24 43 79 44 73 45
REMARK SMILES IDX 72 46 25 48 59 49 38 50 58 51 39 52 42 53 57 54 77 55 40 56
REMARK SMILES IDX 41 57 56 59 78 60 43 61 26 62 27 63 36 64 28 65 29 66 35 67
REMARK SMILES IDX 37 68 30 69 31 70 32 71 33 72 34 73 60 74 61 75 70 76 62 77
REMARK SMILES IDX 63 78 69 79 71 80 64 81 65 82 66 83 67 84 68 85 44 86 45 87
REMARK SMILES IDX 54 88 46 89 47 90 53 91 55 92 48 93 49 94 50 95 51 96 52 97
REMARK H PARENT 92 20 84 24 76 47 42 58
REMARK Flexibility Score: inf
ROOT
ATOM      1  O   UNL A   1      36.727  22.386  25.074  1.00  0.00    -0.374 OA
ENDROOT
BRANCH   1   2
ATOM      2  C   UNL A   1      35.518  22.346  25.838  1.00  0.00     0.202 C 
BRANCH   2   3
ATOM      3  C   UNL A   1      34.261  22.821  25.104  1.00  0.00     0.261 C 
BRANCH   3   4
ATOM      4  O   UNL A   1      34.250  24.261  25.004  1.00  0.00    -0.463 OA
BRANCH   4   5
ATOM      5  C   UNL A   1      34.006  24.795  23.780  1.00  0.00     0.312 C 
ATOM      6  O   UNL A   1      34.403  24.310  22.728  1.00  0.00    -0.252 OA
BRANCH   5   7
ATOM      7  C   UNL A   1      33.221  26.094  23.879  1.00  0.00     0.132 C 
BRANCH   7   8
ATOM      8  C   UNL A   1      33.194  26.784  25.267  1.00  0.00     0.018 C 
BRANCH   8   9
ATOM      9  C   UNL A   1      33.873  28.157  25.396  1.00  0.00     0.001 C 
BRANCH   9  10
ATOM     10  C   UNL A   1      33.993  28.730  26.805  1.00  0.00    -0.003 C 
ATOM     11  C   UNL A   1      32.896  29.723  27.156  1.00  0.00     0.004 C 
ENDBRANCH   9  10
ENDBRANCH   8   9
ENDBRANCH   7   8
BRANCH   7  12
ATOM     12  C   UNL A   1      31.803  25.866  23.276  1.00  0.00     0.159 C 
BRANCH  12  13
ATOM     13  C   UNL A   1      30.764  26.978  23.146  1.00  0.00    -0.015 A 
ATOM     14  C   UNL A   1      29.471  26.719  23.635  1.00  0.00     0.010 A 
ATOM     15  C   UNL A   1      30.970  28.215  22.526  1.00  0.00     0.056 A 
ATOM     16  C   UNL A   1      28.443  27.660  23.514  1.00  0.00     0.051 A 
ATOM     17  C   UNL A   1      29.940  29.167  22.413  1.00  0.00     0.158 A 
ATOM     18  C   UNL A   1      28.664  28.898  22.907  1.00  0.00     0.160 A 
BRANCH  17  19
ATOM     19  O   UNL A   1      30.220  30.352  21.788  1.00  0.00    -0.504 OA
ATOM     20  H   UNL A   1      29.708  31.113  21.974  1.00  0.00     0.293 HD
ENDBRANCH  17  19
BRANCH  18  21
ATOM     21  O   UNL A   1      27.548  29.688  22.868  1.00  0.00    -0.493 OA
ATOM     22  C   UNL A   1      27.656  31.022  23.344  1.00  0.00     0.278 C 
ENDBRANCH  18  21
ENDBRANCH  12  13
BRANCH  12  23
ATOM     23  O   UNL A   1      31.975  25.265  21.981  1.00  0.00    -0.388 OA
ATOM     24  H   UNL A   1      31.192  25.438  21.436  1.00  0.00     0.211 HD
ENDBRANCH  12  23
ENDBRANCH   7  12
ENDBRANCH   5   7
ENDBRANCH   4   5
ENDBRANCH   3   4
ENDBRANCH   2   3
ENDBRANCH   1   2
BRANCH   1  25
ATOM     25  C   UNL A   1      37.675  21.355  25.328  1.00  0.00     0.202 C 
BRANCH  25  26
ATOM     26  C   UNL A   1      38.950  21.778  26.064  1.00  0.00     0.261 C 
BRANCH  26  27
ATOM     27  O   UNL A   1      39.041  23.204  26.201  1.00  0.00    -0.460 OA
BRANCH  27  28
ATOM     28  C   UNL A   1      40.263  23.633  26.597  1.00  0.00     0.338 C 
ATOM     29  O   UNL A   1      41.343  23.133  26.306  1.00  0.00    -0.246 OA
BRANCH  28  30
ATOM     30  C   UNL A   1      40.164  24.915  27.316  1.00  0.00     0.060 A 
ATOM     31  C   UNL A   1      40.988  25.952  26.864  1.00  0.00     0.016 A 
ATOM     32  C   UNL A   1      39.367  25.083  28.452  1.00  0.00     0.016 A 
ATOM     33  C   UNL A   1      41.089  27.129  27.597  1.00  0.00     0.010 A 
ATOM     34  C   UNL A   1      39.472  26.270  29.190  1.00  0.00     0.010 A 
ATOM     35  C   UNL A   1      40.376  27.273  28.794  1.00  0.00    -0.014 A 
BRANCH  35  36
ATOM     36  C   UNL A   1      40.748  28.385  29.702  1.00  0.00     0.031 A 
ATOM     37  C   UNL A   1      39.790  29.536  29.868  1.00  0.00     0.074 A 
ATOM     38  C   UNL A   1      41.870  28.324  30.443  1.00  0.00     0.049 A 
ATOM     39  N   UNL A   1      39.866  30.570  30.664  1.00  0.00    -0.248 NA
ATOM     40  C   UNL A   1      38.583  29.517  29.025  1.00  0.00     0.031 C 
ATOM     41  C   UNL A   1      42.859  27.248  30.389  1.00  0.00     0.029 A 
ATOM     42  N   UNL A   1      42.357  29.184  31.394  1.00  0.00    -0.354 N 
ATOM     43  C   UNL A   1      38.723  31.323  30.419  1.00  0.00     0.074 A 
ATOM     44  C   UNL A   1      37.986  30.647  29.374  1.00  0.00     0.031 C 
ATOM     45  C   UNL A   1      43.838  27.513  31.273  1.00  0.00     0.029 A 
ATOM     46  C   UNL A   1      43.551  28.781  31.943  1.00  0.00     0.049 A 
ATOM     47  H   UNL A   1      41.895  30.011  31.659  1.00  0.00     0.167 HD
ATOM     48  C   UNL A   1      38.315  32.466  31.020  1.00  0.00     0.037 A 
ATOM     49  C   UNL A   1      44.324  29.371  32.876  1.00  0.00     0.037 A 
ATOM     50  C   UNL A   1      39.042  33.130  32.070  1.00  0.00     0.049 A 
ATOM     51  C   UNL A   1      43.857  30.652  33.517  1.00  0.00     0.074 A 
ATOM     52  C   UNL A   1      38.705  34.285  32.753  1.00  0.00     0.029 A 
ATOM     53  N   UNL A   1      40.252  32.697  32.590  1.00  0.00    -0.354 N 
ATOM     54  N   UNL A   1      42.761  31.338  33.291  1.00  0.00    -0.248 NA
ATOM     55  C   UNL A   1      44.723  31.230  34.553  1.00  0.00     0.031 C 
ATOM     56  C   UNL A   1      39.732  34.572  33.660  1.00  0.00     0.029 A 
ATOM     57  C   UNL A   1      40.683  33.568  33.575  1.00  0.00     0.049 A 
ATOM     58  H   UNL A   1      40.734  31.888  32.300  1.00  0.00     0.167 HD
ATOM     59  C   UNL A   1      42.791  32.409  34.179  1.00  0.00     0.074 A 
ATOM     60  C   UNL A   1      44.008  32.273  34.953  1.00  0.00     0.031 C 
ATOM     61  C   UNL A   1      41.893  33.413  34.343  1.00  0.00     0.037 A 
BRANCH  48  62
ATOM     62  C   UNL A   1      37.030  33.084  30.544  1.00  0.00     0.058 A 
ATOM     63  C   UNL A   1      35.826  32.929  31.252  1.00  0.00     0.135 A 
ATOM     64  C   UNL A   1      37.008  33.874  29.383  1.00  0.00     0.135 A 
ATOM     65  F   UNL A   1      35.786  32.165  32.356  1.00  0.00    -0.206 F 
ATOM     66  C   UNL A   1      34.645  33.520  30.817  1.00  0.00     0.059 A 
ATOM     67  C   UNL A   1      35.843  34.496  28.943  1.00  0.00     0.059 A 
ATOM     68  F   UNL A   1      38.129  34.050  28.666  1.00  0.00    -0.206 F 
ATOM     69  C   UNL A   1      34.664  34.304  29.661  1.00  0.00     0.060 A 
BRANCH  69  70
ATOM     70  S   UNL A   1      33.127  35.079  29.116  1.00  0.00     0.124 S 
ATOM     71  O   UNL A   1      33.616  36.340  28.568  1.00  0.00    -0.237 OA
ATOM     72  O   UNL A   1      32.621  34.118  28.141  1.00  0.00    -0.237 OA
ATOM     73  O   UNL A   1      32.348  35.189  30.345  1.00  0.00    -0.744 OA
ENDBRANCH  69  70
ENDBRANCH  48  62
BRANCH  49  74
ATOM     74  C   UNL A   1      45.620  28.755  33.266  1.00  0.00     0.058 A 
ATOM     75  C   UNL A   1      45.710  27.857  34.340  1.00  0.00     0.135 A 
ATOM     76  C   UNL A   1      46.801  29.069  32.576  1.00  0.00     0.135 A 
ATOM     77  F   UNL A   1      44.609  27.531  35.036  1.00  0.00    -0.206 F 
ATOM     78  C   UNL A   1      46.927  27.308  34.731  1.00  0.00     0.059 A 
ATOM     79  C   UNL A   1      48.025  28.514  32.932  1.00  0.00     0.059 A 
ATOM     80  F   UNL A   1      46.767  29.913  31.533  1.00  0.00    -0.206 F 
ATOM     81  C   UNL A   1      48.081  27.645  34.020  1.00  0.00     0.060 A 
BRANCH  81  82
ATOM     82  S   UNL A   1      49.652  26.902  34.510  1.00  0.00     0.124 S 
ATOM     83  O   UNL A   1      49.258  25.524  34.771  1.00  0.00    -0.237 OA
ATOM     84  O   UNL A   1      50.478  27.120  33.326  1.00  0.00    -0.237 OA
ATOM     85  O   UNL A   1      50.038  27.682  35.684  1.00  0.00    -0.744 OA
ENDBRANCH  81  82
ENDBRANCH  49  74
BRANCH  61  86
ATOM     86  C   UNL A   1      42.169  34.413  35.433  1.00  0.00     0.058 A 
ATOM     87  C   UNL A   1      42.884  35.596  35.189  1.00  0.00     0.135 A 
ATOM     88  C   UNL A   1      41.693  34.190  36.734  1.00  0.00     0.135 A 
ATOM     89  F   UNL A   1      43.361  35.857  33.962  1.00  0.00    -0.206 F 
ATOM     90  C   UNL A   1      43.155  36.503  36.208  1.00  0.00     0.059 A 
ATOM     91  C   UNL A   1      41.927  35.098  37.762  1.00  0.00     0.059 A 
ATOM     92  F   UNL A   1      40.988  33.083  37.017  1.00  0.00    -0.206 F 
ATOM     93  C   UNL A   1      42.677  36.241  37.494  1.00  0.00     0.060 A 
BRANCH  93  94
ATOM     94  S   UNL A   1      43.040  37.419  38.813  1.00  0.00     0.124 S 
ATOM     95  O   UNL A   1      43.891  38.381  38.121  1.00  0.00    -0.237 OA
ATOM     96  O   UNL A   1      41.711  37.897  39.183  1.00  0.00    -0.237 OA
ATOM     97  O   UNL A   1      43.707  36.601  39.822  1.00  0.00    -0.744 OA
ENDBRANCH  93  94
ENDBRANCH  61  86
ENDBRANCH  35  36
ENDBRANCH  28  30
ENDBRANCH  27  28
ENDBRANCH  26  27
ENDBRANCH  25  26
ENDBRANCH   1  25
TORSDOF 25
ENDMDL
