MODEL 1
REMARK VINA RESULT:     -11.5      0.000      0.000
REMARK SMILES COc1cc2c(cc1OC)[C@H](C(=O)OCCOCCOC(=O)c1ccc(-c3c4nc(c(-c5c(F)cc(S(=O)(=O)[O-])cc5F)c5ccc([nH]5)c(-c5c(F)cc(S(=O)(=O)[O-])cc5F)c5nc(c(-c6c(F)cc(S(=O)(=O)[O-])cc6F)c6ccc3[nH]6)C=C5)C=C4)cc1)[C@H](c1cccs1)N(C)C2=O
REMARK SMILES IDX 18 1 17 2 16 3 15 4 14 5 12 6 13 7 11 8 3 9 4 10 8 11 5 12
REMARK SMILES IDX 7 13 6 14 97 15 95 16 98 17 89 18 96 19 2 20 1 21 9 22 10 23
REMARK SMILES IDX 90 24 91 25 94 26 92 27 93 28 19 29 20 30 21 31 22 32 23 33
REMARK SMILES IDX 24 34 88 35 25 36 87 37 26 38 27 39 28 40 81 41 29 42 86 43
REMARK SMILES IDX 80 44 82 45 30 46 85 47 79 48 78 49 31 51 65 52 44 53 64 54
REMARK SMILES IDX 45 55 48 56 63 57 83 58 46 59 47 60 62 62 84 63 49 64 32 65
REMARK SMILES IDX 33 66 42 67 34 68 35 69 41 70 43 71 36 72 37 73 38 74 39 75
REMARK SMILES IDX 40 76 66 77 67 78 76 79 68 80 69 81 75 82 77 83 70 84 71 85
REMARK SMILES IDX 72 86 73 87 74 88 50 89 51 90 60 91 52 92 53 93 59 94 61 95
REMARK SMILES IDX 54 96 55 97 56 98 57 99 58 100
REMARK H PARENT 82 50 48 61
REMARK Flexibility Score: inf
ROOT
ATOM      1  C   UNL A   1      40.124  21.820  26.337  1.00  0.00     0.202 C 
ENDROOT
BRANCH   1   2
ATOM      2  O   UNL A   1      38.710  21.965  26.232  1.00  0.00    -0.374 OA
BRANCH   2   3
ATOM      3  C   UNL A   1      38.000  21.104  25.346  1.00  0.00     0.202 C 
BRANCH   3   4
ATOM      4  C   UNL A   1      37.258  21.732  24.162  1.00  0.00     0.261 C 
BRANCH   4   5
ATOM      5  O   UNL A   1      36.900  23.101  24.392  1.00  0.00    -0.463 OA
BRANCH   5   6
ATOM      6  C   UNL A   1      35.653  23.439  23.951  1.00  0.00     0.316 C 
ATOM      7  O   UNL A   1      35.321  23.456  22.773  1.00  0.00    -0.251 OA
BRANCH   6   8
ATOM      8  C   UNL A   1      34.759  23.851  25.112  1.00  0.00     0.158 C 
ATOM      9  C   UNL A   1      31.614  26.367  23.590  1.00  0.00     0.161 A 
ATOM     10  C   UNL A   1      31.411  25.604  24.755  1.00  0.00     0.064 A 
ATOM     11  C   UNL A   1      32.893  26.446  23.029  1.00  0.00     0.161 A 
ATOM     12  C   UNL A   1      32.457  24.857  25.309  1.00  0.00     0.048 A 
ATOM     13  C   UNL A   1      33.928  25.705  23.600  1.00  0.00     0.056 A 
ATOM     14  C   UNL A   1      33.698  24.832  24.670  1.00  0.00    -0.015 A 
ATOM     15  C   UNL A   1      32.243  24.077  26.564  1.00  0.00     0.254 C 
ATOM     16  N   UNL A   1      33.168  23.069  26.843  1.00  0.00    -0.333 N 
ATOM     17  O   UNL A   1      31.296  24.348  27.296  1.00  0.00    -0.269 OA
ATOM     18  C   UNL A   1      34.121  22.623  25.812  1.00  0.00     0.144 C 
ATOM     19  C   UNL A   1      33.000  22.271  28.046  1.00  0.00     0.147 C 
BRANCH   9  20
ATOM     20  O   UNL A   1      30.561  26.948  22.937  1.00  0.00    -0.493 OA
ATOM     21  C   UNL A   1      30.046  28.115  23.562  1.00  0.00     0.278 C 
ENDBRANCH   9  20
BRANCH  11  22
ATOM     22  O   UNL A   1      33.329  27.157  21.947  1.00  0.00    -0.493 OA
ATOM     23  C   UNL A   1      33.991  28.390  22.153  1.00  0.00     0.278 C 
ENDBRANCH  11  22
BRANCH  18  24
ATOM     24  C   UNL A   1      33.491  21.567  24.893  1.00  0.00     0.028 A 
ATOM     25  C   UNL A   1      33.744  20.201  24.897  1.00  0.00     0.017 A 
ATOM     26  S   UNL A   1      32.329  21.938  23.677  1.00  0.00    -0.147 S 
ATOM     27  C   UNL A   1      33.049  19.493  23.875  1.00  0.00     0.012 A 
ATOM     28  C   UNL A   1      32.230  20.321  23.149  1.00  0.00     0.065 A 
ENDBRANCH  18  24
ENDBRANCH   6   8
ENDBRANCH   5   6
ENDBRANCH   4   5
ENDBRANCH   3   4
ENDBRANCH   2   3
ENDBRANCH   1   2
BRANCH   1  29
ATOM     29  C   UNL A   1      41.004  23.060  26.506  1.00  0.00     0.261 C 
BRANCH  29  30
ATOM     30  O   UNL A   1      40.261  24.281  26.401  1.00  0.00    -0.460 OA
BRANCH  30  31
ATOM     31  C   UNL A   1      41.029  25.383  26.238  1.00  0.00     0.338 C 
ATOM     32  O   UNL A   1      41.456  25.835  25.182  1.00  0.00    -0.246 OA
BRANCH  31  33
ATOM     33  C   UNL A   1      41.133  26.115  27.508  1.00  0.00     0.060 A 
ATOM     34  C   UNL A   1      40.078  25.979  28.419  1.00  0.00     0.016 A 
ATOM     35  C   UNL A   1      42.196  26.983  27.764  1.00  0.00     0.016 A 
ATOM     36  C   UNL A   1      40.050  26.760  29.569  1.00  0.00     0.010 A 
ATOM     37  C   UNL A   1      42.159  27.777  28.911  1.00  0.00     0.010 A 
ATOM     38  C   UNL A   1      41.066  27.698  29.792  1.00  0.00    -0.014 A 
BRANCH  38  39
ATOM     39  C   UNL A   1      40.883  28.713  30.852  1.00  0.00     0.031 A 
ATOM     40  C   UNL A   1      41.758  28.644  32.071  1.00  0.00     0.074 A 
ATOM     41  C   UNL A   1      39.974  29.693  30.706  1.00  0.00     0.049 A 
ATOM     42  N   UNL A   1      41.760  29.405  33.133  1.00  0.00    -0.248 NA
ATOM     43  C   UNL A   1      42.768  27.571  32.099  1.00  0.00     0.031 C 
ATOM     44  C   UNL A   1      39.099  29.867  29.549  1.00  0.00     0.029 A 
ATOM     45  N   UNL A   1      39.634  30.721  31.546  1.00  0.00    -0.354 N 
ATOM     46  C   UNL A   1      42.756  28.897  33.960  1.00  0.00     0.074 A 
ATOM     47  C   UNL A   1      43.325  27.751  33.286  1.00  0.00     0.031 C 
ATOM     48  C   UNL A   1      38.304  30.931  29.760  1.00  0.00     0.029 A 
ATOM     49  C   UNL A   1      38.598  31.493  31.077  1.00  0.00     0.049 A 
ATOM     50  H   UNL A   1      40.087  30.890  32.404  1.00  0.00     0.167 HD
ATOM     51  C   UNL A   1      43.163  29.354  35.167  1.00  0.00     0.037 A 
ATOM     52  C   UNL A   1      37.949  32.520  31.660  1.00  0.00     0.037 A 
ATOM     53  C   UNL A   1      42.593  30.504  35.819  1.00  0.00     0.049 A 
ATOM     54  C   UNL A   1      38.394  32.986  33.021  1.00  0.00     0.074 A 
ATOM     55  C   UNL A   1      42.950  31.071  37.029  1.00  0.00     0.029 A 
ATOM     56  N   UNL A   1      41.541  31.257  35.319  1.00  0.00    -0.354 N 
ATOM     57  N   UNL A   1      39.360  32.518  33.778  1.00  0.00    -0.248 NA
ATOM     58  C   UNL A   1      37.667  34.120  33.606  1.00  0.00     0.031 C 
ATOM     59  C   UNL A   1      42.084  32.140  37.281  1.00  0.00     0.029 A 
ATOM     60  C   UNL A   1      41.220  32.269  36.205  1.00  0.00     0.049 A 
ATOM     61  H   UNL A   1      41.090  31.094  34.458  1.00  0.00     0.167 HD
ATOM     62  C   UNL A   1      39.372  33.317  34.916  1.00  0.00     0.074 A 
ATOM     63  C   UNL A   1      38.325  34.304  34.743  1.00  0.00     0.031 C 
ATOM     64  C   UNL A   1      40.177  33.245  36.007  1.00  0.00     0.037 A 
BRANCH  51  65
ATOM     65  C   UNL A   1      44.253  28.598  35.872  1.00  0.00     0.058 A 
ATOM     66  C   UNL A   1      45.608  28.918  35.697  1.00  0.00     0.135 A 
ATOM     67  C   UNL A   1      43.933  27.562  36.766  1.00  0.00     0.135 A 
ATOM     68  F   UNL A   1      45.970  29.884  34.838  1.00  0.00    -0.206 F 
ATOM     69  C   UNL A   1      46.611  28.227  36.373  1.00  0.00     0.059 A 
ATOM     70  C   UNL A   1      44.918  26.876  37.470  1.00  0.00     0.059 A 
ATOM     71  F   UNL A   1      42.653  27.211  36.963  1.00  0.00    -0.206 F 
ATOM     72  C   UNL A   1      46.254  27.209  37.259  1.00  0.00     0.060 A 
BRANCH  72  73
ATOM     73  S   UNL A   1      47.564  26.335  38.142  1.00  0.00     0.124 S 
ATOM     74  O   UNL A   1      47.863  25.247  37.216  1.00  0.00    -0.237 OA
ATOM     75  O   UNL A   1      48.594  27.361  38.267  1.00  0.00    -0.237 OA
ATOM     76  O   UNL A   1      46.925  25.937  39.392  1.00  0.00    -0.744 OA
ENDBRANCH  72  73
ENDBRANCH  51  65
BRANCH  52  77
ATOM     77  C   UNL A   1      36.802  33.160  30.967  1.00  0.00     0.058 A 
ATOM     78  C   UNL A   1      35.480  32.919  31.367  1.00  0.00     0.135 A 
ATOM     79  C   UNL A   1      37.008  34.033  29.886  1.00  0.00     0.135 A 
ATOM     80  F   UNL A   1      35.231  32.087  32.389  1.00  0.00    -0.206 F 
ATOM     81  C   UNL A   1      34.401  33.505  30.711  1.00  0.00     0.059 A 
ATOM     82  C   UNL A   1      35.948  34.651  29.231  1.00  0.00     0.059 A 
ATOM     83  F   UNL A   1      38.255  34.308  29.472  1.00  0.00    -0.206 F 
ATOM     84  C   UNL A   1      34.647  34.372  29.644  1.00  0.00     0.060 A 
BRANCH  84  85
ATOM     85  S   UNL A   1      33.243  35.160  28.826  1.00  0.00     0.124 S 
ATOM     86  O   UNL A   1      33.904  36.200  28.048  1.00  0.00    -0.237 OA
ATOM     87  O   UNL A   1      32.672  34.055  28.062  1.00  0.00    -0.237 OA
ATOM     88  O   UNL A   1      32.425  35.627  29.943  1.00  0.00    -0.744 OA
ENDBRANCH  84  85
ENDBRANCH  52  77
BRANCH  64  89
ATOM     89  C   UNL A   1      39.979  34.276  37.081  1.00  0.00     0.058 A 
ATOM     90  C   UNL A   1      40.517  35.568  36.972  1.00  0.00     0.135 A 
ATOM     91  C   UNL A   1      39.192  33.984  38.207  1.00  0.00     0.135 A 
ATOM     92  F   UNL A   1      41.280  35.895  35.917  1.00  0.00    -0.206 F 
ATOM     93  C   UNL A   1      40.300  36.528  37.954  1.00  0.00     0.059 A 
ATOM     94  C   UNL A   1      38.941  34.938  39.188  1.00  0.00     0.059 A 
ATOM     95  F   UNL A   1      38.645  32.768  38.353  1.00  0.00    -0.206 F 
ATOM     96  C   UNL A   1      39.510  36.203  39.058  1.00  0.00     0.060 A 
BRANCH  96  97
ATOM     97  S   UNL A   1      39.210  37.470  40.311  1.00  0.00     0.124 S 
ATOM     98  O   UNL A   1      38.305  38.370  39.606  1.00  0.00    -0.237 OA
ATOM     99  O   UNL A   1      38.618  36.699  41.400  1.00  0.00    -0.237 OA
ATOM    100  O   UNL A   1      40.542  38.001  40.581  1.00  0.00    -0.744 OA
ENDBRANCH  96  97
ENDBRANCH  64  89
ENDBRANCH  38  39
ENDBRANCH  31  33
ENDBRANCH  30  31
ENDBRANCH  29  30
ENDBRANCH   1  29
TORSDOF 20
ENDMDL
MODEL 2
REMARK VINA RESULT:     -10.9      0.793      8.081
REMARK SMILES COc1cc2c(cc1OC)[C@H](C(=O)OCCOCCOC(=O)c1ccc(-c3c4nc(c(-c5c(F)cc(S(=O)(=O)[O-])cc5F)c5ccc([nH]5)c(-c5c(F)cc(S(=O)(=O)[O-])cc5F)c5nc(c(-c6c(F)cc(S(=O)(=O)[O-])cc6F)c6ccc3[nH]6)C=C5)C=C4)cc1)[C@H](c1cccs1)N(C)C2=O
REMARK SMILES IDX 18 1 17 2 16 3 15 4 14 5 12 6 13 7 11 8 3 9 4 10 8 11 5 12
REMARK SMILES IDX 7 13 6 14 97 15 95 16 98 17 89 18 96 19 2 20 1 21 9 22 10 23
REMARK SMILES IDX 90 24 91 25 94 26 92 27 93 28 19 29 20 30 21 31 22 32 23 33
REMARK SMILES IDX 24 34 88 35 25 36 87 37 26 38 27 39 28 40 81 41 29 42 86 43
REMARK SMILES IDX 80 44 82 45 30 46 85 47 79 48 78 49 31 51 65 52 44 53 64 54
REMARK SMILES IDX 45 55 48 56 63 57 83 58 46 59 47 60 62 62 84 63 49 64 32 65
REMARK SMILES IDX 33 66 42 67 34 68 35 69 41 70 43 71 36 72 37 73 38 74 39 75
REMARK SMILES IDX 40 76 66 77 67 78 76 79 68 80 69 81 75 82 77 83 70 84 71 85
REMARK SMILES IDX 72 86 73 87 74 88 50 89 51 90 60 91 52 92 53 93 59 94 61 95
REMARK SMILES IDX 54 96 55 97 56 98 57 99 58 100
REMARK H PARENT 82 50 48 61
REMARK Flexibility Score: inf
ROOT
ATOM      1  C   UNL A   1      40.786  21.923  27.147  1.00  0.00     0.202 C 
ENDROOT
BRANCH   1   2
ATOM      2  O   UNL A   1      39.391  22.186  27.021  1.00  0.00    -0.374 OA
BRANCH   2   3
ATOM      3  C   UNL A   1      38.756  21.915  25.775  1.00  0.00     0.202 C 
BRANCH   3   4
ATOM      4  C   UNL A   1      37.592  22.813  25.343  1.00  0.00     0.261 C 
BRANCH   4   5
ATOM      5  O   UNL A   1      36.759  22.206  24.347  1.00  0.00    -0.463 OA
BRANCH   5   6
ATOM      6  C   UNL A   1      35.737  22.997  23.908  1.00  0.00     0.316 C 
ATOM      7  O   UNL A   1      35.578  23.330  22.741  1.00  0.00    -0.251 OA
BRANCH   6   8
ATOM      8  C   UNL A   1      34.867  23.458  25.070  1.00  0.00     0.158 C 
ATOM      9  C   UNL A   1      31.878  26.160  23.553  1.00  0.00     0.161 A 
ATOM     10  C   UNL A   1      31.629  25.407  24.715  1.00  0.00     0.064 A 
ATOM     11  C   UNL A   1      33.160  26.165  22.993  1.00  0.00     0.161 A 
ATOM     12  C   UNL A   1      32.629  24.598  25.267  1.00  0.00     0.048 A 
ATOM     13  C   UNL A   1      34.149  25.363  23.562  1.00  0.00     0.056 A 
ATOM     14  C   UNL A   1      33.867  24.501  24.629  1.00  0.00    -0.015 A 
ATOM     15  C   UNL A   1      32.368  23.828  26.520  1.00  0.00     0.254 C 
ATOM     16  N   UNL A   1      33.231  22.766  26.797  1.00  0.00    -0.333 N 
ATOM     17  O   UNL A   1      31.437  24.152  27.252  1.00  0.00    -0.269 OA
ATOM     18  C   UNL A   1      34.157  22.267  25.765  1.00  0.00     0.144 C 
ATOM     19  C   UNL A   1      33.015  21.976  27.997  1.00  0.00     0.147 C 
BRANCH   9  20
ATOM     20  O   UNL A   1      30.862  26.804  22.900  1.00  0.00    -0.493 OA
ATOM     21  C   UNL A   1      29.610  26.768  23.569  1.00  0.00     0.278 C 
ENDBRANCH   9  20
BRANCH  11  22
ATOM     22  O   UNL A   1      33.639  26.852  21.913  1.00  0.00    -0.493 OA
ATOM     23  C   UNL A   1      34.028  28.203  22.073  1.00  0.00     0.278 C 
ENDBRANCH  11  22
BRANCH  18  24
ATOM     24  C   UNL A   1      33.467  21.253  24.843  1.00  0.00     0.028 A 
ATOM     25  C   UNL A   1      32.721  21.533  23.705  1.00  0.00     0.017 A 
ATOM     26  S   UNL A   1      33.524  19.550  25.094  1.00  0.00    -0.147 S 
ATOM     27  C   UNL A   1      32.154  20.376  23.100  1.00  0.00     0.012 A 
ATOM     28  C   UNL A   1      32.528  19.227  23.750  1.00  0.00     0.065 A 
ENDBRANCH  18  24
ENDBRANCH   6   8
ENDBRANCH   5   6
ENDBRANCH   4   5
ENDBRANCH   3   4
ENDBRANCH   2   3
ENDBRANCH   1   2
BRANCH   1  29
ATOM     29  C   UNL A   1      41.788  22.726  26.314  1.00  0.00     0.261 C 
BRANCH  29  30
ATOM     30  O   UNL A   1      42.373  23.808  27.050  1.00  0.00    -0.460 OA
BRANCH  30  31
ATOM     31  C   UNL A   1      42.248  25.015  26.449  1.00  0.00     0.338 C 
ATOM     32  O   UNL A   1      42.353  25.257  25.253  1.00  0.00    -0.246 OA
BRANCH  31  33
ATOM     33  C   UNL A   1      41.757  26.008  27.415  1.00  0.00     0.060 A 
ATOM     34  C   UNL A   1      42.476  27.205  27.531  1.00  0.00     0.016 A 
ATOM     35  C   UNL A   1      40.671  25.738  28.250  1.00  0.00     0.016 A 
ATOM     36  C   UNL A   1      42.149  28.115  28.528  1.00  0.00     0.010 A 
ATOM     37  C   UNL A   1      40.353  26.647  29.261  1.00  0.00     0.010 A 
ATOM     38  C   UNL A   1      41.118  27.815  29.428  1.00  0.00    -0.014 A 
BRANCH  38  39
ATOM     39  C   UNL A   1      40.967  28.640  30.646  1.00  0.00     0.031 A 
ATOM     40  C   UNL A   1      39.897  29.695  30.670  1.00  0.00     0.074 A 
ATOM     41  C   UNL A   1      41.751  28.425  31.716  1.00  0.00     0.049 A 
ATOM     42  N   UNL A   1      39.598  30.550  31.612  1.00  0.00    -0.248 NA
ATOM     43  C   UNL A   1      39.048  29.802  29.470  1.00  0.00     0.031 C 
ATOM     44  C   UNL A   1      42.797  27.407  31.806  1.00  0.00     0.029 A 
ATOM     45  N   UNL A   1      41.793  29.060  32.929  1.00  0.00    -0.354 N 
ATOM     46  C   UNL A   1      38.540  31.304  31.116  1.00  0.00     0.074 A 
ATOM     47  C   UNL A   1      38.261  30.820  29.782  1.00  0.00     0.031 C 
ATOM     48  C   UNL A   1      43.393  27.500  33.007  1.00  0.00     0.029 A 
ATOM     49  C   UNL A   1      42.788  28.599  33.757  1.00  0.00     0.049 A 
ATOM     50  H   UNL A   1      41.169  29.779  33.184  1.00  0.00     0.167 HD
ATOM     51  C   UNL A   1      37.861  32.303  31.724  1.00  0.00     0.037 A 
ATOM     52  C   UNL A   1      43.178  29.034  34.971  1.00  0.00     0.037 A 
ATOM     53  C   UNL A   1      38.144  32.767  33.057  1.00  0.00     0.049 A 
ATOM     54  C   UNL A   1      42.431  30.174  35.612  1.00  0.00     0.074 A 
ATOM     55  C   UNL A   1      37.498  33.752  33.781  1.00  0.00     0.029 A 
ATOM     56  N   UNL A   1      39.164  32.281  33.863  1.00  0.00    -0.354 N 
ATOM     57  N   UNL A   1      41.411  30.857  35.146  1.00  0.00    -0.248 NA
ATOM     58  C   UNL A   1      42.882  30.600  36.943  1.00  0.00     0.031 C 
ATOM     59  C   UNL A   1      38.155  33.894  35.008  1.00  0.00     0.029 A 
ATOM     60  C   UNL A   1      39.180  32.962  35.067  1.00  0.00     0.049 A 
ATOM     61  H   UNL A   1      39.784  31.557  33.614  1.00  0.00     0.167 HD
ATOM     62  C   UNL A   1      41.083  31.775  36.137  1.00  0.00     0.074 A 
ATOM     63  C   UNL A   1      42.006  31.553  37.232  1.00  0.00     0.031 C 
ATOM     64  C   UNL A   1      40.105  32.717  36.145  1.00  0.00     0.037 A 
BRANCH  51  65
ATOM     65  C   UNL A   1      36.767  32.980  30.949  1.00  0.00     0.058 A 
ATOM     66  C   UNL A   1      35.410  32.762  31.237  1.00  0.00     0.135 A 
ATOM     67  C   UNL A   1      37.081  33.892  29.927  1.00  0.00     0.135 A 
ATOM     68  F   UNL A   1      35.054  31.884  32.188  1.00  0.00    -0.206 F 
ATOM     69  C   UNL A   1      34.403  33.412  30.528  1.00  0.00     0.059 A 
ATOM     70  C   UNL A   1      36.091  34.571  29.224  1.00  0.00     0.059 A 
ATOM     71  F   UNL A   1      38.362  34.131  29.607  1.00  0.00    -0.206 F 
ATOM     72  C   UNL A   1      34.755  34.316  29.525  1.00  0.00     0.060 A 
BRANCH  72  73
ATOM     73  S   UNL A   1      33.438  35.165  28.628  1.00  0.00     0.124 S 
ATOM     74  O   UNL A   1      34.172  36.260  28.002  1.00  0.00    -0.237 OA
ATOM     75  O   UNL A   1      32.956  34.127  27.723  1.00  0.00    -0.237 OA
ATOM     76  O   UNL A   1      32.506  35.555  29.681  1.00  0.00    -0.744 OA
ENDBRANCH  72  73
ENDBRANCH  51  65
BRANCH  52  77
ATOM     77  C   UNL A   1      44.341  28.403  35.646  1.00  0.00     0.058 A 
ATOM     78  C   UNL A   1      44.173  27.343  36.550  1.00  0.00     0.135 A 
ATOM     79  C   UNL A   1      45.649  28.848  35.398  1.00  0.00     0.135 A 
ATOM     80  F   UNL A   1      42.942  26.887  36.826  1.00  0.00    -0.206 F 
ATOM     81  C   UNL A   1      45.257  26.759  37.197  1.00  0.00     0.059 A 
ATOM     82  C   UNL A   1      46.752  28.262  36.012  1.00  0.00     0.059 A 
ATOM     83  F   UNL A   1      45.865  29.850  34.531  1.00  0.00    -0.206 F 
ATOM     84  C   UNL A   1      46.544  27.225  36.919  1.00  0.00     0.060 A 
BRANCH  84  85
ATOM     85  S   UNL A   1      47.949  26.432  37.731  1.00  0.00     0.124 S 
ATOM     86  O   UNL A   1      47.323  25.250  38.311  1.00  0.00    -0.237 OA
ATOM     87  O   UNL A   1      48.856  26.193  36.613  1.00  0.00    -0.237 OA
ATOM     88  O   UNL A   1      48.397  27.443  38.686  1.00  0.00    -0.744 OA
ENDBRANCH  84  85
ENDBRANCH  52  77
BRANCH  64  89
ATOM     89  C   UNL A   1      39.964  33.556  37.384  1.00  0.00     0.058 A 
ATOM     90  C   UNL A   1      39.063  33.218  38.405  1.00  0.00     0.135 A 
ATOM     91  C   UNL A   1      40.785  34.680  37.576  1.00  0.00     0.135 A 
ATOM     92  F   UNL A   1      38.254  32.155  38.267  1.00  0.00    -0.206 F 
ATOM     93  C   UNL A   1      38.962  33.979  39.564  1.00  0.00     0.059 A 
ATOM     94  C   UNL A   1      40.718  35.440  38.739  1.00  0.00     0.059 A 
ATOM     95  F   UNL A   1      41.672  35.038  36.636  1.00  0.00    -0.206 F 
ATOM     96  C   UNL A   1      39.795  35.088  39.722  1.00  0.00     0.060 A 
BRANCH  96  97
ATOM     97  S   UNL A   1      39.677  36.050  41.246  1.00  0.00     0.124 S 
ATOM     98  O   UNL A   1      40.479  35.246  42.162  1.00  0.00    -0.237 OA
ATOM     99  O   UNL A   1      40.254  37.331  40.854  1.00  0.00    -0.237 OA
ATOM    100  O   UNL A   1      38.244  36.073  41.522  1.00  0.00    -0.744 OA
ENDBRANCH  96  97
ENDBRANCH  64  89
ENDBRANCH  38  39
ENDBRANCH  31  33
ENDBRANCH  30  31
ENDBRANCH  29  30
ENDBRANCH   1  29
TORSDOF 20
ENDMDL
MODEL 3
REMARK VINA RESULT:     -10.9      6.185     11.743
REMARK SMILES COc1cc2c(cc1OC)[C@H](C(=O)OCCOCCOC(=O)c1ccc(-c3c4nc(c(-c5c(F)cc(S(=O)(=O)[O-])cc5F)c5ccc([nH]5)c(-c5c(F)cc(S(=O)(=O)[O-])cc5F)c5nc(c(-c6c(F)cc(S(=O)(=O)[O-])cc6F)c6ccc3[nH]6)C=C5)C=C4)cc1)[C@H](c1cccs1)N(C)C2=O
REMARK SMILES IDX 18 1 17 2 16 3 15 4 14 5 12 6 13 7 11 8 3 9 4 10 8 11 5 12
REMARK SMILES IDX 7 13 6 14 97 15 95 16 98 17 89 18 96 19 2 20 1 21 9 22 10 23
REMARK SMILES IDX 90 24 91 25 94 26 92 27 93 28 19 29 20 30 21 31 22 32 23 33
REMARK SMILES IDX 24 34 88 35 25 36 87 37 26 38 27 39 28 40 81 41 29 42 86 43
REMARK SMILES IDX 80 44 82 45 30 46 85 47 79 48 78 49 31 51 65 52 44 53 64 54
REMARK SMILES IDX 45 55 48 56 63 57 83 58 46 59 47 60 62 62 84 63 49 64 32 65
REMARK SMILES IDX 33 66 42 67 34 68 35 69 41 70 43 71 36 72 37 73 38 74 39 75
REMARK SMILES IDX 40 76 66 77 67 78 76 79 68 80 69 81 75 82 77 83 70 84 71 85
REMARK SMILES IDX 72 86 73 87 74 88 50 89 51 90 60 91 52 92 53 93 59 94 61 95
REMARK SMILES IDX 54 96 55 97 56 98 57 99 58 100
REMARK H PARENT 82 50 48 61
REMARK Flexibility Score: inf
ROOT
ATOM      1  C   UNL A   1      34.812  31.403  27.910  1.00  0.00     0.202 C 
ENDROOT
BRANCH   1   2
ATOM      2  O   UNL A   1      33.526  31.058  27.400  1.00  0.00    -0.374 OA
BRANCH   2   3
ATOM      3  C   UNL A   1      33.187  29.679  27.284  1.00  0.00     0.202 C 
BRANCH   3   4
ATOM      4  C   UNL A   1      33.824  28.868  26.152  1.00  0.00     0.261 C 
BRANCH   4   5
ATOM      5  O   UNL A   1      33.993  27.483  26.484  1.00  0.00    -0.463 OA
BRANCH   5   6
ATOM      6  C   UNL A   1      33.017  26.664  25.997  1.00  0.00     0.316 C 
ATOM      7  O   UNL A   1      31.953  26.451  26.563  1.00  0.00    -0.251 OA
BRANCH   6   8
ATOM      8  C   UNL A   1      33.456  26.004  24.697  1.00  0.00     0.158 C 
ATOM      9  C   UNL A   1      32.451  21.822  24.875  1.00  0.00     0.161 A 
ATOM     10  C   UNL A   1      32.537  22.479  23.634  1.00  0.00     0.064 A 
ATOM     11  C   UNL A   1      32.866  22.482  26.037  1.00  0.00     0.161 A 
ATOM     12  C   UNL A   1      32.955  23.812  23.561  1.00  0.00     0.048 A 
ATOM     13  C   UNL A   1      33.291  23.807  25.946  1.00  0.00     0.056 A 
ATOM     14  C   UNL A   1      33.240  24.510  24.736  1.00  0.00    -0.015 A 
ATOM     15  C   UNL A   1      33.076  24.492  22.236  1.00  0.00     0.254 C 
ATOM     16  N   UNL A   1      33.109  25.888  22.247  1.00  0.00    -0.333 N 
ATOM     17  O   UNL A   1      33.154  23.821  21.212  1.00  0.00    -0.269 OA
ATOM     18  C   UNL A   1      32.754  26.635  23.466  1.00  0.00     0.144 C 
ATOM     19  C   UNL A   1      33.214  26.600  20.985  1.00  0.00     0.147 C 
BRANCH   9  20
ATOM     20  O   UNL A   1      31.870  20.587  24.980  1.00  0.00    -0.493 OA
ATOM     21  C   UNL A   1      32.780  19.522  25.220  1.00  0.00     0.278 C 
ENDBRANCH   9  20
BRANCH  11  22
ATOM     22  O   UNL A   1      32.920  22.030  27.326  1.00  0.00    -0.493 OA
ATOM     23  C   UNL A   1      34.181  21.883  27.952  1.00  0.00     0.278 C 
ENDBRANCH  11  22
BRANCH  18  24
ATOM     24  C   UNL A   1      31.236  26.832  23.575  1.00  0.00     0.028 A 
ATOM     25  C   UNL A   1      30.283  25.851  23.820  1.00  0.00     0.017 A 
ATOM     26  S   UNL A   1      30.463  28.362  23.406  1.00  0.00    -0.147 S 
ATOM     27  C   UNL A   1      28.947  26.341  23.797  1.00  0.00     0.012 A 
ATOM     28  C   UNL A   1      28.906  27.698  23.597  1.00  0.00     0.065 A 
ENDBRANCH  18  24
ENDBRANCH   6   8
ENDBRANCH   5   6
ENDBRANCH   4   5
ENDBRANCH   3   4
ENDBRANCH   2   3
ENDBRANCH   1   2
BRANCH   1  29
ATOM     29  C   UNL A   1      34.940  31.966  29.328  1.00  0.00     0.261 C 
BRANCH  29  30
ATOM     30  O   UNL A   1      35.737  31.135  30.180  1.00  0.00    -0.460 OA
BRANCH  30  31
ATOM     31  C   UNL A   1      36.906  31.699  30.564  1.00  0.00     0.338 C 
ATOM     32  O   UNL A   1      37.050  32.678  31.286  1.00  0.00    -0.246 OA
BRANCH  31  33
ATOM     33  C   UNL A   1      38.033  30.848  30.156  1.00  0.00     0.060 A 
ATOM     34  C   UNL A   1      39.001  30.551  31.125  1.00  0.00     0.016 A 
ATOM     35  C   UNL A   1      38.184  30.423  28.835  1.00  0.00     0.016 A 
ATOM     36  C   UNL A   1      40.160  29.877  30.761  1.00  0.00     0.010 A 
ATOM     37  C   UNL A   1      39.356  29.760  28.468  1.00  0.00     0.010 A 
ATOM     38  C   UNL A   1      40.363  29.525  29.421  1.00  0.00    -0.014 A 
BRANCH  38  39
ATOM     39  C   UNL A   1      41.706  29.073  28.995  1.00  0.00     0.031 A 
ATOM     40  C   UNL A   1      42.827  30.075  28.974  1.00  0.00     0.074 A 
ATOM     41  C   UNL A   1      41.920  27.788  28.667  1.00  0.00     0.049 A 
ATOM     42  N   UNL A   1      44.073  29.916  28.613  1.00  0.00    -0.248 NA
ATOM     43  C   UNL A   1      42.499  31.441  29.418  1.00  0.00     0.031 C 
ATOM     44  C   UNL A   1      40.909  26.732  28.686  1.00  0.00     0.029 A 
ATOM     45  N   UNL A   1      43.061  27.156  28.246  1.00  0.00    -0.354 N 
ATOM     46  C   UNL A   1      44.674  31.159  28.772  1.00  0.00     0.074 A 
ATOM     47  C   UNL A   1      43.652  32.069  29.243  1.00  0.00     0.031 C 
ATOM     48  C   UNL A   1      41.472  25.583  28.273  1.00  0.00     0.029 A 
ATOM     49  C   UNL A   1      42.873  25.831  27.937  1.00  0.00     0.049 A 
ATOM     50  H   UNL A   1      43.933  27.609  28.171  1.00  0.00     0.167 HD
ATOM     51  C   UNL A   1      45.963  31.505  28.553  1.00  0.00     0.037 A 
ATOM     52  C   UNL A   1      43.731  24.931  27.419  1.00  0.00     0.037 A 
ATOM     53  C   UNL A   1      46.971  30.585  28.095  1.00  0.00     0.049 A 
ATOM     54  C   UNL A   1      45.151  25.349  27.146  1.00  0.00     0.074 A 
ATOM     55  C   UNL A   1      48.314  30.824  27.869  1.00  0.00     0.029 A 
ATOM     56  N   UNL A   1      46.742  29.253  27.785  1.00  0.00    -0.354 N 
ATOM     57  N   UNL A   1      45.716  26.520  27.332  1.00  0.00    -0.248 NA
ATOM     58  C   UNL A   1      46.053  24.327  26.599  1.00  0.00     0.031 C 
ATOM     59  C   UNL A   1      48.889  29.646  27.379  1.00  0.00     0.029 A 
ATOM     60  C   UNL A   1      47.914  28.661  27.348  1.00  0.00     0.049 A 
ATOM     61  H   UNL A   1      45.873  28.795  27.866  1.00  0.00     0.167 HD
ATOM     62  C   UNL A   1      47.044  26.368  26.949  1.00  0.00     0.074 A 
ATOM     63  C   UNL A   1      47.201  24.989  26.532  1.00  0.00     0.031 C 
ATOM     64  C   UNL A   1      48.046  27.283  26.944  1.00  0.00     0.037 A 
BRANCH  51  65
ATOM     65  C   UNL A   1      46.352  32.939  28.777  1.00  0.00     0.058 A 
ATOM     66  C   UNL A   1      46.246  33.903  27.762  1.00  0.00     0.135 A 
ATOM     67  C   UNL A   1      46.801  33.363  30.039  1.00  0.00     0.135 A 
ATOM     68  F   UNL A   1      45.844  33.547  26.531  1.00  0.00    -0.206 F 
ATOM     69  C   UNL A   1      46.587  35.234  27.985  1.00  0.00     0.059 A 
ATOM     70  C   UNL A   1      47.122  34.693  30.291  1.00  0.00     0.059 A 
ATOM     71  F   UNL A   1      46.927  32.480  31.042  1.00  0.00    -0.206 F 
ATOM     72  C   UNL A   1      47.022  35.618  29.255  1.00  0.00     0.060 A 
BRANCH  72  73
ATOM     73  S   UNL A   1      47.442  37.352  29.534  1.00  0.00     0.124 S 
ATOM     74  O   UNL A   1      46.186  38.014  29.195  1.00  0.00    -0.237 OA
ATOM     75  O   UNL A   1      47.802  37.363  30.948  1.00  0.00    -0.237 OA
ATOM     76  O   UNL A   1      48.545  37.589  28.609  1.00  0.00    -0.744 OA
ENDBRANCH  72  73
ENDBRANCH  51  65
BRANCH  52  77
ATOM     77  C   UNL A   1      43.264  23.554  27.109  1.00  0.00     0.058 A 
ATOM     78  C   UNL A   1      43.010  23.149  25.790  1.00  0.00     0.135 A 
ATOM     79  C   UNL A   1      43.064  22.613  28.131  1.00  0.00     0.135 A 
ATOM     80  F   UNL A   1      43.180  24.014  24.780  1.00  0.00    -0.206 F 
ATOM     81  C   UNL A   1      42.558  21.866  25.497  1.00  0.00     0.059 A 
ATOM     82  C   UNL A   1      42.637  21.316  27.861  1.00  0.00     0.059 A 
ATOM     83  F   UNL A   1      43.305  22.946  29.409  1.00  0.00    -0.206 F 
ATOM     84  C   UNL A   1      42.376  20.956  26.540  1.00  0.00     0.060 A 
BRANCH  84  85
ATOM     85  S   UNL A   1      41.830  19.281  26.145  1.00  0.00     0.124 S 
ATOM     86  O   UNL A   1      42.189  18.561  27.360  1.00  0.00    -0.237 OA
ATOM     87  O   UNL A   1      40.401  19.470  25.912  1.00  0.00    -0.237 OA
ATOM     88  O   UNL A   1      42.611  18.947  24.957  1.00  0.00    -0.744 OA
ENDBRANCH  84  85
ENDBRANCH  52  77
BRANCH  64  89
ATOM     89  C   UNL A   1      49.405  26.817  26.503  1.00  0.00     0.058 A 
ATOM     90  C   UNL A   1      50.250  26.094  27.358  1.00  0.00     0.135 A 
ATOM     91  C   UNL A   1      49.841  27.048  25.188  1.00  0.00     0.135 A 
ATOM     92  F   UNL A   1      49.881  25.851  28.626  1.00  0.00    -0.206 F 
ATOM     93  C   UNL A   1      51.492  25.636  26.932  1.00  0.00     0.059 A 
ATOM     94  C   UNL A   1      51.068  26.577  24.734  1.00  0.00     0.059 A 
ATOM     95  F   UNL A   1      49.065  27.724  24.327  1.00  0.00    -0.206 F 
ATOM     96  C   UNL A   1      51.892  25.882  25.618  1.00  0.00     0.060 A 
BRANCH  96  97
ATOM     97  S   UNL A   1      53.493  25.254  25.067  1.00  0.00     0.124 S 
ATOM     98  O   UNL A   1      53.456  25.566  23.643  1.00  0.00    -0.237 OA
ATOM     99  O   UNL A   1      54.429  26.040  25.865  1.00  0.00    -0.237 OA
ATOM    100  O   UNL A   1      53.434  23.835  25.401  1.00  0.00    -0.744 OA
ENDBRANCH  96  97
ENDBRANCH  64  89
ENDBRANCH  38  39
ENDBRANCH  31  33
ENDBRANCH  30  31
ENDBRANCH  29  30
ENDBRANCH   1  29
TORSDOF 20
ENDMDL
