MODEL 1
REMARK VINA RESULT:     -10.1      0.000      0.000
REMARK SMILES CC[C@]1(C(=O)OCCOCCOC(=O)c2ccc(-c3c4nc(c(-c5c(F)cc(S(=O)(=O)[O-])cc5F)c5ccc([nH]5)c(-c5c(F)cc(S(=O)(=O)[O-])cc5F)c5nc(c(-c6c(F)cc(S(=O)(=O)[O-])cc6F)c6ccc3[nH]6)C=C5)C=C4)cc2)CC[N@@H+](Cc2ccc(CC(C)C)cc2)C1
REMARK SMILES IDX 8 1 7 2 6 3 4 4 5 5 3 6 81 7 95 8 82 9 83 10 2 12 1 13 84 14
REMARK SMILES IDX 85 15 86 16 94 17 87 18 93 19 88 20 89 21 90 22 91 23 92 24
REMARK SMILES IDX 9 25 10 26 11 27 12 28 13 29 14 30 15 31 16 32 80 33 17 34
REMARK SMILES IDX 79 35 18 36 19 37 20 38 73 39 21 40 78 41 72 42 74 43 22 44
REMARK SMILES IDX 77 45 71 46 70 47 23 49 57 50 36 51 56 52 37 53 40 54 55 55
REMARK SMILES IDX 75 56 38 57 39 58 54 60 76 61 41 62 24 63 25 64 34 65 26 66
REMARK SMILES IDX 27 67 33 68 35 69 28 70 29 71 30 72 31 73 32 74 58 75 59 76
REMARK SMILES IDX 68 77 60 78 61 79 67 80 69 81 62 82 63 83 64 84 65 85 66 86
REMARK SMILES IDX 42 87 43 88 52 89 44 90 45 91 51 92 53 93 46 94 47 95 48 96
REMARK SMILES IDX 49 97 50 98
REMARK H PARENT 83 11 74 48 40 59
REMARK Flexibility Score: inf
ROOT
ATOM      1  C   UNL A   1      45.630  21.742  24.212  1.00  0.00     0.202 C 
ENDROOT
BRANCH   1   2
ATOM      2  C   UNL A   1      44.852  21.234  25.437  1.00  0.00     0.261 C 
BRANCH   2   3
ATOM      3  O   UNL A   1      43.499  21.729  25.379  1.00  0.00    -0.463 OA
BRANCH   3   4
ATOM      4  C   UNL A   1      42.511  20.883  25.758  1.00  0.00     0.318 C 
ATOM      5  O   UNL A   1      42.493  19.689  25.473  1.00  0.00    -0.251 OA
BRANCH   4   6
ATOM      6  C   UNL A   1      41.451  21.542  26.662  1.00  0.00     0.122 C 
ATOM      7  C   UNL A   1      41.052  22.981  26.298  1.00  0.00     0.086 C 
ATOM      8  C   UNL A   1      40.130  20.768  26.464  1.00  0.00     0.281 C 
ATOM      9  C   UNL A   1      39.570  23.067  26.622  1.00  0.00     0.263 C 
ATOM     10  N   UNL A   1      39.007  21.732  26.397  1.00  0.00    -0.330 N 
ATOM     11  H   UNL A   1      38.330  21.514  27.128  1.00  0.00     0.348 HD
BRANCH   6  12
ATOM     12  C   UNL A   1      42.038  21.523  28.106  1.00  0.00     0.021 C 
ATOM     13  C   UNL A   1      42.607  22.824  28.652  1.00  0.00     0.005 C 
ENDBRANCH   6  12
BRANCH  10  14
ATOM     14  C   UNL A   1      38.178  21.628  25.168  1.00  0.00     0.299 C 
BRANCH  14  15
ATOM     15  C   UNL A   1      37.010  22.582  25.141  1.00  0.00     0.006 A 
ATOM     16  C   UNL A   1      36.635  23.180  23.930  1.00  0.00     0.010 A 
ATOM     17  C   UNL A   1      36.162  22.633  26.252  1.00  0.00     0.010 A 
ATOM     18  C   UNL A   1      35.319  23.544  23.743  1.00  0.00     0.004 A 
ATOM     19  C   UNL A   1      34.856  23.012  26.073  1.00  0.00     0.004 A 
ATOM     20  C   UNL A   1      34.424  23.377  24.799  1.00  0.00    -0.048 A 
BRANCH  20  21
ATOM     21  C   UNL A   1      32.986  23.686  24.632  1.00  0.00     0.038 C 
BRANCH  21  22
ATOM     22  C   UNL A   1      32.196  22.489  25.113  1.00  0.00    -0.013 C 
ATOM     23  C   UNL A   1      30.956  23.052  25.874  1.00  0.00     0.008 C 
ATOM     24  C   UNL A   1      32.196  21.485  23.940  1.00  0.00     0.008 C 
ENDBRANCH  21  22
ENDBRANCH  20  21
ENDBRANCH  14  15
ENDBRANCH  10  14
ENDBRANCH   4   6
ENDBRANCH   3   4
ENDBRANCH   2   3
ENDBRANCH   1   2
BRANCH   1  25
ATOM     25  O   UNL A   1      45.471  23.140  23.954  1.00  0.00    -0.374 OA
BRANCH  25  26
ATOM     26  C   UNL A   1      46.227  24.005  24.798  1.00  0.00     0.202 C 
BRANCH  26  27
ATOM     27  C   UNL A   1      45.489  25.219  25.385  1.00  0.00     0.261 C 
BRANCH  27  28
ATOM     28  O   UNL A   1      44.258  24.916  26.082  1.00  0.00    -0.460 OA
BRANCH  28  29
ATOM     29  C   UNL A   1      43.216  25.753  25.818  1.00  0.00     0.338 C 
ATOM     30  O   UNL A   1      42.573  25.788  24.777  1.00  0.00    -0.246 OA
BRANCH  29  31
ATOM     31  C   UNL A   1      42.843  26.571  27.009  1.00  0.00     0.060 A 
ATOM     32  C   UNL A   1      41.744  26.164  27.774  1.00  0.00     0.016 A 
ATOM     33  C   UNL A   1      43.518  27.735  27.385  1.00  0.00     0.016 A 
ATOM     34  C   UNL A   1      41.353  26.877  28.928  1.00  0.00     0.010 A 
ATOM     35  C   UNL A   1      43.134  28.433  28.563  1.00  0.00     0.010 A 
ATOM     36  C   UNL A   1      42.071  27.995  29.392  1.00  0.00    -0.014 A 
BRANCH  36  37
ATOM     37  C   UNL A   1      41.517  28.833  30.545  1.00  0.00     0.031 A 
ATOM     38  C   UNL A   1      42.303  28.704  31.825  1.00  0.00     0.074 A 
ATOM     39  C   UNL A   1      40.460  29.703  30.560  1.00  0.00     0.049 A 
ATOM     40  N   UNL A   1      42.153  29.341  32.954  1.00  0.00    -0.248 NA
ATOM     41  C   UNL A   1      43.391  27.708  31.833  1.00  0.00     0.031 C 
ATOM     42  C   UNL A   1      39.504  29.955  29.503  1.00  0.00     0.029 A 
ATOM     43  N   UNL A   1      39.970  30.565  31.536  1.00  0.00    -0.354 N 
ATOM     44  C   UNL A   1      43.130  28.836  33.794  1.00  0.00     0.074 A 
ATOM     45  C   UNL A   1      43.818  27.786  33.080  1.00  0.00     0.031 C 
ATOM     46  C   UNL A   1      38.592  30.871  29.814  1.00  0.00     0.029 A 
ATOM     47  C   UNL A   1      38.859  31.310  31.150  1.00  0.00     0.049 A 
ATOM     48  H   UNL A   1      40.377  30.642  32.430  1.00  0.00     0.167 HD
ATOM     49  C   UNL A   1      43.459  29.232  35.042  1.00  0.00     0.037 A 
ATOM     50  C   UNL A   1      38.089  32.245  31.739  1.00  0.00     0.037 A 
ATOM     51  C   UNL A   1      42.767  30.251  35.776  1.00  0.00     0.049 A 
ATOM     52  C   UNL A   1      38.458  32.652  33.117  1.00  0.00     0.074 A 
ATOM     53  C   UNL A   1      43.026  30.707  37.054  1.00  0.00     0.029 A 
ATOM     54  N   UNL A   1      41.669  30.960  35.310  1.00  0.00    -0.354 N 
ATOM     55  N   UNL A   1      39.430  32.185  33.858  1.00  0.00    -0.248 NA
ATOM     56  C   UNL A   1      37.652  33.703  33.740  1.00  0.00     0.031 C 
ATOM     57  C   UNL A   1      42.057  31.659  37.382  1.00  0.00     0.029 A 
ATOM     58  C   UNL A   1      41.231  31.841  36.285  1.00  0.00     0.049 A 
ATOM     59  H   UNL A   1      41.262  30.854  34.420  1.00  0.00     0.167 HD
ATOM     60  C   UNL A   1      39.364  32.897  35.039  1.00  0.00     0.074 A 
ATOM     61  C   UNL A   1      38.276  33.847  34.899  1.00  0.00     0.031 C 
ATOM     62  C   UNL A   1      40.136  32.764  36.140  1.00  0.00     0.037 A 
BRANCH  49  63
ATOM     63  C   UNL A   1      44.612  28.515  35.675  1.00  0.00     0.058 A 
ATOM     64  C   UNL A   1      45.938  28.936  35.473  1.00  0.00     0.135 A 
ATOM     65  C   UNL A   1      44.393  27.356  36.431  1.00  0.00     0.135 A 
ATOM     66  F   UNL A   1      46.199  30.013  34.715  1.00  0.00    -0.206 F 
ATOM     67  C   UNL A   1      47.011  28.208  35.970  1.00  0.00     0.059 A 
ATOM     68  C   UNL A   1      45.450  26.631  36.966  1.00  0.00     0.059 A 
ATOM     69  F   UNL A   1      43.145  26.902  36.629  1.00  0.00    -0.206 F 
ATOM     70  C   UNL A   1      46.755  27.055  36.715  1.00  0.00     0.060 A 
BRANCH  70  71
ATOM     71  S   UNL A   1      48.156  26.112  37.345  1.00  0.00     0.124 S 
ATOM     72  O   UNL A   1      47.591  24.768  37.422  1.00  0.00    -0.237 OA
ATOM     73  O   UNL A   1      49.162  26.319  36.309  1.00  0.00    -0.237 OA
ATOM     74  O   UNL A   1      48.442  26.747  38.628  1.00  0.00    -0.744 OA
ENDBRANCH  70  71
ENDBRANCH  49  63
BRANCH  50  75
ATOM     75  C   UNL A   1      36.931  32.877  31.023  1.00  0.00     0.058 A 
ATOM     76  C   UNL A   1      37.132  33.846  30.026  1.00  0.00     0.135 A 
ATOM     77  C   UNL A   1      35.601  32.512  31.299  1.00  0.00     0.135 A 
ATOM     78  F   UNL A   1      38.378  34.236  29.714  1.00  0.00    -0.206 F 
ATOM     79  C   UNL A   1      36.068  34.444  29.351  1.00  0.00     0.059 A 
ATOM     80  C   UNL A   1      34.521  33.072  30.616  1.00  0.00     0.059 A 
ATOM     81  F   UNL A   1      35.341  31.570  32.220  1.00  0.00    -0.206 F 
ATOM     82  C   UNL A   1      34.763  34.050  29.653  1.00  0.00     0.060 A 
BRANCH  82  83
ATOM     83  S   UNL A   1      33.392  34.800  28.742  1.00  0.00     0.124 S 
ATOM     84  O   UNL A   1      32.442  35.075  29.814  1.00  0.00    -0.237 OA
ATOM     85  O   UNL A   1      34.024  35.967  28.135  1.00  0.00    -0.237 OA
ATOM     86  O   UNL A   1      32.999  33.753  27.805  1.00  0.00    -0.744 OA
ENDBRANCH  82  83
ENDBRANCH  50  75
BRANCH  62  87
ATOM     87  C   UNL A   1      39.834  33.697  37.267  1.00  0.00     0.058 A 
ATOM     88  C   UNL A   1      40.515  34.914  37.417  1.00  0.00     0.135 A 
ATOM     89  C   UNL A   1      38.866  33.351  38.219  1.00  0.00     0.135 A 
ATOM     90  F   UNL A   1      41.465  35.273  36.538  1.00  0.00    -0.206 F 
ATOM     91  C   UNL A   1      40.272  35.744  38.502  1.00  0.00     0.059 A 
ATOM     92  C   UNL A   1      38.582  34.182  39.293  1.00  0.00     0.059 A 
ATOM     93  F   UNL A   1      38.192  32.195  38.114  1.00  0.00    -0.206 F 
ATOM     94  C   UNL A   1      39.304  35.366  39.435  1.00  0.00     0.060 A 
BRANCH  94  95
ATOM     95  S   UNL A   1      38.994  36.452  40.839  1.00  0.00     0.124 S 
ATOM     96  O   UNL A   1      38.520  37.661  40.173  1.00  0.00    -0.237 OA
ATOM     97  O   UNL A   1      37.991  35.706  41.593  1.00  0.00    -0.237 OA
ATOM     98  O   UNL A   1      40.303  36.558  41.480  1.00  0.00    -0.744 OA
ENDBRANCH  94  95
ENDBRANCH  62  87
ENDBRANCH  36  37
ENDBRANCH  29  31
ENDBRANCH  28  29
ENDBRANCH  27  28
ENDBRANCH  26  27
ENDBRANCH  25  26
ENDBRANCH   1  25
TORSDOF 22
ENDMDL
MODEL 2
REMARK VINA RESULT:      -9.8      6.205     12.617
REMARK SMILES CC[C@]1(C(=O)OCCOCCOC(=O)c2ccc(-c3c4nc(c(-c5c(F)cc(S(=O)(=O)[O-])cc5F)c5ccc([nH]5)c(-c5c(F)cc(S(=O)(=O)[O-])cc5F)c5nc(c(-c6c(F)cc(S(=O)(=O)[O-])cc6F)c6ccc3[nH]6)C=C5)C=C4)cc2)CC[N@@H+](Cc2ccc(CC(C)C)cc2)C1
REMARK SMILES IDX 8 1 7 2 6 3 4 4 5 5 3 6 81 7 95 8 82 9 83 10 2 12 1 13 84 14
REMARK SMILES IDX 85 15 86 16 94 17 87 18 93 19 88 20 89 21 90 22 91 23 92 24
REMARK SMILES IDX 9 25 10 26 11 27 12 28 13 29 14 30 15 31 16 32 80 33 17 34
REMARK SMILES IDX 79 35 18 36 19 37 20 38 73 39 21 40 78 41 72 42 74 43 22 44
REMARK SMILES IDX 77 45 71 46 70 47 23 49 57 50 36 51 56 52 37 53 40 54 55 55
REMARK SMILES IDX 75 56 38 57 39 58 54 60 76 61 41 62 24 63 25 64 34 65 26 66
REMARK SMILES IDX 27 67 33 68 35 69 28 70 29 71 30 72 31 73 32 74 58 75 59 76
REMARK SMILES IDX 68 77 60 78 61 79 67 80 69 81 62 82 63 83 64 84 65 85 66 86
REMARK SMILES IDX 42 87 43 88 52 89 44 90 45 91 51 92 53 93 46 94 47 95 48 96
REMARK SMILES IDX 49 97 50 98
REMARK H PARENT 83 11 74 48 40 59
REMARK Flexibility Score: inf
ROOT
ATOM      1  C   UNL A   1      32.962  30.879  26.912  1.00  0.00     0.202 C 
ENDROOT
BRANCH   1   2
ATOM      2  C   UNL A   1      32.577  29.392  26.982  1.00  0.00     0.261 C 
BRANCH   2   3
ATOM      3  O   UNL A   1      31.598  29.107  25.962  1.00  0.00    -0.463 OA
BRANCH   3   4
ATOM      4  C   UNL A   1      31.419  27.809  25.618  1.00  0.00     0.318 C 
ATOM      5  O   UNL A   1      31.267  26.905  26.435  1.00  0.00    -0.251 OA
BRANCH   4   6
ATOM      6  C   UNL A   1      31.332  27.583  24.096  1.00  0.00     0.122 C 
ATOM      7  C   UNL A   1      32.637  27.171  23.398  1.00  0.00     0.086 C 
ATOM      8  C   UNL A   1      30.425  26.355  23.864  1.00  0.00     0.281 C 
ATOM      9  C   UNL A   1      32.206  26.209  22.303  1.00  0.00     0.263 C 
ATOM     10  N   UNL A   1      31.012  25.514  22.795  1.00  0.00    -0.330 N 
ATOM     11  H   UNL A   1      30.336  25.408  22.038  1.00  0.00     0.348 HD
BRANCH   6  12
ATOM     12  C   UNL A   1      30.826  28.925  23.485  1.00  0.00     0.021 C 
ATOM     13  C   UNL A   1      29.353  29.021  23.120  1.00  0.00     0.005 C 
ENDBRANCH   6  12
BRANCH  10  14
ATOM     14  C   UNL A   1      31.257  24.102  23.188  1.00  0.00     0.299 C 
BRANCH  14  15
ATOM     15  C   UNL A   1      32.601  23.877  23.835  1.00  0.00     0.006 A 
ATOM     16  C   UNL A   1      32.732  24.026  25.223  1.00  0.00     0.010 A 
ATOM     17  C   UNL A   1      33.609  23.260  23.087  1.00  0.00     0.010 A 
ATOM     18  C   UNL A   1      33.698  23.299  25.885  1.00  0.00     0.004 A 
ATOM     19  C   UNL A   1      34.582  22.550  23.744  1.00  0.00     0.004 A 
ATOM     20  C   UNL A   1      34.563  22.502  25.137  1.00  0.00    -0.048 A 
BRANCH  20  21
ATOM     21  C   UNL A   1      35.574  21.647  25.801  1.00  0.00     0.038 C 
BRANCH  21  22
ATOM     22  C   UNL A   1      36.889  21.838  25.079  1.00  0.00    -0.013 C 
ATOM     23  C   UNL A   1      37.556  23.105  25.698  1.00  0.00     0.008 C 
ATOM     24  C   UNL A   1      37.505  20.428  24.944  1.00  0.00     0.008 C 
ENDBRANCH  21  22
ENDBRANCH  20  21
ENDBRANCH  14  15
ENDBRANCH  10  14
ENDBRANCH   4   6
ENDBRANCH   3   4
ENDBRANCH   2   3
ENDBRANCH   1   2
BRANCH   1  25
ATOM     25  O   UNL A   1      34.230  31.185  27.500  1.00  0.00    -0.374 OA
BRANCH  25  26
ATOM     26  C   UNL A   1      34.218  32.238  28.461  1.00  0.00     0.202 C 
BRANCH  26  27
ATOM     27  C   UNL A   1      35.245  32.146  29.601  1.00  0.00     0.261 C 
BRANCH  27  28
ATOM     28  O   UNL A   1      35.727  30.814  29.894  1.00  0.00    -0.460 OA
BRANCH  28  29
ATOM     29  C   UNL A   1      36.629  30.730  30.911  1.00  0.00     0.338 C 
ATOM     30  O   UNL A   1      36.383  30.882  32.100  1.00  0.00    -0.246 OA
BRANCH  29  31
ATOM     31  C   UNL A   1      37.974  30.299  30.428  1.00  0.00     0.060 A 
ATOM     32  C   UNL A   1      38.171  30.167  29.048  1.00  0.00     0.016 A 
ATOM     33  C   UNL A   1      39.038  29.997  31.281  1.00  0.00     0.016 A 
ATOM     34  C   UNL A   1      39.426  29.790  28.522  1.00  0.00     0.010 A 
ATOM     35  C   UNL A   1      40.306  29.642  30.742  1.00  0.00     0.010 A 
ATOM     36  C   UNL A   1      40.545  29.576  29.347  1.00  0.00    -0.014 A 
BRANCH  36  37
ATOM     37  C   UNL A   1      41.835  29.008  28.752  1.00  0.00     0.031 A 
ATOM     38  C   UNL A   1      42.956  30.011  28.657  1.00  0.00     0.074 A 
ATOM     39  C   UNL A   1      42.119  27.731  28.349  1.00  0.00     0.049 A 
ATOM     40  N   UNL A   1      44.194  29.833  28.284  1.00  0.00    -0.248 NA
ATOM     41  C   UNL A   1      42.627  31.404  29.014  1.00  0.00     0.031 C 
ATOM     42  C   UNL A   1      41.213  26.605  28.264  1.00  0.00     0.029 A 
ATOM     43  N   UNL A   1      43.290  27.130  27.899  1.00  0.00    -0.354 N 
ATOM     44  C   UNL A   1      44.788  31.079  28.376  1.00  0.00     0.074 A 
ATOM     45  C   UNL A   1      43.765  32.023  28.761  1.00  0.00     0.031 C 
ATOM     46  C   UNL A   1      41.791  25.483  27.847  1.00  0.00     0.029 A 
ATOM     47  C   UNL A   1      43.170  25.775  27.595  1.00  0.00     0.049 A 
ATOM     48  H   UNL A   1      44.138  27.622  27.802  1.00  0.00     0.167 HD
ATOM     49  C   UNL A   1      46.084  31.413  28.192  1.00  0.00     0.037 A 
ATOM     50  C   UNL A   1      44.012  24.821  27.156  1.00  0.00     0.037 A 
ATOM     51  C   UNL A   1      47.105  30.495  27.780  1.00  0.00     0.049 A 
ATOM     52  C   UNL A   1      45.427  25.215  26.945  1.00  0.00     0.074 A 
ATOM     53  C   UNL A   1      48.444  30.753  27.559  1.00  0.00     0.029 A 
ATOM     54  N   UNL A   1      46.903  29.150  27.509  1.00  0.00    -0.354 N 
ATOM     55  N   UNL A   1      45.962  26.399  27.099  1.00  0.00    -0.248 NA
ATOM     56  C   UNL A   1      46.354  24.165  26.516  1.00  0.00     0.031 C 
ATOM     57  C   UNL A   1      49.045  29.574  27.107  1.00  0.00     0.029 A 
ATOM     58  C   UNL A   1      48.094  28.568  27.106  1.00  0.00     0.049 A 
ATOM     59  H   UNL A   1      46.042  28.678  27.590  1.00  0.00     0.167 HD
ATOM     60  C   UNL A   1      47.299  26.238  26.797  1.00  0.00     0.074 A 
ATOM     61  C   UNL A   1      47.496  24.835  26.484  1.00  0.00     0.031 C 
ATOM     62  C   UNL A   1      48.270  27.178  26.777  1.00  0.00     0.037 A 
BRANCH  49  63
ATOM     63  C   UNL A   1      46.427  32.853  28.420  1.00  0.00     0.058 A 
ATOM     64  C   UNL A   1      46.312  33.807  27.394  1.00  0.00     0.135 A 
ATOM     65  C   UNL A   1      46.943  33.269  29.655  1.00  0.00     0.135 A 
ATOM     66  F   UNL A   1      45.868  33.445  26.179  1.00  0.00    -0.206 F 
ATOM     67  C   UNL A   1      46.732  35.118  27.575  1.00  0.00     0.059 A 
ATOM     68  C   UNL A   1      47.339  34.583  29.868  1.00  0.00     0.059 A 
ATOM     69  F   UNL A   1      47.095  32.388  30.656  1.00  0.00    -0.206 F 
ATOM     70  C   UNL A   1      47.247  35.495  28.817  1.00  0.00     0.060 A 
BRANCH  70  71
ATOM     71  S   UNL A   1      47.800  37.197  29.036  1.00  0.00     0.124 S 
ATOM     72  O   UNL A   1      47.964  37.629  27.651  1.00  0.00    -0.237 OA
ATOM     73  O   UNL A   1      46.684  37.796  29.760  1.00  0.00    -0.237 OA
ATOM     74  O   UNL A   1      49.036  37.055  29.800  1.00  0.00    -0.744 OA
ENDBRANCH  70  71
ENDBRANCH  49  63
BRANCH  50  75
ATOM     75  C   UNL A   1      43.553  23.411  26.927  1.00  0.00     0.058 A 
ATOM     76  C   UNL A   1      43.307  22.540  28.002  1.00  0.00     0.135 A 
ATOM     77  C   UNL A   1      43.325  22.907  25.633  1.00  0.00     0.135 A 
ATOM     78  F   UNL A   1      43.502  22.961  29.261  1.00  0.00    -0.206 F 
ATOM     79  C   UNL A   1      42.880  21.226  27.807  1.00  0.00     0.059 A 
ATOM     80  C   UNL A   1      42.869  21.607  25.413  1.00  0.00     0.059 A 
ATOM     81  F   UNL A   1      43.513  23.696  24.564  1.00  0.00    -0.206 F 
ATOM     82  C   UNL A   1      42.663  20.768  26.506  1.00  0.00     0.060 A 
BRANCH  82  83
ATOM     83  S   UNL A   1      42.069  19.076  26.265  1.00  0.00     0.124 S 
ATOM     84  O   UNL A   1      43.009  18.572  25.270  1.00  0.00    -0.237 OA
ATOM     85  O   UNL A   1      42.193  18.510  27.605  1.00  0.00    -0.237 OA
ATOM     86  O   UNL A   1      40.698  19.265  25.799  1.00  0.00    -0.744 OA
ENDBRANCH  82  83
ENDBRANCH  50  75
BRANCH  62  87
ATOM     87  C   UNL A   1      49.640  26.695  26.426  1.00  0.00     0.058 A 
ATOM     88  C   UNL A   1      50.141  26.792  25.120  1.00  0.00     0.135 A 
ATOM     89  C   UNL A   1      50.447  26.109  27.410  1.00  0.00     0.135 A 
ATOM     90  F   UNL A   1      49.392  27.327  24.142  1.00  0.00    -0.206 F 
ATOM     91  C   UNL A   1      51.389  26.283  24.791  1.00  0.00     0.059 A 
ATOM     92  C   UNL A   1      51.712  25.625  27.112  1.00  0.00     0.059 A 
ATOM     93  F   UNL A   1      50.004  25.997  28.673  1.00  0.00    -0.206 F 
ATOM     94  C   UNL A   1      52.166  25.700  25.795  1.00  0.00     0.060 A 
BRANCH  94  95
ATOM     95  S   UNL A   1      53.786  25.046  25.358  1.00  0.00     0.124 S 
ATOM     96  O   UNL A   1      54.046  25.728  24.095  1.00  0.00    -0.237 OA
ATOM     97  O   UNL A   1      54.607  25.467  26.489  1.00  0.00    -0.237 OA
ATOM     98  O   UNL A   1      53.554  23.607  25.261  1.00  0.00    -0.744 OA
ENDBRANCH  94  95
ENDBRANCH  62  87
ENDBRANCH  36  37
ENDBRANCH  29  31
ENDBRANCH  28  29
ENDBRANCH  27  28
ENDBRANCH  26  27
ENDBRANCH  25  26
ENDBRANCH   1  25
TORSDOF 22
ENDMDL
MODEL 3
REMARK VINA RESULT:      -9.7      6.529     12.582
REMARK SMILES CC[C@]1(C(=O)OCCOCCOC(=O)c2ccc(-c3c4nc(c(-c5c(F)cc(S(=O)(=O)[O-])cc5F)c5ccc([nH]5)c(-c5c(F)cc(S(=O)(=O)[O-])cc5F)c5nc(c(-c6c(F)cc(S(=O)(=O)[O-])cc6F)c6ccc3[nH]6)C=C5)C=C4)cc2)CC[N@@H+](Cc2ccc(CC(C)C)cc2)C1
REMARK SMILES IDX 8 1 7 2 6 3 4 4 5 5 3 6 81 7 95 8 82 9 83 10 2 12 1 13 84 14
REMARK SMILES IDX 85 15 86 16 94 17 87 18 93 19 88 20 89 21 90 22 91 23 92 24
REMARK SMILES IDX 9 25 10 26 11 27 12 28 13 29 14 30 15 31 16 32 80 33 17 34
REMARK SMILES IDX 79 35 18 36 19 37 20 38 73 39 21 40 78 41 72 42 74 43 22 44
REMARK SMILES IDX 77 45 71 46 70 47 23 49 57 50 36 51 56 52 37 53 40 54 55 55
REMARK SMILES IDX 75 56 38 57 39 58 54 60 76 61 41 62 24 63 25 64 34 65 26 66
REMARK SMILES IDX 27 67 33 68 35 69 28 70 29 71 30 72 31 73 32 74 58 75 59 76
REMARK SMILES IDX 68 77 60 78 61 79 67 80 69 81 62 82 63 83 64 84 65 85 66 86
REMARK SMILES IDX 42 87 43 88 52 89 44 90 45 91 51 92 53 93 46 94 47 95 48 96
REMARK SMILES IDX 49 97 50 98
REMARK H PARENT 83 11 74 48 40 59
REMARK Flexibility Score: inf
ROOT
ATOM      1  C   UNL A   1      32.413  29.711  26.096  1.00  0.00     0.202 C 
ENDROOT
BRANCH   1   2
ATOM      2  C   UNL A   1      32.786  28.224  26.218  1.00  0.00     0.261 C 
BRANCH   2   3
ATOM      3  O   UNL A   1      31.602  27.421  26.041  1.00  0.00    -0.463 OA
BRANCH   3   4
ATOM      4  C   UNL A   1      31.765  26.180  25.523  1.00  0.00     0.318 C 
ATOM      5  O   UNL A   1      32.072  25.198  26.195  1.00  0.00    -0.251 OA
BRANCH   4   6
ATOM      6  C   UNL A   1      31.439  26.094  24.019  1.00  0.00     0.122 C 
ATOM      7  C   UNL A   1      32.478  26.705  23.066  1.00  0.00     0.086 C 
ATOM      8  C   UNL A   1      31.461  24.600  23.627  1.00  0.00     0.281 C 
ATOM      9  C   UNL A   1      32.463  25.802  21.844  1.00  0.00     0.263 C 
ATOM     10  N   UNL A   1      32.135  24.453  22.315  1.00  0.00    -0.330 N 
ATOM     11  H   UNL A   1      31.499  24.000  21.658  1.00  0.00     0.348 HD
BRANCH   6  12
ATOM     12  C   UNL A   1      30.076  26.825  23.827  1.00  0.00     0.021 C 
ATOM     13  C   UNL A   1      28.807  25.997  23.966  1.00  0.00     0.005 C 
ENDBRANCH   6  12
BRANCH  10  14
ATOM     14  C   UNL A   1      33.291  23.519  22.319  1.00  0.00     0.299 C 
BRANCH  14  15
ATOM     15  C   UNL A   1      33.159  22.394  23.315  1.00  0.00     0.006 A 
ATOM     16  C   UNL A   1      32.207  21.388  23.097  1.00  0.00     0.010 A 
ATOM     17  C   UNL A   1      34.163  22.228  24.274  1.00  0.00     0.010 A 
ATOM     18  C   UNL A   1      32.441  20.126  23.600  1.00  0.00     0.004 A 
ATOM     19  C   UNL A   1      34.387  20.977  24.790  1.00  0.00     0.004 A 
ATOM     20  C   UNL A   1      33.579  19.918  24.378  1.00  0.00    -0.048 A 
BRANCH  20  21
ATOM     21  C   UNL A   1      33.917  18.569  24.886  1.00  0.00     0.038 C 
BRANCH  21  22
ATOM     22  C   UNL A   1      33.087  17.564  24.119  1.00  0.00    -0.013 C 
ATOM     23  C   UNL A   1      34.010  16.988  23.000  1.00  0.00     0.008 C 
ATOM     24  C   UNL A   1      32.298  16.769  25.182  1.00  0.00     0.008 C 
ENDBRANCH  21  22
ENDBRANCH  20  21
ENDBRANCH  14  15
ENDBRANCH  10  14
ENDBRANCH   4   6
ENDBRANCH   3   4
ENDBRANCH   2   3
ENDBRANCH   1   2
BRANCH   1  25
ATOM     25  O   UNL A   1      33.486  30.611  26.386  1.00  0.00    -0.374 OA
BRANCH  25  26
ATOM     26  C   UNL A   1      33.410  31.264  27.651  1.00  0.00     0.202 C 
BRANCH  26  27
ATOM     27  C   UNL A   1      34.740  31.538  28.370  1.00  0.00     0.261 C 
BRANCH  27  28
ATOM     28  O   UNL A   1      35.526  30.364  28.684  1.00  0.00    -0.460 OA
BRANCH  28  29
ATOM     29  C   UNL A   1      36.370  30.493  29.746  1.00  0.00     0.338 C 
ATOM     30  O   UNL A   1      36.044  30.808  30.883  1.00  0.00    -0.246 OA
BRANCH  29  31
ATOM     31  C   UNL A   1      37.763  30.081  29.404  1.00  0.00     0.060 A 
ATOM     32  C   UNL A   1      38.072  29.846  28.059  1.00  0.00     0.016 A 
ATOM     33  C   UNL A   1      38.766  29.893  30.358  1.00  0.00     0.016 A 
ATOM     34  C   UNL A   1      39.377  29.479  27.663  1.00  0.00     0.010 A 
ATOM     35  C   UNL A   1      40.084  29.549  29.948  1.00  0.00     0.010 A 
ATOM     36  C   UNL A   1      40.435  29.380  28.586  1.00  0.00    -0.014 A 
BRANCH  36  37
ATOM     37  C   UNL A   1      41.786  28.819  28.140  1.00  0.00     0.031 A 
ATOM     38  C   UNL A   1      42.894  29.841  28.124  1.00  0.00     0.074 A 
ATOM     39  C   UNL A   1      42.131  27.536  27.810  1.00  0.00     0.049 A 
ATOM     40  N   UNL A   1      44.166  29.676  27.880  1.00  0.00    -0.248 NA
ATOM     41  C   UNL A   1      42.509  31.238  28.401  1.00  0.00     0.031 C 
ATOM     42  C   UNL A   1      41.257  26.390  27.673  1.00  0.00     0.029 A 
ATOM     43  N   UNL A   1      43.351  26.945  27.497  1.00  0.00    -0.354 N 
ATOM     44  C   UNL A   1      44.728  30.936  27.990  1.00  0.00     0.074 A 
ATOM     45  C   UNL A   1      43.656  31.871  28.241  1.00  0.00     0.031 C 
ATOM     46  C   UNL A   1      41.892  25.268  27.351  1.00  0.00     0.029 A 
ATOM     47  C   UNL A   1      43.284  25.580  27.227  1.00  0.00     0.049 A 
ATOM     48  H   UNL A   1      44.195  27.451  27.469  1.00  0.00     0.167 HD
ATOM     49  C   UNL A   1      46.029  31.290  27.924  1.00  0.00     0.037 A 
ATOM     50  C   UNL A   1      44.181  24.629  26.906  1.00  0.00     0.037 A 
ATOM     51  C   UNL A   1      47.102  30.380  27.645  1.00  0.00     0.049 A 
ATOM     52  C   UNL A   1      45.603  25.044  26.823  1.00  0.00     0.074 A 
ATOM     53  C   UNL A   1      48.452  30.657  27.549  1.00  0.00     0.029 A 
ATOM     54  N   UNL A   1      46.950  29.023  27.400  1.00  0.00    -0.354 N 
ATOM     55  N   UNL A   1      46.100  26.243  26.990  1.00  0.00    -0.248 NA
ATOM     56  C   UNL A   1      46.586  24.000  26.523  1.00  0.00     0.031 C 
ATOM     57  C   UNL A   1      49.114  29.478  27.197  1.00  0.00     0.029 A 
ATOM     58  C   UNL A   1      48.185  28.453  27.136  1.00  0.00     0.049 A 
ATOM     59  H   UNL A   1      46.094  28.538  27.411  1.00  0.00     0.167 HD
ATOM     60  C   UNL A   1      47.463  26.099  26.827  1.00  0.00     0.074 A 
ATOM     61  C   UNL A   1      47.714  24.692  26.581  1.00  0.00     0.031 C 
ATOM     62  C   UNL A   1      48.416  27.057  26.872  1.00  0.00     0.037 A 
BRANCH  49  63
ATOM     63  C   UNL A   1      46.324  32.743  28.138  1.00  0.00     0.058 A 
ATOM     64  C   UNL A   1      46.229  33.674  27.088  1.00  0.00     0.135 A 
ATOM     65  C   UNL A   1      46.773  33.197  29.385  1.00  0.00     0.135 A 
ATOM     66  F   UNL A   1      45.850  33.276  25.862  1.00  0.00    -0.206 F 
ATOM     67  C   UNL A   1      46.607  34.998  27.260  1.00  0.00     0.059 A 
ATOM     68  C   UNL A   1      47.125  34.525  29.588  1.00  0.00     0.059 A 
ATOM     69  F   UNL A   1      46.904  32.339  30.409  1.00  0.00    -0.206 F 
ATOM     70  C   UNL A   1      47.055  35.413  28.516  1.00  0.00     0.060 A 
BRANCH  70  71
ATOM     71  S   UNL A   1      47.553  37.133  28.724  1.00  0.00     0.124 S 
ATOM     72  O   UNL A   1      46.960  37.453  30.019  1.00  0.00    -0.237 OA
ATOM     73  O   UNL A   1      49.009  37.041  28.699  1.00  0.00    -0.237 OA
ATOM     74  O   UNL A   1      46.950  37.802  27.575  1.00  0.00    -0.744 OA
ENDBRANCH  70  71
ENDBRANCH  49  63
BRANCH  50  75
ATOM     75  C   UNL A   1      43.771  23.203  26.679  1.00  0.00     0.058 A 
ATOM     76  C   UNL A   1      43.845  22.617  25.405  1.00  0.00     0.135 A 
ATOM     77  C   UNL A   1      43.320  22.386  27.732  1.00  0.00     0.135 A 
ATOM     78  F   UNL A   1      44.271  23.343  24.359  1.00  0.00    -0.206 F 
ATOM     79  C   UNL A   1      43.469  21.293  25.177  1.00  0.00     0.059 A 
ATOM     80  C   UNL A   1      42.967  21.051  27.536  1.00  0.00     0.059 A 
ATOM     81  F   UNL A   1      43.253  22.877  28.980  1.00  0.00    -0.206 F 
ATOM     82  C   UNL A   1      43.030  20.516  26.250  1.00  0.00     0.060 A 
BRANCH  82  83
ATOM     83  S   UNL A   1      42.584  18.788  25.952  1.00  0.00     0.124 S 
ATOM     84  O   UNL A   1      41.159  18.898  25.661  1.00  0.00    -0.237 OA
ATOM     85  O   UNL A   1      43.441  18.437  24.825  1.00  0.00    -0.237 OA
ATOM     86  O   UNL A   1      42.920  18.133  27.212  1.00  0.00    -0.744 OA
ENDBRANCH  82  83
ENDBRANCH  50  75
BRANCH  62  87
ATOM     87  C   UNL A   1      49.822  26.591  26.674  1.00  0.00     0.058 A 
ATOM     88  C   UNL A   1      50.410  26.548  25.402  1.00  0.00     0.135 A 
ATOM     89  C   UNL A   1      50.576  26.163  27.774  1.00  0.00     0.135 A 
ATOM     90  F   UNL A   1      49.714  26.929  24.318  1.00  0.00    -0.206 F 
ATOM     91  C   UNL A   1      51.694  26.053  25.221  1.00  0.00     0.059 A 
ATOM     92  C   UNL A   1      51.874  25.698  27.622  1.00  0.00     0.059 A 
ATOM     93  F   UNL A   1      50.051  26.188  29.009  1.00  0.00    -0.206 F 
ATOM     94  C   UNL A   1      52.416  25.630  26.339  1.00  0.00     0.060 A 
BRANCH  94  95
ATOM     95  S   UNL A   1      54.083  24.993  26.094  1.00  0.00     0.124 S 
ATOM     96  O   UNL A   1      53.815  23.713  25.446  1.00  0.00    -0.237 OA
ATOM     97  O   UNL A   1      54.687  26.019  25.249  1.00  0.00    -0.237 OA
ATOM     98  O   UNL A   1      54.617  24.912  27.451  1.00  0.00    -0.744 OA
ENDBRANCH  94  95
ENDBRANCH  62  87
ENDBRANCH  36  37
ENDBRANCH  29  31
ENDBRANCH  28  29
ENDBRANCH  27  28
ENDBRANCH  26  27
ENDBRANCH  25  26
ENDBRANCH   1  25
TORSDOF 22
ENDMDL
