MODEL 1
REMARK VINA RESULT:     -11.2      0.000      0.000
REMARK SMILES Cc1c(Cl)cccc1NC(=O)C[C@](C)(C(=O)OCCOCCOC(=O)c1ccc(-c2c3nc(c(-c4c(F)cc(S(=O)(=O)[O-])cc4F)c4ccc([nH]4)c(-c4c(F)cc(S(=O)(=O)[O-])cc4F)c4nc(c(-c5c(F)cc(S(=O)(=O)[O-])cc5F)c5ccc2[nH]5)C=C4)C=C3)cc1)c1ccccc1
REMARK SMILES IDX 20 1 19 2 18 3 17 4 15 5 16 6 13 7 14 8 12 9 10 10 9 11
REMARK SMILES IDX 11 13 8 14 1 15 2 16 3 17 4 18 5 19 7 20 6 21 92 22 93 23
REMARK SMILES IDX 97 24 94 25 96 26 95 27 21 28 22 29 23 30 24 31 25 32 26 33
REMARK SMILES IDX 27 34 91 35 28 36 90 37 29 38 30 39 31 40 84 41 32 42 89 43
REMARK SMILES IDX 83 44 85 45 33 46 88 47 82 48 81 49 34 51 68 52 47 53 67 54
REMARK SMILES IDX 48 55 51 56 66 57 86 58 49 59 50 60 65 62 87 63 52 64 35 65
REMARK SMILES IDX 36 66 45 67 37 68 38 69 44 70 46 71 39 72 40 73 41 74 42 75
REMARK SMILES IDX 43 76 69 77 70 78 79 79 71 80 72 81 78 82 80 83 73 84 74 85
REMARK SMILES IDX 75 86 76 87 77 88 53 89 54 90 63 91 55 92 56 93 62 94 64 95
REMARK SMILES IDX 57 96 58 97 59 98 60 99 61 100
REMARK H PARENT 9 12 85 50 51 61
REMARK Flexibility Score: inf
ROOT
ATOM      1  O   UNL A   1      33.740  30.092  27.046  1.00  0.00    -0.374 OA
ENDROOT
BRANCH   1   2
ATOM      2  C   UNL A   1      32.596  30.087  26.189  1.00  0.00     0.202 C 
BRANCH   2   3
ATOM      3  C   UNL A   1      32.822  29.534  24.780  1.00  0.00     0.261 C 
BRANCH   3   4
ATOM      4  O   UNL A   1      33.683  28.384  24.824  1.00  0.00    -0.463 OA
BRANCH   4   5
ATOM      5  C   UNL A   1      33.546  27.497  23.803  1.00  0.00     0.316 C 
ATOM      6  O   UNL A   1      33.848  27.755  22.642  1.00  0.00    -0.251 OA
BRANCH   5   7
ATOM      7  C   UNL A   1      33.014  26.114  24.267  1.00  0.00     0.099 C 
ATOM      8  C   UNL A   1      32.373  26.156  25.687  1.00  0.00     0.029 C 
BRANCH   7   9
ATOM      9  C   UNL A   1      31.943  25.605  23.247  1.00  0.00     0.123 C 
BRANCH   9  10
ATOM     10  C   UNL A   1      30.637  25.016  23.760  1.00  0.00     0.225 C 
ATOM     11  N   UNL A   1      30.522  23.774  24.300  1.00  0.00    -0.326 N 
ATOM     12  H   UNL A   1      29.625  23.590  24.663  1.00  0.00     0.169 HD
ATOM     13  O   UNL A   1      29.610  25.702  23.712  1.00  0.00    -0.275 OA
BRANCH  11  14
ATOM     14  C   UNL A   1      31.410  22.697  24.451  1.00  0.00     0.045 A 
ATOM     15  C   UNL A   1      31.450  23.081  27.001  1.00  0.00     0.048 C 
ATOM     16  C   UNL A   1      31.917  22.402  25.736  1.00  0.00    -0.009 A 
ATOM     17  C   UNL A   1      32.951  21.454  25.839  1.00  0.00     0.046 A 
ATOM     18  Cl  UNL A   1      33.828  21.276  27.321  1.00  0.00    -0.084 Cl
ATOM     19  C   UNL A   1      33.357  20.704  24.737  1.00  0.00     0.021 A 
ATOM     20  C   UNL A   1      31.803  21.915  23.359  1.00  0.00     0.026 A 
ATOM     21  C   UNL A   1      32.765  20.913  23.501  1.00  0.00     0.004 A 
ENDBRANCH  11  14
ENDBRANCH   9  10
ENDBRANCH   7   9
BRANCH   7  22
ATOM     22  C   UNL A   1      34.177  25.078  24.404  1.00  0.00    -0.030 A 
ATOM     23  C   UNL A   1      34.588  24.323  23.285  1.00  0.00     0.005 A 
ATOM     24  C   UNL A   1      34.803  24.799  25.633  1.00  0.00     0.005 A 
ATOM     25  C   UNL A   1      35.590  23.353  23.388  1.00  0.00     0.000 A 
ATOM     26  C   UNL A   1      35.811  23.834  25.732  1.00  0.00     0.000 A 
ATOM     27  C   UNL A   1      36.205  23.113  24.611  1.00  0.00     0.000 A 
ENDBRANCH   7  22
ENDBRANCH   5   7
ENDBRANCH   4   5
ENDBRANCH   3   4
ENDBRANCH   2   3
ENDBRANCH   1   2
BRANCH   1  28
ATOM     28  C   UNL A   1      34.071  31.322  27.684  1.00  0.00     0.202 C 
BRANCH  28  29
ATOM     29  C   UNL A   1      35.090  31.275  28.833  1.00  0.00     0.261 C 
BRANCH  29  30
ATOM     30  O   UNL A   1      35.711  29.992  29.039  1.00  0.00    -0.460 OA
BRANCH  30  31
ATOM     31  C   UNL A   1      36.520  29.930  30.125  1.00  0.00     0.338 C 
ATOM     32  O   UNL A   1      36.163  29.819  31.297  1.00  0.00    -0.246 OA
BRANCH  31  33
ATOM     33  C   UNL A   1      37.942  29.887  29.734  1.00  0.00     0.060 A 
ATOM     34  C   UNL A   1      38.243  29.853  28.367  1.00  0.00     0.016 A 
ATOM     35  C   UNL A   1      38.962  29.764  30.681  1.00  0.00     0.016 A 
ATOM     36  C   UNL A   1      39.560  29.658  27.944  1.00  0.00     0.010 A 
ATOM     37  C   UNL A   1      40.285  29.565  30.253  1.00  0.00     0.010 A 
ATOM     38  C   UNL A   1      40.589  29.482  28.882  1.00  0.00    -0.014 A 
BRANCH  38  39
ATOM     39  C   UNL A   1      41.924  29.020  28.409  1.00  0.00     0.031 A 
ATOM     40  C   UNL A   1      43.068  29.993  28.437  1.00  0.00     0.074 A 
ATOM     41  C   UNL A   1      42.143  27.747  28.027  1.00  0.00     0.049 A 
ATOM     42  N   UNL A   1      44.324  29.799  28.133  1.00  0.00    -0.248 NA
ATOM     43  C   UNL A   1      42.746  31.372  28.834  1.00  0.00     0.031 C 
ATOM     44  C   UNL A   1      41.113  26.725  27.915  1.00  0.00     0.029 A 
ATOM     45  N   UNL A   1      43.296  27.087  27.677  1.00  0.00    -0.354 N 
ATOM     46  C   UNL A   1      44.941  31.034  28.287  1.00  0.00     0.074 A 
ATOM     47  C   UNL A   1      43.913  31.977  28.673  1.00  0.00     0.031 C 
ATOM     48  C   UNL A   1      41.677  25.549  27.599  1.00  0.00     0.029 A 
ATOM     49  C   UNL A   1      43.113  25.745  27.423  1.00  0.00     0.049 A 
ATOM     50  H   UNL A   1      44.173  27.532  27.614  1.00  0.00     0.167 HD
ATOM     51  C   UNL A   1      46.247  31.352  28.129  1.00  0.00     0.037 A 
ATOM     52  C   UNL A   1      43.998  24.787  27.077  1.00  0.00     0.037 A 
ATOM     53  C   UNL A   1      47.264  30.411  27.743  1.00  0.00     0.049 A 
ATOM     54  C   UNL A   1      45.446  25.166  26.904  1.00  0.00     0.074 A 
ATOM     55  C   UNL A   1      48.617  30.635  27.557  1.00  0.00     0.029 A 
ATOM     56  N   UNL A   1      47.041  29.066  27.482  1.00  0.00    -0.354 N 
ATOM     57  N   UNL A   1      46.016  26.336  27.073  1.00  0.00    -0.248 NA
ATOM     58  C   UNL A   1      46.369  24.103  26.482  1.00  0.00     0.031 C 
ATOM     59  C   UNL A   1      49.205  29.435  27.143  1.00  0.00     0.029 A 
ATOM     60  C   UNL A   1      48.229  28.450  27.124  1.00  0.00     0.049 A 
ATOM     61  H   UNL A   1      46.168  28.617  27.541  1.00  0.00     0.167 HD
ATOM     62  C   UNL A   1      47.365  26.146  26.796  1.00  0.00     0.074 A 
ATOM     63  C   UNL A   1      47.529  24.744  26.465  1.00  0.00     0.031 C 
ATOM     64  C   UNL A   1      48.376  27.050  26.809  1.00  0.00     0.037 A 
BRANCH  51  65
ATOM     65  C   UNL A   1      46.629  32.787  28.351  1.00  0.00     0.058 A 
ATOM     66  C   UNL A   1      46.594  33.731  27.312  1.00  0.00     0.135 A 
ATOM     67  C   UNL A   1      47.055  33.222  29.616  1.00  0.00     0.135 A 
ATOM     68  F   UNL A   1      46.218  33.362  26.076  1.00  0.00    -0.206 F 
ATOM     69  C   UNL A   1      47.005  35.044  27.508  1.00  0.00     0.059 A 
ATOM     70  C   UNL A   1      47.442  34.539  29.843  1.00  0.00     0.059 A 
ATOM     71  F   UNL A   1      47.114  32.361  30.644  1.00  0.00    -0.206 F 
ATOM     72  C   UNL A   1      47.432  35.438  28.777  1.00  0.00     0.060 A 
BRANCH  72  73
ATOM     73  S   UNL A   1      47.983  37.141  29.012  1.00  0.00     0.124 S 
ATOM     74  O   UNL A   1      48.984  36.979  30.063  1.00  0.00    -0.237 OA
ATOM     75  O   UNL A   1      48.500  37.486  27.693  1.00  0.00    -0.237 OA
ATOM     76  O   UNL A   1      46.764  37.839  29.409  1.00  0.00    -0.744 OA
ENDBRANCH  72  73
ENDBRANCH  51  65
BRANCH  52  77
ATOM     77  C   UNL A   1      43.549  23.381  26.865  1.00  0.00     0.058 A 
ATOM     78  C   UNL A   1      43.481  22.825  25.577  1.00  0.00     0.135 A 
ATOM     79  C   UNL A   1      43.172  22.564  27.943  1.00  0.00     0.135 A 
ATOM     80  F   UNL A   1      43.815  23.565  24.510  1.00  0.00    -0.206 F 
ATOM     81  C   UNL A   1      43.043  21.520  25.364  1.00  0.00     0.059 A 
ATOM     82  C   UNL A   1      42.759  21.247  27.758  1.00  0.00     0.059 A 
ATOM     83  F   UNL A   1      43.223  23.038  29.197  1.00  0.00    -0.206 F 
ATOM     84  C   UNL A   1      42.687  20.736  26.463  1.00  0.00     0.060 A 
BRANCH  84  85
ATOM     85  S   UNL A   1      42.169  19.028  26.183  1.00  0.00     0.124 S 
ATOM     86  O   UNL A   1      42.423  18.426  27.486  1.00  0.00    -0.237 OA
ATOM     87  O   UNL A   1      40.766  19.189  25.815  1.00  0.00    -0.237 OA
ATOM     88  O   UNL A   1      43.046  18.587  25.102  1.00  0.00    -0.744 OA
ENDBRANCH  84  85
ENDBRANCH  52  77
BRANCH  64  89
ATOM     89  C   UNL A   1      49.759  26.547  26.504  1.00  0.00     0.058 A 
ATOM     90  C   UNL A   1      50.616  26.071  27.508  1.00  0.00     0.135 A 
ATOM     91  C   UNL A   1      50.211  26.489  25.175  1.00  0.00     0.135 A 
ATOM     92  F   UNL A   1      50.235  26.108  28.795  1.00  0.00    -0.206 F 
ATOM     93  C   UNL A   1      51.880  25.575  27.208  1.00  0.00     0.059 A 
ATOM     94  C   UNL A   1      51.461  25.972  24.849  1.00  0.00     0.059 A 
ATOM     95  F   UNL A   1      49.427  26.922  24.174  1.00  0.00    -0.206 F 
ATOM     96  C   UNL A   1      52.293  25.528  25.874  1.00  0.00     0.060 A 
BRANCH  96  97
ATOM     97  S   UNL A   1      53.923  24.852  25.495  1.00  0.00     0.124 S 
ATOM     98  O   UNL A   1      54.615  25.020  26.769  1.00  0.00    -0.237 OA
ATOM     99  O   UNL A   1      53.611  23.476  25.120  1.00  0.00    -0.237 OA
ATOM    100  O   UNL A   1      54.398  25.699  24.405  1.00  0.00    -0.744 OA
ENDBRANCH  96  97
ENDBRANCH  64  89
ENDBRANCH  38  39
ENDBRANCH  31  33
ENDBRANCH  30  31
ENDBRANCH  29  30
ENDBRANCH  28  29
ENDBRANCH   1  28
TORSDOF 21
ENDMDL
MODEL 2
REMARK VINA RESULT:     -11.2      6.665     11.558
REMARK SMILES Cc1c(Cl)cccc1NC(=O)C[C@](C)(C(=O)OCCOCCOC(=O)c1ccc(-c2c3nc(c(-c4c(F)cc(S(=O)(=O)[O-])cc4F)c4ccc([nH]4)c(-c4c(F)cc(S(=O)(=O)[O-])cc4F)c4nc(c(-c5c(F)cc(S(=O)(=O)[O-])cc5F)c5ccc2[nH]5)C=C4)C=C3)cc1)c1ccccc1
REMARK SMILES IDX 20 1 19 2 18 3 17 4 15 5 16 6 13 7 14 8 12 9 10 10 9 11
REMARK SMILES IDX 11 13 8 14 1 15 2 16 3 17 4 18 5 19 7 20 6 21 92 22 93 23
REMARK SMILES IDX 97 24 94 25 96 26 95 27 21 28 22 29 23 30 24 31 25 32 26 33
REMARK SMILES IDX 27 34 91 35 28 36 90 37 29 38 30 39 31 40 84 41 32 42 89 43
REMARK SMILES IDX 83 44 85 45 33 46 88 47 82 48 81 49 34 51 68 52 47 53 67 54
REMARK SMILES IDX 48 55 51 56 66 57 86 58 49 59 50 60 65 62 87 63 52 64 35 65
REMARK SMILES IDX 36 66 45 67 37 68 38 69 44 70 46 71 39 72 40 73 41 74 42 75
REMARK SMILES IDX 43 76 69 77 70 78 79 79 71 80 72 81 78 82 80 83 73 84 74 85
REMARK SMILES IDX 75 86 76 87 77 88 53 89 54 90 63 91 55 92 56 93 62 94 64 95
REMARK SMILES IDX 57 96 58 97 59 98 60 99 61 100
REMARK H PARENT 9 12 85 50 51 61
REMARK Flexibility Score: inf
ROOT
ATOM      1  O   UNL A   1      38.029  22.219  25.735  1.00  0.00    -0.374 OA
ENDROOT
BRANCH   1   2
ATOM      2  C   UNL A   1      37.369  21.747  24.559  1.00  0.00     0.202 C 
BRANCH   2   3
ATOM      3  C   UNL A   1      36.444  22.751  23.867  1.00  0.00     0.261 C 
BRANCH   3   4
ATOM      4  O   UNL A   1      35.376  23.139  24.746  1.00  0.00    -0.463 OA
BRANCH   4   5
ATOM      5  C   UNL A   1      34.151  22.624  24.461  1.00  0.00     0.316 C 
ATOM      6  O   UNL A   1      33.969  21.451  24.151  1.00  0.00    -0.251 OA
BRANCH   5   7
ATOM      7  C   UNL A   1      33.006  23.661  24.614  1.00  0.00     0.099 C 
ATOM      8  C   UNL A   1      31.618  23.103  24.178  1.00  0.00     0.029 C 
BRANCH   7   9
ATOM      9  C   UNL A   1      32.917  24.114  26.109  1.00  0.00     0.123 C 
BRANCH   9  10
ATOM     10  C   UNL A   1      31.556  24.231  26.779  1.00  0.00     0.225 C 
ATOM     11  N   UNL A   1      30.756  25.327  26.691  1.00  0.00    -0.326 N 
ATOM     12  H   UNL A   1      29.874  25.197  27.108  1.00  0.00     0.169 HD
ATOM     13  O   UNL A   1      31.124  23.274  27.431  1.00  0.00    -0.275 OA
BRANCH  11  14
ATOM     14  C   UNL A   1      30.919  26.603  26.130  1.00  0.00     0.045 A 
ATOM     15  C   UNL A   1      29.439  25.920  24.132  1.00  0.00     0.048 C 
ATOM     16  C   UNL A   1      30.349  26.874  24.867  1.00  0.00    -0.009 A 
ATOM     17  C   UNL A   1      30.687  28.084  24.233  1.00  0.00     0.046 A 
ATOM     18  Cl  UNL A   1      30.286  28.340  22.568  1.00  0.00    -0.084 Cl
ATOM     19  C   UNL A   1      31.427  29.064  24.892  1.00  0.00     0.021 A 
ATOM     20  C   UNL A   1      31.633  27.608  26.793  1.00  0.00     0.026 A 
ATOM     21  C   UNL A   1      31.879  28.838  26.184  1.00  0.00     0.004 A 
ENDBRANCH  11  14
ENDBRANCH   9  10
ENDBRANCH   7   9
BRANCH   7  22
ATOM     22  C   UNL A   1      33.231  24.895  23.681  1.00  0.00    -0.030 A 
ATOM     23  C   UNL A   1      33.857  26.057  24.181  1.00  0.00     0.005 A 
ATOM     24  C   UNL A   1      32.766  24.936  22.353  1.00  0.00     0.005 A 
ATOM     25  C   UNL A   1      34.027  27.194  23.384  1.00  0.00     0.000 A 
ATOM     26  C   UNL A   1      32.945  26.072  21.556  1.00  0.00     0.000 A 
ATOM     27  C   UNL A   1      33.575  27.198  22.070  1.00  0.00     0.000 A 
ENDBRANCH   7  22
ENDBRANCH   5   7
ENDBRANCH   4   5
ENDBRANCH   3   4
ENDBRANCH   2   3
ENDBRANCH   1   2
BRANCH   1  28
ATOM     28  C   UNL A   1      39.221  21.544  26.128  1.00  0.00     0.202 C 
BRANCH  28  29
ATOM     29  C   UNL A   1      40.450  22.407  26.456  1.00  0.00     0.261 C 
BRANCH  29  30
ATOM     30  O   UNL A   1      40.151  23.747  26.889  1.00  0.00    -0.460 OA
BRANCH  30  31
ATOM     31  C   UNL A   1      41.235  24.551  27.012  1.00  0.00     0.338 C 
ATOM     32  O   UNL A   1      42.310  24.422  26.429  1.00  0.00    -0.246 OA
BRANCH  31  33
ATOM     33  C   UNL A   1      40.945  25.719  27.865  1.00  0.00     0.060 A 
ATOM     34  C   UNL A   1      41.929  26.708  27.976  1.00  0.00     0.016 A 
ATOM     35  C   UNL A   1      39.784  25.794  28.639  1.00  0.00     0.016 A 
ATOM     36  C   UNL A   1      41.771  27.756  28.886  1.00  0.00     0.010 A 
ATOM     37  C   UNL A   1      39.629  26.847  29.556  1.00  0.00     0.010 A 
ATOM     38  C   UNL A   1      40.635  27.819  29.706  1.00  0.00    -0.014 A 
BRANCH  38  39
ATOM     39  C   UNL A   1      40.615  28.788  30.838  1.00  0.00     0.031 A 
ATOM     40  C   UNL A   1      39.565  29.862  30.842  1.00  0.00     0.074 A 
ATOM     41  C   UNL A   1      41.463  28.683  31.880  1.00  0.00     0.049 A 
ATOM     42  N   UNL A   1      39.319  30.772  31.746  1.00  0.00    -0.248 NA
ATOM     43  C   UNL A   1      38.698  29.934  29.657  1.00  0.00     0.031 C 
ATOM     44  C   UNL A   1      42.548  27.718  31.973  1.00  0.00     0.029 A 
ATOM     45  N   UNL A   1      41.542  29.378  33.063  1.00  0.00    -0.354 N 
ATOM     46  C   UNL A   1      38.278  31.536  31.234  1.00  0.00     0.074 A 
ATOM     47  C   UNL A   1      37.967  31.005  29.924  1.00  0.00     0.031 C 
ATOM     48  C   UNL A   1      43.141  27.821  33.174  1.00  0.00     0.029 A 
ATOM     49  C   UNL A   1      42.515  28.909  33.918  1.00  0.00     0.049 A 
ATOM     50  H   UNL A   1      40.956  30.140  33.279  1.00  0.00     0.167 HD
ATOM     51  C   UNL A   1      37.633  32.579  31.807  1.00  0.00     0.037 A 
ATOM     52  C   UNL A   1      42.870  29.318  35.155  1.00  0.00     0.037 A 
ATOM     53  C   UNL A   1      37.948  33.103  33.108  1.00  0.00     0.049 A 
ATOM     54  C   UNL A   1      42.140  30.484  35.770  1.00  0.00     0.074 A 
ATOM     55  C   UNL A   1      37.353  34.158  33.778  1.00  0.00     0.029 A 
ATOM     56  N   UNL A   1      38.946  32.614  33.940  1.00  0.00    -0.354 N 
ATOM     57  N   UNL A   1      41.144  31.183  35.279  1.00  0.00    -0.248 NA
ATOM     58  C   UNL A   1      42.587  30.926  37.098  1.00  0.00     0.031 C 
ATOM     59  C   UNL A   1      38.018  34.333  34.996  1.00  0.00     0.029 A 
ATOM     60  C   UNL A   1      38.991  33.353  35.111  1.00  0.00     0.049 A 
ATOM     61  H   UNL A   1      39.535  31.855  33.728  1.00  0.00     0.167 HD
ATOM     62  C   UNL A   1      40.833  32.135  36.244  1.00  0.00     0.074 A 
ATOM     63  C   UNL A   1      41.737  31.910  37.355  1.00  0.00     0.031 C 
ATOM     64  C   UNL A   1      39.890  33.108  36.212  1.00  0.00     0.037 A 
BRANCH  51  65
ATOM     65  C   UNL A   1      36.543  33.229  31.004  1.00  0.00     0.058 A 
ATOM     66  C   UNL A   1      36.829  34.080  29.922  1.00  0.00     0.135 A 
ATOM     67  C   UNL A   1      35.195  33.015  31.330  1.00  0.00     0.135 A 
ATOM     68  F   UNL A   1      38.103  34.338  29.584  1.00  0.00    -0.206 F 
ATOM     69  C   UNL A   1      35.819  34.726  29.220  1.00  0.00     0.059 A 
ATOM     70  C   UNL A   1      34.167  33.628  30.621  1.00  0.00     0.059 A 
ATOM     71  F   UNL A   1      34.866  32.217  32.358  1.00  0.00    -0.206 F 
ATOM     72  C   UNL A   1      34.490  34.497  29.580  1.00  0.00     0.060 A 
BRANCH  72  73
ATOM     73  S   UNL A   1      33.189  35.359  28.672  1.00  0.00     0.124 S 
ATOM     74  O   UNL A   1      33.972  36.249  27.820  1.00  0.00    -0.237 OA
ATOM     75  O   UNL A   1      32.509  34.264  27.988  1.00  0.00    -0.237 OA
ATOM     76  O   UNL A   1      32.419  36.014  29.724  1.00  0.00    -0.744 OA
ENDBRANCH  72  73
ENDBRANCH  51  65
BRANCH  52  77
ATOM     77  C   UNL A   1      43.966  28.631  35.895  1.00  0.00     0.058 A 
ATOM     78  C   UNL A   1      45.307  29.016  35.731  1.00  0.00     0.135 A 
ATOM     79  C   UNL A   1      43.701  27.570  36.776  1.00  0.00     0.135 A 
ATOM     80  F   UNL A   1      45.620  30.012  34.890  1.00  0.00    -0.206 F 
ATOM     81  C   UNL A   1      46.343  28.367  36.400  1.00  0.00     0.059 A 
ATOM     82  C   UNL A   1      44.717  26.926  37.478  1.00  0.00     0.059 A 
ATOM     83  F   UNL A   1      42.439  27.163  36.978  1.00  0.00    -0.206 F 
ATOM     84  C   UNL A   1      46.036  27.324  37.276  1.00  0.00     0.060 A 
BRANCH  84  85
ATOM     85  S   UNL A   1      47.381  26.523  38.179  1.00  0.00     0.124 S 
ATOM     86  O   UNL A   1      47.559  27.429  39.307  1.00  0.00    -0.237 OA
ATOM     87  O   UNL A   1      46.806  25.218  38.491  1.00  0.00    -0.237 OA
ATOM     88  O   UNL A   1      48.470  26.502  37.207  1.00  0.00    -0.744 OA
ENDBRANCH  84  85
ENDBRANCH  52  77
BRANCH  64  89
ATOM     89  C   UNL A   1      39.750  33.978  37.431  1.00  0.00     0.058 A 
ATOM     90  C   UNL A   1      38.948  33.606  38.520  1.00  0.00     0.135 A 
ATOM     91  C   UNL A   1      40.480  35.174  37.530  1.00  0.00     0.135 A 
ATOM     92  F   UNL A   1      38.227  32.475  38.474  1.00  0.00    -0.206 F 
ATOM     93  C   UNL A   1      38.854  34.402  39.657  1.00  0.00     0.059 A 
ATOM     94  C   UNL A   1      40.422  35.972  38.668  1.00  0.00     0.059 A 
ATOM     95  F   UNL A   1      41.271  35.570  36.521  1.00  0.00    -0.206 F 
ATOM     96  C   UNL A   1      39.597  35.584  39.722  1.00  0.00     0.060 A 
BRANCH  96  97
ATOM     97  S   UNL A   1      39.494  36.591  41.216  1.00  0.00     0.124 S 
ATOM     98  O   UNL A   1      40.890  36.628  41.643  1.00  0.00    -0.237 OA
ATOM     99  O   UNL A   1      38.954  37.849  40.709  1.00  0.00    -0.237 OA
ATOM    100  O   UNL A   1      38.594  35.832  42.077  1.00  0.00    -0.744 OA
ENDBRANCH  96  97
ENDBRANCH  64  89
ENDBRANCH  38  39
ENDBRANCH  31  33
ENDBRANCH  30  31
ENDBRANCH  29  30
ENDBRANCH  28  29
ENDBRANCH   1  28
TORSDOF 21
ENDMDL
MODEL 3
REMARK VINA RESULT:     -10.9      0.614      8.042
REMARK SMILES Cc1c(Cl)cccc1NC(=O)C[C@](C)(C(=O)OCCOCCOC(=O)c1ccc(-c2c3nc(c(-c4c(F)cc(S(=O)(=O)[O-])cc4F)c4ccc([nH]4)c(-c4c(F)cc(S(=O)(=O)[O-])cc4F)c4nc(c(-c5c(F)cc(S(=O)(=O)[O-])cc5F)c5ccc2[nH]5)C=C4)C=C3)cc1)c1ccccc1
REMARK SMILES IDX 20 1 19 2 18 3 17 4 15 5 16 6 13 7 14 8 12 9 10 10 9 11
REMARK SMILES IDX 11 13 8 14 1 15 2 16 3 17 4 18 5 19 7 20 6 21 92 22 93 23
REMARK SMILES IDX 97 24 94 25 96 26 95 27 21 28 22 29 23 30 24 31 25 32 26 33
REMARK SMILES IDX 27 34 91 35 28 36 90 37 29 38 30 39 31 40 84 41 32 42 89 43
REMARK SMILES IDX 83 44 85 45 33 46 88 47 82 48 81 49 34 51 68 52 47 53 67 54
REMARK SMILES IDX 48 55 51 56 66 57 86 58 49 59 50 60 65 62 87 63 52 64 35 65
REMARK SMILES IDX 36 66 45 67 37 68 38 69 44 70 46 71 39 72 40 73 41 74 42 75
REMARK SMILES IDX 43 76 69 77 70 78 79 79 71 80 72 81 78 82 80 83 73 84 74 85
REMARK SMILES IDX 75 86 76 87 77 88 53 89 54 90 63 91 55 92 56 93 62 94 64 95
REMARK SMILES IDX 57 96 58 97 59 98 60 99 61 100
REMARK H PARENT 9 12 85 50 51 61
REMARK Flexibility Score: inf
ROOT
ATOM      1  O   UNL A   1      33.309  30.664  27.552  1.00  0.00    -0.374 OA
ENDROOT
BRANCH   1   2
ATOM      2  C   UNL A   1      32.739  30.827  26.252  1.00  0.00     0.202 C 
BRANCH   2   3
ATOM      3  C   UNL A   1      32.340  29.535  25.535  1.00  0.00     0.261 C 
BRANCH   3   4
ATOM      4  O   UNL A   1      33.382  28.552  25.652  1.00  0.00    -0.463 OA
BRANCH   4   5
ATOM      5  C   UNL A   1      33.557  27.737  24.579  1.00  0.00     0.316 C 
ATOM      6  O   UNL A   1      34.155  28.079  23.563  1.00  0.00    -0.251 OA
BRANCH   5   7
ATOM      7  C   UNL A   1      32.964  26.318  24.792  1.00  0.00     0.099 C 
ATOM      8  C   UNL A   1      32.387  26.109  26.223  1.00  0.00     0.029 C 
BRANCH   7   9
ATOM      9  C   UNL A   1      31.823  26.074  23.749  1.00  0.00     0.123 C 
BRANCH   9  10
ATOM     10  C   UNL A   1      30.506  25.465  24.207  1.00  0.00     0.225 C 
ATOM     11  N   UNL A   1      30.330  24.144  24.477  1.00  0.00    -0.326 N 
ATOM     12  H   UNL A   1      29.442  23.939  24.848  1.00  0.00     0.169 HD
ATOM     13  O   UNL A   1      29.527  26.204  24.371  1.00  0.00    -0.275 OA
BRANCH  11  14
ATOM     14  C   UNL A   1      31.147  23.011  24.340  1.00  0.00     0.045 A 
ATOM     15  C   UNL A   1      31.427  22.896  26.901  1.00  0.00     0.048 C 
ATOM     16  C   UNL A   1      31.736  22.447  25.493  1.00  0.00    -0.009 A 
ATOM     17  C   UNL A   1      32.704  21.441  25.319  1.00  0.00     0.046 A 
ATOM     18  Cl  UNL A   1      33.686  20.934  26.651  1.00  0.00    -0.084 Cl
ATOM     19  C   UNL A   1      32.962  20.895  24.063  1.00  0.00     0.021 A 
ATOM     20  C   UNL A   1      31.391  22.432  23.089  1.00  0.00     0.026 A 
ATOM     21  C   UNL A   1      32.285  21.370  22.950  1.00  0.00     0.004 A 
ENDBRANCH  11  14
ENDBRANCH   9  10
ENDBRANCH   7   9
BRANCH   7  22
ATOM     22  C   UNL A   1      34.068  25.219  24.661  1.00  0.00    -0.030 A 
ATOM     23  C   UNL A   1      34.300  24.592  23.418  1.00  0.00     0.005 A 
ATOM     24  C   UNL A   1      34.812  24.757  25.763  1.00  0.00     0.005 A 
ATOM     25  C   UNL A   1      35.246  23.570  23.283  1.00  0.00     0.000 A 
ATOM     26  C   UNL A   1      35.764  23.741  25.623  1.00  0.00     0.000 A 
ATOM     27  C   UNL A   1      35.981  23.149  24.385  1.00  0.00     0.000 A 
ENDBRANCH   7  22
ENDBRANCH   5   7
ENDBRANCH   4   5
ENDBRANCH   3   4
ENDBRANCH   2   3
ENDBRANCH   1   2
BRANCH   1  28
ATOM     28  C   UNL A   1      33.942  31.801  28.133  1.00  0.00     0.202 C 
BRANCH  28  29
ATOM     29  C   UNL A   1      35.258  31.570  28.892  1.00  0.00     0.261 C 
BRANCH  29  30
ATOM     30  O   UNL A   1      35.773  30.227  28.818  1.00  0.00    -0.460 OA
BRANCH  30  31
ATOM     31  C   UNL A   1      36.503  29.847  29.894  1.00  0.00     0.338 C 
ATOM     32  O   UNL A   1      36.065  29.406  30.956  1.00  0.00    -0.246 OA
BRANCH  31  33
ATOM     33  C   UNL A   1      37.949  29.906  29.611  1.00  0.00     0.060 A 
ATOM     34  C   UNL A   1      38.360  29.777  28.278  1.00  0.00     0.016 A 
ATOM     35  C   UNL A   1      38.898  29.967  30.635  1.00  0.00     0.016 A 
ATOM     36  C   UNL A   1      39.718  29.673  27.970  1.00  0.00     0.010 A 
ATOM     37  C   UNL A   1      40.264  29.859  30.322  1.00  0.00     0.010 A 
ATOM     38  C   UNL A   1      40.681  29.682  28.991  1.00  0.00    -0.014 A 
BRANCH  38  39
ATOM     39  C   UNL A   1      42.085  29.310  28.660  1.00  0.00     0.031 A 
ATOM     40  C   UNL A   1      42.366  27.903  28.216  1.00  0.00     0.074 A 
ATOM     41  C   UNL A   1      43.086  30.212  28.684  1.00  0.00     0.049 A 
ATOM     42  N   UNL A   1      43.492  27.370  27.822  1.00  0.00    -0.248 NA
ATOM     43  C   UNL A   1      41.232  26.967  28.247  1.00  0.00     0.031 C 
ATOM     44  C   UNL A   1      42.952  31.588  29.136  1.00  0.00     0.029 A 
ATOM     45  N   UNL A   1      44.405  30.118  28.309  1.00  0.00    -0.354 N 
ATOM     46  C   UNL A   1      43.208  26.034  27.571  1.00  0.00     0.074 A 
ATOM     47  C   UNL A   1      41.812  25.830  27.896  1.00  0.00     0.031 C 
ATOM     48  C   UNL A   1      44.111  32.240  28.946  1.00  0.00     0.029 A 
ATOM     49  C   UNL A   1      45.097  31.305  28.413  1.00  0.00     0.049 A 
ATOM     50  H   UNL A   1      44.817  29.281  27.994  1.00  0.00     0.167 HD
ATOM     51  C   UNL A   1      44.032  25.067  27.105  1.00  0.00     0.037 A 
ATOM     52  C   UNL A   1      46.381  31.602  28.122  1.00  0.00     0.037 A 
ATOM     53  C   UNL A   1      45.418  25.276  26.786  1.00  0.00     0.049 A 
ATOM     54  C   UNL A   1      47.280  30.508  27.607  1.00  0.00     0.074 A 
ATOM     55  C   UNL A   1      46.338  24.359  26.306  1.00  0.00     0.029 A 
ATOM     56  N   UNL A   1      46.088  26.485  26.915  1.00  0.00    -0.354 N 
ATOM     57  N   UNL A   1      46.988  29.253  27.358  1.00  0.00    -0.248 NA
ATOM     58  C   UNL A   1      48.682  30.863  27.347  1.00  0.00     0.031 C 
ATOM     59  C   UNL A   1      47.574  25.004  26.184  1.00  0.00     0.029 A 
ATOM     60  C   UNL A   1      47.412  26.335  26.536  1.00  0.00     0.049 A 
ATOM     61  H   UNL A   1      45.683  27.324  27.230  1.00  0.00     0.167 HD
ATOM     62  C   UNL A   1      48.164  28.673  26.895  1.00  0.00     0.074 A 
ATOM     63  C   UNL A   1      49.167  29.720  26.882  1.00  0.00     0.031 C 
ATOM     64  C   UNL A   1      48.394  27.391  26.518  1.00  0.00     0.037 A 
BRANCH  51  65
ATOM     65  C   UNL A   1      43.446  23.694  26.944  1.00  0.00     0.058 A 
ATOM     66  C   UNL A   1      43.271  22.831  28.039  1.00  0.00     0.135 A 
ATOM     67  C   UNL A   1      43.071  23.225  25.675  1.00  0.00     0.135 A 
ATOM     68  F   UNL A   1      43.637  23.221  29.271  1.00  0.00    -0.206 F 
ATOM     69  C   UNL A   1      42.785  21.540  27.876  1.00  0.00     0.059 A 
ATOM     70  C   UNL A   1      42.552  21.947  25.493  1.00  0.00     0.059 A 
ATOM     71  F   UNL A   1      43.222  24.005  24.593  1.00  0.00    -0.206 F 
ATOM     72  C   UNL A   1      42.431  21.105  26.597  1.00  0.00     0.060 A 
BRANCH  72  73
ATOM     73  S   UNL A   1      41.819  19.419  26.398  1.00  0.00     0.124 S 
ATOM     74  O   UNL A   1      40.378  19.639  26.327  1.00  0.00    -0.237 OA
ATOM     75  O   UNL A   1      42.458  19.000  25.155  1.00  0.00    -0.237 OA
ATOM     76  O   UNL A   1      42.292  18.742  27.602  1.00  0.00    -0.744 OA
ENDBRANCH  72  73
ENDBRANCH  51  65
BRANCH  52  77
ATOM     77  C   UNL A   1      46.900  32.987  28.311  1.00  0.00     0.058 A 
ATOM     78  C   UNL A   1      46.814  33.943  27.285  1.00  0.00     0.135 A 
ATOM     79  C   UNL A   1      47.500  33.385  29.517  1.00  0.00     0.135 A 
ATOM     80  F   UNL A   1      46.264  33.613  26.107  1.00  0.00    -0.206 F 
ATOM     81  C   UNL A   1      47.315  35.233  27.441  1.00  0.00     0.059 A 
ATOM     82  C   UNL A   1      47.982  34.678  29.706  1.00  0.00     0.059 A 
ATOM     83  F   UNL A   1      47.605  32.518  30.535  1.00  0.00    -0.206 F 
ATOM     84  C   UNL A   1      47.894  35.593  28.659  1.00  0.00     0.060 A 
BRANCH  84  85
ATOM     85  S   UNL A   1      48.495  37.284  28.871  1.00  0.00     0.124 S 
ATOM     86  O   UNL A   1      49.424  37.128  29.985  1.00  0.00    -0.237 OA
ATOM     87  O   UNL A   1      49.096  37.562  27.571  1.00  0.00    -0.237 OA
ATOM     88  O   UNL A   1      47.279  38.036  29.164  1.00  0.00    -0.744 OA
ENDBRANCH  84  85
ENDBRANCH  52  77
BRANCH  64  89
ATOM     89  C   UNL A   1      49.770  27.053  26.015  1.00  0.00     0.058 A 
ATOM     90  C   UNL A   1      50.762  26.530  26.858  1.00  0.00     0.135 A 
ATOM     91  C   UNL A   1      50.079  27.203  24.653  1.00  0.00     0.135 A 
ATOM     92  F   UNL A   1      50.520  26.371  28.169  1.00  0.00    -0.206 F 
ATOM     93  C   UNL A   1      52.020  26.188  26.374  1.00  0.00     0.059 A 
ATOM     94  C   UNL A   1      51.322  26.843  24.141  1.00  0.00     0.059 A 
ATOM     95  F   UNL A   1      49.163  27.689  23.801  1.00  0.00    -0.206 F 
ATOM     96  C   UNL A   1      52.290  26.347  25.012  1.00  0.00     0.060 A 
BRANCH  96  97
ATOM     97  S   UNL A   1      53.915  25.868  24.389  1.00  0.00     0.124 S 
ATOM     98  O   UNL A   1      53.735  26.025  22.949  1.00  0.00    -0.237 OA
ATOM     99  O   UNL A   1      54.795  26.843  25.027  1.00  0.00    -0.237 OA
ATOM    100  O   UNL A   1      54.068  24.495  24.857  1.00  0.00    -0.744 OA
ENDBRANCH  96  97
ENDBRANCH  64  89
ENDBRANCH  38  39
ENDBRANCH  31  33
ENDBRANCH  30  31
ENDBRANCH  29  30
ENDBRANCH  28  29
ENDBRANCH   1  28
TORSDOF 21
ENDMDL
