MODEL 1
REMARK VINA RESULT:     -12.2      0.000      0.000
REMARK SMILES O=C(OCCOCCOC(=O)c1ccc(-c2c3nc(c(-c4c(F)cc(S(=O)(=O)[O-])cc4F)c4ccc([nH]4)c(-c4c(F)cc(S(=O)(=O)[O-])cc4F)c4nc(c(-c5c(F)cc(S(=O)(=O)[O-])cc5F)c5ccc2[nH]5)C=C4)C=C3)cc1)C1=Cc2c(ccc(Cl)c2-c2ccccc2)O[C@H]1C(F)(F)F
REMARK SMILES IDX 7 1 6 2 5 3 4 4 3 5 2 6 1 7 78 8 79 9 94 10 80 11 93 12
REMARK SMILES IDX 81 13 86 14 82 15 84 16 83 17 85 18 95 19 96 20 97 21 98 22
REMARK SMILES IDX 87 23 88 24 92 25 89 26 91 27 90 28 8 29 9 30 10 31 11 32
REMARK SMILES IDX 12 33 13 34 77 35 14 36 76 37 15 38 16 39 17 40 70 41 18 42
REMARK SMILES IDX 75 43 69 44 71 45 19 46 74 47 68 48 67 49 20 51 54 52 33 53
REMARK SMILES IDX 53 54 34 55 37 56 52 57 72 58 35 59 36 60 51 62 73 63 38 64
REMARK SMILES IDX 21 65 22 66 31 67 23 68 24 69 30 70 32 71 25 72 26 73 27 74
REMARK SMILES IDX 28 75 29 76 55 77 56 78 65 79 57 80 58 81 64 82 66 83 59 84
REMARK SMILES IDX 60 85 61 86 62 87 63 88 39 89 40 90 49 91 41 92 42 93 48 94
REMARK SMILES IDX 50 95 43 96 44 97 45 98 46 99 47 100
REMARK H PARENT 71 50 37 61
REMARK Flexibility Score: inf
ROOT
ATOM      1  C   UNL A   1      36.913  22.557  25.695  1.00  0.00     0.202 C 
ENDROOT
BRANCH   1   2
ATOM      2  O   UNL A   1      35.560  22.309  25.712  1.00  0.00    -0.374 OA
BRANCH   2   3
ATOM      3  C   UNL A   1      34.906  23.338  26.370  1.00  0.00     0.202 C 
BRANCH   3   4
ATOM      4  C   UNL A   1      33.312  23.394  26.698  1.00  0.00     0.261 C 
BRANCH   4   5
ATOM      5  O   UNL A   1      32.811  24.702  26.492  1.00  0.00    -0.460 OA
BRANCH   5   6
ATOM      6  C   UNL A   1      31.651  24.779  25.796  1.00  0.00     0.338 C 
ATOM      7  O   UNL A   1      30.641  24.221  26.190  1.00  0.00    -0.246 OA
BRANCH   6   8
ATOM      8  C   UNL A   1      31.737  25.397  24.470  1.00  0.00     0.087 C 
ATOM      9  C   UNL A   1      31.701  26.641  24.072  1.00  0.00     0.028 C 
ATOM     10  C   UNL A   1      31.705  24.775  23.131  1.00  0.00     0.316 C 
ATOM     11  C   UNL A   1      31.658  27.979  23.704  1.00  0.00     0.027 A 
ATOM     12  O   UNL A   1      31.015  25.981  22.078  1.00  0.00    -0.475 OA
ATOM     13  C   UNL A   1      30.873  27.472  22.539  1.00  0.00     0.128 A 
ATOM     14  C   UNL A   1      31.695  29.214  24.446  1.00  0.00     0.011 A 
ATOM     15  C   UNL A   1      29.941  28.334  22.037  1.00  0.00     0.049 A 
ATOM     16  C   UNL A   1      30.576  29.926  23.983  1.00  0.00     0.049 A 
ATOM     17  C   UNL A   1      29.777  29.536  22.793  1.00  0.00     0.025 A 
ATOM     18  Cl  UNL A   1      29.821  31.115  24.973  1.00  0.00    -0.084 Cl
BRANCH  10  19
ATOM     19  C   UNL A   1      33.212  24.313  22.907  1.00  0.00     0.430 C 
ATOM     20  F   UNL A   1      34.111  25.180  23.468  1.00  0.00    -0.167 F 
ATOM     21  F   UNL A   1      33.496  23.130  23.485  1.00  0.00    -0.167 F 
ATOM     22  F   UNL A   1      33.545  24.250  21.599  1.00  0.00    -0.167 F 
ENDBRANCH  10  19
BRANCH  14  23
ATOM     23  C   UNL A   1      32.814  29.651  25.662  1.00  0.00    -0.016 A 
ATOM     24  C   UNL A   1      32.646  31.135  26.684  1.00  0.00     0.009 A 
ATOM     25  C   UNL A   1      34.280  28.607  25.985  1.00  0.00     0.009 A 
ATOM     26  C   UNL A   1      33.881  31.580  27.969  1.00  0.00     0.001 A 
ATOM     27  C   UNL A   1      35.518  28.997  27.283  1.00  0.00     0.001 A 
ATOM     28  C   UNL A   1      35.357  30.531  28.248  1.00  0.00     0.000 A 
ENDBRANCH  14  23
ENDBRANCH   6   8
ENDBRANCH   5   6
ENDBRANCH   4   5
ENDBRANCH   3   4
ENDBRANCH   2   3
ENDBRANCH   1   2
BRANCH   1  29
ATOM     29  C   UNL A   1      37.454  23.979  26.162  1.00  0.00     0.261 C 
BRANCH  29  30
ATOM     30  O   UNL A   1      39.237  24.838  26.430  1.00  0.00    -0.460 OA
BRANCH  30  31
ATOM     31  C   UNL A   1      40.340  25.718  26.313  1.00  0.00     0.338 C 
ATOM     32  O   UNL A   1      41.010  26.017  25.334  1.00  0.00    -0.246 OA
BRANCH  31  33
ATOM     33  C   UNL A   1      40.493  26.432  27.567  1.00  0.00     0.060 A 
ATOM     34  C   UNL A   1      39.635  26.088  28.611  1.00  0.00     0.016 A 
ATOM     35  C   UNL A   1      41.506  27.384  27.695  1.00  0.00     0.016 A 
ATOM     36  C   UNL A   1      39.768  26.752  29.814  1.00  0.00     0.010 A 
ATOM     37  C   UNL A   1      41.676  28.009  28.911  1.00  0.00     0.010 A 
ATOM     38  C   UNL A   1      40.761  27.735  29.938  1.00  0.00    -0.014 A 
BRANCH  38  39
ATOM     39  C   UNL A   1      40.560  28.773  30.950  1.00  0.00     0.031 A 
ATOM     40  C   UNL A   1      41.454  28.675  32.148  1.00  0.00     0.074 A 
ATOM     41  C   UNL A   1      39.646  29.738  30.793  1.00  0.00     0.049 A 
ATOM     42  N   UNL A   1      41.486  29.421  33.213  1.00  0.00    -0.248 NA
ATOM     43  C   UNL A   1      42.439  27.573  32.152  1.00  0.00     0.031 C 
ATOM     44  C   UNL A   1      38.776  29.903  29.632  1.00  0.00     0.029 A 
ATOM     45  N   UNL A   1      39.304  30.766  31.623  1.00  0.00    -0.354 N 
ATOM     46  C   UNL A   1      42.484  28.876  34.008  1.00  0.00     0.074 A 
ATOM     47  C   UNL A   1      43.002  27.713  33.336  1.00  0.00     0.031 C 
ATOM     48  C   UNL A   1      38.005  30.988  29.816  1.00  0.00     0.029 A 
ATOM     49  C   UNL A   1      38.293  31.551  31.131  1.00  0.00     0.049 A 
ATOM     50  H   UNL A   1      39.741  30.928  32.490  1.00  0.00     0.167 HD
ATOM     51  C   UNL A   1      42.928  29.325  35.199  1.00  0.00     0.037 A 
ATOM     52  C   UNL A   1      37.663  32.591  31.708  1.00  0.00     0.037 A 
ATOM     53  C   UNL A   1      42.363  30.470  35.851  1.00  0.00     0.049 A 
ATOM     54  C   UNL A   1      38.118  33.013  33.080  1.00  0.00     0.074 A 
ATOM     55  C   UNL A   1      42.716  31.026  37.063  1.00  0.00     0.029 A 
ATOM     56  N   UNL A   1      41.304  31.218  35.351  1.00  0.00    -0.354 N 
ATOM     57  N   UNL A   1      39.074  32.508  33.827  1.00  0.00    -0.248 NA
ATOM     58  C   UNL A   1      37.418  34.151  33.684  1.00  0.00     0.031 C 
ATOM     59  C   UNL A   1      41.808  32.051  37.341  1.00  0.00     0.029 A 
ATOM     60  C   UNL A   1      40.964  32.209  36.249  1.00  0.00     0.049 A 
ATOM     61  H   UNL A   1      40.863  31.063  34.485  1.00  0.00     0.167 HD
ATOM     62  C   UNL A   1      39.126  33.302  34.968  1.00  0.00     0.074 A 
ATOM     63  C   UNL A   1      38.107  34.320  34.803  1.00  0.00     0.031 C 
ATOM     64  C   UNL A   1      39.944  33.210  36.048  1.00  0.00     0.037 A 
BRANCH  51  65
ATOM     65  C   UNL A   1      44.008  28.534  35.875  1.00  0.00     0.058 A 
ATOM     66  C   UNL A   1      45.374  28.793  35.672  1.00  0.00     0.135 A 
ATOM     67  C   UNL A   1      43.662  27.481  36.738  1.00  0.00     0.135 A 
ATOM     68  F   UNL A   1      45.764  29.760  34.825  1.00  0.00    -0.206 F 
ATOM     69  C   UNL A   1      46.357  28.027  36.287  1.00  0.00     0.059 A 
ATOM     70  C   UNL A   1      44.629  26.731  37.396  1.00  0.00     0.059 A 
ATOM     71  F   UNL A   1      42.373  27.172  36.945  1.00  0.00    -0.206 F 
ATOM     72  C   UNL A   1      45.974  27.006  37.158  1.00  0.00     0.060 A 
BRANCH  72  73
ATOM     73  S   UNL A   1      47.260  26.055  37.989  1.00  0.00     0.124 S 
ATOM     74  O   UNL A   1      48.274  27.077  38.228  1.00  0.00    -0.237 OA
ATOM     75  O   UNL A   1      46.561  25.564  39.173  1.00  0.00    -0.237 OA
ATOM     76  O   UNL A   1      47.618  25.036  37.007  1.00  0.00    -0.744 OA
ENDBRANCH  72  73
ENDBRANCH  51  65
BRANCH  52  77
ATOM     77  C   UNL A   1      36.557  33.290  31.003  1.00  0.00     0.058 A 
ATOM     78  C   UNL A   1      36.807  34.117  29.898  1.00  0.00     0.135 A 
ATOM     79  C   UNL A   1      35.225  33.153  31.425  1.00  0.00     0.135 A 
ATOM     80  F   UNL A   1      38.062  34.283  29.455  1.00  0.00    -0.206 F 
ATOM     81  C   UNL A   1      35.783  34.806  29.256  1.00  0.00     0.059 A 
ATOM     82  C   UNL A   1      34.179  33.802  30.776  1.00  0.00     0.059 A 
ATOM     83  F   UNL A   1      34.925  32.364  32.468  1.00  0.00    -0.206 F 
ATOM     84  C   UNL A   1      34.471  34.637  29.699  1.00  0.00     0.060 A 
BRANCH  84  85
ATOM     85  S   UNL A   1      33.148  35.500  28.827  1.00  0.00     0.124 S 
ATOM     86  O   UNL A   1      32.383  36.064  29.933  1.00  0.00    -0.237 OA
ATOM     87  O   UNL A   1      33.896  36.454  28.015  1.00  0.00    -0.237 OA
ATOM     88  O   UNL A   1      32.485  34.434  28.080  1.00  0.00    -0.744 OA
ENDBRANCH  84  85
ENDBRANCH  52  77
BRANCH  64  89
ATOM     89  C   UNL A   1      39.826  34.286  37.092  1.00  0.00     0.058 A 
ATOM     90  C   UNL A   1      39.072  34.123  38.263  1.00  0.00     0.135 A 
ATOM     91  C   UNL A   1      40.516  35.499  36.919  1.00  0.00     0.135 A 
ATOM     92  F   UNL A   1      38.397  32.983  38.483  1.00  0.00    -0.206 F 
ATOM     93  C   UNL A   1      38.956  35.146  39.197  1.00  0.00     0.059 A 
ATOM     94  C   UNL A   1      40.459  36.513  37.865  1.00  0.00     0.059 A 
ATOM     95  F   UNL A   1      41.269  35.703  35.826  1.00  0.00    -0.206 F 
ATOM     96  C   UNL A   1      39.656  36.336  38.989  1.00  0.00     0.060 A 
BRANCH  96  97
ATOM     97  S   UNL A   1      39.500  37.652  40.210  1.00  0.00     0.124 S 
ATOM     98  O   UNL A   1      40.866  38.161  40.269  1.00  0.00    -0.237 OA
ATOM     99  O   UNL A   1      38.519  38.535  39.586  1.00  0.00    -0.237 OA
ATOM    100  O   UNL A   1      39.038  36.955  41.407  1.00  0.00    -0.744 OA
ENDBRANCH  96  97
ENDBRANCH  64  89
ENDBRANCH  38  39
ENDBRANCH  31  33
ENDBRANCH  30  31
ENDBRANCH  29  30
ENDBRANCH   1  29
TORSDOF 19
ENDMDL
MODEL 2
REMARK VINA RESULT:     -11.5      4.650      7.657
REMARK SMILES O=C(OCCOCCOC(=O)c1ccc(-c2c3nc(c(-c4c(F)cc(S(=O)(=O)[O-])cc4F)c4ccc([nH]4)c(-c4c(F)cc(S(=O)(=O)[O-])cc4F)c4nc(c(-c5c(F)cc(S(=O)(=O)[O-])cc5F)c5ccc2[nH]5)C=C4)C=C3)cc1)C1=Cc2c(ccc(Cl)c2-c2ccccc2)O[C@H]1C(F)(F)F
REMARK SMILES IDX 7 1 6 2 5 3 4 4 3 5 2 6 1 7 78 8 79 9 94 10 80 11 93 12
REMARK SMILES IDX 81 13 86 14 82 15 84 16 83 17 85 18 95 19 96 20 97 21 98 22
REMARK SMILES IDX 87 23 88 24 92 25 89 26 91 27 90 28 8 29 9 30 10 31 11 32
REMARK SMILES IDX 12 33 13 34 77 35 14 36 76 37 15 38 16 39 17 40 70 41 18 42
REMARK SMILES IDX 75 43 69 44 71 45 19 46 74 47 68 48 67 49 20 51 54 52 33 53
REMARK SMILES IDX 53 54 34 55 37 56 52 57 72 58 35 59 36 60 51 62 73 63 38 64
REMARK SMILES IDX 21 65 22 66 31 67 23 68 24 69 30 70 32 71 25 72 26 73 27 74
REMARK SMILES IDX 28 75 29 76 55 77 56 78 65 79 57 80 58 81 64 82 66 83 59 84
REMARK SMILES IDX 60 85 61 86 62 87 63 88 39 89 40 90 49 91 41 92 42 93 48 94
REMARK SMILES IDX 50 95 43 96 44 97 45 98 46 99 47 100
REMARK H PARENT 71 50 37 61
REMARK Flexibility Score: inf
ROOT
ATOM      1  C   UNL A   1      44.812  25.945  25.376  1.00  0.00     0.202 C 
ENDROOT
BRANCH   1   2
ATOM      2  O   UNL A   1      45.888  25.523  24.632  1.00  0.00    -0.374 OA
BRANCH   2   3
ATOM      3  C   UNL A   1      46.005  24.145  24.720  1.00  0.00     0.202 C 
BRANCH   3   4
ATOM      4  C   UNL A   1      45.046  23.164  25.597  1.00  0.00     0.261 C 
BRANCH   4   5
ATOM      5  O   UNL A   1      45.722  22.722  26.759  1.00  0.00    -0.460 OA
BRANCH   5   6
ATOM      6  C   UNL A   1      46.104  23.697  27.618  1.00  0.00     0.338 C 
ATOM      7  O   UNL A   1      47.171  24.272  27.487  1.00  0.00    -0.246 OA
BRANCH   6   8
ATOM      8  C   UNL A   1      45.260  23.877  28.804  1.00  0.00     0.087 C 
ATOM      9  C   UNL A   1      45.179  24.829  29.693  1.00  0.00     0.028 C 
ATOM     10  C   UNL A   1      44.348  22.924  29.471  1.00  0.00     0.316 C 
ATOM     11  C   UNL A   1      45.134  25.871  30.611  1.00  0.00     0.027 A 
ATOM     12  O   UNL A   1      44.338  23.395  31.149  1.00  0.00    -0.475 OA
ATOM     13  C   UNL A   1      44.919  24.777  31.606  1.00  0.00     0.128 A 
ATOM     14  C   UNL A   1      45.730  27.182  30.654  1.00  0.00     0.011 A 
ATOM     15  C   UNL A   1      45.404  25.018  32.859  1.00  0.00     0.049 A 
ATOM     16  C   UNL A   1      46.364  27.230  31.906  1.00  0.00     0.049 A 
ATOM     17  C   UNL A   1      46.157  26.226  32.981  1.00  0.00     0.025 A 
ATOM     18  Cl  UNL A   1      47.713  28.267  32.168  1.00  0.00    -0.084 Cl
BRANCH  10  19
ATOM     19  C   UNL A   1      43.010  23.041  28.618  1.00  0.00     0.430 C 
ATOM     20  F   UNL A   1      42.877  22.021  27.714  1.00  0.00    -0.167 F 
ATOM     21  F   UNL A   1      41.894  22.958  29.369  1.00  0.00    -0.167 F 
ATOM     22  F   UNL A   1      42.959  24.175  27.887  1.00  0.00    -0.167 F 
ENDBRANCH  10  19
BRANCH  14  23
ATOM     23  C   UNL A   1      45.717  28.359  29.414  1.00  0.00    -0.016 A 
ATOM     24  C   UNL A   1      46.632  28.182  27.863  1.00  0.00     0.009 A 
ATOM     25  C   UNL A   1      44.754  29.900  29.614  1.00  0.00     0.009 A 
ATOM     26  C   UNL A   1      46.609  29.479  26.562  1.00  0.00     0.001 A 
ATOM     27  C   UNL A   1      44.675  31.204  28.325  1.00  0.00     0.001 A 
ATOM     28  C   UNL A   1      45.660  31.027  26.805  1.00  0.00     0.000 A 
ENDBRANCH  14  23
ENDBRANCH   6   8
ENDBRANCH   5   6
ENDBRANCH   4   5
ENDBRANCH   3   4
ENDBRANCH   2   3
ENDBRANCH   1   2
BRANCH   1  29
ATOM     29  C   UNL A   1      43.342  25.519  24.937  1.00  0.00     0.261 C 
BRANCH  29  30
ATOM     30  O   UNL A   1      41.487  25.774  25.632  1.00  0.00    -0.460 OA
BRANCH  30  31
ATOM     31  C   UNL A   1      40.301  25.629  26.390  1.00  0.00     0.338 C 
ATOM     32  O   UNL A   1      39.322  24.920  26.197  1.00  0.00    -0.246 OA
BRANCH  31  33
ATOM     33  C   UNL A   1      40.460  26.353  27.638  1.00  0.00     0.060 A 
ATOM     34  C   UNL A   1      39.604  26.020  28.687  1.00  0.00     0.016 A 
ATOM     35  C   UNL A   1      41.477  27.303  27.755  1.00  0.00     0.016 A 
ATOM     36  C   UNL A   1      39.742  26.694  29.884  1.00  0.00     0.010 A 
ATOM     37  C   UNL A   1      41.653  27.936  28.965  1.00  0.00     0.010 A 
ATOM     38  C   UNL A   1      40.739  27.675  29.997  1.00  0.00    -0.014 A 
BRANCH  38  39
ATOM     39  C   UNL A   1      40.544  28.721  31.001  1.00  0.00     0.031 A 
ATOM     40  C   UNL A   1      41.438  28.628  32.199  1.00  0.00     0.074 A 
ATOM     41  C   UNL A   1      39.636  29.691  30.836  1.00  0.00     0.049 A 
ATOM     42  N   UNL A   1      41.474  29.382  33.259  1.00  0.00    -0.248 NA
ATOM     43  C   UNL A   1      42.417  27.520  32.212  1.00  0.00     0.031 C 
ATOM     44  C   UNL A   1      38.767  29.851  29.675  1.00  0.00     0.029 A 
ATOM     45  N   UNL A   1      39.300  30.727  31.658  1.00  0.00    -0.354 N 
ATOM     46  C   UNL A   1      42.470  28.838  34.057  1.00  0.00     0.074 A 
ATOM     47  C   UNL A   1      42.981  27.666  33.395  1.00  0.00     0.031 C 
ATOM     48  C   UNL A   1      38.002  30.942  29.850  1.00  0.00     0.029 A 
ATOM     49  C   UNL A   1      38.294  31.514  31.161  1.00  0.00     0.049 A 
ATOM     50  H   UNL A   1      39.738  30.893  32.525  1.00  0.00     0.167 HD
ATOM     51  C   UNL A   1      42.917  29.292  35.244  1.00  0.00     0.037 A 
ATOM     52  C   UNL A   1      37.670  32.562  31.730  1.00  0.00     0.037 A 
ATOM     53  C   UNL A   1      42.359  30.446  35.889  1.00  0.00     0.049 A 
ATOM     54  C   UNL A   1      38.128  32.992  33.099  1.00  0.00     0.074 A 
ATOM     55  C   UNL A   1      42.715  31.009  37.095  1.00  0.00     0.029 A 
ATOM     56  N   UNL A   1      41.304  31.196  35.382  1.00  0.00    -0.354 N 
ATOM     57  N   UNL A   1      39.081  32.488  33.849  1.00  0.00    -0.248 NA
ATOM     58  C   UNL A   1      37.434  34.138  33.694  1.00  0.00     0.031 C 
ATOM     59  C   UNL A   1      41.814  32.042  37.366  1.00  0.00     0.029 A 
ATOM     60  C   UNL A   1      40.970  32.197  36.273  1.00  0.00     0.049 A 
ATOM     61  H   UNL A   1      40.861  31.037  34.518  1.00  0.00     0.167 HD
ATOM     62  C   UNL A   1      39.138  33.290  34.984  1.00  0.00     0.074 A 
ATOM     63  C   UNL A   1      38.125  34.312  34.811  1.00  0.00     0.031 C 
ATOM     64  C   UNL A   1      39.956  33.202  36.064  1.00  0.00     0.037 A 
BRANCH  51  65
ATOM     65  C   UNL A   1      43.993  28.500  35.927  1.00  0.00     0.058 A 
ATOM     66  C   UNL A   1      45.360  28.750  35.721  1.00  0.00     0.135 A 
ATOM     67  C   UNL A   1      43.641  27.458  36.798  1.00  0.00     0.135 A 
ATOM     68  F   UNL A   1      45.755  29.707  34.865  1.00  0.00    -0.206 F 
ATOM     69  C   UNL A   1      46.339  27.983  36.341  1.00  0.00     0.059 A 
ATOM     70  C   UNL A   1      44.603  26.707  37.462  1.00  0.00     0.059 A 
ATOM     71  F   UNL A   1      42.350  27.158  37.010  1.00  0.00    -0.206 F 
ATOM     72  C   UNL A   1      45.950  26.971  37.221  1.00  0.00     0.060 A 
BRANCH  72  73
ATOM     73  S   UNL A   1      47.231  26.019  38.059  1.00  0.00     0.124 S 
ATOM     74  O   UNL A   1      46.703  24.662  37.956  1.00  0.00    -0.237 OA
ATOM     75  O   UNL A   1      48.407  26.306  37.243  1.00  0.00    -0.237 OA
ATOM     76  O   UNL A   1      47.250  26.583  39.404  1.00  0.00    -0.744 OA
ENDBRANCH  72  73
ENDBRANCH  51  65
BRANCH  52  77
ATOM     77  C   UNL A   1      36.567  33.262  31.020  1.00  0.00     0.058 A 
ATOM     78  C   UNL A   1      35.234  33.118  31.429  1.00  0.00     0.135 A 
ATOM     79  C   UNL A   1      36.823  34.084  29.911  1.00  0.00     0.135 A 
ATOM     80  F   UNL A   1      34.933  32.343  32.483  1.00  0.00    -0.206 F 
ATOM     81  C   UNL A   1      34.190  33.738  30.748  1.00  0.00     0.059 A 
ATOM     82  C   UNL A   1      35.801  34.745  29.236  1.00  0.00     0.059 A 
ATOM     83  F   UNL A   1      38.082  34.269  29.484  1.00  0.00    -0.206 F 
ATOM     84  C   UNL A   1      34.486  34.554  29.656  1.00  0.00     0.060 A 
BRANCH  84  85
ATOM     85  S   UNL A   1      33.128  35.390  28.811  1.00  0.00     0.124 S 
ATOM     86  O   UNL A   1      32.634  34.336  27.931  1.00  0.00    -0.237 OA
ATOM     87  O   UNL A   1      32.258  35.752  29.925  1.00  0.00    -0.237 OA
ATOM     88  O   UNL A   1      33.784  36.511  28.145  1.00  0.00    -0.744 OA
ENDBRANCH  84  85
ENDBRANCH  52  77
BRANCH  64  89
ATOM     89  C   UNL A   1      39.845  34.286  37.100  1.00  0.00     0.058 A 
ATOM     90  C   UNL A   1      39.134  34.117  38.298  1.00  0.00     0.135 A 
ATOM     91  C   UNL A   1      40.496  35.515  36.890  1.00  0.00     0.135 A 
ATOM     92  F   UNL A   1      38.497  32.963  38.552  1.00  0.00    -0.206 F 
ATOM     93  C   UNL A   1      39.023  35.148  39.224  1.00  0.00     0.059 A 
ATOM     94  C   UNL A   1      40.444  36.538  37.828  1.00  0.00     0.059 A 
ATOM     95  F   UNL A   1      41.206  35.725  35.771  1.00  0.00    -0.206 F 
ATOM     96  C   UNL A   1      39.684  36.353  38.979  1.00  0.00     0.060 A 
BRANCH  96  97
ATOM     97  S   UNL A   1      39.534  37.679  40.190  1.00  0.00     0.124 S 
ATOM     98  O   UNL A   1      39.054  36.954  41.362  1.00  0.00    -0.237 OA
ATOM     99  O   UNL A   1      40.903  38.179  40.270  1.00  0.00    -0.237 OA
ATOM    100  O   UNL A   1      38.572  38.592  39.581  1.00  0.00    -0.744 OA
ENDBRANCH  96  97
ENDBRANCH  64  89
ENDBRANCH  38  39
ENDBRANCH  31  33
ENDBRANCH  30  31
ENDBRANCH  29  30
ENDBRANCH   1  29
TORSDOF 19
ENDMDL
MODEL 3
REMARK VINA RESULT:     -11.4      4.801      9.049
REMARK SMILES O=C(OCCOCCOC(=O)c1ccc(-c2c3nc(c(-c4c(F)cc(S(=O)(=O)[O-])cc4F)c4ccc([nH]4)c(-c4c(F)cc(S(=O)(=O)[O-])cc4F)c4nc(c(-c5c(F)cc(S(=O)(=O)[O-])cc5F)c5ccc2[nH]5)C=C4)C=C3)cc1)C1=Cc2c(ccc(Cl)c2-c2ccccc2)O[C@H]1C(F)(F)F
REMARK SMILES IDX 7 1 6 2 5 3 4 4 3 5 2 6 1 7 78 8 79 9 94 10 80 11 93 12
REMARK SMILES IDX 81 13 86 14 82 15 84 16 83 17 85 18 95 19 96 20 97 21 98 22
REMARK SMILES IDX 87 23 88 24 92 25 89 26 91 27 90 28 8 29 9 30 10 31 11 32
REMARK SMILES IDX 12 33 13 34 77 35 14 36 76 37 15 38 16 39 17 40 70 41 18 42
REMARK SMILES IDX 75 43 69 44 71 45 19 46 74 47 68 48 67 49 20 51 54 52 33 53
REMARK SMILES IDX 53 54 34 55 37 56 52 57 72 58 35 59 36 60 51 62 73 63 38 64
REMARK SMILES IDX 21 65 22 66 31 67 23 68 24 69 30 70 32 71 25 72 26 73 27 74
REMARK SMILES IDX 28 75 29 76 55 77 56 78 65 79 57 80 58 81 64 82 66 83 59 84
REMARK SMILES IDX 60 85 61 86 62 87 63 88 39 89 40 90 49 91 41 92 42 93 48 94
REMARK SMILES IDX 50 95 43 96 44 97 45 98 46 99 47 100
REMARK H PARENT 71 50 37 61
REMARK Flexibility Score: inf
ROOT
ATOM      1  C   UNL A   1      34.970  21.108  25.970  1.00  0.00     0.202 C 
ENDROOT
BRANCH   1   2
ATOM      2  O   UNL A   1      33.854  21.234  26.763  1.00  0.00    -0.374 OA
BRANCH   2   3
ATOM      3  C   UNL A   1      32.950  22.096  26.165  1.00  0.00     0.202 C 
BRANCH   3   4
ATOM      4  C   UNL A   1      31.979  23.145  26.943  1.00  0.00     0.261 C 
BRANCH   4   5
ATOM      5  O   UNL A   1      32.222  24.467  26.498  1.00  0.00    -0.460 OA
BRANCH   5   6
ATOM      6  C   UNL A   1      31.131  25.149  26.073  1.00  0.00     0.338 C 
ATOM      7  O   UNL A   1      30.088  25.126  26.703  1.00  0.00    -0.246 OA
BRANCH   6   8
ATOM      8  C   UNL A   1      31.224  25.742  24.736  1.00  0.00     0.087 C 
ATOM      9  C   UNL A   1      31.298  26.978  24.322  1.00  0.00     0.028 C 
ATOM     10  C   UNL A   1      31.077  25.112  23.407  1.00  0.00     0.316 C 
ATOM     11  C   UNL A   1      31.374  28.310  23.937  1.00  0.00     0.027 A 
ATOM     12  O   UNL A   1      30.468  26.371  22.366  1.00  0.00    -0.475 OA
ATOM     13  C   UNL A   1      30.496  27.874  22.811  1.00  0.00     0.128 A 
ATOM     14  C   UNL A   1      31.566  29.543  24.659  1.00  0.00     0.011 A 
ATOM     15  C   UNL A   1      29.636  28.820  22.334  1.00  0.00     0.049 A 
ATOM     16  C   UNL A   1      30.506  30.359  24.231  1.00  0.00     0.049 A 
ATOM     17  C   UNL A   1      29.624  30.040  23.079  1.00  0.00     0.025 A 
ATOM     18  Cl  UNL A   1      29.915  31.628  25.233  1.00  0.00    -0.084 Cl
BRANCH  10  19
ATOM     19  C   UNL A   1      32.519  24.498  23.131  1.00  0.00     0.430 C 
ATOM     20  F   UNL A   1      33.499  25.128  23.850  1.00  0.00    -0.167 F 
ATOM     21  F   UNL A   1      32.625  23.206  23.497  1.00  0.00    -0.167 F 
ATOM     22  F   UNL A   1      32.892  24.617  21.839  1.00  0.00    -0.167 F 
ENDBRANCH  10  19
BRANCH  14  23
ATOM     23  C   UNL A   1      32.771  29.877  25.823  1.00  0.00    -0.016 A 
ATOM     24  C   UNL A   1      34.167  28.774  26.157  1.00  0.00     0.009 A 
ATOM     25  C   UNL A   1      32.693  31.407  26.820  1.00  0.00     0.009 A 
ATOM     26  C   UNL A   1      35.432  29.159  27.432  1.00  0.00     0.001 A 
ATOM     27  C   UNL A   1      33.955  31.846  28.078  1.00  0.00     0.001 A 
ATOM     28  C   UNL A   1      35.310  30.685  28.437  1.00  0.00     0.000 A 
ENDBRANCH  14  23
ENDBRANCH   6   8
ENDBRANCH   5   6
ENDBRANCH   4   5
ENDBRANCH   3   4
ENDBRANCH   2   3
ENDBRANCH   1   2
BRANCH   1  29
ATOM     29  C   UNL A   1      35.935  22.359  25.771  1.00  0.00     0.261 C 
BRANCH  29  30
ATOM     30  O   UNL A   1      37.877  22.750  26.024  1.00  0.00    -0.460 OA
BRANCH  30  31
ATOM     31  C   UNL A   1      39.209  22.705  26.499  1.00  0.00     0.338 C 
ATOM     32  O   UNL A   1      40.030  21.798  26.463  1.00  0.00    -0.246 OA
BRANCH  31  33
ATOM     33  C   UNL A   1      39.594  24.040  26.917  1.00  0.00     0.060 A 
ATOM     34  C   UNL A   1      40.042  24.918  25.930  1.00  0.00     0.016 A 
ATOM     35  C   UNL A   1      39.459  24.406  28.257  1.00  0.00     0.016 A 
ATOM     36  C   UNL A   1      40.409  26.195  26.306  1.00  0.00     0.010 A 
ATOM     37  C   UNL A   1      39.771  25.696  28.626  1.00  0.00     0.010 A 
ATOM     38  C   UNL A   1      40.309  26.557  27.657  1.00  0.00    -0.014 A 
BRANCH  38  39
ATOM     39  C   UNL A   1      41.167  27.644  28.130  1.00  0.00     0.031 A 
ATOM     40  C   UNL A   1      40.446  28.798  28.754  1.00  0.00     0.074 A 
ATOM     41  C   UNL A   1      42.499  27.586  28.013  1.00  0.00     0.049 A 
ATOM     42  N   UNL A   1      40.928  29.910  29.228  1.00  0.00    -0.248 NA
ATOM     43  C   UNL A   1      38.975  28.691  28.845  1.00  0.00     0.031 C 
ATOM     44  C   UNL A   1      43.254  26.472  27.448  1.00  0.00     0.029 A 
ATOM     45  N   UNL A   1      43.451  28.496  28.371  1.00  0.00    -0.354 N 
ATOM     46  C   UNL A   1      39.824  30.628  29.663  1.00  0.00     0.074 A 
ATOM     47  C   UNL A   1      38.645  29.861  29.357  1.00  0.00     0.031 C 
ATOM     48  C   UNL A   1      44.566  26.758  27.513  1.00  0.00     0.029 A 
ATOM     49  C   UNL A   1      44.728  28.097  28.071  1.00  0.00     0.049 A 
ATOM     50  H   UNL A   1      43.241  29.356  28.802  1.00  0.00     0.167 HD
ATOM     51  C   UNL A   1      39.809  31.830  30.273  1.00  0.00     0.037 A 
ATOM     52  C   UNL A   1      45.887  28.766  28.213  1.00  0.00     0.037 A 
ATOM     53  C   UNL A   1      41.004  32.579  30.532  1.00  0.00     0.049 A 
ATOM     54  C   UNL A   1      45.831  30.146  28.814  1.00  0.00     0.074 A 
ATOM     55  C   UNL A   1      41.128  33.812  31.137  1.00  0.00     0.029 A 
ATOM     56  N   UNL A   1      42.282  32.170  30.171  1.00  0.00    -0.354 N 
ATOM     57  N   UNL A   1      44.788  30.821  29.242  1.00  0.00    -0.248 NA
ATOM     58  C   UNL A   1      47.107  30.851  28.962  1.00  0.00     0.031 C 
ATOM     59  C   UNL A   1      42.470  34.192  31.057  1.00  0.00     0.029 A 
ATOM     60  C   UNL A   1      43.200  33.146  30.507  1.00  0.00     0.049 A 
ATOM     61  H   UNL A   1      42.500  31.312  29.740  1.00  0.00     0.167 HD
ATOM     62  C   UNL A   1      45.289  32.010  29.759  1.00  0.00     0.074 A 
ATOM     63  C   UNL A   1      46.728  31.953  29.592  1.00  0.00     0.031 C 
ATOM     64  C   UNL A   1      44.628  33.051  30.330  1.00  0.00     0.037 A 
BRANCH  51  65
ATOM     65  C   UNL A   1      38.471  32.411  30.622  1.00  0.00     0.058 A 
ATOM     66  C   UNL A   1      37.761  33.251  29.747  1.00  0.00     0.135 A 
ATOM     67  C   UNL A   1      37.894  32.127  31.870  1.00  0.00     0.135 A 
ATOM     68  F   UNL A   1      38.284  33.591  28.557  1.00  0.00    -0.206 F 
ATOM     69  C   UNL A   1      36.536  33.802  30.104  1.00  0.00     0.059 A 
ATOM     70  C   UNL A   1      36.651  32.632  32.229  1.00  0.00     0.059 A 
ATOM     71  F   UNL A   1      38.541  31.354  32.754  1.00  0.00    -0.206 F 
ATOM     72  C   UNL A   1      35.983  33.476  31.344  1.00  0.00     0.060 A 
BRANCH  72  73
ATOM     73  S   UNL A   1      34.370  34.156  31.773  1.00  0.00     0.124 S 
ATOM     74  O   UNL A   1      34.741  35.412  32.417  1.00  0.00    -0.237 OA
ATOM     75  O   UNL A   1      33.732  34.277  30.465  1.00  0.00    -0.237 OA
ATOM     76  O   UNL A   1      33.797  33.145  32.656  1.00  0.00    -0.744 OA
ENDBRANCH  72  73
ENDBRANCH  51  65
BRANCH  52  77
ATOM     77  C   UNL A   1      47.172  28.152  27.788  1.00  0.00     0.058 A 
ATOM     78  C   UNL A   1      47.650  28.301  26.478  1.00  0.00     0.135 A 
ATOM     79  C   UNL A   1      47.946  27.393  28.680  1.00  0.00     0.135 A 
ATOM     80  F   UNL A   1      46.949  29.016  25.584  1.00  0.00    -0.206 F 
ATOM     81  C   UNL A   1      48.832  27.698  26.059  1.00  0.00     0.059 A 
ATOM     82  C   UNL A   1      49.150  26.812  28.296  1.00  0.00     0.059 A 
ATOM     83  F   UNL A   1      47.544  27.228  29.950  1.00  0.00    -0.206 F 
ATOM     84  C   UNL A   1      49.578  26.961  26.978  1.00  0.00     0.060 A 
BRANCH  84  85
ATOM     85  S   UNL A   1      51.133  26.223  26.434  1.00  0.00     0.124 S 
ATOM     86  O   UNL A   1      51.040  24.884  27.004  1.00  0.00    -0.237 OA
ATOM     87  O   UNL A   1      51.014  26.310  24.982  1.00  0.00    -0.237 OA
ATOM     88  O   UNL A   1      52.144  27.092  27.028  1.00  0.00    -0.744 OA
ENDBRANCH  84  85
ENDBRANCH  52  77
BRANCH  64  89
ATOM     89  C   UNL A   1      45.463  34.169  30.890  1.00  0.00     0.058 A 
ATOM     90  C   UNL A   1      45.825  35.293  30.134  1.00  0.00     0.135 A 
ATOM     91  C   UNL A   1      45.881  34.117  32.232  1.00  0.00     0.135 A 
ATOM     92  F   UNL A   1      45.449  35.398  28.849  1.00  0.00    -0.206 F 
ATOM     93  C   UNL A   1      46.623  36.298  30.669  1.00  0.00     0.059 A 
ATOM     94  C   UNL A   1      46.632  35.136  32.803  1.00  0.00     0.059 A 
ATOM     95  F   UNL A   1      45.547  33.073  33.008  1.00  0.00    -0.206 F 
ATOM     96  C   UNL A   1      47.018  36.210  32.006  1.00  0.00     0.060 A 
BRANCH  96  97
ATOM     97  S   UNL A   1      48.049  37.522  32.688  1.00  0.00     0.124 S 
ATOM     98  O   UNL A   1      48.519  36.912  33.927  1.00  0.00    -0.237 OA
ATOM     99  O   UNL A   1      49.054  37.696  31.645  1.00  0.00    -0.237 OA
ATOM    100  O   UNL A   1      47.120  38.637  32.850  1.00  0.00    -0.744 OA
ENDBRANCH  96  97
ENDBRANCH  64  89
ENDBRANCH  38  39
ENDBRANCH  31  33
ENDBRANCH  30  31
ENDBRANCH  29  30
ENDBRANCH   1  29
TORSDOF 19
ENDMDL
