MODEL 1
REMARK VINA RESULT:     -12.1      0.000      0.000
REMARK SMILES Cc1c(CC(=O)OCCOCCOC(=O)c2ccc(-c3c4nc(c(-c5c(F)cc(S(=O)(=O)[O-])cc5F)c5ccc([nH]5)c(-c5c(F)cc(S(=O)(=O)[O-])cc5F)c5nc(c(-c6c(F)cc(S(=O)(=O)[O-])cc6F)c6ccc3[nH]6)C=C5)C=C4)cc2)c2cc(O)ccc2n1C(=O)c1ccc(Cl)cc1
REMARK SMILES IDX 10 1 9 2 8 3 7 4 5 5 6 6 4 7 3 8 1 9 2 10 89 11 82 12 88 13
REMARK SMILES IDX 83 14 87 15 84 16 86 17 90 18 91 19 92 20 93 21 98 22 94 23
REMARK SMILES IDX 97 24 95 25 96 26 85 27 11 29 12 30 13 31 14 32 15 33 16 34
REMARK SMILES IDX 17 35 81 36 18 37 80 38 19 39 20 40 21 41 74 42 22 43 79 44
REMARK SMILES IDX 73 45 75 46 23 47 78 48 72 49 71 50 24 52 58 53 37 54 57 55
REMARK SMILES IDX 38 56 41 57 56 58 76 59 39 60 40 61 55 63 77 64 42 65 25 66
REMARK SMILES IDX 26 67 35 68 27 69 28 70 34 71 36 72 29 73 30 74 31 75 32 76
REMARK SMILES IDX 33 77 59 78 60 79 69 80 61 81 62 82 68 83 70 84 63 85 64 86
REMARK SMILES IDX 65 87 66 88 67 89 43 90 44 91 53 92 45 93 46 94 52 95 54 96
REMARK SMILES IDX 47 97 48 98 49 99 50 100 51 101
REMARK H PARENT 85 28 75 51 41 62
REMARK Flexibility Score: inf
ROOT
ATOM      1  O   UNL A   1      31.883  29.961  25.680  1.00  0.00    -0.374 OA
ENDROOT
BRANCH   1   2
ATOM      2  C   UNL A   1      32.684  29.460  24.614  1.00  0.00     0.202 C 
BRANCH   2   3
ATOM      3  C   UNL A   1      32.253  28.207  23.834  1.00  0.00     0.261 C 
BRANCH   3   4
ATOM      4  O   UNL A   1      32.833  26.971  24.291  1.00  0.00    -0.463 OA
BRANCH   4   5
ATOM      5  C   UNL A   1      32.182  26.400  25.341  1.00  0.00     0.310 C 
ATOM      6  O   UNL A   1      31.029  26.671  25.670  1.00  0.00    -0.252 OA
BRANCH   5   7
ATOM      7  C   UNL A   1      32.984  25.386  26.127  1.00  0.00     0.160 C 
BRANCH   7   8
ATOM      8  C   UNL A   1      33.356  24.078  25.474  1.00  0.00    -0.008 A 
ATOM      9  C   UNL A   1      30.991  23.166  24.948  1.00  0.00     0.065 C 
ATOM     10  C   UNL A   1      32.490  23.132  24.940  1.00  0.00     0.028 A 
ATOM     11  N   UNL A   1      33.234  22.099  24.344  1.00  0.00    -0.280 N 
ATOM     12  C   UNL A   1      34.681  23.630  25.191  1.00  0.00     0.008 A 
ATOM     13  C   UNL A   1      34.597  22.393  24.536  1.00  0.00     0.057 A 
ATOM     14  C   UNL A   1      35.957  24.183  25.455  1.00  0.00     0.056 A 
ATOM     15  C   UNL A   1      35.783  21.706  24.186  1.00  0.00     0.031 A 
ATOM     16  C   UNL A   1      37.103  23.441  25.194  1.00  0.00     0.116 A 
ATOM     17  C   UNL A   1      37.028  22.219  24.560  1.00  0.00     0.048 A 
BRANCH  11  18
ATOM     18  C   UNL A   1      32.690  20.980  23.641  1.00  0.00     0.262 C 
ATOM     19  O   UNL A   1      32.165  21.155  22.541  1.00  0.00    -0.268 OA
BRANCH  18  20
ATOM     20  C   UNL A   1      32.736  19.577  24.080  1.00  0.00     0.040 A 
ATOM     21  C   UNL A   1      32.677  19.257  25.441  1.00  0.00     0.015 A 
ATOM     22  C   UNL A   1      32.792  18.568  23.110  1.00  0.00     0.015 A 
ATOM     23  C   UNL A   1      32.758  17.918  25.833  1.00  0.00     0.021 A 
ATOM     24  C   UNL A   1      32.855  17.231  23.508  1.00  0.00     0.021 A 
ATOM     25  C   UNL A   1      32.854  16.913  24.866  1.00  0.00     0.041 A 
ATOM     26  Cl  UNL A   1      32.979  15.268  25.355  1.00  0.00    -0.084 Cl
ENDBRANCH  18  20
ENDBRANCH  11  18
BRANCH  16  27
ATOM     27  O   UNL A   1      38.295  23.929  25.643  1.00  0.00    -0.508 OA
ATOM     28  H   UNL A   1      38.806  23.433  26.252  1.00  0.00     0.293 HD
ENDBRANCH  16  27
ENDBRANCH   7   8
ENDBRANCH   5   7
ENDBRANCH   4   5
ENDBRANCH   3   4
ENDBRANCH   2   3
ENDBRANCH   1   2
BRANCH   1  29
ATOM     29  C   UNL A   1      32.484  30.033  26.970  1.00  0.00     0.202 C 
BRANCH  29  30
ATOM     30  C   UNL A   1      33.710  30.940  27.163  1.00  0.00     0.261 C 
BRANCH  30  31
ATOM     31  O   UNL A   1      34.431  30.613  28.351  1.00  0.00    -0.460 OA
BRANCH  31  32
ATOM     32  C   UNL A   1      35.040  31.682  28.934  1.00  0.00     0.338 C 
ATOM     33  O   UNL A   1      34.532  32.719  29.298  1.00  0.00    -0.246 OA
BRANCH  32  34
ATOM     34  C   UNL A   1      36.326  31.138  29.404  1.00  0.00     0.060 A 
ATOM     35  C   UNL A   1      37.473  31.935  29.361  1.00  0.00     0.016 A 
ATOM     36  C   UNL A   1      36.398  29.740  29.510  1.00  0.00     0.016 A 
ATOM     37  C   UNL A   1      38.706  31.308  29.320  1.00  0.00     0.010 A 
ATOM     38  C   UNL A   1      37.637  29.118  29.457  1.00  0.00     0.010 A 
ATOM     39  C   UNL A   1      38.784  29.903  29.318  1.00  0.00    -0.014 A 
BRANCH  39  40
ATOM     40  C   UNL A   1      40.122  29.318  29.354  1.00  0.00     0.031 A 
ATOM     41  C   UNL A   1      40.604  29.106  30.743  1.00  0.00     0.074 A 
ATOM     42  C   UNL A   1      40.832  28.877  28.297  1.00  0.00     0.049 A 
ATOM     43  N   UNL A   1      41.601  29.667  31.342  1.00  0.00    -0.248 NA
ATOM     44  C   UNL A   1      39.765  28.268  31.614  1.00  0.00     0.031 C 
ATOM     45  C   UNL A   1      40.360  28.683  26.926  1.00  0.00     0.029 A 
ATOM     46  N   UNL A   1      42.114  28.403  28.257  1.00  0.00    -0.354 N 
ATOM     47  C   UNL A   1      41.633  29.099  32.612  1.00  0.00     0.074 A 
ATOM     48  C   UNL A   1      40.393  28.389  32.782  1.00  0.00     0.031 C 
ATOM     49  C   UNL A   1      41.265  27.941  26.247  1.00  0.00     0.029 A 
ATOM     50  C   UNL A   1      42.425  27.714  27.093  1.00  0.00     0.049 A 
ATOM     51  H   UNL A   1      42.759  28.537  28.989  1.00  0.00     0.167 HD
ATOM     52  C   UNL A   1      42.778  29.038  33.341  1.00  0.00     0.037 A 
ATOM     53  C   UNL A   1      43.517  26.941  26.875  1.00  0.00     0.037 A 
ATOM     54  C   UNL A   1      43.802  29.890  32.807  1.00  0.00     0.049 A 
ATOM     55  C   UNL A   1      44.588  27.376  27.806  1.00  0.00     0.074 A 
ATOM     56  C   UNL A   1      44.133  31.225  32.874  1.00  0.00     0.029 A 
ATOM     57  N   UNL A   1      44.504  29.345  31.767  1.00  0.00    -0.354 N 
ATOM     58  N   UNL A   1      45.138  28.560  27.782  1.00  0.00    -0.248 NA
ATOM     59  C   UNL A   1      44.885  26.577  28.994  1.00  0.00     0.031 C 
ATOM     60  C   UNL A   1      44.936  31.497  31.727  1.00  0.00     0.029 A 
ATOM     61  C   UNL A   1      45.079  30.321  30.995  1.00  0.00     0.049 A 
ATOM     62  H   UNL A   1      44.586  28.379  31.595  1.00  0.00     0.167 HD
ATOM     63  C   UNL A   1      45.494  28.801  29.094  1.00  0.00     0.074 A 
ATOM     64  C   UNL A   1      45.481  27.502  29.748  1.00  0.00     0.031 C 
ATOM     65  C   UNL A   1      45.446  30.056  29.620  1.00  0.00     0.037 A 
BRANCH  52  66
ATOM     66  C   UNL A   1      43.111  27.902  34.276  1.00  0.00     0.058 A 
ATOM     67  C   UNL A   1      43.299  28.155  35.649  1.00  0.00     0.135 A 
ATOM     68  C   UNL A   1      43.523  26.628  33.825  1.00  0.00     0.135 A 
ATOM     69  F   UNL A   1      42.971  29.346  36.176  1.00  0.00    -0.206 F 
ATOM     70  C   UNL A   1      43.884  27.217  36.503  1.00  0.00     0.059 A 
ATOM     71  C   UNL A   1      44.052  25.660  34.668  1.00  0.00     0.059 A 
ATOM     72  F   UNL A   1      43.521  26.302  32.525  1.00  0.00    -0.206 F 
ATOM     73  C   UNL A   1      44.263  25.975  35.999  1.00  0.00     0.060 A 
BRANCH  73  74
ATOM     74  S   UNL A   1      45.090  24.793  37.079  1.00  0.00     0.124 S 
ATOM     75  O   UNL A   1      46.423  25.375  37.184  1.00  0.00    -0.237 OA
ATOM     76  O   UNL A   1      44.268  24.855  38.283  1.00  0.00    -0.237 OA
ATOM     77  O   UNL A   1      45.003  23.540  36.335  1.00  0.00    -0.744 OA
ENDBRANCH  73  74
ENDBRANCH  52  66
BRANCH  53  78
ATOM     78  C   UNL A   1      43.567  25.631  26.167  1.00  0.00     0.058 A 
ATOM     79  C   UNL A   1      44.568  25.365  25.215  1.00  0.00     0.135 A 
ATOM     80  C   UNL A   1      42.836  24.517  26.629  1.00  0.00     0.135 A 
ATOM     81  F   UNL A   1      45.319  26.364  24.725  1.00  0.00    -0.206 F 
ATOM     82  C   UNL A   1      44.883  24.064  24.810  1.00  0.00     0.059 A 
ATOM     83  C   UNL A   1      43.120  23.214  26.226  1.00  0.00     0.059 A 
ATOM     84  F   UNL A   1      41.886  24.648  27.566  1.00  0.00    -0.206 F 
ATOM     85  C   UNL A   1      44.172  22.991  25.346  1.00  0.00     0.060 A 
BRANCH  85  86
ATOM     86  S   UNL A   1      44.719  21.304  25.003  1.00  0.00     0.124 S 
ATOM     87  O   UNL A   1      44.663  21.260  23.546  1.00  0.00    -0.237 OA
ATOM     88  O   UNL A   1      46.055  21.292  25.591  1.00  0.00    -0.237 OA
ATOM     89  O   UNL A   1      43.729  20.480  25.691  1.00  0.00    -0.744 OA
ENDBRANCH  85  86
ENDBRANCH  53  78
BRANCH  65  90
ATOM     90  C   UNL A   1      45.604  31.216  28.686  1.00  0.00     0.058 A 
ATOM     91  C   UNL A   1      46.835  31.733  28.249  1.00  0.00     0.135 A 
ATOM     92  C   UNL A   1      44.437  31.775  28.140  1.00  0.00     0.135 A 
ATOM     93  F   UNL A   1      47.992  31.203  28.670  1.00  0.00    -0.206 F 
ATOM     94  C   UNL A   1      46.899  32.778  27.326  1.00  0.00     0.059 A 
ATOM     95  C   UNL A   1      44.479  32.795  27.197  1.00  0.00     0.059 A 
ATOM     96  F   UNL A   1      43.233  31.293  28.491  1.00  0.00    -0.206 F 
ATOM     97  C   UNL A   1      45.715  33.297  26.799  1.00  0.00     0.060 A 
BRANCH  97  98
ATOM     98  S   UNL A   1      45.803  34.583  25.533  1.00  0.00     0.124 S 
ATOM     99  O   UNL A   1      45.337  35.760  26.257  1.00  0.00    -0.237 OA
ATOM    100  O   UNL A   1      47.218  34.574  25.176  1.00  0.00    -0.237 OA
ATOM    101  O   UNL A   1      44.903  34.097  24.490  1.00  0.00    -0.744 OA
ENDBRANCH  97  98
ENDBRANCH  65  90
ENDBRANCH  39  40
ENDBRANCH  32  34
ENDBRANCH  31  32
ENDBRANCH  30  31
ENDBRANCH  29  30
ENDBRANCH   1  29
TORSDOF 21
ENDMDL
MODEL 2
REMARK VINA RESULT:     -11.7      3.265      9.827
REMARK SMILES Cc1c(CC(=O)OCCOCCOC(=O)c2ccc(-c3c4nc(c(-c5c(F)cc(S(=O)(=O)[O-])cc5F)c5ccc([nH]5)c(-c5c(F)cc(S(=O)(=O)[O-])cc5F)c5nc(c(-c6c(F)cc(S(=O)(=O)[O-])cc6F)c6ccc3[nH]6)C=C5)C=C4)cc2)c2cc(O)ccc2n1C(=O)c1ccc(Cl)cc1
REMARK SMILES IDX 10 1 9 2 8 3 7 4 5 5 6 6 4 7 3 8 1 9 2 10 89 11 82 12 88 13
REMARK SMILES IDX 83 14 87 15 84 16 86 17 90 18 91 19 92 20 93 21 98 22 94 23
REMARK SMILES IDX 97 24 95 25 96 26 85 27 11 29 12 30 13 31 14 32 15 33 16 34
REMARK SMILES IDX 17 35 81 36 18 37 80 38 19 39 20 40 21 41 74 42 22 43 79 44
REMARK SMILES IDX 73 45 75 46 23 47 78 48 72 49 71 50 24 52 58 53 37 54 57 55
REMARK SMILES IDX 38 56 41 57 56 58 76 59 39 60 40 61 55 63 77 64 42 65 25 66
REMARK SMILES IDX 26 67 35 68 27 69 28 70 34 71 36 72 29 73 30 74 31 75 32 76
REMARK SMILES IDX 33 77 59 78 60 79 69 80 61 81 62 82 68 83 70 84 63 85 64 86
REMARK SMILES IDX 65 87 66 88 67 89 43 90 44 91 53 92 45 93 46 94 52 95 54 96
REMARK SMILES IDX 47 97 48 98 49 99 50 100 51 101
REMARK H PARENT 85 28 75 51 41 62
REMARK Flexibility Score: inf
ROOT
ATOM      1  O   UNL A   1      36.701  22.386  25.855  1.00  0.00    -0.374 OA
ENDROOT
BRANCH   1   2
ATOM      2  C   UNL A   1      35.502  21.619  25.892  1.00  0.00     0.202 C 
BRANCH   2   3
ATOM      3  C   UNL A   1      34.225  22.129  25.203  1.00  0.00     0.261 C 
BRANCH   3   4
ATOM      4  O   UNL A   1      34.174  21.927  23.779  1.00  0.00    -0.463 OA
BRANCH   4   5
ATOM      5  C   UNL A   1      34.460  23.036  23.043  1.00  0.00     0.310 C 
ATOM      6  O   UNL A   1      35.599  23.445  22.823  1.00  0.00    -0.252 OA
BRANCH   5   7
ATOM      7  C   UNL A   1      33.261  23.781  22.502  1.00  0.00     0.160 C 
BRANCH   7   8
ATOM      8  C   UNL A   1      32.538  24.760  23.395  1.00  0.00    -0.008 A 
ATOM      9  C   UNL A   1      33.412  26.984  22.398  1.00  0.00     0.065 C 
ATOM     10  C   UNL A   1      32.585  26.147  23.327  1.00  0.00     0.028 A 
ATOM     11  N   UNL A   1      31.701  26.693  24.275  1.00  0.00    -0.280 N 
ATOM     12  C   UNL A   1      31.586  24.428  24.404  1.00  0.00     0.008 A 
ATOM     13  C   UNL A   1      31.110  25.620  24.969  1.00  0.00     0.057 A 
ATOM     14  C   UNL A   1      31.097  23.193  24.892  1.00  0.00     0.056 A 
ATOM     15  C   UNL A   1      30.183  25.566  26.035  1.00  0.00     0.031 A 
ATOM     16  C   UNL A   1      30.267  23.165  26.007  1.00  0.00     0.116 A 
ATOM     17  C   UNL A   1      29.803  24.333  26.575  1.00  0.00     0.048 A 
BRANCH  11  18
ATOM     18  C   UNL A   1      31.434  28.084  24.460  1.00  0.00     0.262 C 
ATOM     19  O   UNL A   1      30.522  28.613  23.825  1.00  0.00    -0.268 OA
BRANCH  18  20
ATOM     20  C   UNL A   1      32.124  28.980  25.401  1.00  0.00     0.040 A 
ATOM     21  C   UNL A   1      33.347  28.606  25.970  1.00  0.00     0.015 A 
ATOM     22  C   UNL A   1      31.557  30.230  25.681  1.00  0.00     0.015 A 
ATOM     23  C   UNL A   1      33.963  29.460  26.888  1.00  0.00     0.021 A 
ATOM     24  C   UNL A   1      32.187  31.085  26.586  1.00  0.00     0.021 A 
ATOM     25  C   UNL A   1      33.377  30.690  27.198  1.00  0.00     0.041 A 
ATOM     26  Cl  UNL A   1      34.127  31.727  28.349  1.00  0.00    -0.084 Cl
ENDBRANCH  18  20
ENDBRANCH  11  18
BRANCH  16  27
ATOM     27  O   UNL A   1      29.980  21.952  26.559  1.00  0.00    -0.508 OA
ATOM     28  H   UNL A   1      30.230  21.768  27.443  1.00  0.00     0.293 HD
ENDBRANCH  16  27
ENDBRANCH   7   8
ENDBRANCH   5   7
ENDBRANCH   4   5
ENDBRANCH   3   4
ENDBRANCH   2   3
ENDBRANCH   1   2
BRANCH   1  29
ATOM     29  C   UNL A   1      37.794  21.855  25.109  1.00  0.00     0.202 C 
BRANCH  29  30
ATOM     30  C   UNL A   1      39.074  21.458  25.860  1.00  0.00     0.261 C 
BRANCH  30  31
ATOM     31  O   UNL A   1      39.635  22.560  26.574  1.00  0.00    -0.460 OA
BRANCH  31  32
ATOM     32  C   UNL A   1      40.970  22.727  26.365  1.00  0.00     0.338 C 
ATOM     33  O   UNL A   1      41.704  22.051  25.679  1.00  0.00    -0.246 OA
BRANCH  32  34
ATOM     34  C   UNL A   1      41.219  24.115  26.789  1.00  0.00     0.060 A 
ATOM     35  C   UNL A   1      42.310  24.402  27.614  1.00  0.00     0.016 A 
ATOM     36  C   UNL A   1      40.139  25.001  26.654  1.00  0.00     0.016 A 
ATOM     37  C   UNL A   1      42.262  25.547  28.390  1.00  0.00     0.010 A 
ATOM     38  C   UNL A   1      40.093  26.142  27.443  1.00  0.00     0.010 A 
ATOM     39  C   UNL A   1      41.134  26.388  28.340  1.00  0.00    -0.014 A 
BRANCH  39  40
ATOM     40  C   UNL A   1      41.194  27.616  29.127  1.00  0.00     0.031 A 
ATOM     41  C   UNL A   1      42.256  28.538  28.648  1.00  0.00     0.074 A 
ATOM     42  C   UNL A   1      40.334  27.990  30.095  1.00  0.00     0.049 A 
ATOM     43  N   UNL A   1      43.321  28.927  29.266  1.00  0.00    -0.248 NA
ATOM     44  C   UNL A   1      42.184  28.955  27.239  1.00  0.00     0.031 C 
ATOM     45  C   UNL A   1      39.049  27.376  30.430  1.00  0.00     0.029 A 
ATOM     46  N   UNL A   1      40.385  29.080  30.921  1.00  0.00    -0.354 N 
ATOM     47  C   UNL A   1      43.956  29.801  28.388  1.00  0.00     0.074 A 
ATOM     48  C   UNL A   1      43.317  29.643  27.109  1.00  0.00     0.031 C 
ATOM     49  C   UNL A   1      38.352  28.215  31.231  1.00  0.00     0.029 A 
ATOM     50  C   UNL A   1      39.186  29.360  31.560  1.00  0.00     0.049 A 
ATOM     51  H   UNL A   1      41.200  29.617  31.050  1.00  0.00     0.167 HD
ATOM     52  C   UNL A   1      44.794  30.775  28.828  1.00  0.00     0.037 A 
ATOM     53  C   UNL A   1      38.872  30.493  32.236  1.00  0.00     0.037 A 
ATOM     54  C   UNL A   1      45.182  30.575  30.196  1.00  0.00     0.049 A 
ATOM     55  C   UNL A   1      40.136  31.133  32.682  1.00  0.00     0.074 A 
ATOM     56  C   UNL A   1      46.113  29.821  30.875  1.00  0.00     0.029 A 
ATOM     57  N   UNL A   1      44.271  31.025  31.112  1.00  0.00    -0.354 N 
ATOM     58  N   UNL A   1      40.971  30.587  33.524  1.00  0.00    -0.248 NA
ATOM     59  C   UNL A   1      40.647  32.302  31.969  1.00  0.00     0.031 C 
ATOM     60  C   UNL A   1      45.632  29.699  32.213  1.00  0.00     0.029 A 
ATOM     61  C   UNL A   1      44.425  30.386  32.315  1.00  0.00     0.049 A 
ATOM     62  H   UNL A   1      43.594  31.717  30.932  1.00  0.00     0.167 HD
ATOM     63  C   UNL A   1      42.206  31.078  33.151  1.00  0.00     0.074 A 
ATOM     64  C   UNL A   1      41.932  32.242  32.325  1.00  0.00     0.031 C 
ATOM     65  C   UNL A   1      43.331  30.318  33.261  1.00  0.00     0.037 A 
BRANCH  52  66
ATOM     66  C   UNL A   1      44.927  32.123  28.165  1.00  0.00     0.058 A 
ATOM     67  C   UNL A   1      46.140  32.488  27.551  1.00  0.00     0.135 A 
ATOM     68  C   UNL A   1      43.997  33.170  28.357  1.00  0.00     0.135 A 
ATOM     69  F   UNL A   1      47.105  31.577  27.351  1.00  0.00    -0.206 F 
ATOM     70  C   UNL A   1      46.419  33.806  27.183  1.00  0.00     0.059 A 
ATOM     71  C   UNL A   1      44.230  34.475  27.945  1.00  0.00     0.059 A 
ATOM     72  F   UNL A   1      42.860  32.991  29.043  1.00  0.00    -0.206 F 
ATOM     73  C   UNL A   1      45.458  34.793  27.391  1.00  0.00     0.060 A 
BRANCH  73  74
ATOM     74  S   UNL A   1      45.843  36.508  26.991  1.00  0.00     0.124 S 
ATOM     75  O   UNL A   1      44.511  37.079  26.835  1.00  0.00    -0.237 OA
ATOM     76  O   UNL A   1      46.588  36.934  28.171  1.00  0.00    -0.237 OA
ATOM     77  O   UNL A   1      46.632  36.397  25.768  1.00  0.00    -0.744 OA
ENDBRANCH  73  74
ENDBRANCH  52  66
BRANCH  53  78
ATOM     78  C   UNL A   1      37.579  31.231  32.208  1.00  0.00     0.058 A 
ATOM     79  C   UNL A   1      36.984  31.686  33.399  1.00  0.00     0.135 A 
ATOM     80  C   UNL A   1      37.065  31.769  31.011  1.00  0.00     0.135 A 
ATOM     81  F   UNL A   1      37.414  31.233  34.586  1.00  0.00    -0.206 F 
ATOM     82  C   UNL A   1      35.999  32.678  33.407  1.00  0.00     0.059 A 
ATOM     83  C   UNL A   1      36.072  32.746  30.993  1.00  0.00     0.059 A 
ATOM     84  F   UNL A   1      37.583  31.437  29.819  1.00  0.00    -0.206 F 
ATOM     85  C   UNL A   1      35.571  33.225  32.197  1.00  0.00     0.060 A 
BRANCH  85  86
ATOM     86  S   UNL A   1      34.470  34.658  32.210  1.00  0.00     0.124 S 
ATOM     87  O   UNL A   1      35.264  35.641  32.939  1.00  0.00    -0.237 OA
ATOM     88  O   UNL A   1      34.288  34.915  30.786  1.00  0.00    -0.237 OA
ATOM     89  O   UNL A   1      33.286  34.168  32.910  1.00  0.00    -0.744 OA
ENDBRANCH  85  86
ENDBRANCH  53  78
BRANCH  65  90
ATOM     90  C   UNL A   1      43.353  29.242  34.303  1.00  0.00     0.058 A 
ATOM     91  C   UNL A   1      42.891  27.930  34.111  1.00  0.00     0.135 A 
ATOM     92  C   UNL A   1      43.954  29.542  35.536  1.00  0.00     0.135 A 
ATOM     93  F   UNL A   1      42.371  27.549  32.935  1.00  0.00    -0.206 F 
ATOM     94  C   UNL A   1      43.004  26.964  35.113  1.00  0.00     0.059 A 
ATOM     95  C   UNL A   1      44.104  28.587  36.535  1.00  0.00     0.059 A 
ATOM     96  F   UNL A   1      44.450  30.770  35.761  1.00  0.00    -0.206 F 
ATOM     97  C   UNL A   1      43.619  27.301  36.319  1.00  0.00     0.060 A 
BRANCH  97  98
ATOM     98  S   UNL A   1      43.850  26.025  37.577  1.00  0.00     0.124 S 
ATOM     99  O   UNL A   1      42.779  25.086  37.263  1.00  0.00    -0.237 OA
ATOM    100  O   UNL A   1      45.206  25.558  37.304  1.00  0.00    -0.237 OA
ATOM    101  O   UNL A   1      43.692  26.753  38.834  1.00  0.00    -0.744 OA
ENDBRANCH  97  98
ENDBRANCH  65  90
ENDBRANCH  39  40
ENDBRANCH  32  34
ENDBRANCH  31  32
ENDBRANCH  30  31
ENDBRANCH  29  30
ENDBRANCH   1  29
TORSDOF 21
ENDMDL
MODEL 3
REMARK VINA RESULT:     -11.6      3.112      9.659
REMARK SMILES Cc1c(CC(=O)OCCOCCOC(=O)c2ccc(-c3c4nc(c(-c5c(F)cc(S(=O)(=O)[O-])cc5F)c5ccc([nH]5)c(-c5c(F)cc(S(=O)(=O)[O-])cc5F)c5nc(c(-c6c(F)cc(S(=O)(=O)[O-])cc6F)c6ccc3[nH]6)C=C5)C=C4)cc2)c2cc(O)ccc2n1C(=O)c1ccc(Cl)cc1
REMARK SMILES IDX 10 1 9 2 8 3 7 4 5 5 6 6 4 7 3 8 1 9 2 10 89 11 82 12 88 13
REMARK SMILES IDX 83 14 87 15 84 16 86 17 90 18 91 19 92 20 93 21 98 22 94 23
REMARK SMILES IDX 97 24 95 25 96 26 85 27 11 29 12 30 13 31 14 32 15 33 16 34
REMARK SMILES IDX 17 35 81 36 18 37 80 38 19 39 20 40 21 41 74 42 22 43 79 44
REMARK SMILES IDX 73 45 75 46 23 47 78 48 72 49 71 50 24 52 58 53 37 54 57 55
REMARK SMILES IDX 38 56 41 57 56 58 76 59 39 60 40 61 55 63 77 64 42 65 25 66
REMARK SMILES IDX 26 67 35 68 27 69 28 70 34 71 36 72 29 73 30 74 31 75 32 76
REMARK SMILES IDX 33 77 59 78 60 79 69 80 61 81 62 82 68 83 70 84 63 85 64 86
REMARK SMILES IDX 65 87 66 88 67 89 43 90 44 91 53 92 45 93 46 94 52 95 54 96
REMARK SMILES IDX 47 97 48 98 49 99 50 100 51 101
REMARK H PARENT 85 28 75 51 41 62
REMARK Flexibility Score: inf
ROOT
ATOM      1  O   UNL A   1      36.854  22.206  25.841  1.00  0.00    -0.374 OA
ENDROOT
BRANCH   1   2
ATOM      2  C   UNL A   1      36.239  21.101  25.185  1.00  0.00     0.202 C 
BRANCH   2   3
ATOM      3  C   UNL A   1      34.736  20.826  25.357  1.00  0.00     0.261 C 
BRANCH   3   4
ATOM      4  O   UNL A   1      33.868  21.622  24.528  1.00  0.00    -0.463 OA
BRANCH   4   5
ATOM      5  C   UNL A   1      32.895  20.915  23.892  1.00  0.00     0.310 C 
ATOM      6  O   UNL A   1      32.858  19.687  23.834  1.00  0.00    -0.252 OA
BRANCH   5   7
ATOM      7  C   UNL A   1      31.825  21.746  23.219  1.00  0.00     0.160 C 
BRANCH   7   8
ATOM      8  C   UNL A   1      31.686  23.203  23.586  1.00  0.00    -0.008 A 
ATOM      9  C   UNL A   1      30.810  22.959  26.009  1.00  0.00     0.065 C 
ATOM     10  C   UNL A   1      31.272  23.723  24.806  1.00  0.00     0.028 A 
ATOM     11  N   UNL A   1      31.366  25.126  24.773  1.00  0.00    -0.280 N 
ATOM     12  C   UNL A   1      32.063  24.312  22.771  1.00  0.00     0.008 A 
ATOM     13  C   UNL A   1      31.822  25.490  23.491  1.00  0.00     0.057 A 
ATOM     14  C   UNL A   1      32.585  24.403  21.458  1.00  0.00     0.056 A 
ATOM     15  C   UNL A   1      32.068  26.743  22.884  1.00  0.00     0.031 A 
ATOM     16  C   UNL A   1      32.720  25.645  20.849  1.00  0.00     0.116 A 
ATOM     17  C   UNL A   1      32.475  26.808  21.548  1.00  0.00     0.048 A 
BRANCH  11  18
ATOM     18  C   UNL A   1      31.083  26.005  25.863  1.00  0.00     0.262 C 
ATOM     19  O   UNL A   1      30.038  25.863  26.498  1.00  0.00    -0.268 OA
BRANCH  18  20
ATOM     20  C   UNL A   1      31.962  27.073  26.364  1.00  0.00     0.040 A 
ATOM     21  C   UNL A   1      31.432  28.149  27.084  1.00  0.00     0.015 A 
ATOM     22  C   UNL A   1      33.342  26.968  26.147  1.00  0.00     0.015 A 
ATOM     23  C   UNL A   1      32.284  29.168  27.518  1.00  0.00     0.021 A 
ATOM     24  C   UNL A   1      34.190  27.981  26.598  1.00  0.00     0.021 A 
ATOM     25  C   UNL A   1      33.656  29.084  27.266  1.00  0.00     0.041 A 
ATOM     26  Cl  UNL A   1      34.698  30.353  27.780  1.00  0.00    -0.084 Cl
ENDBRANCH  18  20
ENDBRANCH  11  18
BRANCH  16  27
ATOM     27  O   UNL A   1      33.039  25.675  19.523  1.00  0.00    -0.508 OA
ATOM     28  H   UNL A   1      32.552  25.159  18.912  1.00  0.00     0.293 HD
ENDBRANCH  16  27
ENDBRANCH   7   8
ENDBRANCH   5   7
ENDBRANCH   4   5
ENDBRANCH   3   4
ENDBRANCH   2   3
ENDBRANCH   1   2
BRANCH   1  29
ATOM     29  C   UNL A   1      38.217  22.477  25.526  1.00  0.00     0.202 C 
BRANCH  29  30
ATOM     30  C   UNL A   1      39.308  21.599  26.159  1.00  0.00     0.261 C 
BRANCH  30  31
ATOM     31  O   UNL A   1      40.188  22.360  26.986  1.00  0.00    -0.460 OA
BRANCH  31  32
ATOM     32  C   UNL A   1      41.350  22.713  26.371  1.00  0.00     0.338 C 
ATOM     33  O   UNL A   1      41.879  22.180  25.420  1.00  0.00    -0.246 OA
BRANCH  32  34
ATOM     34  C   UNL A   1      41.580  24.095  26.826  1.00  0.00     0.060 A 
ATOM     35  C   UNL A   1      42.537  24.349  27.812  1.00  0.00     0.016 A 
ATOM     36  C   UNL A   1      40.569  25.018  26.519  1.00  0.00     0.016 A 
ATOM     37  C   UNL A   1      42.410  25.502  28.568  1.00  0.00     0.010 A 
ATOM     38  C   UNL A   1      40.440  26.166  27.288  1.00  0.00     0.010 A 
ATOM     39  C   UNL A   1      41.335  26.382  28.338  1.00  0.00    -0.014 A 
BRANCH  39  40
ATOM     40  C   UNL A   1      41.316  27.614  29.122  1.00  0.00     0.031 A 
ATOM     41  C   UNL A   1      42.343  28.585  28.666  1.00  0.00     0.074 A 
ATOM     42  C   UNL A   1      40.415  27.948  30.066  1.00  0.00     0.049 A 
ATOM     43  N   UNL A   1      43.372  29.027  29.309  1.00  0.00    -0.248 NA
ATOM     44  C   UNL A   1      42.288  28.994  27.254  1.00  0.00     0.031 C 
ATOM     45  C   UNL A   1      39.152  27.273  30.371  1.00  0.00     0.029 A 
ATOM     46  N   UNL A   1      40.392  29.041  30.888  1.00  0.00    -0.354 N 
ATOM     47  C   UNL A   1      43.986  29.928  28.444  1.00  0.00     0.074 A 
ATOM     48  C   UNL A   1      43.388  29.736  27.150  1.00  0.00     0.031 C 
ATOM     49  C   UNL A   1      38.396  28.080  31.150  1.00  0.00     0.029 A 
ATOM     50  C   UNL A   1      39.164  29.265  31.496  1.00  0.00     0.049 A 
ATOM     51  H   UNL A   1      41.176  29.617  31.036  1.00  0.00     0.167 HD
ATOM     52  C   UNL A   1      44.765  30.943  28.901  1.00  0.00     0.037 A 
ATOM     53  C   UNL A   1      38.779  30.383  32.159  1.00  0.00     0.037 A 
ATOM     54  C   UNL A   1      45.127  30.765  30.279  1.00  0.00     0.049 A 
ATOM     55  C   UNL A   1      39.998  31.084  32.634  1.00  0.00     0.074 A 
ATOM     56  C   UNL A   1      46.076  30.060  30.985  1.00  0.00     0.029 A 
ATOM     57  N   UNL A   1      44.172  31.173  31.171  1.00  0.00    -0.354 N 
ATOM     58  N   UNL A   1      40.837  30.582  33.500  1.00  0.00    -0.248 NA
ATOM     59  C   UNL A   1      40.470  32.275  31.930  1.00  0.00     0.031 C 
ATOM     60  C   UNL A   1      45.567  29.918  32.310  1.00  0.00     0.029 A 
ATOM     61  C   UNL A   1      44.326  30.545  32.379  1.00  0.00     0.049 A 
ATOM     62  H   UNL A   1      43.468  31.831  30.970  1.00  0.00     0.167 HD
ATOM     63  C   UNL A   1      42.056  31.131  33.156  1.00  0.00     0.074 A 
ATOM     64  C   UNL A   1      41.747  32.279  32.319  1.00  0.00     0.031 C 
ATOM     65  C   UNL A   1      43.214  30.428  33.298  1.00  0.00     0.037 A 
BRANCH  52  66
ATOM     66  C   UNL A   1      44.848  32.294  28.237  1.00  0.00     0.058 A 
ATOM     67  C   UNL A   1      46.049  32.703  27.625  1.00  0.00     0.135 A 
ATOM     68  C   UNL A   1      43.880  33.306  28.425  1.00  0.00     0.135 A 
ATOM     69  F   UNL A   1      47.048  31.828  27.427  1.00  0.00    -0.206 F 
ATOM     70  C   UNL A   1      46.279  34.030  27.255  1.00  0.00     0.059 A 
ATOM     71  C   UNL A   1      44.065  34.618  28.012  1.00  0.00     0.059 A 
ATOM     72  F   UNL A   1      42.749  33.086  29.109  1.00  0.00    -0.206 F 
ATOM     73  C   UNL A   1      45.282  34.981  27.459  1.00  0.00     0.060 A 
BRANCH  73  74
ATOM     74  S   UNL A   1      45.605  36.708  27.058  1.00  0.00     0.124 S 
ATOM     75  O   UNL A   1      46.320  37.157  28.247  1.00  0.00    -0.237 OA
ATOM     76  O   UNL A   1      46.398  36.593  25.839  1.00  0.00    -0.237 OA
ATOM     77  O   UNL A   1      44.268  37.265  26.875  1.00  0.00    -0.744 OA
ENDBRANCH  73  74
ENDBRANCH  52  66
BRANCH  53  78
ATOM     78  C   UNL A   1      37.453  31.056  32.096  1.00  0.00     0.058 A 
ATOM     79  C   UNL A   1      36.853  31.578  33.257  1.00  0.00     0.135 A 
ATOM     80  C   UNL A   1      36.897  31.474  30.869  1.00  0.00     0.135 A 
ATOM     81  F   UNL A   1      37.321  31.241  34.469  1.00  0.00    -0.206 F 
ATOM     82  C   UNL A   1      35.824  32.522  33.204  1.00  0.00     0.059 A 
ATOM     83  C   UNL A   1      35.860  32.400  30.792  1.00  0.00     0.059 A 
ATOM     84  F   UNL A   1      37.414  31.072  29.699  1.00  0.00    -0.206 F 
ATOM     85  C   UNL A   1      35.355  32.951  31.962  1.00  0.00     0.060 A 
BRANCH  85  86
ATOM     86  S   UNL A   1      34.188  34.329  31.882  1.00  0.00     0.124 S 
ATOM     87  O   UNL A   1      33.171  33.919  32.844  1.00  0.00    -0.237 OA
ATOM     88  O   UNL A   1      35.024  35.457  32.280  1.00  0.00    -0.237 OA
ATOM     89  O   UNL A   1      33.763  34.332  30.485  1.00  0.00    -0.744 OA
ENDBRANCH  85  86
ENDBRANCH  53  78
BRANCH  65  90
ATOM     90  C   UNL A   1      43.261  29.356  34.344  1.00  0.00     0.058 A 
ATOM     91  C   UNL A   1      43.592  29.567  35.693  1.00  0.00     0.135 A 
ATOM     92  C   UNL A   1      42.865  28.063  33.969  1.00  0.00     0.135 A 
ATOM     93  F   UNL A   1      43.910  30.790  36.141  1.00  0.00    -0.206 F 
ATOM     94  C   UNL A   1      43.552  28.526  36.623  1.00  0.00     0.059 A 
ATOM     95  C   UNL A   1      42.788  27.021  34.885  1.00  0.00     0.059 A 
ATOM     96  F   UNL A   1      42.498  27.813  32.701  1.00  0.00    -0.206 F 
ATOM     97  C   UNL A   1      43.140  27.258  36.211  1.00  0.00     0.060 A 
BRANCH  97  98
ATOM     98  S   UNL A   1      42.997  25.937  37.435  1.00  0.00     0.124 S 
ATOM     99  O   UNL A   1      43.889  24.918  36.895  1.00  0.00    -0.237 OA
ATOM    100  O   UNL A   1      43.447  26.594  38.658  1.00  0.00    -0.237 OA
ATOM    101  O   UNL A   1      41.576  25.599  37.406  1.00  0.00    -0.744 OA
ENDBRANCH  97  98
ENDBRANCH  65  90
ENDBRANCH  39  40
ENDBRANCH  32  34
ENDBRANCH  31  32
ENDBRANCH  30  31
ENDBRANCH  29  30
ENDBRANCH   1  29
TORSDOF 21
ENDMDL
