MODEL 1
REMARK VINA RESULT:     -10.8      0.000      0.000
REMARK SMILES C[C@@H]1CCC[C@H](Oc2ccc(F)cc2C(=O)OCCOCCOC(=O)c2ccc(-c3c4nc(c(-c5c(F)cc(S(=O)(=O)[O-])cc5F)c5ccc([nH]5)c(-c5c(F)cc(S(=O)(=O)[O-])cc5F)c5nc(c(-c6c(F)cc(S(=O)(=O)[O-])cc6F)c6ccc3[nH]6)C=C5)C=C4)cc2)C1
REMARK SMILES IDX 21 1 20 2 19 3 18 4 17 5 15 6 16 7 14 8 8 9 9 10 10 11 13 12
REMARK SMILES IDX 11 13 12 14 7 15 6 16 1 17 2 18 3 19 92 20 4 21 5 22 22 23
REMARK SMILES IDX 23 24 24 25 25 26 26 27 27 28 91 29 28 30 90 31 29 32 30 33
REMARK SMILES IDX 31 34 84 35 32 36 89 37 83 38 85 39 33 40 88 41 82 42 81 43
REMARK SMILES IDX 34 45 68 46 47 47 67 48 48 49 51 50 66 51 86 52 49 53 50 54
REMARK SMILES IDX 65 56 87 57 52 58 35 59 36 60 45 61 37 62 38 63 44 64 46 65
REMARK SMILES IDX 39 66 40 67 41 68 42 69 43 70 69 71 70 72 79 73 71 74 72 75
REMARK SMILES IDX 78 76 80 77 73 78 74 79 75 80 76 81 77 82 53 83 54 84 63 85
REMARK SMILES IDX 55 86 56 87 62 88 64 89 57 90 58 91 59 92 60 93 61 94
REMARK H PARENT 85 44 51 55
REMARK Flexibility Score: inf
ROOT
ATOM      1  C   UNL A   1      34.927  32.841  28.416  1.00  0.00     0.202 C 
ENDROOT
BRANCH   1   2
ATOM      2  O   UNL A   1      34.806  31.890  27.359  1.00  0.00    -0.374 OA
BRANCH   2   3
ATOM      3  C   UNL A   1      33.884  30.821  27.578  1.00  0.00     0.202 C 
BRANCH   3   4
ATOM      4  C   UNL A   1      34.382  29.414  27.251  1.00  0.00     0.261 C 
BRANCH   4   5
ATOM      5  O   UNL A   1      33.780  28.905  26.044  1.00  0.00    -0.460 OA
BRANCH   5   6
ATOM      6  C   UNL A   1      32.601  28.273  26.237  1.00  0.00     0.342 C 
ATOM      7  O   UNL A   1      32.208  27.817  27.305  1.00  0.00    -0.246 OA
BRANCH   6   8
ATOM      8  C   UNL A   1      31.709  28.260  25.051  1.00  0.00     0.104 A 
ATOM      9  C   UNL A   1      31.318  27.134  24.307  1.00  0.00     0.134 A 
ATOM     10  C   UNL A   1      30.181  27.248  23.499  1.00  0.00     0.050 A 
ATOM     11  C   UNL A   1      29.606  28.488  23.223  1.00  0.00     0.043 A 
ATOM     12  C   UNL A   1      31.141  29.515  24.753  1.00  0.00     0.058 A 
ATOM     13  C   UNL A   1      30.127  29.622  23.818  1.00  0.00     0.124 A 
ATOM     14  F   UNL A   1      29.616  30.822  23.524  1.00  0.00    -0.207 F 
BRANCH   9  15
ATOM     15  O   UNL A   1      31.914  25.921  24.457  1.00  0.00    -0.490 OA
BRANCH  15  16
ATOM     16  C   UNL A   1      33.196  25.656  23.827  1.00  0.00     0.173 C 
ATOM     17  C   UNL A   1      32.326  22.459  23.122  1.00  0.00     0.008 C 
ATOM     18  C   UNL A   1      33.485  23.328  22.649  1.00  0.00    -0.011 C 
ATOM     19  C   UNL A   1      34.739  23.087  23.496  1.00  0.00     0.003 C 
ATOM     20  C   UNL A   1      33.132  24.821  22.538  1.00  0.00     0.048 C 
ATOM     21  C   UNL A   1      34.703  23.801  24.841  1.00  0.00     0.004 C 
ATOM     22  C   UNL A   1      34.405  25.298  24.710  1.00  0.00     0.045 C 
ENDBRANCH  15  16
ENDBRANCH   9  15
ENDBRANCH   6   8
ENDBRANCH   5   6
ENDBRANCH   4   5
ENDBRANCH   3   4
ENDBRANCH   2   3
ENDBRANCH   1   2
BRANCH   1  23
ATOM     23  C   UNL A   1      35.084  32.262  29.830  1.00  0.00     0.261 C 
BRANCH  23  24
ATOM     24  O   UNL A   1      36.458  31.956  30.135  1.00  0.00    -0.460 OA
BRANCH  24  25
ATOM     25  C   UNL A   1      36.668  30.736  30.687  1.00  0.00     0.338 C 
ATOM     26  O   UNL A   1      35.905  30.117  31.415  1.00  0.00    -0.246 OA
BRANCH  25  27
ATOM     27  C   UNL A   1      37.887  30.129  30.111  1.00  0.00     0.060 A 
ATOM     28  C   UNL A   1      38.865  29.661  31.001  1.00  0.00     0.016 A 
ATOM     29  C   UNL A   1      38.095  30.058  28.733  1.00  0.00     0.016 A 
ATOM     30  C   UNL A   1      40.077  29.170  30.518  1.00  0.00     0.010 A 
ATOM     31  C   UNL A   1      39.316  29.574  28.251  1.00  0.00     0.010 A 
ATOM     32  C   UNL A   1      40.327  29.165  29.142  1.00  0.00    -0.014 A 
BRANCH  32  33
ATOM     33  C   UNL A   1      41.696  28.908  28.629  1.00  0.00     0.031 A 
ATOM     34  C   UNL A   1      42.043  27.512  28.184  1.00  0.00     0.074 A 
ATOM     35  C   UNL A   1      42.616  29.887  28.557  1.00  0.00     0.049 A 
ATOM     36  N   UNL A   1      43.201  27.014  27.840  1.00  0.00    -0.248 NA
ATOM     37  C   UNL A   1      40.930  26.548  28.123  1.00  0.00     0.031 C 
ATOM     38  C   UNL A   1      42.383  31.292  28.888  1.00  0.00     0.029 A 
ATOM     39  N   UNL A   1      43.940  29.842  28.194  1.00  0.00    -0.354 N 
ATOM     40  C   UNL A   1      42.961  25.678  27.541  1.00  0.00     0.074 A 
ATOM     41  C   UNL A   1      41.554  25.436  27.766  1.00  0.00     0.031 C 
ATOM     42  C   UNL A   1      43.531  31.973  28.727  1.00  0.00     0.029 A 
ATOM     43  C   UNL A   1      44.591  31.045  28.330  1.00  0.00     0.049 A 
ATOM     44  H   UNL A   1      44.381  29.025  27.867  1.00  0.00     0.167 HD
ATOM     45  C   UNL A   1      43.838  24.741  27.110  1.00  0.00     0.037 A 
ATOM     46  C   UNL A   1      45.896  31.355  28.186  1.00  0.00     0.037 A 
ATOM     47  C   UNL A   1      45.235  24.996  26.876  1.00  0.00     0.049 A 
ATOM     48  C   UNL A   1      46.875  30.275  27.797  1.00  0.00     0.074 A 
ATOM     49  C   UNL A   1      46.204  24.113  26.434  1.00  0.00     0.029 A 
ATOM     50  N   UNL A   1      45.860  26.220  27.061  1.00  0.00    -0.354 N 
ATOM     51  N   UNL A   1      46.644  29.011  27.534  1.00  0.00    -0.248 NA
ATOM     52  C   UNL A   1      48.292  30.657  27.694  1.00  0.00     0.031 C 
ATOM     53  C   UNL A   1      47.426  24.787  26.405  1.00  0.00     0.029 A 
ATOM     54  C   UNL A   1      47.207  26.108  26.767  1.00  0.00     0.049 A 
ATOM     55  H   UNL A   1      45.413  27.045  27.357  1.00  0.00     0.167 HD
ATOM     56  C   UNL A   1      47.876  28.456  27.202  1.00  0.00     0.074 A 
ATOM     57  C   UNL A   1      48.854  29.520  27.300  1.00  0.00     0.031 C 
ATOM     58  C   UNL A   1      48.168  27.182  26.844  1.00  0.00     0.037 A 
BRANCH  45  59
ATOM     59  C   UNL A   1      43.327  23.346  26.881  1.00  0.00     0.058 A 
ATOM     60  C   UNL A   1      43.046  22.505  27.970  1.00  0.00     0.135 A 
ATOM     61  C   UNL A   1      43.180  22.817  25.589  1.00  0.00     0.135 A 
ATOM     62  F   UNL A   1      43.163  22.963  29.227  1.00  0.00    -0.206 F 
ATOM     63  C   UNL A   1      42.659  21.183  27.788  1.00  0.00     0.059 A 
ATOM     64  C   UNL A   1      42.765  21.503  25.383  1.00  0.00     0.059 A 
ATOM     65  F   UNL A   1      43.412  23.585  24.513  1.00  0.00    -0.206 F 
ATOM     66  C   UNL A   1      42.523  20.689  26.489  1.00  0.00     0.060 A 
BRANCH  66  67
ATOM     67  S   UNL A   1      41.993  18.977  26.271  1.00  0.00     0.124 S 
ATOM     68  O   UNL A   1      42.115  18.450  27.625  1.00  0.00    -0.237 OA
ATOM     69  O   UNL A   1      40.631  19.142  25.771  1.00  0.00    -0.237 OA
ATOM     70  O   UNL A   1      42.947  18.450  25.300  1.00  0.00    -0.744 OA
ENDBRANCH  66  67
ENDBRANCH  45  59
BRANCH  46  71
ATOM     71  C   UNL A   1      46.354  32.751  28.425  1.00  0.00     0.058 A 
ATOM     72  C   UNL A   1      46.748  33.182  29.701  1.00  0.00     0.135 A 
ATOM     73  C   UNL A   1      46.377  33.691  27.383  1.00  0.00     0.135 A 
ATOM     74  F   UNL A   1      46.744  32.324  30.734  1.00  0.00    -0.206 F 
ATOM     75  C   UNL A   1      47.118  34.500  29.945  1.00  0.00     0.059 A 
ATOM     76  C   UNL A   1      46.769  35.011  27.597  1.00  0.00     0.059 A 
ATOM     77  F   UNL A   1      46.029  33.324  26.142  1.00  0.00    -0.206 F 
ATOM     78  C   UNL A   1      47.120  35.410  28.886  1.00  0.00     0.060 A 
BRANCH  78  79
ATOM     79  S   UNL A   1      47.581  37.121  29.230  1.00  0.00     0.124 S 
ATOM     80  O   UNL A   1      49.028  37.075  29.046  1.00  0.00    -0.237 OA
ATOM     81  O   UNL A   1      46.833  37.849  28.210  1.00  0.00    -0.237 OA
ATOM     82  O   UNL A   1      47.129  37.324  30.602  1.00  0.00    -0.744 OA
ENDBRANCH  78  79
ENDBRANCH  46  71
BRANCH  58  83
ATOM     83  C   UNL A   1      49.589  26.843  26.485  1.00  0.00     0.058 A 
ATOM     84  C   UNL A   1      50.025  26.957  25.154  1.00  0.00     0.135 A 
ATOM     85  C   UNL A   1      50.464  26.260  27.414  1.00  0.00     0.135 A 
ATOM     86  F   UNL A   1      49.224  27.502  24.224  1.00  0.00    -0.206 F 
ATOM     87  C   UNL A   1      51.259  26.463  24.748  1.00  0.00     0.059 A 
ATOM     88  C   UNL A   1      51.715  25.782  27.034  1.00  0.00     0.059 A 
ATOM     89  F   UNL A   1      50.099  26.138  28.700  1.00  0.00    -0.206 F 
ATOM     90  C   UNL A   1      52.092  25.865  25.693  1.00  0.00     0.060 A 
BRANCH  90  91
ATOM     91  S   UNL A   1      53.666  25.177  25.135  1.00  0.00     0.124 S 
ATOM     92  O   UNL A   1      53.687  25.576  23.732  1.00  0.00    -0.237 OA
ATOM     93  O   UNL A   1      54.622  25.858  26.003  1.00  0.00    -0.237 OA
ATOM     94  O   UNL A   1      53.518  23.745  25.378  1.00  0.00    -0.744 OA
ENDBRANCH  90  91
ENDBRANCH  58  83
ENDBRANCH  32  33
ENDBRANCH  25  27
ENDBRANCH  24  25
ENDBRANCH  23  24
ENDBRANCH   1  23
TORSDOF 19
ENDMDL
MODEL 2
REMARK VINA RESULT:     -10.7      6.680     12.335
REMARK SMILES C[C@@H]1CCC[C@H](Oc2ccc(F)cc2C(=O)OCCOCCOC(=O)c2ccc(-c3c4nc(c(-c5c(F)cc(S(=O)(=O)[O-])cc5F)c5ccc([nH]5)c(-c5c(F)cc(S(=O)(=O)[O-])cc5F)c5nc(c(-c6c(F)cc(S(=O)(=O)[O-])cc6F)c6ccc3[nH]6)C=C5)C=C4)cc2)C1
REMARK SMILES IDX 21 1 20 2 19 3 18 4 17 5 15 6 16 7 14 8 8 9 9 10 10 11 13 12
REMARK SMILES IDX 11 13 12 14 7 15 6 16 1 17 2 18 3 19 92 20 4 21 5 22 22 23
REMARK SMILES IDX 23 24 24 25 25 26 26 27 27 28 91 29 28 30 90 31 29 32 30 33
REMARK SMILES IDX 31 34 84 35 32 36 89 37 83 38 85 39 33 40 88 41 82 42 81 43
REMARK SMILES IDX 34 45 68 46 47 47 67 48 48 49 51 50 66 51 86 52 49 53 50 54
REMARK SMILES IDX 65 56 87 57 52 58 35 59 36 60 45 61 37 62 38 63 44 64 46 65
REMARK SMILES IDX 39 66 40 67 41 68 42 69 43 70 69 71 70 72 79 73 71 74 72 75
REMARK SMILES IDX 78 76 80 77 73 78 74 79 75 80 76 81 77 82 53 83 54 84 63 85
REMARK SMILES IDX 55 86 56 87 62 88 64 89 57 90 58 91 59 92 60 93 61 94
REMARK H PARENT 85 44 51 55
REMARK Flexibility Score: inf
ROOT
ATOM      1  C   UNL A   1      39.440  21.581  26.121  1.00  0.00     0.202 C 
ENDROOT
BRANCH   1   2
ATOM      2  O   UNL A   1      38.252  22.299  25.787  1.00  0.00    -0.374 OA
BRANCH   2   3
ATOM      3  C   UNL A   1      37.249  21.561  25.088  1.00  0.00     0.202 C 
BRANCH   3   4
ATOM      4  C   UNL A   1      35.800  21.987  25.328  1.00  0.00     0.261 C 
BRANCH   4   5
ATOM      5  O   UNL A   1      35.185  21.210  26.376  1.00  0.00    -0.460 OA
BRANCH   5   6
ATOM      6  C   UNL A   1      33.843  21.344  26.450  1.00  0.00     0.342 C 
ATOM      7  O   UNL A   1      33.239  21.952  27.325  1.00  0.00    -0.246 OA
BRANCH   6   8
ATOM      8  C   UNL A   1      33.105  20.782  25.291  1.00  0.00     0.104 A 
ATOM      9  C   UNL A   1      32.527  21.504  24.233  1.00  0.00     0.134 A 
ATOM     10  C   UNL A   1      32.237  20.813  23.051  1.00  0.00     0.050 A 
ATOM     11  C   UNL A   1      32.265  19.420  22.998  1.00  0.00     0.043 A 
ATOM     12  C   UNL A   1      33.110  19.373  25.242  1.00  0.00     0.058 A 
ATOM     13  C   UNL A   1      32.656  18.709  24.117  1.00  0.00     0.124 A 
ATOM     14  F   UNL A   1      32.641  17.372  24.095  1.00  0.00    -0.207 F 
BRANCH   9  15
ATOM     15  O   UNL A   1      32.377  22.855  24.273  1.00  0.00    -0.490 OA
BRANCH  15  16
ATOM     16  C   UNL A   1      31.073  23.436  24.547  1.00  0.00     0.173 C 
ATOM     17  C   UNL A   1      31.888  26.317  22.961  1.00  0.00     0.008 C 
ATOM     18  C   UNL A   1      30.555  25.768  23.458  1.00  0.00    -0.011 C 
ATOM     19  C   UNL A   1      30.218  26.311  24.850  1.00  0.00     0.003 C 
ATOM     20  C   UNL A   1      30.455  24.234  23.388  1.00  0.00     0.048 C 
ATOM     21  C   UNL A   1      30.969  25.604  25.970  1.00  0.00     0.004 C 
ATOM     22  C   UNL A   1      30.815  24.081  25.920  1.00  0.00     0.045 C 
ENDBRANCH  15  16
ENDBRANCH   9  15
ENDBRANCH   6   8
ENDBRANCH   5   6
ENDBRANCH   4   5
ENDBRANCH   3   4
ENDBRANCH   2   3
ENDBRANCH   1   2
BRANCH   1  23
ATOM     23  C   UNL A   1      40.602  22.420  26.673  1.00  0.00     0.261 C 
BRANCH  23  24
ATOM     24  O   UNL A   1      40.276  23.823  26.723  1.00  0.00    -0.460 OA
BRANCH  24  25
ATOM     25  C   UNL A   1      41.336  24.657  26.853  1.00  0.00     0.338 C 
ATOM     26  O   UNL A   1      42.358  24.658  26.181  1.00  0.00    -0.246 OA
BRANCH  25  27
ATOM     27  C   UNL A   1      41.007  25.741  27.802  1.00  0.00     0.060 A 
ATOM     28  C   UNL A   1      41.955  26.759  27.983  1.00  0.00     0.016 A 
ATOM     29  C   UNL A   1      39.821  25.743  28.538  1.00  0.00     0.016 A 
ATOM     30  C   UNL A   1      41.745  27.753  28.938  1.00  0.00     0.010 A 
ATOM     31  C   UNL A   1      39.617  26.736  29.502  1.00  0.00     0.010 A 
ATOM     32  C   UNL A   1      40.595  27.722  29.734  1.00  0.00    -0.014 A 
BRANCH  32  33
ATOM     33  C   UNL A   1      40.484  28.599  30.926  1.00  0.00     0.031 A 
ATOM     34  C   UNL A   1      39.469  29.711  30.904  1.00  0.00     0.074 A 
ATOM     35  C   UNL A   1      41.263  28.418  32.008  1.00  0.00     0.049 A 
ATOM     36  N   UNL A   1      39.288  30.685  31.755  1.00  0.00    -0.248 NA
ATOM     37  C   UNL A   1      38.536  29.724  29.763  1.00  0.00     0.031 C 
ATOM     38  C   UNL A   1      42.230  27.335  32.182  1.00  0.00     0.029 A 
ATOM     39  N   UNL A   1      41.371  29.154  33.162  1.00  0.00    -0.354 N 
ATOM     40  C   UNL A   1      38.235  31.438  31.246  1.00  0.00     0.074 A 
ATOM     41  C   UNL A   1      37.834  30.823  30.001  1.00  0.00     0.031 C 
ATOM     42  C   UNL A   1      42.845  27.487  33.368  1.00  0.00     0.029 A 
ATOM     43  C   UNL A   1      42.351  28.703  34.015  1.00  0.00     0.049 A 
ATOM     44  H   UNL A   1      40.800  29.931  33.362  1.00  0.00     0.167 HD
ATOM     45  C   UNL A   1      37.653  32.539  31.776  1.00  0.00     0.037 A 
ATOM     46  C   UNL A   1      42.821  29.229  35.165  1.00  0.00     0.037 A 
ATOM     47  C   UNL A   1      38.051  33.136  33.023  1.00  0.00     0.049 A 
ATOM     48  C   UNL A   1      42.223  30.511  35.691  1.00  0.00     0.074 A 
ATOM     49  C   UNL A   1      37.520  34.251  33.647  1.00  0.00     0.029 A 
ATOM     50  N   UNL A   1      39.073  32.669  33.837  1.00  0.00    -0.354 N 
ATOM     51  N   UNL A   1      41.242  31.226  35.194  1.00  0.00    -0.248 NA
ATOM     52  C   UNL A   1      42.799  31.065  36.927  1.00  0.00     0.031 C 
ATOM     53  C   UNL A   1      38.255  34.491  34.809  1.00  0.00     0.029 A 
ATOM     54  C   UNL A   1      39.204  33.488  34.943  1.00  0.00     0.049 A 
ATOM     55  H   UNL A   1      39.623  31.873  33.654  1.00  0.00     0.167 HD
ATOM     56  C   UNL A   1      41.061  32.291  36.071  1.00  0.00     0.074 A 
ATOM     57  C   UNL A   1      42.036  32.132  37.130  1.00  0.00     0.031 C 
ATOM     58  C   UNL A   1      40.164  33.305  36.005  1.00  0.00     0.037 A 
BRANCH  45  59
ATOM     59  C   UNL A   1      36.538  33.189  31.006  1.00  0.00     0.058 A 
ATOM     60  C   UNL A   1      36.823  34.050  29.934  1.00  0.00     0.135 A 
ATOM     61  C   UNL A   1      35.192  33.018  31.369  1.00  0.00     0.135 A 
ATOM     62  F   UNL A   1      38.092  34.245  29.541  1.00  0.00    -0.206 F 
ATOM     63  C   UNL A   1      35.817  34.736  29.263  1.00  0.00     0.059 A 
ATOM     64  C   UNL A   1      34.166  33.672  30.692  1.00  0.00     0.059 A 
ATOM     65  F   UNL A   1      34.863  32.187  32.371  1.00  0.00    -0.206 F 
ATOM     66  C   UNL A   1      34.490  34.541  29.650  1.00  0.00     0.060 A 
BRANCH  66  67
ATOM     67  S   UNL A   1      33.194  35.418  28.750  1.00  0.00     0.124 S 
ATOM     68  O   UNL A   1      32.507  34.326  28.072  1.00  0.00    -0.237 OA
ATOM     69  O   UNL A   1      32.456  36.062  29.832  1.00  0.00    -0.237 OA
ATOM     70  O   UNL A   1      33.940  36.328  27.886  1.00  0.00    -0.744 OA
ENDBRANCH  66  67
ENDBRANCH  45  59
BRANCH  46  71
ATOM     71  C   UNL A   1      43.928  28.549  35.890  1.00  0.00     0.058 A 
ATOM     72  C   UNL A   1      45.269  28.891  35.662  1.00  0.00     0.135 A 
ATOM     73  C   UNL A   1      43.665  27.519  36.807  1.00  0.00     0.135 A 
ATOM     74  F   UNL A   1      45.578  29.869  34.795  1.00  0.00    -0.206 F 
ATOM     75  C   UNL A   1      46.312  28.218  36.290  1.00  0.00     0.059 A 
ATOM     76  C   UNL A   1      44.690  26.848  37.469  1.00  0.00     0.059 A 
ATOM     77  F   UNL A   1      42.398  27.169  37.075  1.00  0.00    -0.206 F 
ATOM     78  C   UNL A   1      46.012  27.192  37.188  1.00  0.00     0.060 A 
BRANCH  78  79
ATOM     79  S   UNL A   1      47.381  26.316  37.974  1.00  0.00     0.124 S 
ATOM     80  O   UNL A   1      47.878  27.327  38.903  1.00  0.00    -0.237 OA
ATOM     81  O   UNL A   1      46.704  25.174  38.579  1.00  0.00    -0.237 OA
ATOM     82  O   UNL A   1      48.266  26.000  36.858  1.00  0.00    -0.744 OA
ENDBRANCH  78  79
ENDBRANCH  46  71
BRANCH  58  83
ATOM     83  C   UNL A   1      40.141  34.319  37.117  1.00  0.00     0.058 A 
ATOM     84  C   UNL A   1      39.215  34.192  38.166  1.00  0.00     0.135 A 
ATOM     85  C   UNL A   1      40.915  35.487  37.063  1.00  0.00     0.135 A 
ATOM     86  F   UNL A   1      38.446  33.095  38.260  1.00  0.00    -0.206 F 
ATOM     87  C   UNL A   1      39.025  35.208  39.096  1.00  0.00     0.059 A 
ATOM     88  C   UNL A   1      40.760  36.507  37.999  1.00  0.00     0.059 A 
ATOM     89  F   UNL A   1      41.822  35.652  36.087  1.00  0.00    -0.206 F 
ATOM     90  C   UNL A   1      39.794  36.368  38.996  1.00  0.00     0.060 A 
BRANCH  90  91
ATOM     91  S   UNL A   1      39.492  37.700  40.178  1.00  0.00     0.124 S 
ATOM     92  O   UNL A   1      39.167  36.956  41.391  1.00  0.00    -0.237 OA
ATOM     93  O   UNL A   1      40.773  38.399  40.185  1.00  0.00    -0.237 OA
ATOM     94  O   UNL A   1      38.383  38.439  39.581  1.00  0.00    -0.744 OA
ENDBRANCH  90  91
ENDBRANCH  58  83
ENDBRANCH  32  33
ENDBRANCH  25  27
ENDBRANCH  24  25
ENDBRANCH  23  24
ENDBRANCH   1  23
TORSDOF 19
ENDMDL
MODEL 3
REMARK VINA RESULT:     -10.4      6.502     11.317
REMARK SMILES C[C@@H]1CCC[C@H](Oc2ccc(F)cc2C(=O)OCCOCCOC(=O)c2ccc(-c3c4nc(c(-c5c(F)cc(S(=O)(=O)[O-])cc5F)c5ccc([nH]5)c(-c5c(F)cc(S(=O)(=O)[O-])cc5F)c5nc(c(-c6c(F)cc(S(=O)(=O)[O-])cc6F)c6ccc3[nH]6)C=C5)C=C4)cc2)C1
REMARK SMILES IDX 21 1 20 2 19 3 18 4 17 5 15 6 16 7 14 8 8 9 9 10 10 11 13 12
REMARK SMILES IDX 11 13 12 14 7 15 6 16 1 17 2 18 3 19 92 20 4 21 5 22 22 23
REMARK SMILES IDX 23 24 24 25 25 26 26 27 27 28 91 29 28 30 90 31 29 32 30 33
REMARK SMILES IDX 31 34 84 35 32 36 89 37 83 38 85 39 33 40 88 41 82 42 81 43
REMARK SMILES IDX 34 45 68 46 47 47 67 48 48 49 51 50 66 51 86 52 49 53 50 54
REMARK SMILES IDX 65 56 87 57 52 58 35 59 36 60 45 61 37 62 38 63 44 64 46 65
REMARK SMILES IDX 39 66 40 67 41 68 42 69 43 70 69 71 70 72 79 73 71 74 72 75
REMARK SMILES IDX 78 76 80 77 73 78 74 79 75 80 76 81 77 82 53 83 54 84 63 85
REMARK SMILES IDX 55 86 56 87 62 88 64 89 57 90 58 91 59 92 60 93 61 94
REMARK H PARENT 85 44 51 55
REMARK Flexibility Score: inf
ROOT
ATOM      1  C   UNL A   1      38.331  21.782  25.757  1.00  0.00     0.202 C 
ENDROOT
BRANCH   1   2
ATOM      2  O   UNL A   1      37.736  22.884  25.072  1.00  0.00    -0.374 OA
BRANCH   2   3
ATOM      3  C   UNL A   1      36.919  23.748  25.864  1.00  0.00     0.202 C 
BRANCH   3   4
ATOM      4  C   UNL A   1      35.415  23.694  25.599  1.00  0.00     0.261 C 
BRANCH   4   5
ATOM      5  O   UNL A   1      34.841  25.015  25.525  1.00  0.00    -0.460 OA
BRANCH   5   6
ATOM      6  C   UNL A   1      33.594  25.106  26.037  1.00  0.00     0.342 C 
ATOM      7  O   UNL A   1      32.924  24.164  26.443  1.00  0.00    -0.246 OA
BRANCH   6   8
ATOM      8  C   UNL A   1      33.095  26.495  26.196  1.00  0.00     0.104 A 
ATOM      9  C   UNL A   1      31.752  26.907  26.220  1.00  0.00     0.134 A 
ATOM     10  C   UNL A   1      31.462  28.159  26.774  1.00  0.00     0.050 A 
ATOM     11  C   UNL A   1      32.470  29.083  27.051  1.00  0.00     0.043 A 
ATOM     12  C   UNL A   1      34.111  27.438  26.456  1.00  0.00     0.058 A 
ATOM     13  C   UNL A   1      33.789  28.727  26.841  1.00  0.00     0.124 A 
ATOM     14  F   UNL A   1      34.761  29.619  27.057  1.00  0.00    -0.207 F 
BRANCH   9  15
ATOM     15  O   UNL A   1      30.733  26.083  25.858  1.00  0.00    -0.490 OA
BRANCH  15  16
ATOM     16  C   UNL A   1      30.094  26.239  24.562  1.00  0.00     0.173 C 
ATOM     17  C   UNL A   1      32.765  24.917  22.951  1.00  0.00     0.008 C 
ATOM     18  C   UNL A   1      31.346  25.228  22.488  1.00  0.00    -0.011 C 
ATOM     19  C   UNL A   1      31.274  26.600  21.811  1.00  0.00     0.003 C 
ATOM     20  C   UNL A   1      30.287  25.063  23.592  1.00  0.00     0.048 C 
ATOM     21  C   UNL A   1      31.245  27.758  22.800  1.00  0.00     0.004 C 
ATOM     22  C   UNL A   1      30.150  27.608  23.860  1.00  0.00     0.045 C 
ENDBRANCH  15  16
ENDBRANCH   9  15
ENDBRANCH   6   8
ENDBRANCH   5   6
ENDBRANCH   4   5
ENDBRANCH   3   4
ENDBRANCH   2   3
ENDBRANCH   1   2
BRANCH   1  23
ATOM     23  C   UNL A   1      39.752  22.010  26.294  1.00  0.00     0.261 C 
BRANCH  23  24
ATOM     24  O   UNL A   1      39.809  23.122  27.208  1.00  0.00    -0.460 OA
BRANCH  24  25
ATOM     25  C   UNL A   1      40.818  23.999  26.987  1.00  0.00     0.338 C 
ATOM     26  O   UNL A   1      41.703  23.905  26.147  1.00  0.00    -0.246 OA
BRANCH  25  27
ATOM     27  C   UNL A   1      40.592  25.232  27.769  1.00  0.00     0.060 A 
ATOM     28  C   UNL A   1      41.583  26.223  27.726  1.00  0.00     0.016 A 
ATOM     29  C   UNL A   1      39.459  25.402  28.567  1.00  0.00     0.016 A 
ATOM     30  C   UNL A   1      41.473  27.364  28.521  1.00  0.00     0.010 A 
ATOM     31  C   UNL A   1      39.356  26.542  29.371  1.00  0.00     0.010 A 
ATOM     32  C   UNL A   1      40.380  27.508  29.382  1.00  0.00    -0.014 A 
BRANCH  32  33
ATOM     33  C   UNL A   1      40.380  28.565  30.423  1.00  0.00     0.031 A 
ATOM     34  C   UNL A   1      41.351  28.442  31.567  1.00  0.00     0.074 A 
ATOM     35  C   UNL A   1      39.541  29.615  30.362  1.00  0.00     0.049 A 
ATOM     36  N   UNL A   1      41.440  29.152  32.661  1.00  0.00    -0.248 NA
ATOM     37  C   UNL A   1      42.355  27.367  31.463  1.00  0.00     0.031 C 
ATOM     38  C   UNL A   1      38.606  29.886  29.270  1.00  0.00     0.029 A 
ATOM     39  N   UNL A   1      39.330  30.642  31.248  1.00  0.00    -0.354 N 
ATOM     40  C   UNL A   1      42.494  28.602  33.382  1.00  0.00     0.074 A 
ATOM     41  C   UNL A   1      42.998  27.484  32.615  1.00  0.00     0.031 C 
ATOM     42  C   UNL A   1      37.911  31.000  29.560  1.00  0.00     0.029 A 
ATOM     43  C   UNL A   1      38.315  31.491  30.878  1.00  0.00     0.049 A 
ATOM     44  H   UNL A   1      39.857  30.759  32.072  1.00  0.00     0.167 HD
ATOM     45  C   UNL A   1      42.998  28.999  34.573  1.00  0.00     0.037 A 
ATOM     46  C   UNL A   1      37.753  32.524  31.540  1.00  0.00     0.037 A 
ATOM     47  C   UNL A   1      42.498  30.121  35.322  1.00  0.00     0.049 A 
ATOM     48  C   UNL A   1      38.266  32.893  32.910  1.00  0.00     0.074 A 
ATOM     49  C   UNL A   1      42.945  30.607  36.538  1.00  0.00     0.029 A 
ATOM     50  N   UNL A   1      41.445  30.933  34.928  1.00  0.00    -0.354 N 
ATOM     51  N   UNL A   1      39.249  32.356  33.592  1.00  0.00    -0.248 NA
ATOM     52  C   UNL A   1      37.591  34.000  33.606  1.00  0.00     0.031 C 
ATOM     53  C   UNL A   1      42.127  31.677  36.906  1.00  0.00     0.029 A 
ATOM     54  C   UNL A   1      41.211  31.900  35.889  1.00  0.00     0.049 A 
ATOM     55  H   UNL A   1      40.939  30.835  34.089  1.00  0.00     0.167 HD
ATOM     56  C   UNL A   1      39.333  33.078  34.778  1.00  0.00     0.074 A 
ATOM     57  C   UNL A   1      38.298  34.090  34.726  1.00  0.00     0.031 C 
ATOM     58  C   UNL A   1      40.192  32.919  35.814  1.00  0.00     0.037 A 
BRANCH  45  59
ATOM     59  C   UNL A   1      44.135  28.210  35.159  1.00  0.00     0.058 A 
ATOM     60  C   UNL A   1      43.881  27.133  36.023  1.00  0.00     0.135 A 
ATOM     61  C   UNL A   1      45.475  28.559  34.923  1.00  0.00     0.135 A 
ATOM     62  F   UNL A   1      42.618  26.752  36.278  1.00  0.00    -0.206 F 
ATOM     63  C   UNL A   1      44.912  26.443  36.651  1.00  0.00     0.059 A 
ATOM     64  C   UNL A   1      46.524  27.863  35.518  1.00  0.00     0.059 A 
ATOM     65  F   UNL A   1      45.774  29.565  34.086  1.00  0.00    -0.206 F 
ATOM     66  C   UNL A   1      46.232  26.816  36.393  1.00  0.00     0.060 A 
BRANCH  66  67
ATOM     67  S   UNL A   1      47.559  25.892  37.195  1.00  0.00     0.124 S 
ATOM     68  O   UNL A   1      48.219  26.931  37.976  1.00  0.00    -0.237 OA
ATOM     69  O   UNL A   1      46.815  24.895  37.959  1.00  0.00    -0.237 OA
ATOM     70  O   UNL A   1      48.328  25.362  36.073  1.00  0.00    -0.744 OA
ENDBRANCH  66  67
ENDBRANCH  45  59
BRANCH  46  71
ATOM     71  C   UNL A   1      36.628  33.274  30.918  1.00  0.00     0.058 A 
ATOM     72  C   UNL A   1      35.306  33.105  31.358  1.00  0.00     0.135 A 
ATOM     73  C   UNL A   1      36.852  34.156  29.849  1.00  0.00     0.135 A 
ATOM     74  F   UNL A   1      35.035  32.274  32.376  1.00  0.00    -0.206 F 
ATOM     75  C   UNL A   1      34.243  33.756  30.741  1.00  0.00     0.059 A 
ATOM     76  C   UNL A   1      35.806  34.840  29.233  1.00  0.00     0.059 A 
ATOM     77  F   UNL A   1      38.099  34.367  29.406  1.00  0.00    -0.206 F 
ATOM     78  C   UNL A   1      34.503  34.617  29.674  1.00  0.00     0.060 A 
BRANCH  78  79
ATOM     79  S   UNL A   1      33.105  35.433  28.874  1.00  0.00     0.124 S 
ATOM     80  O   UNL A   1      32.522  34.332  28.113  1.00  0.00    -0.237 OA
ATOM     81  O   UNL A   1      32.327  35.896  30.018  1.00  0.00    -0.237 OA
ATOM     82  O   UNL A   1      33.735  36.482  28.080  1.00  0.00    -0.744 OA
ENDBRANCH  78  79
ENDBRANCH  46  71
BRANCH  58  83
ATOM     83  C   UNL A   1      40.105  33.871  36.976  1.00  0.00     0.058 A 
ATOM     84  C   UNL A   1      39.166  33.650  37.998  1.00  0.00     0.135 A 
ATOM     85  C   UNL A   1      40.828  35.073  36.997  1.00  0.00     0.135 A 
ATOM     86  F   UNL A   1      38.445  32.519  38.021  1.00  0.00    -0.206 F 
ATOM     87  C   UNL A   1      38.916  34.608  38.975  1.00  0.00     0.059 A 
ATOM     88  C   UNL A   1      40.612  36.035  37.981  1.00  0.00     0.059 A 
ATOM     89  F   UNL A   1      41.744  35.327  36.050  1.00  0.00    -0.206 F 
ATOM     90  C   UNL A   1      39.634  35.803  38.949  1.00  0.00     0.060 A 
BRANCH  90  91
ATOM     91  S   UNL A   1      39.253  37.058  40.191  1.00  0.00     0.124 S 
ATOM     92  O   UNL A   1      40.585  37.449  40.641  1.00  0.00    -0.237 OA
ATOM     93  O   UNL A   1      38.529  38.054  39.408  1.00  0.00    -0.237 OA
ATOM     94  O   UNL A   1      38.449  36.333  41.171  1.00  0.00    -0.744 OA
ENDBRANCH  90  91
ENDBRANCH  58  83
ENDBRANCH  32  33
ENDBRANCH  25  27
ENDBRANCH  24  25
ENDBRANCH  23  24
ENDBRANCH   1  23
TORSDOF 19
ENDMDL
