MODEL 1
REMARK VINA RESULT:      -9.0      0.000      0.000
REMARK SMILES O=C(OCCOCCOC(=O)c1ccc(-c2c3nc(c(-c4c(F)cc(S(=O)(=O)[O-])cc4F)c4ccc([nH]4)c(-c4c(F)cc(S(=O)(=O)[O-])cc4F)c4nc(c(-c5c(F)cc(S(=O)(=O)[O-])cc5F)c5ccc2[nH]5)C=C4)C=C3)cc1)C1=Cc2cc(Cl)cc(-c3ccc(Cl)cc3)c2O[C@@H]1C(F)(F)F
REMARK SMILES IDX 7 1 6 2 5 3 4 4 3 5 2 6 1 7 78 8 79 9 95 10 80 11 94 12
REMARK SMILES IDX 81 13 93 14 82 15 85 16 83 17 84 18 96 19 97 20 98 21 99 22
REMARK SMILES IDX 86 23 87 24 92 25 88 26 91 27 89 28 90 29 8 30 9 31 10 32
REMARK SMILES IDX 11 33 12 34 13 35 77 36 14 37 76 38 15 39 16 40 17 41 70 42
REMARK SMILES IDX 18 43 75 44 69 45 71 46 19 47 74 48 68 49 67 50 20 52 54 53
REMARK SMILES IDX 33 54 53 55 34 56 37 57 52 58 72 59 35 60 36 61 51 63 73 64
REMARK SMILES IDX 38 65 21 66 22 67 31 68 23 69 24 70 30 71 32 72 25 73 26 74
REMARK SMILES IDX 27 75 28 76 29 77 55 78 56 79 65 80 57 81 58 82 64 83 66 84
REMARK SMILES IDX 59 85 60 86 61 87 62 88 63 89 39 90 40 91 49 92 41 93 42 94
REMARK SMILES IDX 48 95 50 96 43 97 44 98 45 99 46 100 47 101
REMARK H PARENT 71 51 37 62
REMARK Flexibility Score: inf
ROOT
ATOM      1  C   UNL A   1      34.531  33.396  33.385  1.00  0.00     0.202 C 
ENDROOT
BRANCH   1   2
ATOM      2  O   UNL A   1      35.382  33.465  34.562  1.00  0.00    -0.374 OA
BRANCH   2   3
ATOM      3  C   UNL A   1      36.899  34.054  34.821  1.00  0.00     0.202 C 
BRANCH   3   4
ATOM      4  C   UNL A   1      38.462  34.505  33.376  1.00  0.00     0.261 C 
BRANCH   4   5
ATOM      5  O   UNL A   1      39.512  33.468  32.823  1.00  0.00    -0.460 OA
BRANCH   5   6
ATOM      6  C   UNL A   1      40.697  34.011  32.525  1.00  0.00     0.338 C 
ATOM      7  O   UNL A   1      41.095  34.545  31.521  1.00  0.00    -0.246 OA
BRANCH   6   8
ATOM      8  C   UNL A   1      41.378  33.424  33.647  1.00  0.00     0.087 C 
ATOM      9  C   UNL A   1      41.282  31.961  33.614  1.00  0.00     0.027 C 
ATOM     10  C   UNL A   1      43.025  34.432  33.501  1.00  0.00     0.316 C 
ATOM     11  C   UNL A   1      42.674  30.885  33.218  1.00  0.00     0.019 A 
ATOM     12  O   UNL A   1      44.537  33.276  33.062  1.00  0.00    -0.475 OA
ATOM     13  C   UNL A   1      42.343  29.575  32.983  1.00  0.00     0.032 A 
ATOM     14  C   UNL A   1      44.285  31.467  32.867  1.00  0.00     0.135 A 
ATOM     15  C   UNL A   1      43.347  28.809  32.394  1.00  0.00     0.042 A 
ATOM     16  C   UNL A   1      45.268  30.557  32.361  1.00  0.00     0.026 A 
ATOM     17  Cl  UNL A   1      42.963  27.157  32.036  1.00  0.00    -0.084 Cl
ATOM     18  C   UNL A   1      44.677  29.277  32.068  1.00  0.00     0.033 A 
BRANCH  10  19
ATOM     19  C   UNL A   1      42.682  35.422  34.730  1.00  0.00     0.430 C 
ATOM     20  F   UNL A   1      41.962  36.514  34.402  1.00  0.00    -0.167 F 
ATOM     21  F   UNL A   1      41.877  34.748  35.607  1.00  0.00    -0.167 F 
ATOM     22  F   UNL A   1      43.742  35.803  35.480  1.00  0.00    -0.167 F 
ENDBRANCH  10  19
BRANCH  16  23
ATOM     23  C   UNL A   1      46.850  30.697  32.080  1.00  0.00    -0.015 A 
ATOM     24  C   UNL A   1      47.466  31.650  33.493  1.00  0.00     0.010 A 
ATOM     25  C   UNL A   1      48.260  29.736  30.974  1.00  0.00     0.010 A 
ATOM     26  C   UNL A   1      49.193  31.650  33.843  1.00  0.00     0.021 A 
ATOM     27  C   UNL A   1      49.988  29.822  31.470  1.00  0.00     0.021 A 
ATOM     28  C   UNL A   1      50.385  30.768  32.876  1.00  0.00     0.041 A 
ATOM     29  Cl  UNL A   1      52.043  30.871  33.333  1.00  0.00    -0.084 Cl
ENDBRANCH  16  23
ENDBRANCH   6   8
ENDBRANCH   5   6
ENDBRANCH   4   5
ENDBRANCH   3   4
ENDBRANCH   2   3
ENDBRANCH   1   2
BRANCH   1  30
ATOM     30  C   UNL A   1      35.036  34.064  32.104  1.00  0.00     0.261 C 
BRANCH  30  31
ATOM     31  O   UNL A   1      35.986  33.226  31.503  1.00  0.00    -0.460 OA
BRANCH  31  32
ATOM     32  C   UNL A   1      35.389  32.376  30.652  1.00  0.00     0.338 C 
ATOM     33  O   UNL A   1      34.298  32.440  30.118  1.00  0.00    -0.246 OA
BRANCH  32  34
ATOM     34  C   UNL A   1      36.369  31.354  30.414  1.00  0.00     0.060 A 
ATOM     35  C   UNL A   1      37.458  30.904  31.748  1.00  0.00     0.016 A 
ATOM     36  C   UNL A   1      36.783  30.825  28.725  1.00  0.00     0.016 A 
ATOM     37  C   UNL A   1      38.976  30.007  31.488  1.00  0.00     0.010 A 
ATOM     38  C   UNL A   1      38.511  29.801  28.506  1.00  0.00     0.010 A 
ATOM     39  C   UNL A   1      39.541  29.469  29.921  1.00  0.00    -0.014 A 
BRANCH  39  40
ATOM     40  C   UNL A   1      40.964  29.142  29.575  1.00  0.00     0.031 A 
ATOM     41  C   UNL A   1      42.000  30.241  29.374  1.00  0.00     0.074 A 
ATOM     42  C   UNL A   1      41.237  27.921  29.080  1.00  0.00     0.049 A 
ATOM     43  N   UNL A   1      43.195  30.191  28.832  1.00  0.00    -0.248 NA
ATOM     44  C   UNL A   1      41.604  31.599  29.753  1.00  0.00     0.031 C 
ATOM     45  C   UNL A   1      40.290  26.814  29.012  1.00  0.00     0.029 A 
ATOM     46  N   UNL A   1      42.374  27.431  28.486  1.00  0.00    -0.354 N 
ATOM     47  C   UNL A   1      43.650  31.512  28.766  1.00  0.00     0.074 A 
ATOM     48  C   UNL A   1      42.559  32.340  29.215  1.00  0.00     0.031 C 
ATOM     49  C   UNL A   1      40.882  25.769  28.409  1.00  0.00     0.029 A 
ATOM     50  C   UNL A   1      42.253  26.133  28.052  1.00  0.00     0.049 A 
ATOM     51  H   UNL A   1      43.198  27.960  28.382  1.00  0.00     0.167 HD
ATOM     52  C   UNL A   1      44.872  32.000  28.427  1.00  0.00     0.037 A 
ATOM     53  C   UNL A   1      43.152  25.323  27.460  1.00  0.00     0.037 A 
ATOM     54  C   UNL A   1      45.971  31.161  28.025  1.00  0.00     0.049 A 
ATOM     55  C   UNL A   1      44.548  25.827  27.200  1.00  0.00     0.074 A 
ATOM     56  C   UNL A   1      47.298  31.500  27.824  1.00  0.00     0.029 A 
ATOM     57  N   UNL A   1      45.861  29.806  27.754  1.00  0.00    -0.354 N 
ATOM     58  N   UNL A   1      45.033  27.038  27.341  1.00  0.00    -0.248 NA
ATOM     59  C   UNL A   1      45.532  24.837  26.739  1.00  0.00     0.031 C 
ATOM     60  C   UNL A   1      47.978  30.360  27.381  1.00  0.00     0.029 A 
ATOM     61  C   UNL A   1      47.090  29.296  27.376  1.00  0.00     0.049 A 
ATOM     62  H   UNL A   1      45.029  29.284  27.821  1.00  0.00     0.167 HD
ATOM     63  C   UNL A   1      46.391  26.942  27.045  1.00  0.00     0.074 A 
ATOM     64  C   UNL A   1      46.646  25.555  26.714  1.00  0.00     0.031 C 
ATOM     65  C   UNL A   1      47.341  27.911  27.063  1.00  0.00     0.037 A 
BRANCH  52  66
ATOM     66  C   UNL A   1      45.110  33.496  28.535  1.00  0.00     0.058 A 
ATOM     67  C   UNL A   1      44.636  34.392  27.560  1.00  0.00     0.135 A 
ATOM     68  C   UNL A   1      45.779  34.054  29.640  1.00  0.00     0.135 A 
ATOM     69  F   UNL A   1      43.974  33.934  26.485  1.00  0.00    -0.206 F 
ATOM     70  C   UNL A   1      44.874  35.762  27.635  1.00  0.00     0.059 A 
ATOM     71  C   UNL A   1      45.988  35.430  29.760  1.00  0.00     0.059 A 
ATOM     72  F   UNL A   1      46.238  33.266  30.624  1.00  0.00    -0.206 F 
ATOM     73  C   UNL A   1      45.554  36.272  28.739  1.00  0.00     0.060 A 
BRANCH  73  74
ATOM     74  S   UNL A   1      45.857  38.051  28.809  1.00  0.00     0.124 S 
ATOM     75  O   UNL A   1      46.742  38.241  27.662  1.00  0.00    -0.237 OA
ATOM     76  O   UNL A   1      44.513  38.602  28.667  1.00  0.00    -0.237 OA
ATOM     77  O   UNL A   1      46.476  38.242  30.117  1.00  0.00    -0.744 OA
ENDBRANCH  73  74
ENDBRANCH  52  66
BRANCH  53  78
ATOM     78  C   UNL A   1      42.801  23.898  27.227  1.00  0.00     0.058 A 
ATOM     79  C   UNL A   1      42.480  23.464  25.931  1.00  0.00     0.135 A 
ATOM     80  C   UNL A   1      42.823  22.940  28.250  1.00  0.00     0.135 A 
ATOM     81  F   UNL A   1      42.448  24.345  24.920  1.00  0.00    -0.206 F 
ATOM     82  C   UNL A   1      42.174  22.137  25.659  1.00  0.00     0.059 A 
ATOM     83  C   UNL A   1      42.544  21.599  27.998  1.00  0.00     0.059 A 
ATOM     84  F   UNL A   1      43.152  23.299  29.501  1.00  0.00    -0.206 F 
ATOM     85  C   UNL A   1      42.216  21.210  26.699  1.00  0.00     0.060 A 
BRANCH  85  86
ATOM     86  S   UNL A   1      41.883  19.478  26.310  1.00  0.00     0.124 S 
ATOM     87  O   UNL A   1      42.218  18.823  27.569  1.00  0.00    -0.237 OA
ATOM     88  O   UNL A   1      40.466  19.513  25.965  1.00  0.00    -0.237 OA
ATOM     89  O   UNL A   1      42.786  19.204  25.196  1.00  0.00    -0.744 OA
ENDBRANCH  85  86
ENDBRANCH  53  78
BRANCH  65  90
ATOM     90  C   UNL A   1      48.766  27.504  26.793  1.00  0.00     0.058 A 
ATOM     91  C   UNL A   1      49.642  27.106  27.815  1.00  0.00     0.135 A 
ATOM     92  C   UNL A   1      49.247  27.470  25.472  1.00  0.00     0.135 A 
ATOM     93  F   UNL A   1      49.239  27.119  29.095  1.00  0.00    -0.206 F 
ATOM     94  C   UNL A   1      50.953  26.728  27.541  1.00  0.00     0.059 A 
ATOM     95  C   UNL A   1      50.541  27.060  25.173  1.00  0.00     0.059 A 
ATOM     96  F   UNL A   1      48.449  27.826  24.452  1.00  0.00    -0.206 F 
ATOM     97  C   UNL A   1      51.393  26.706  26.217  1.00  0.00     0.060 A 
BRANCH  97  98
ATOM     98  S   UNL A   1      53.090  26.196  25.876  1.00  0.00     0.124 S 
ATOM     99  O   UNL A   1      53.020  24.759  26.120  1.00  0.00    -0.237 OA
ATOM    100  O   UNL A   1      53.261  26.595  24.482  1.00  0.00    -0.237 OA
ATOM    101  O   UNL A   1      53.877  26.958  26.841  1.00  0.00    -0.744 OA
ENDBRANCH  97  98
ENDBRANCH  65  90
ENDBRANCH  39  40
ENDBRANCH  32  34
ENDBRANCH  31  32
ENDBRANCH  30  31
ENDBRANCH   1  30
TORSDOF 19
ENDMDL
MODEL 2
REMARK VINA RESULT:      -8.8      9.635     14.580
REMARK SMILES O=C(OCCOCCOC(=O)c1ccc(-c2c3nc(c(-c4c(F)cc(S(=O)(=O)[O-])cc4F)c4ccc([nH]4)c(-c4c(F)cc(S(=O)(=O)[O-])cc4F)c4nc(c(-c5c(F)cc(S(=O)(=O)[O-])cc5F)c5ccc2[nH]5)C=C4)C=C3)cc1)C1=Cc2cc(Cl)cc(-c3ccc(Cl)cc3)c2O[C@@H]1C(F)(F)F
REMARK SMILES IDX 7 1 6 2 5 3 4 4 3 5 2 6 1 7 78 8 79 9 95 10 80 11 94 12
REMARK SMILES IDX 81 13 93 14 82 15 85 16 83 17 84 18 96 19 97 20 98 21 99 22
REMARK SMILES IDX 86 23 87 24 92 25 88 26 91 27 89 28 90 29 8 30 9 31 10 32
REMARK SMILES IDX 11 33 12 34 13 35 77 36 14 37 76 38 15 39 16 40 17 41 70 42
REMARK SMILES IDX 18 43 75 44 69 45 71 46 19 47 74 48 68 49 67 50 20 52 54 53
REMARK SMILES IDX 33 54 53 55 34 56 37 57 52 58 72 59 35 60 36 61 51 63 73 64
REMARK SMILES IDX 38 65 21 66 22 67 31 68 23 69 24 70 30 71 32 72 25 73 26 74
REMARK SMILES IDX 27 75 28 76 29 77 55 78 56 79 65 80 57 81 58 82 64 83 66 84
REMARK SMILES IDX 59 85 60 86 61 87 62 88 63 89 39 90 40 91 49 92 41 93 42 94
REMARK SMILES IDX 48 95 50 96 43 97 44 98 45 99 46 100 47 101
REMARK H PARENT 71 51 37 62
REMARK Flexibility Score: inf
ROOT
ATOM      1  C   UNL A   1      45.182  26.745  40.626  1.00  0.00     0.202 C 
ENDROOT
BRANCH   1   2
ATOM      2  O   UNL A   1      44.882  25.322  40.607  1.00  0.00    -0.374 OA
BRANCH   2   3
ATOM      3  C   UNL A   1      45.690  24.010  40.023  1.00  0.00     0.202 C 
BRANCH   3   4
ATOM      4  C   UNL A   1      45.295  21.895  40.350  1.00  0.00     0.261 C 
BRANCH   4   5
ATOM      5  O   UNL A   1      46.344  20.851  40.889  1.00  0.00    -0.460 OA
BRANCH   5   6
ATOM      6  C   UNL A   1      45.825  19.957  41.738  1.00  0.00     0.338 C 
ATOM      7  O   UNL A   1      45.015  20.078  42.621  1.00  0.00    -0.246 OA
BRANCH   6   8
ATOM      8  C   UNL A   1      46.806  18.945  41.453  1.00  0.00     0.087 C 
ATOM      9  C   UNL A   1      47.767  18.820  42.554  1.00  0.00     0.027 C 
ATOM     10  C   UNL A   1      45.582  17.557  40.884  1.00  0.00     0.316 C 
ATOM     11  C   UNL A   1      47.802  17.415  43.684  1.00  0.00     0.019 A 
ATOM     12  O   UNL A   1      45.605  16.034  42.108  1.00  0.00    -0.475 OA
ATOM     13  C   UNL A   1      48.587  17.586  44.795  1.00  0.00     0.032 A 
ATOM     14  C   UNL A   1      46.723  16.044  43.566  1.00  0.00     0.135 A 
ATOM     15  C   UNL A   1      48.392  16.647  45.806  1.00  0.00     0.042 A 
ATOM     16  C   UNL A   1      46.687  15.083  44.627  1.00  0.00     0.026 A 
ATOM     17  Cl  UNL A   1      49.328  16.847  47.251  1.00  0.00    -0.084 Cl
ATOM     18  C   UNL A   1      47.484  15.522  45.742  1.00  0.00     0.033 A 
BRANCH  10  19
ATOM     19  C   UNL A   1      45.895  17.743  39.311  1.00  0.00     0.430 C 
ATOM     20  F   UNL A   1      47.202  17.721  38.981  1.00  0.00    -0.167 F 
ATOM     21  F   UNL A   1      45.367  16.673  38.642  1.00  0.00    -0.167 F 
ATOM     22  F   UNL A   1      45.312  18.817  38.728  1.00  0.00    -0.167 F 
ENDBRANCH  10  19
BRANCH  16  23
ATOM     23  C   UNL A   1      45.954  13.655  44.788  1.00  0.00    -0.015 A 
ATOM     24  C   UNL A   1      44.188  14.050  44.678  1.00  0.00     0.010 A 
ATOM     25  C   UNL A   1      46.441  11.694  44.562  1.00  0.00     0.010 A 
ATOM     26  C   UNL A   1      43.037  12.759  44.344  1.00  0.00     0.021 A 
ATOM     27  C   UNL A   1      45.147  10.492  44.212  1.00  0.00     0.021 A 
ATOM     28  C   UNL A   1      43.507  11.067  44.115  1.00  0.00     0.041 A 
ATOM     29  Cl  UNL A   1      42.268   9.911  43.806  1.00  0.00    -0.084 Cl
ENDBRANCH  16  23
ENDBRANCH   6   8
ENDBRANCH   5   6
ENDBRANCH   4   5
ENDBRANCH   3   4
ENDBRANCH   2   3
ENDBRANCH   1   2
BRANCH   1  30
ATOM     30  C   UNL A   1      46.637  27.161  40.851  1.00  0.00     0.261 C 
BRANCH  30  31
ATOM     31  O   UNL A   1      46.907  28.297  40.074  1.00  0.00    -0.460 OA
BRANCH  31  32
ATOM     32  C   UNL A   1      47.804  28.007  39.117  1.00  0.00     0.338 C 
ATOM     33  O   UNL A   1      48.918  27.529  39.208  1.00  0.00    -0.246 OA
BRANCH  32  34
ATOM     34  C   UNL A   1      47.131  28.311  37.886  1.00  0.00     0.060 A 
ATOM     35  C   UNL A   1      47.351  29.932  37.184  1.00  0.00     0.016 A 
ATOM     36  C   UNL A   1      45.780  27.263  37.269  1.00  0.00     0.016 A 
ATOM     37  C   UNL A   1      46.260  30.597  35.941  1.00  0.00     0.010 A 
ATOM     38  C   UNL A   1      44.591  28.076  35.853  1.00  0.00     0.010 A 
ATOM     39  C   UNL A   1      44.887  29.735  35.280  1.00  0.00    -0.014 A 
BRANCH  39  40
ATOM     40  C   UNL A   1      43.702  30.370  34.613  1.00  0.00     0.031 A 
ATOM     41  C   UNL A   1      42.666  31.146  35.417  1.00  0.00     0.074 A 
ATOM     42  C   UNL A   1      43.355  29.945  33.385  1.00  0.00     0.049 A 
ATOM     43  N   UNL A   1      41.459  31.545  35.084  1.00  0.00    -0.248 NA
ATOM     44  C   UNL A   1      42.994  31.434  36.815  1.00  0.00     0.031 C 
ATOM     45  C   UNL A   1      44.144  29.035  32.560  1.00  0.00     0.029 A 
ATOM     46  N   UNL A   1      42.223  30.178  32.644  1.00  0.00    -0.354 N 
ATOM     47  C   UNL A   1      40.889  32.076  36.247  1.00  0.00     0.074 A 
ATOM     48  C   UNL A   1      41.836  31.841  37.308  1.00  0.00     0.031 C 
ATOM     49  C   UNL A   1      43.472  28.782  31.425  1.00  0.00     0.029 A 
ATOM     50  C   UNL A   1      42.208  29.518  31.440  1.00  0.00     0.049 A 
ATOM     51  H   UNL A   1      41.492  30.763  32.947  1.00  0.00     0.167 HD
ATOM     52  C   UNL A   1      39.722  32.750  36.419  1.00  0.00     0.037 A 
ATOM     53  C   UNL A   1      41.292  29.526  30.451  1.00  0.00     0.037 A 
ATOM     54  C   UNL A   1      38.803  33.022  35.343  1.00  0.00     0.049 A 
ATOM     55  C   UNL A   1      40.056  30.376  30.590  1.00  0.00     0.074 A 
ATOM     56  C   UNL A   1      37.683  33.834  35.338  1.00  0.00     0.029 A 
ATOM     57  N   UNL A   1      38.904  32.474  34.073  1.00  0.00    -0.354 N 
ATOM     58  N   UNL A   1      39.626  31.052  31.629  1.00  0.00    -0.248 NA
ATOM     59  C   UNL A   1      39.201  30.498  29.400  1.00  0.00     0.031 C 
ATOM     60  C   UNL A   1      37.076  33.734  34.081  1.00  0.00     0.029 A 
ATOM     61  C   UNL A   1      37.860  32.917  33.281  1.00  0.00     0.049 A 
ATOM     62  H   UNL A   1      39.614  31.858  33.780  1.00  0.00     0.167 HD
ATOM     63  C   UNL A   1      38.485  31.726  31.200  1.00  0.00     0.074 A 
ATOM     64  C   UNL A   1      38.292  31.373  29.810  1.00  0.00     0.031 C 
ATOM     65  C   UNL A   1      37.682  32.575  31.892  1.00  0.00     0.037 A 
BRANCH  52  66
ATOM     66  C   UNL A   1      39.397  33.297  37.797  1.00  0.00     0.058 A 
ATOM     67  C   UNL A   1      38.434  32.690  38.625  1.00  0.00     0.135 A 
ATOM     68  C   UNL A   1      40.078  34.410  38.324  1.00  0.00     0.135 A 
ATOM     69  F   UNL A   1      37.756  31.613  38.196  1.00  0.00    -0.206 F 
ATOM     70  C   UNL A   1      38.109  33.200  39.879  1.00  0.00     0.059 A 
ATOM     71  C   UNL A   1      39.801  34.911  39.599  1.00  0.00     0.059 A 
ATOM     72  F   UNL A   1      41.028  35.027  37.605  1.00  0.00    -0.206 F 
ATOM     73  C   UNL A   1      38.797  34.314  40.357  1.00  0.00     0.060 A 
BRANCH  73  74
ATOM     74  S   UNL A   1      38.350  34.961  41.983  1.00  0.00     0.124 S 
ATOM     75  O   UNL A   1      38.736  36.364  41.854  1.00  0.00    -0.237 OA
ATOM     76  O   UNL A   1      36.915  34.703  42.038  1.00  0.00    -0.237 OA
ATOM     77  O   UNL A   1      39.163  34.169  42.901  1.00  0.00    -0.744 OA
ENDBRANCH  73  74
ENDBRANCH  52  66
BRANCH  53  78
ATOM     78  C   UNL A   1      41.598  28.829  29.174  1.00  0.00     0.058 A 
ATOM     79  C   UNL A   1      42.443  29.441  28.234  1.00  0.00     0.135 A 
ATOM     80  C   UNL A   1      41.114  27.547  28.880  1.00  0.00     0.135 A 
ATOM     81  F   UNL A   1      42.933  30.667  28.473  1.00  0.00    -0.206 F 
ATOM     82  C   UNL A   1      42.782  28.818  27.040  1.00  0.00     0.059 A 
ATOM     83  C   UNL A   1      41.459  26.891  27.701  1.00  0.00     0.059 A 
ATOM     84  F   UNL A   1      40.326  26.908  29.760  1.00  0.00    -0.206 F 
ATOM     85  C   UNL A   1      42.290  27.538  26.786  1.00  0.00     0.060 A 
BRANCH  85  86
ATOM     86  S   UNL A   1      42.798  26.718  25.260  1.00  0.00     0.124 S 
ATOM     87  O   UNL A   1      42.735  27.814  24.300  1.00  0.00    -0.237 OA
ATOM     88  O   UNL A   1      44.136  26.245  25.603  1.00  0.00    -0.237 OA
ATOM     89  O   UNL A   1      41.795  25.671  25.090  1.00  0.00    -0.744 OA
ENDBRANCH  85  86
ENDBRANCH  53  78
BRANCH  65  90
ATOM     90  C   UNL A   1      36.561  33.248  31.145  1.00  0.00     0.058 A 
ATOM     91  C   UNL A   1      35.210  32.965  31.399  1.00  0.00     0.135 A 
ATOM     92  C   UNL A   1      36.852  34.233  30.184  1.00  0.00     0.135 A 
ATOM     93  F   UNL A   1      34.873  32.034  32.305  1.00  0.00    -0.206 F 
ATOM     94  C   UNL A   1      34.191  33.605  30.700  1.00  0.00     0.059 A 
ATOM     95  C   UNL A   1      35.848  34.910  29.501  1.00  0.00     0.059 A 
ATOM     96  F   UNL A   1      38.126  34.555  29.909  1.00  0.00    -0.206 F 
ATOM     97  C   UNL A   1      34.519  34.577  29.754  1.00  0.00     0.060 A 
BRANCH  97  98
ATOM     98  S   UNL A   1      33.186  35.411  28.870  1.00  0.00     0.124 S 
ATOM     99  O   UNL A   1      32.397  35.955  29.970  1.00  0.00    -0.237 OA
ATOM    100  O   UNL A   1      33.910  36.390  28.065  1.00  0.00    -0.237 OA
ATOM    101  O   UNL A   1      32.550  34.334  28.116  1.00  0.00    -0.744 OA
ENDBRANCH  97  98
ENDBRANCH  65  90
ENDBRANCH  39  40
ENDBRANCH  32  34
ENDBRANCH  31  32
ENDBRANCH  30  31
ENDBRANCH   1  30
TORSDOF 19
ENDMDL
MODEL 3
REMARK VINA RESULT:      -8.7      7.574     14.502
REMARK SMILES O=C(OCCOCCOC(=O)c1ccc(-c2c3nc(c(-c4c(F)cc(S(=O)(=O)[O-])cc4F)c4ccc([nH]4)c(-c4c(F)cc(S(=O)(=O)[O-])cc4F)c4nc(c(-c5c(F)cc(S(=O)(=O)[O-])cc5F)c5ccc2[nH]5)C=C4)C=C3)cc1)C1=Cc2cc(Cl)cc(-c3ccc(Cl)cc3)c2O[C@@H]1C(F)(F)F
REMARK SMILES IDX 7 1 6 2 5 3 4 4 3 5 2 6 1 7 78 8 79 9 95 10 80 11 94 12
REMARK SMILES IDX 81 13 93 14 82 15 85 16 83 17 84 18 96 19 97 20 98 21 99 22
REMARK SMILES IDX 86 23 87 24 92 25 88 26 91 27 89 28 90 29 8 30 9 31 10 32
REMARK SMILES IDX 11 33 12 34 13 35 77 36 14 37 76 38 15 39 16 40 17 41 70 42
REMARK SMILES IDX 18 43 75 44 69 45 71 46 19 47 74 48 68 49 67 50 20 52 54 53
REMARK SMILES IDX 33 54 53 55 34 56 37 57 52 58 72 59 35 60 36 61 51 63 73 64
REMARK SMILES IDX 38 65 21 66 22 67 31 68 23 69 24 70 30 71 32 72 25 73 26 74
REMARK SMILES IDX 27 75 28 76 29 77 55 78 56 79 65 80 57 81 58 82 64 83 66 84
REMARK SMILES IDX 59 85 60 86 61 87 62 88 63 89 39 90 40 91 49 92 41 93 42 94
REMARK SMILES IDX 48 95 50 96 43 97 44 98 45 99 46 100 47 101
REMARK H PARENT 71 51 37 62
REMARK Flexibility Score: inf
ROOT
ATOM      1  C   UNL A   1      49.834  26.607  38.189  1.00  0.00     0.202 C 
ENDROOT
BRANCH   1   2
ATOM      2  O   UNL A   1      50.381  26.847  36.863  1.00  0.00    -0.374 OA
BRANCH   2   3
ATOM      3  C   UNL A   1      51.346  25.958  35.867  1.00  0.00     0.202 C 
BRANCH   3   4
ATOM      4  C   UNL A   1      51.148  23.878  35.258  1.00  0.00     0.261 C 
BRANCH   4   5
ATOM      5  O   UNL A   1      49.792  23.079  35.193  1.00  0.00    -0.460 OA
BRANCH   5   6
ATOM      6  C   UNL A   1      49.291  22.772  36.395  1.00  0.00     0.338 C 
ATOM      7  O   UNL A   1      49.325  23.364  37.443  1.00  0.00    -0.246 OA
BRANCH   6   8
ATOM      8  C   UNL A   1      49.035  21.396  36.064  1.00  0.00     0.087 C 
ATOM      9  C   UNL A   1      50.057  20.518  36.643  1.00  0.00     0.027 C 
ATOM     10  C   UNL A   1      47.156  21.368  36.530  1.00  0.00     0.316 C 
ATOM     11  C   UNL A   1      49.746  19.417  38.037  1.00  0.00     0.019 A 
ATOM     12  O   UNL A   1      46.809  20.186  38.047  1.00  0.00    -0.475 OA
ATOM     13  C   UNL A   1      50.868  18.870  38.603  1.00  0.00     0.032 A 
ATOM     14  C   UNL A   1      48.191  19.256  38.821  1.00  0.00     0.135 A 
ATOM     15  C   UNL A   1      50.670  18.267  39.843  1.00  0.00     0.042 A 
ATOM     16  C   UNL A   1      48.093  18.520  40.045  1.00  0.00     0.026 A 
ATOM     17  Cl  UNL A   1      52.067  17.598  40.622  1.00  0.00    -0.084 Cl
ATOM     18  C   UNL A   1      49.398  18.147  40.524  1.00  0.00     0.033 A 
BRANCH  10  19
ATOM     19  C   UNL A   1      46.641  21.420  35.001  1.00  0.00     0.430 C 
ATOM     20  F   UNL A   1      47.098  20.428  34.210  1.00  0.00    -0.167 F 
ATOM     21  F   UNL A   1      45.285  21.243  35.001  1.00  0.00    -0.167 F 
ATOM     22  F   UNL A   1      46.820  22.603  34.368  1.00  0.00    -0.167 F 
ENDBRANCH  10  19
BRANCH  16  23
ATOM     23  C   UNL A   1      46.839  18.044  40.941  1.00  0.00    -0.015 A 
ATOM     24  C   UNL A   1      45.664  17.373  39.734  1.00  0.00     0.010 A 
ATOM     25  C   UNL A   1      46.492  17.556  42.884  1.00  0.00     0.010 A 
ATOM     26  C   UNL A   1      44.359  16.329  40.293  1.00  0.00     0.021 A 
ATOM     27  C   UNL A   1      45.120  16.465  43.294  1.00  0.00     0.021 A 
ATOM     28  C   UNL A   1      44.114  15.897  41.992  1.00  0.00     0.041 A 
ATOM     29  Cl  UNL A   1      42.786  14.875  42.390  1.00  0.00    -0.084 Cl
ENDBRANCH  16  23
ENDBRANCH   6   8
ENDBRANCH   5   6
ENDBRANCH   4   5
ENDBRANCH   3   4
ENDBRANCH   2   3
ENDBRANCH   1   2
BRANCH   1  30
ATOM     30  C   UNL A   1      48.344  26.273  38.294  1.00  0.00     0.261 C 
BRANCH  30  31
ATOM     31  O   UNL A   1      47.935  26.450  39.623  1.00  0.00    -0.460 OA
BRANCH  31  32
ATOM     32  C   UNL A   1      47.207  27.572  39.744  1.00  0.00     0.338 C 
ATOM     33  O   UNL A   1      47.243  28.441  40.594  1.00  0.00    -0.246 OA
BRANCH  32  34
ATOM     34  C   UNL A   1      46.383  27.597  38.568  1.00  0.00     0.060 A 
ATOM     35  C   UNL A   1      46.724  28.825  37.326  1.00  0.00     0.016 A 
ATOM     36  C   UNL A   1      44.799  26.708  38.512  1.00  0.00     0.016 A 
ATOM     37  C   UNL A   1      45.548  29.266  36.062  1.00  0.00     0.010 A 
ATOM     38  C   UNL A   1      43.519  27.250  37.045  1.00  0.00     0.010 A 
ATOM     39  C   UNL A   1      43.963  28.540  35.902  1.00  0.00    -0.014 A 
BRANCH  39  40
ATOM     40  C   UNL A   1      42.792  29.157  35.194  1.00  0.00     0.031 A 
ATOM     41  C   UNL A   1      42.448  28.777  33.759  1.00  0.00     0.074 A 
ATOM     42  C   UNL A   1      42.279  30.301  35.682  1.00  0.00     0.049 A 
ATOM     43  N   UNL A   1      41.653  29.364  32.894  1.00  0.00    -0.248 NA
ATOM     44  C   UNL A   1      43.162  27.633  33.189  1.00  0.00     0.031 C 
ATOM     45  C   UNL A   1      42.653  30.910  36.955  1.00  0.00     0.029 A 
ATOM     46  N   UNL A   1      41.379  31.182  35.137  1.00  0.00    -0.354 N 
ATOM     47  C   UNL A   1      41.824  28.686  31.683  1.00  0.00     0.074 A 
ATOM     48  C   UNL A   1      42.878  27.725  31.900  1.00  0.00     0.031 C 
ATOM     49  C   UNL A   1      41.989  32.069  37.095  1.00  0.00     0.029 A 
ATOM     50  C   UNL A   1      41.139  32.282  35.924  1.00  0.00     0.049 A 
ATOM     51  H   UNL A   1      40.947  31.039  34.264  1.00  0.00     0.167 HD
ATOM     52  C   UNL A   1      41.139  28.795  30.514  1.00  0.00     0.037 A 
ATOM     53  C   UNL A   1      40.309  33.326  35.736  1.00  0.00     0.037 A 
ATOM     54  C   UNL A   1      40.057  29.725  30.320  1.00  0.00     0.049 A 
ATOM     55  C   UNL A   1      39.454  33.382  34.495  1.00  0.00     0.074 A 
ATOM     56  C   UNL A   1      39.172  29.823  29.261  1.00  0.00     0.029 A 
ATOM     57  N   UNL A   1      39.720  30.729  31.216  1.00  0.00    -0.354 N 
ATOM     58  N   UNL A   1      39.475  32.606  33.438  1.00  0.00    -0.248 NA
ATOM     59  C   UNL A   1      38.430  34.435  34.446  1.00  0.00     0.031 C 
ATOM     60  C   UNL A   1      38.333  30.920  29.493  1.00  0.00     0.029 A 
ATOM     61  C   UNL A   1      38.650  31.459  30.729  1.00  0.00     0.049 A 
ATOM     62  H   UNL A   1      40.176  30.897  32.072  1.00  0.00     0.167 HD
ATOM     63  C   UNL A   1      38.430  33.039  32.625  1.00  0.00     0.074 A 
ATOM     64  C   UNL A   1      37.802  34.147  33.314  1.00  0.00     0.031 C 
ATOM     65  C   UNL A   1      38.018  32.552  31.427  1.00  0.00     0.037 A 
BRANCH  52  66
ATOM     66  C   UNL A   1      41.490  27.853  29.377  1.00  0.00     0.058 A 
ATOM     67  C   UNL A   1      40.697  26.729  29.077  1.00  0.00     0.135 A 
ATOM     68  C   UNL A   1      42.602  28.086  28.547  1.00  0.00     0.135 A 
ATOM     69  F   UNL A   1      39.611  26.451  29.817  1.00  0.00    -0.206 F 
ATOM     70  C   UNL A   1      41.027  25.843  28.056  1.00  0.00     0.059 A 
ATOM     71  C   UNL A   1      42.925  27.236  27.486  1.00  0.00     0.059 A 
ATOM     72  F   UNL A   1      43.391  29.151  28.754  1.00  0.00    -0.206 F 
ATOM     73  C   UNL A   1      42.145  26.103  27.266  1.00  0.00     0.060 A 
BRANCH  73  74
ATOM     74  S   UNL A   1      42.555  24.933  25.952  1.00  0.00     0.124 S 
ATOM     75  O   UNL A   1      43.850  24.431  26.403  1.00  0.00    -0.237 OA
ATOM     76  O   UNL A   1      41.449  23.983  26.025  1.00  0.00    -0.237 OA
ATOM     77  O   UNL A   1      42.588  25.764  24.752  1.00  0.00    -0.744 OA
ENDBRANCH  73  74
ENDBRANCH  52  66
BRANCH  53  78
ATOM     78  C   UNL A   1      40.129  34.316  36.829  1.00  0.00     0.058 A 
ATOM     79  C   UNL A   1      39.198  34.063  37.849  1.00  0.00     0.135 A 
ATOM     80  C   UNL A   1      40.893  35.488  36.919  1.00  0.00     0.135 A 
ATOM     81  F   UNL A   1      38.445  32.952  37.807  1.00  0.00    -0.206 F 
ATOM     82  C   UNL A   1      39.015  34.942  38.908  1.00  0.00     0.059 A 
ATOM     83  C   UNL A   1      40.746  36.374  37.983  1.00  0.00     0.059 A 
ATOM     84  F   UNL A   1      41.818  35.760  35.985  1.00  0.00    -0.206 F 
ATOM     85  C   UNL A   1      39.800  36.093  38.970  1.00  0.00     0.060 A 
BRANCH  85  86
ATOM     86  S   UNL A   1      39.595  37.188  40.391  1.00  0.00     0.124 S 
ATOM     87  O   UNL A   1      39.591  36.239  41.497  1.00  0.00    -0.237 OA
ATOM     88  O   UNL A   1      40.773  38.043  40.286  1.00  0.00    -0.237 OA
ATOM     89  O   UNL A   1      38.322  37.852  40.123  1.00  0.00    -0.744 OA
ENDBRANCH  85  86
ENDBRANCH  53  78
BRANCH  65  90
ATOM     90  C   UNL A   1      36.785  33.154  30.809  1.00  0.00     0.058 A 
ATOM     91  C   UNL A   1      35.496  32.916  31.314  1.00  0.00     0.135 A 
ATOM     92  C   UNL A   1      36.905  34.027  29.713  1.00  0.00     0.135 A 
ATOM     93  F   UNL A   1      35.321  32.092  32.358  1.00  0.00    -0.206 F 
ATOM     94  C   UNL A   1      34.371  33.489  30.730  1.00  0.00     0.059 A 
ATOM     95  C   UNL A   1      35.797  34.639  29.138  1.00  0.00     0.059 A 
ATOM     96  F   UNL A   1      38.113  34.302  29.196  1.00  0.00    -0.206 F 
ATOM     97  C   UNL A   1      34.531  34.351  29.643  1.00  0.00     0.060 A 
BRANCH  97  98
ATOM     98  S   UNL A   1      33.063  35.100  28.908  1.00  0.00     0.124 S 
ATOM     99  O   UNL A   1      32.202  35.267  30.074  1.00  0.00    -0.237 OA
ATOM    100  O   UNL A   1      33.597  36.331  28.333  1.00  0.00    -0.237 OA
ATOM    101  O   UNL A   1      32.619  34.103  27.939  1.00  0.00    -0.744 OA
ENDBRANCH  97  98
ENDBRANCH  65  90
ENDBRANCH  39  40
ENDBRANCH  32  34
ENDBRANCH  31  32
ENDBRANCH  30  31
ENDBRANCH   1  30
TORSDOF 19
ENDMDL
