MODEL 1
REMARK VINA RESULT:     -11.2      0.000      0.000
REMARK SMILES Cc1ccc(-c2cc(C(=O)OCCOCCOC(=O)c3ccc(-c4c5nc(c(-c6c(F)cc(S(=O)(=O)[O-])cc6F)c6ccc([nH]6)c(-c6c(F)cc(S(=O)(=O)[O-])cc6F)c6nc(c(-c7c(F)cc(S(=O)(=O)[O-])cc7F)c7ccc4[nH]7)C=C6)C=C5)cc3)ccc2F)cc1O
REMARK SMILES IDX 15 1 14 2 13 3 12 4 11 5 9 6 10 7 8 8 6 9 7 10 88 11 87 12
REMARK SMILES IDX 89 13 86 14 5 15 1 16 2 17 3 18 91 19 4 20 90 21 92 22 16 24
REMARK SMILES IDX 17 25 18 26 19 27 20 28 21 29 85 30 22 31 84 32 23 33 24 34
REMARK SMILES IDX 25 35 78 36 26 37 83 38 77 39 79 40 27 41 82 42 76 43 75 44
REMARK SMILES IDX 28 46 62 47 41 48 61 49 42 50 45 51 60 52 80 53 43 54 44 55
REMARK SMILES IDX 59 57 81 58 46 59 29 60 30 61 39 62 31 63 32 64 38 65 40 66
REMARK SMILES IDX 33 67 34 68 35 69 36 70 37 71 63 72 64 73 73 74 65 75 66 76
REMARK SMILES IDX 72 77 74 78 67 79 68 80 69 81 70 82 71 83 47 84 48 85 57 86
REMARK SMILES IDX 49 87 50 88 56 89 58 90 51 91 52 92 53 93 54 94 55 95
REMARK H PARENT 92 23 79 45 45 56
REMARK Flexibility Score: inf
ROOT
ATOM      1  C   UNL A   1      42.484  21.103  26.204  1.00  0.00     0.202 C 
ENDROOT
BRANCH   1   2
ATOM      2  O   UNL A   1      43.253  21.293  25.014  1.00  0.00    -0.374 OA
BRANCH   2   3
ATOM      3  C   UNL A   1      44.560  20.715  24.989  1.00  0.00     0.202 C 
BRANCH   3   4
ATOM      4  C   UNL A   1      45.728  21.707  24.975  1.00  0.00     0.261 C 
BRANCH   4   5
ATOM      5  O   UNL A   1      45.254  23.059  24.861  1.00  0.00    -0.460 OA
BRANCH   5   6
ATOM      6  C   UNL A   1      46.218  24.002  24.768  1.00  0.00     0.338 C 
ATOM      7  O   UNL A   1      47.087  24.087  23.911  1.00  0.00    -0.246 OA
BRANCH   6   8
ATOM      8  C   UNL A   1      45.985  25.066  25.772  1.00  0.00     0.060 A 
ATOM      9  C   UNL A   1      45.471  25.587  28.101  1.00  0.00     0.018 A 
ATOM     10  C   UNL A   1      45.703  24.653  27.082  1.00  0.00     0.027 A 
ATOM     11  C   UNL A   1      45.531  26.948  27.772  1.00  0.00     0.131 A 
ATOM     12  C   UNL A   1      45.826  27.370  26.474  1.00  0.00     0.041 A 
ATOM     13  F   UNL A   1      45.295  27.878  28.709  1.00  0.00    -0.206 F 
ATOM     14  C   UNL A   1      46.060  26.429  25.468  1.00  0.00     0.019 A 
BRANCH   9  15
ATOM     15  C   UNL A   1      45.136  25.119  29.447  1.00  0.00    -0.012 A 
ATOM     16  C   UNL A   1      44.244  23.480  33.358  1.00  0.00     0.048 C 
ATOM     17  C   UNL A   1      44.565  24.071  32.017  1.00  0.00    -0.009 A 
ATOM     18  C   UNL A   1      43.796  23.704  30.904  1.00  0.00     0.008 A 
ATOM     19  C   UNL A   1      45.613  24.978  31.824  1.00  0.00     0.119 A 
ATOM     20  C   UNL A   1      44.077  24.222  29.637  1.00  0.00     0.009 A 
ATOM     21  C   UNL A   1      45.899  25.495  30.559  1.00  0.00     0.055 A 
BRANCH  19  22
ATOM     22  O   UNL A   1      46.419  25.403  32.843  1.00  0.00    -0.508 OA
ATOM     23  H   UNL A   1      46.689  26.301  32.884  1.00  0.00     0.293 HD
ENDBRANCH  19  22
ENDBRANCH   9  15
ENDBRANCH   6   8
ENDBRANCH   5   6
ENDBRANCH   4   5
ENDBRANCH   3   4
ENDBRANCH   2   3
ENDBRANCH   1   2
BRANCH   1  24
ATOM     24  C   UNL A   1      42.365  22.313  27.140  1.00  0.00     0.261 C 
BRANCH  24  25
ATOM     25  O   UNL A   1      41.394  23.266  26.672  1.00  0.00    -0.460 OA
BRANCH  25  26
ATOM     26  C   UNL A   1      41.907  24.460  26.289  1.00  0.00     0.338 C 
ATOM     27  O   UNL A   1      42.518  24.701  25.257  1.00  0.00    -0.246 OA
BRANCH  26  28
ATOM     28  C   UNL A   1      41.475  25.518  27.220  1.00  0.00     0.060 A 
ATOM     29  C   UNL A   1      42.153  26.742  27.168  1.00  0.00     0.016 A 
ATOM     30  C   UNL A   1      40.473  25.303  28.170  1.00  0.00     0.016 A 
ATOM     31  C   UNL A   1      41.866  27.740  28.098  1.00  0.00     0.010 A 
ATOM     32  C   UNL A   1      40.192  26.303  29.108  1.00  0.00     0.010 A 
ATOM     33  C   UNL A   1      40.911  27.512  29.097  1.00  0.00    -0.014 A 
BRANCH  33  34
ATOM     34  C   UNL A   1      40.766  28.483  30.210  1.00  0.00     0.031 A 
ATOM     35  C   UNL A   1      41.718  28.404  31.373  1.00  0.00     0.074 A 
ATOM     36  C   UNL A   1      39.831  29.449  30.165  1.00  0.00     0.049 A 
ATOM     37  N   UNL A   1      41.751  29.120  32.466  1.00  0.00    -0.248 NA
ATOM     38  C   UNL A   1      42.779  27.386  31.289  1.00  0.00     0.031 C 
ATOM     39  C   UNL A   1      38.893  29.665  29.063  1.00  0.00     0.029 A 
ATOM     40  N   UNL A   1      39.520  30.434  31.068  1.00  0.00    -0.354 N 
ATOM     41  C   UNL A   1      42.834  28.647  33.198  1.00  0.00     0.074 A 
ATOM     42  C   UNL A   1      43.411  27.557  32.442  1.00  0.00     0.031 C 
ATOM     43  C   UNL A   1      38.114  30.720  29.355  1.00  0.00     0.029 A 
ATOM     44  C   UNL A   1      38.472  31.233  30.677  1.00  0.00     0.049 A 
ATOM     45  H   UNL A   1      40.001  30.557  31.918  1.00  0.00     0.167 HD
ATOM     46  C   UNL A   1      43.312  29.092  34.382  1.00  0.00     0.037 A 
ATOM     47  C   UNL A   1      37.862  32.249  31.319  1.00  0.00     0.037 A 
ATOM     48  C   UNL A   1      42.734  30.176  35.133  1.00  0.00     0.049 A 
ATOM     49  C   UNL A   1      38.349  32.659  32.684  1.00  0.00     0.074 A 
ATOM     50  C   UNL A   1      43.136  30.687  36.354  1.00  0.00     0.029 A 
ATOM     51  N   UNL A   1      41.634  30.919  34.731  1.00  0.00    -0.354 N 
ATOM     52  N   UNL A   1      39.361  32.187  33.374  1.00  0.00    -0.248 NA
ATOM     53  C   UNL A   1      37.609  33.733  33.363  1.00  0.00     0.031 C 
ATOM     54  C   UNL A   1      42.255  31.713  36.710  1.00  0.00     0.029 A 
ATOM     55  C   UNL A   1      41.333  31.872  35.688  1.00  0.00     0.049 A 
ATOM     56  H   UNL A   1      41.139  30.787  33.889  1.00  0.00     0.167 HD
ATOM     57  C   UNL A   1      39.396  32.927  34.552  1.00  0.00     0.074 A 
ATOM     58  C   UNL A   1      38.309  33.880  34.481  1.00  0.00     0.031 C 
ATOM     59  C   UNL A   1      40.254  32.824  35.598  1.00  0.00     0.037 A 
BRANCH  46  60
ATOM     60  C   UNL A   1      44.524  28.408  34.952  1.00  0.00     0.058 A 
ATOM     61  C   UNL A   1      44.389  27.262  35.752  1.00  0.00     0.135 A 
ATOM     62  C   UNL A   1      45.815  28.927  34.761  1.00  0.00     0.135 A 
ATOM     63  F   UNL A   1      43.178  26.720  35.959  1.00  0.00    -0.206 F 
ATOM     64  C   UNL A   1      45.489  26.667  36.361  1.00  0.00     0.059 A 
ATOM     65  C   UNL A   1      46.932  28.334  35.342  1.00  0.00     0.059 A 
ATOM     66  F   UNL A   1      46.000  30.006  33.985  1.00  0.00    -0.206 F 
ATOM     67  C   UNL A   1      46.757  27.214  36.152  1.00  0.00     0.060 A 
BRANCH  67  68
ATOM     68  S   UNL A   1      48.176  26.417  36.935  1.00  0.00     0.124 S 
ATOM     69  O   UNL A   1      49.291  27.168  36.371  1.00  0.00    -0.237 OA
ATOM     70  O   UNL A   1      47.909  26.642  38.353  1.00  0.00    -0.237 OA
ATOM     71  O   UNL A   1      48.067  25.028  36.500  1.00  0.00    -0.744 OA
ENDBRANCH  67  68
ENDBRANCH  46  60
BRANCH  47  72
ATOM     72  C   UNL A   1      36.722  32.959  30.676  1.00  0.00     0.058 A 
ATOM     73  C   UNL A   1      36.929  33.881  29.639  1.00  0.00     0.135 A 
ATOM     74  C   UNL A   1      35.403  32.726  31.092  1.00  0.00     0.135 A 
ATOM     75  F   UNL A   1      38.172  34.142  29.206  1.00  0.00    -0.206 F 
ATOM     76  C   UNL A   1      35.870  34.567  29.053  1.00  0.00     0.059 A 
ATOM     77  C   UNL A   1      34.324  33.381  30.503  1.00  0.00     0.059 A 
ATOM     78  F   UNL A   1      35.154  31.839  32.068  1.00  0.00    -0.206 F 
ATOM     79  C   UNL A   1      34.571  34.311  29.494  1.00  0.00     0.060 A 
BRANCH  79  80
ATOM     80  S   UNL A   1      33.211  35.213  28.720  1.00  0.00     0.124 S 
ATOM     81  O   UNL A   1      33.933  36.195  27.918  1.00  0.00    -0.237 OA
ATOM     82  O   UNL A   1      32.531  34.159  27.974  1.00  0.00    -0.237 OA
ATOM     83  O   UNL A   1      32.472  35.750  29.858  1.00  0.00    -0.744 OA
ENDBRANCH  79  80
ENDBRANCH  47  72
BRANCH  59  84
ATOM     84  C   UNL A   1      40.083  33.783  36.744  1.00  0.00     0.058 A 
ATOM     85  C   UNL A   1      39.177  33.497  37.779  1.00  0.00     0.135 A 
ATOM     86  C   UNL A   1      40.743  35.020  36.773  1.00  0.00     0.135 A 
ATOM     87  F   UNL A   1      38.514  32.330  37.797  1.00  0.00    -0.206 F 
ATOM     88  C   UNL A   1      38.916  34.415  38.791  1.00  0.00     0.059 A 
ATOM     89  C   UNL A   1      40.516  35.943  37.790  1.00  0.00     0.059 A 
ATOM     90  F   UNL A   1      41.627  35.336  35.813  1.00  0.00    -0.206 F 
ATOM     91  C   UNL A   1      39.586  35.639  38.784  1.00  0.00     0.060 A 
BRANCH  91  92
ATOM     92  S   UNL A   1      39.234  36.819  40.104  1.00  0.00     0.124 S 
ATOM     93  O   UNL A   1      38.371  36.037  40.982  1.00  0.00    -0.237 OA
ATOM     94  O   UNL A   1      40.568  37.112  40.621  1.00  0.00    -0.237 OA
ATOM     95  O   UNL A   1      38.584  37.925  39.406  1.00  0.00    -0.744 OA
ENDBRANCH  91  92
ENDBRANCH  59  84
ENDBRANCH  33  34
ENDBRANCH  26  28
ENDBRANCH  25  26
ENDBRANCH  24  25
ENDBRANCH   1  24
TORSDOF 19
ENDMDL
MODEL 2
REMARK VINA RESULT:     -11.2      5.806     12.001
REMARK SMILES Cc1ccc(-c2cc(C(=O)OCCOCCOC(=O)c3ccc(-c4c5nc(c(-c6c(F)cc(S(=O)(=O)[O-])cc6F)c6ccc([nH]6)c(-c6c(F)cc(S(=O)(=O)[O-])cc6F)c6nc(c(-c7c(F)cc(S(=O)(=O)[O-])cc7F)c7ccc4[nH]7)C=C6)C=C5)cc3)ccc2F)cc1O
REMARK SMILES IDX 15 1 14 2 13 3 12 4 11 5 9 6 10 7 8 8 6 9 7 10 88 11 87 12
REMARK SMILES IDX 89 13 86 14 5 15 1 16 2 17 3 18 91 19 4 20 90 21 92 22 16 24
REMARK SMILES IDX 17 25 18 26 19 27 20 28 21 29 85 30 22 31 84 32 23 33 24 34
REMARK SMILES IDX 25 35 78 36 26 37 83 38 77 39 79 40 27 41 82 42 76 43 75 44
REMARK SMILES IDX 28 46 62 47 41 48 61 49 42 50 45 51 60 52 80 53 43 54 44 55
REMARK SMILES IDX 59 57 81 58 46 59 29 60 30 61 39 62 31 63 32 64 38 65 40 66
REMARK SMILES IDX 33 67 34 68 35 69 36 70 37 71 63 72 64 73 73 74 65 75 66 76
REMARK SMILES IDX 72 77 74 78 67 79 68 80 69 81 70 82 71 83 47 84 48 85 57 86
REMARK SMILES IDX 49 87 50 88 56 89 58 90 51 91 52 92 53 93 54 94 55 95
REMARK H PARENT 92 23 79 45 45 56
REMARK Flexibility Score: inf
ROOT
ATOM      1  C   UNL A   1      33.191  29.072  25.529  1.00  0.00     0.202 C 
ENDROOT
BRANCH   1   2
ATOM      2  O   UNL A   1      31.970  28.364  25.304  1.00  0.00    -0.374 OA
BRANCH   2   3
ATOM      3  C   UNL A   1      31.453  28.372  23.972  1.00  0.00     0.202 C 
BRANCH   3   4
ATOM      4  C   UNL A   1      32.243  27.555  22.943  1.00  0.00     0.261 C 
BRANCH   4   5
ATOM      5  O   UNL A   1      31.921  26.157  23.040  1.00  0.00    -0.460 OA
BRANCH   5   6
ATOM      6  C   UNL A   1      32.968  25.314  22.896  1.00  0.00     0.338 C 
ATOM      7  O   UNL A   1      33.854  25.375  22.054  1.00  0.00    -0.246 OA
BRANCH   6   8
ATOM      8  C   UNL A   1      33.017  24.367  24.033  1.00  0.00     0.060 A 
ATOM      9  C   UNL A   1      33.292  22.044  24.733  1.00  0.00     0.018 A 
ATOM     10  C   UNL A   1      33.228  23.015  23.725  1.00  0.00     0.027 A 
ATOM     11  C   UNL A   1      33.139  22.464  26.061  1.00  0.00     0.131 A 
ATOM     12  C   UNL A   1      32.944  23.810  26.381  1.00  0.00     0.041 A 
ATOM     13  F   UNL A   1      33.172  21.568  27.059  1.00  0.00    -0.206 F 
ATOM     14  C   UNL A   1      32.887  24.769  25.367  1.00  0.00     0.019 A 
BRANCH   9  15
ATOM     15  C   UNL A   1      33.469  20.637  24.371  1.00  0.00    -0.012 A 
ATOM     16  C   UNL A   1      33.933  16.405  23.564  1.00  0.00     0.048 C 
ATOM     17  C   UNL A   1      33.756  17.872  23.819  1.00  0.00    -0.009 A 
ATOM     18  C   UNL A   1      34.720  18.559  24.570  1.00  0.00     0.008 A 
ATOM     19  C   UNL A   1      32.656  18.593  23.340  1.00  0.00     0.119 A 
ATOM     20  C   UNL A   1      34.579  19.923  24.840  1.00  0.00     0.009 A 
ATOM     21  C   UNL A   1      32.509  19.954  23.612  1.00  0.00     0.055 A 
BRANCH  19  22
ATOM     22  O   UNL A   1      31.663  18.019  22.596  1.00  0.00    -0.508 OA
ATOM     23  H   UNL A   1      31.563  17.087  22.587  1.00  0.00     0.293 HD
ENDBRANCH  19  22
ENDBRANCH   9  15
ENDBRANCH   6   8
ENDBRANCH   5   6
ENDBRANCH   4   5
ENDBRANCH   3   4
ENDBRANCH   2   3
ENDBRANCH   1   2
BRANCH   1  24
ATOM     24  C   UNL A   1      33.109  30.298  26.448  1.00  0.00     0.261 C 
BRANCH  24  25
ATOM     25  O   UNL A   1      33.574  30.009  27.778  1.00  0.00    -0.460 OA
BRANCH  25  26
ATOM     26  C   UNL A   1      34.491  30.881  28.262  1.00  0.00     0.338 C 
ATOM     27  O   UNL A   1      34.277  31.999  28.712  1.00  0.00    -0.246 OA
BRANCH  26  28
ATOM     28  C   UNL A   1      35.811  30.231  28.347  1.00  0.00     0.060 A 
ATOM     29  C   UNL A   1      36.191  29.698  29.586  1.00  0.00     0.016 A 
ATOM     30  C   UNL A   1      36.690  30.197  27.262  1.00  0.00     0.016 A 
ATOM     31  C   UNL A   1      37.470  29.173  29.757  1.00  0.00     0.010 A 
ATOM     32  C   UNL A   1      37.977  29.677  27.439  1.00  0.00     0.010 A 
ATOM     33  C   UNL A   1      38.385  29.194  28.696  1.00  0.00    -0.014 A 
BRANCH  33  34
ATOM     34  C   UNL A   1      39.804  28.841  28.942  1.00  0.00     0.031 A 
ATOM     35  C   UNL A   1      40.704  29.853  29.597  1.00  0.00     0.074 A 
ATOM     36  C   UNL A   1      40.275  27.620  28.627  1.00  0.00     0.049 A 
ATOM     37  N   UNL A   1      41.980  29.774  29.870  1.00  0.00    -0.248 NA
ATOM     38  C   UNL A   1      40.080  31.122  30.007  1.00  0.00     0.031 C 
ATOM     39  C   UNL A   1      39.485  26.535  28.046  1.00  0.00     0.029 A 
ATOM     40  N   UNL A   1      41.533  27.086  28.760  1.00  0.00    -0.354 N 
ATOM     41  C   UNL A   1      42.312  30.975  30.486  1.00  0.00     0.074 A 
ATOM     42  C   UNL A   1      41.112  31.782  30.515  1.00  0.00     0.031 C 
ATOM     43  C   UNL A   1      40.277  25.462  27.876  1.00  0.00     0.029 A 
ATOM     44  C   UNL A   1      41.636  25.795  28.301  1.00  0.00     0.049 A 
ATOM     45  H   UNL A   1      42.290  27.582  29.146  1.00  0.00     0.167 HD
ATOM     46  C   UNL A   1      43.504  31.362  30.996  1.00  0.00     0.037 A 
ATOM     47  C   UNL A   1      42.708  24.980  28.220  1.00  0.00     0.037 A 
ATOM     48  C   UNL A   1      44.697  30.556  30.964  1.00  0.00     0.049 A 
ATOM     49  C   UNL A   1      44.048  25.473  28.701  1.00  0.00     0.074 A 
ATOM     50  C   UNL A   1      45.959  30.870  31.437  1.00  0.00     0.029 A 
ATOM     51  N   UNL A   1      44.775  29.277  30.434  1.00  0.00    -0.354 N 
ATOM     52  N   UNL A   1      44.352  26.620  29.260  1.00  0.00    -0.248 NA
ATOM     53  C   UNL A   1      45.193  24.566  28.532  1.00  0.00     0.031 C 
ATOM     54  C   UNL A   1      46.810  29.797  31.157  1.00  0.00     0.029 A 
ATOM     55  C   UNL A   1      46.067  28.795  30.553  1.00  0.00     0.049 A 
ATOM     56  H   UNL A   1      44.023  28.785  30.031  1.00  0.00     0.167 HD
ATOM     57  C   UNL A   1      45.714  26.559  29.538  1.00  0.00     0.074 A 
ATOM     58  C   UNL A   1      46.175  25.262  29.089  1.00  0.00     0.031 C 
ATOM     59  C   UNL A   1      46.509  27.495  30.113  1.00  0.00     0.037 A 
BRANCH  46  60
ATOM     60  C   UNL A   1      43.588  32.721  31.633  1.00  0.00     0.058 A 
ATOM     61  C   UNL A   1      43.241  32.902  32.981  1.00  0.00     0.135 A 
ATOM     62  C   UNL A   1      43.947  33.857  30.890  1.00  0.00     0.135 A 
ATOM     63  F   UNL A   1      42.899  31.848  33.740  1.00  0.00    -0.206 F 
ATOM     64  C   UNL A   1      43.227  34.164  33.565  1.00  0.00     0.059 A 
ATOM     65  C   UNL A   1      43.962  35.127  31.460  1.00  0.00     0.059 A 
ATOM     66  F   UNL A   1      44.310  33.734  29.603  1.00  0.00    -0.206 F 
ATOM     67  C   UNL A   1      43.585  35.271  32.794  1.00  0.00     0.060 A 
BRANCH  67  68
ATOM     68  S   UNL A   1      43.578  36.901  33.573  1.00  0.00     0.124 S 
ATOM     69  O   UNL A   1      44.796  36.856  34.373  1.00  0.00    -0.237 OA
ATOM     70  O   UNL A   1      43.608  37.792  32.417  1.00  0.00    -0.237 OA
ATOM     71  O   UNL A   1      42.328  36.910  34.327  1.00  0.00    -0.744 OA
ENDBRANCH  67  68
ENDBRANCH  46  60
BRANCH  47  72
ATOM     72  C   UNL A   1      42.559  23.608  27.664  1.00  0.00     0.058 A 
ATOM     73  C   UNL A   1      42.398  22.495  28.504  1.00  0.00     0.135 A 
ATOM     74  C   UNL A   1      42.579  23.385  26.280  1.00  0.00     0.135 A 
ATOM     75  F   UNL A   1      42.375  22.652  29.836  1.00  0.00    -0.206 F 
ATOM     76  C   UNL A   1      42.285  21.207  27.991  1.00  0.00     0.059 A 
ATOM     77  C   UNL A   1      42.443  22.109  25.742  1.00  0.00     0.059 A 
ATOM     78  F   UNL A   1      42.713  24.421  25.437  1.00  0.00    -0.206 F 
ATOM     79  C   UNL A   1      42.311  21.024  26.608  1.00  0.00     0.060 A 
BRANCH  79  80
ATOM     80  S   UNL A   1      42.165  19.343  25.964  1.00  0.00     0.124 S 
ATOM     81  O   UNL A   1      43.004  19.414  24.773  1.00  0.00    -0.237 OA
ATOM     82  O   UNL A   1      42.693  18.546  27.068  1.00  0.00    -0.237 OA
ATOM     83  O   UNL A   1      40.734  19.199  25.719  1.00  0.00    -0.744 OA
ENDBRANCH  79  80
ENDBRANCH  47  72
BRANCH  59  84
ATOM     84  C   UNL A   1      47.958  27.151  30.327  1.00  0.00     0.058 A 
ATOM     85  C   UNL A   1      48.395  26.660  31.568  1.00  0.00     0.135 A 
ATOM     86  C   UNL A   1      48.925  27.393  29.339  1.00  0.00     0.135 A 
ATOM     87  F   UNL A   1      47.513  26.417  32.550  1.00  0.00    -0.206 F 
ATOM     88  C   UNL A   1      49.743  26.440  31.829  1.00  0.00     0.059 A 
ATOM     89  C   UNL A   1      50.277  27.156  29.570  1.00  0.00     0.059 A 
ATOM     90  F   UNL A   1      48.556  27.852  28.132  1.00  0.00    -0.206 F 
ATOM     91  C   UNL A   1      50.678  26.699  30.825  1.00  0.00     0.060 A 
BRANCH  91  92
ATOM     92  S   UNL A   1      52.424  26.410  31.181  1.00  0.00     0.124 S 
ATOM     93  O   UNL A   1      52.712  27.468  32.143  1.00  0.00    -0.237 OA
ATOM     94  O   UNL A   1      52.411  25.051  31.715  1.00  0.00    -0.237 OA
ATOM     95  O   UNL A   1      53.065  26.556  29.878  1.00  0.00    -0.744 OA
ENDBRANCH  91  92
ENDBRANCH  59  84
ENDBRANCH  33  34
ENDBRANCH  26  28
ENDBRANCH  25  26
ENDBRANCH  24  25
ENDBRANCH   1  24
TORSDOF 19
ENDMDL
MODEL 3
REMARK VINA RESULT:     -11.1      3.519      6.426
REMARK SMILES Cc1ccc(-c2cc(C(=O)OCCOCCOC(=O)c3ccc(-c4c5nc(c(-c6c(F)cc(S(=O)(=O)[O-])cc6F)c6ccc([nH]6)c(-c6c(F)cc(S(=O)(=O)[O-])cc6F)c6nc(c(-c7c(F)cc(S(=O)(=O)[O-])cc7F)c7ccc4[nH]7)C=C6)C=C5)cc3)ccc2F)cc1O
REMARK SMILES IDX 15 1 14 2 13 3 12 4 11 5 9 6 10 7 8 8 6 9 7 10 88 11 87 12
REMARK SMILES IDX 89 13 86 14 5 15 1 16 2 17 3 18 91 19 4 20 90 21 92 22 16 24
REMARK SMILES IDX 17 25 18 26 19 27 20 28 21 29 85 30 22 31 84 32 23 33 24 34
REMARK SMILES IDX 25 35 78 36 26 37 83 38 77 39 79 40 27 41 82 42 76 43 75 44
REMARK SMILES IDX 28 46 62 47 41 48 61 49 42 50 45 51 60 52 80 53 43 54 44 55
REMARK SMILES IDX 59 57 81 58 46 59 29 60 30 61 39 62 31 63 32 64 38 65 40 66
REMARK SMILES IDX 33 67 34 68 35 69 36 70 37 71 63 72 64 73 73 74 65 75 66 76
REMARK SMILES IDX 72 77 74 78 67 79 68 80 69 81 70 82 71 83 47 84 48 85 57 86
REMARK SMILES IDX 49 87 50 88 56 89 58 90 51 91 52 92 53 93 54 94 55 95
REMARK H PARENT 92 23 79 45 45 56
REMARK Flexibility Score: inf
ROOT
ATOM      1  C   UNL A   1      38.159  23.023  26.085  1.00  0.00     0.202 C 
ENDROOT
BRANCH   1   2
ATOM      2  O   UNL A   1      37.333  22.259  25.204  1.00  0.00    -0.374 OA
BRANCH   2   3
ATOM      3  C   UNL A   1      35.987  22.020  25.622  1.00  0.00     0.202 C 
BRANCH   3   4
ATOM      4  C   UNL A   1      34.904  22.295  24.574  1.00  0.00     0.261 C 
BRANCH   4   5
ATOM      5  O   UNL A   1      35.075  23.596  23.986  1.00  0.00    -0.460 OA
BRANCH   5   6
ATOM      6  C   UNL A   1      34.064  24.004  23.186  1.00  0.00     0.338 C 
ATOM      7  O   UNL A   1      33.912  23.744  22.000  1.00  0.00    -0.246 OA
BRANCH   6   8
ATOM      8  C   UNL A   1      33.026  24.690  23.989  1.00  0.00     0.060 A 
ATOM      9  C   UNL A   1      32.484  26.608  25.399  1.00  0.00     0.018 A 
ATOM     10  C   UNL A   1      33.398  25.886  24.620  1.00  0.00     0.027 A 
ATOM     11  C   UNL A   1      31.185  26.100  25.528  1.00  0.00     0.131 A 
ATOM     12  C   UNL A   1      30.799  24.918  24.891  1.00  0.00     0.041 A 
ATOM     13  F   UNL A   1      30.282  26.746  26.281  1.00  0.00    -0.206 F 
ATOM     14  C   UNL A   1      31.718  24.210  24.114  1.00  0.00     0.019 A 
BRANCH   9  15
ATOM     15  C   UNL A   1      32.921  27.829  26.079  1.00  0.00    -0.012 A 
ATOM     16  C   UNL A   1      34.394  31.485  27.879  1.00  0.00     0.048 C 
ATOM     17  C   UNL A   1      33.857  30.228  27.261  1.00  0.00    -0.009 A 
ATOM     18  C   UNL A   1      34.653  29.075  27.248  1.00  0.00     0.008 A 
ATOM     19  C   UNL A   1      32.583  30.157  26.685  1.00  0.00     0.119 A 
ATOM     20  C   UNL A   1      34.191  27.891  26.666  1.00  0.00     0.009 A 
ATOM     21  C   UNL A   1      32.120  28.977  26.099  1.00  0.00     0.055 A 
BRANCH  19  22
ATOM     22  O   UNL A   1      31.727  31.221  26.648  1.00  0.00    -0.508 OA
ATOM     23  H   UNL A   1      30.801  31.080  26.683  1.00  0.00     0.293 HD
ENDBRANCH  19  22
ENDBRANCH   9  15
ENDBRANCH   6   8
ENDBRANCH   5   6
ENDBRANCH   4   5
ENDBRANCH   3   4
ENDBRANCH   2   3
ENDBRANCH   1   2
BRANCH   1  24
ATOM     24  C   UNL A   1      39.541  22.439  26.402  1.00  0.00     0.261 C 
BRANCH  24  25
ATOM     25  O   UNL A   1      40.198  23.151  27.466  1.00  0.00    -0.460 OA
BRANCH  25  26
ATOM     26  C   UNL A   1      40.952  24.203  27.066  1.00  0.00     0.338 C 
ATOM     27  O   UNL A   1      41.673  24.258  26.079  1.00  0.00    -0.246 OA
BRANCH  26  28
ATOM     28  C   UNL A   1      40.655  25.384  27.897  1.00  0.00     0.060 A 
ATOM     29  C   UNL A   1      41.649  26.364  28.008  1.00  0.00     0.016 A 
ATOM     30  C   UNL A   1      39.458  25.505  28.608  1.00  0.00     0.016 A 
ATOM     31  C   UNL A   1      41.471  27.445  28.869  1.00  0.00     0.010 A 
ATOM     32  C   UNL A   1      39.284  26.588  29.478  1.00  0.00     0.010 A 
ATOM     33  C   UNL A   1      40.304  27.544  29.638  1.00  0.00    -0.014 A 
BRANCH  33  34
ATOM     34  C   UNL A   1      40.213  28.568  30.708  1.00  0.00     0.031 A 
ATOM     35  C   UNL A   1      41.144  28.474  31.887  1.00  0.00     0.074 A 
ATOM     36  C   UNL A   1      39.347  29.592  30.609  1.00  0.00     0.049 A 
ATOM     37  N   UNL A   1      41.213  29.232  32.950  1.00  0.00    -0.248 NA
ATOM     38  C   UNL A   1      42.133  27.384  31.860  1.00  0.00     0.031 C 
ATOM     39  C   UNL A   1      38.438  29.825  29.486  1.00  0.00     0.029 A 
ATOM     40  N   UNL A   1      39.093  30.634  31.467  1.00  0.00    -0.354 N 
ATOM     41  C   UNL A   1      42.252  28.718  33.716  1.00  0.00     0.074 A 
ATOM     42  C   UNL A   1      42.763  27.560  33.014  1.00  0.00     0.031 C 
ATOM     43  C   UNL A   1      37.730  30.942  29.723  1.00  0.00     0.029 A 
ATOM     44  C   UNL A   1      38.107  31.484  31.028  1.00  0.00     0.049 A 
ATOM     45  H   UNL A   1      39.572  30.760  32.317  1.00  0.00     0.167 HD
ATOM     46  C   UNL A   1      42.746  29.178  34.888  1.00  0.00     0.037 A 
ATOM     47  C   UNL A   1      37.561  32.566  31.618  1.00  0.00     0.037 A 
ATOM     48  C   UNL A   1      42.234  30.330  35.584  1.00  0.00     0.049 A 
ATOM     49  C   UNL A   1      38.059  32.999  32.972  1.00  0.00     0.074 A 
ATOM     50  C   UNL A   1      42.656  30.863  36.790  1.00  0.00     0.029 A 
ATOM     51  N   UNL A   1      41.193  31.128  35.136  1.00  0.00    -0.354 N 
ATOM     52  N   UNL A   1      39.027  32.489  33.695  1.00  0.00    -0.248 NA
ATOM     53  C   UNL A   1      37.386  34.149  33.596  1.00  0.00     0.031 C 
ATOM     54  C   UNL A   1      41.844  31.960  37.090  1.00  0.00     0.029 A 
ATOM     55  C   UNL A   1      40.946  32.139  36.049  1.00  0.00     0.049 A 
ATOM     56  H   UNL A   1      40.700  30.994  34.294  1.00  0.00     0.167 HD
ATOM     57  C   UNL A   1      39.100  33.273  34.843  1.00  0.00     0.074 A 
ATOM     58  C   UNL A   1      38.081  34.294  34.716  1.00  0.00     0.031 C 
ATOM     59  C   UNL A   1      39.936  33.157  35.904  1.00  0.00     0.037 A 
BRANCH  46  60
ATOM     60  C   UNL A   1      43.902  28.438  35.503  1.00  0.00     0.058 A 
ATOM     61  C   UNL A   1      45.217  28.685  35.079  1.00  0.00     0.135 A 
ATOM     62  C   UNL A   1      43.699  27.435  36.465  1.00  0.00     0.135 A 
ATOM     63  F   UNL A   1      45.467  29.639  34.169  1.00  0.00    -0.206 F 
ATOM     64  C   UNL A   1      46.289  27.949  35.572  1.00  0.00     0.059 A 
ATOM     65  C   UNL A   1      44.760  26.702  36.988  1.00  0.00     0.059 A 
ATOM     66  F   UNL A   1      42.463  27.177  36.921  1.00  0.00    -0.206 F 
ATOM     67  C   UNL A   1      46.049  26.956  36.524  1.00  0.00     0.060 A 
BRANCH  67  68
ATOM     68  S   UNL A   1      47.456  26.022  37.166  1.00  0.00     0.124 S 
ATOM     69  O   UNL A   1      46.975  25.624  38.484  1.00  0.00    -0.237 OA
ATOM     70  O   UNL A   1      47.584  24.950  36.184  1.00  0.00    -0.237 OA
ATOM     71  O   UNL A   1      48.541  26.999  37.159  1.00  0.00    -0.744 OA
ENDBRANCH  67  68
ENDBRANCH  46  60
BRANCH  47  72
ATOM     72  C   UNL A   1      36.480  33.323  30.930  1.00  0.00     0.058 A 
ATOM     73  C   UNL A   1      35.145  33.235  31.354  1.00  0.00     0.135 A 
ATOM     74  C   UNL A   1      36.765  34.148  29.833  1.00  0.00     0.135 A 
ATOM     75  F   UNL A   1      34.818  32.458  32.397  1.00  0.00    -0.206 F 
ATOM     76  C   UNL A   1      34.127  33.919  30.698  1.00  0.00     0.059 A 
ATOM     77  C   UNL A   1      35.767  34.864  29.176  1.00  0.00     0.059 A 
ATOM     78  F   UNL A   1      38.029  34.279  29.403  1.00  0.00    -0.206 F 
ATOM     79  C   UNL A   1      34.448  34.729  29.609  1.00  0.00     0.060 A 
BRANCH  79  80
ATOM     80  S   UNL A   1      33.110  35.608  28.771  1.00  0.00     0.124 S 
ATOM     81  O   UNL A   1      33.851  36.596  27.996  1.00  0.00    -0.237 OA
ATOM     82  O   UNL A   1      32.478  34.540  28.002  1.00  0.00    -0.237 OA
ATOM     83  O   UNL A   1      32.314  36.139  29.873  1.00  0.00    -0.744 OA
ENDBRANCH  79  80
ENDBRANCH  47  72
BRANCH  59  84
ATOM     84  C   UNL A   1      39.818  34.173  37.007  1.00  0.00     0.058 A 
ATOM     85  C   UNL A   1      38.993  33.922  38.117  1.00  0.00     0.135 A 
ATOM     86  C   UNL A   1      40.444  35.425  36.924  1.00  0.00     0.135 A 
ATOM     87  F   UNL A   1      38.366  32.743  38.242  1.00  0.00    -0.206 F 
ATOM     88  C   UNL A   1      38.777  34.887  39.094  1.00  0.00     0.059 A 
ATOM     89  C   UNL A   1      40.262  36.397  37.905  1.00  0.00     0.059 A 
ATOM     90  F   UNL A   1      41.251  35.709  35.889  1.00  0.00    -0.206 F 
ATOM     91  C   UNL A   1      39.412  36.125  38.975  1.00  0.00     0.060 A 
BRANCH  91  92
ATOM     92  S   UNL A   1      39.118  37.367  40.253  1.00  0.00     0.124 S 
ATOM     93  O   UNL A   1      38.513  36.569  41.313  1.00  0.00    -0.237 OA
ATOM     94  O   UNL A   1      40.466  37.861  40.520  1.00  0.00    -0.237 OA
ATOM     95  O   UNL A   1      38.228  38.322  39.600  1.00  0.00    -0.744 OA
ENDBRANCH  91  92
ENDBRANCH  59  84
ENDBRANCH  33  34
ENDBRANCH  26  28
ENDBRANCH  25  26
ENDBRANCH  24  25
ENDBRANCH   1  24
TORSDOF 19
ENDMDL
