MODEL 1
REMARK VINA RESULT:     -10.1      0.000      0.000
REMARK SMILES C[C@@H]1C[C@@H](C)C[NH+](C(C)(C)C(=O)OCCOCCOC(=O)c2ccc(-c3c4nc(c(-c5c(F)cc(S(=O)(=O)[O-])cc5F)c5ccc([nH]5)c(-c5c(F)cc(S(=O)(=O)[O-])cc5F)c5nc(c(-c6c(F)cc(S(=O)(=O)[O-])cc6F)c6ccc3[nH]6)C=C5)C=C4)cc2)C1
REMARK SMILES IDX 17 1 16 2 15 3 14 4 13 5 11 6 12 7 8 8 9 9 10 10 7 11 1 12
REMARK SMILES IDX 2 13 3 14 88 15 4 16 6 17 5 18 18 20 19 21 20 22 21 23 22 24
REMARK SMILES IDX 23 25 87 26 24 27 86 28 25 29 26 30 27 31 80 32 28 33 85 34
REMARK SMILES IDX 79 35 81 36 29 37 84 38 78 39 77 40 30 42 64 43 43 44 63 45
REMARK SMILES IDX 44 46 47 47 62 48 82 49 45 50 46 51 61 53 83 54 48 55 31 56
REMARK SMILES IDX 32 57 41 58 33 59 34 60 40 61 42 62 35 63 36 64 37 65 38 66
REMARK SMILES IDX 39 67 65 68 66 69 75 70 67 71 68 72 74 73 76 74 69 75 70 76
REMARK SMILES IDX 71 77 72 78 73 79 49 80 50 81 59 82 51 83 52 84 58 85 60 86
REMARK SMILES IDX 53 87 54 88 55 89 56 90 57 91
REMARK H PARENT 7 19 81 41 47 52
REMARK Flexibility Score: inf
ROOT
ATOM      1  C   UNL A   1      37.809  24.045  26.139  1.00  0.00     0.202 C 
ENDROOT
BRANCH   1   2
ATOM      2  O   UNL A   1      36.798  23.773  25.166  1.00  0.00    -0.374 OA
BRANCH   2   3
ATOM      3  C   UNL A   1      36.881  22.541  24.452  1.00  0.00     0.202 C 
BRANCH   3   4
ATOM      4  C   UNL A   1      35.722  22.193  23.513  1.00  0.00     0.261 C 
BRANCH   4   5
ATOM      5  O   UNL A   1      34.531  21.832  24.230  1.00  0.00    -0.459 OA
BRANCH   5   6
ATOM      6  C   UNL A   1      33.429  22.579  23.949  1.00  0.00     0.367 C 
ATOM      7  O   UNL A   1      33.093  22.895  22.809  1.00  0.00    -0.245 OA
BRANCH   6   8
ATOM      8  C   UNL A   1      32.606  22.983  25.222  1.00  0.00     0.190 C 
ATOM      9  C   UNL A   1      33.599  22.794  26.392  1.00  0.00     0.092 C 
ATOM     10  C   UNL A   1      31.433  22.000  25.454  1.00  0.00     0.092 C 
BRANCH   8  11
ATOM     11  N   UNL A   1      32.036  24.394  25.100  1.00  0.00    -0.321 N 
ATOM     12  C   UNL A   1      29.538  26.319  24.611  1.00  0.00     0.013 C 
ATOM     13  C   UNL A   1      30.265  26.031  25.928  1.00  0.00     0.042 C 
ATOM     14  C   UNL A   1      31.358  27.062  26.213  1.00  0.00     0.018 C 
ATOM     15  C   UNL A   1      30.865  24.612  25.977  1.00  0.00     0.266 C 
ATOM     16  C   UNL A   1      32.519  26.888  25.241  1.00  0.00     0.042 C 
ATOM     17  C   UNL A   1      33.058  25.446  25.300  1.00  0.00     0.266 C 
ATOM     18  C   UNL A   1      33.631  27.891  25.549  1.00  0.00     0.013 C 
ATOM     19  H   UNL A   1      31.712  24.475  24.136  1.00  0.00     0.349 HD
ENDBRANCH   8  11
ENDBRANCH   6   8
ENDBRANCH   5   6
ENDBRANCH   4   5
ENDBRANCH   3   4
ENDBRANCH   2   3
ENDBRANCH   1   2
BRANCH   1  20
ATOM     20  C   UNL A   1      38.925  23.004  26.320  1.00  0.00     0.261 C 
BRANCH  20  21
ATOM     21  O   UNL A   1      39.862  23.337  27.365  1.00  0.00    -0.460 OA
BRANCH  21  22
ATOM     22  C   UNL A   1      40.758  24.303  27.044  1.00  0.00     0.338 C 
ATOM     23  O   UNL A   1      41.549  24.297  26.107  1.00  0.00    -0.246 OA
BRANCH  22  24
ATOM     24  C   UNL A   1      40.554  25.496  27.884  1.00  0.00     0.060 A 
ATOM     25  C   UNL A   1      41.557  26.474  27.895  1.00  0.00     0.016 A 
ATOM     26  C   UNL A   1      39.451  25.604  28.731  1.00  0.00     0.016 A 
ATOM     27  C   UNL A   1      41.466  27.560  28.766  1.00  0.00     0.010 A 
ATOM     28  C   UNL A   1      39.369  26.687  29.614  1.00  0.00     0.010 A 
ATOM     29  C   UNL A   1      40.385  27.659  29.651  1.00  0.00    -0.014 A 
BRANCH  29  30
ATOM     30  C   UNL A   1      40.363  28.731  30.678  1.00  0.00     0.031 A 
ATOM     31  C   UNL A   1      41.307  28.656  31.847  1.00  0.00     0.074 A 
ATOM     32  C   UNL A   1      39.511  29.766  30.563  1.00  0.00     0.049 A 
ATOM     33  N   UNL A   1      41.408  29.449  32.881  1.00  0.00    -0.248 NA
ATOM     34  C   UNL A   1      42.264  27.538  31.849  1.00  0.00     0.031 C 
ATOM     35  C   UNL A   1      38.578  29.970  29.456  1.00  0.00     0.029 A 
ATOM     36  N   UNL A   1      39.285  30.834  31.395  1.00  0.00    -0.354 N 
ATOM     37  C   UNL A   1      42.433  28.928  33.661  1.00  0.00     0.074 A 
ATOM     38  C   UNL A   1      42.908  27.736  32.991  1.00  0.00     0.031 C 
ATOM     39  C   UNL A   1      37.865  31.085  29.687  1.00  0.00     0.029 A 
ATOM     40  C   UNL A   1      38.266  31.655  30.972  1.00  0.00     0.049 A 
ATOM     41  H   UNL A   1      39.803  30.997  32.216  1.00  0.00     0.167 HD
ATOM     42  C   UNL A   1      42.936  29.404  34.826  1.00  0.00     0.037 A 
ATOM     43  C   UNL A   1      37.700  32.722  31.569  1.00  0.00     0.037 A 
ATOM     44  C   UNL A   1      42.458  30.590  35.488  1.00  0.00     0.049 A 
ATOM     45  C   UNL A   1      38.218  33.184  32.906  1.00  0.00     0.074 A 
ATOM     46  C   UNL A   1      42.924  31.171  36.655  1.00  0.00     0.029 A 
ATOM     47  N   UNL A   1      41.396  31.368  35.051  1.00  0.00    -0.354 N 
ATOM     48  N   UNL A   1      39.208  32.700  33.617  1.00  0.00    -0.248 NA
ATOM     49  C   UNL A   1      37.538  34.330  33.526  1.00  0.00     0.031 C 
ATOM     50  C   UNL A   1      42.112  32.271  36.951  1.00  0.00     0.029 A 
ATOM     51  C   UNL A   1      41.168  32.403  35.944  1.00  0.00     0.049 A 
ATOM     52  H   UNL A   1      40.880  31.209  34.229  1.00  0.00     0.167 HD
ATOM     53  C   UNL A   1      39.279  33.490  34.760  1.00  0.00     0.074 A 
ATOM     54  C   UNL A   1      38.242  34.492  34.639  1.00  0.00     0.031 C 
ATOM     55  C   UNL A   1      40.127  33.393  35.814  1.00  0.00     0.037 A 
BRANCH  42  56
ATOM     56  C   UNL A   1      44.046  28.626  35.476  1.00  0.00     0.058 A 
ATOM     57  C   UNL A   1      43.788  27.608  36.407  1.00  0.00     0.135 A 
ATOM     58  C   UNL A   1      45.384  28.874  35.132  1.00  0.00     0.135 A 
ATOM     59  F   UNL A   1      42.527  27.339  36.783  1.00  0.00    -0.206 F 
ATOM     60  C   UNL A   1      44.819  26.880  36.992  1.00  0.00     0.059 A 
ATOM     61  C   UNL A   1      46.430  28.144  35.687  1.00  0.00     0.059 A 
ATOM     62  F   UNL A   1      45.686  29.838  34.247  1.00  0.00    -0.206 F 
ATOM     63  C   UNL A   1      46.138  27.156  36.627  1.00  0.00     0.060 A 
BRANCH  63  64
ATOM     64  S   UNL A   1      47.465  26.201  37.393  1.00  0.00     0.124 S 
ATOM     65  O   UNL A   1      46.830  24.896  37.550  1.00  0.00    -0.237 OA
ATOM     66  O   UNL A   1      48.522  26.274  36.389  1.00  0.00    -0.237 OA
ATOM     67  O   UNL A   1      47.732  26.921  38.633  1.00  0.00    -0.744 OA
ENDBRANCH  63  64
ENDBRANCH  42  56
BRANCH  43  68
ATOM     68  C   UNL A   1      36.553  33.412  30.919  1.00  0.00     0.058 A 
ATOM     69  C   UNL A   1      35.263  33.347  31.464  1.00  0.00     0.135 A 
ATOM     70  C   UNL A   1      36.730  34.157  29.742  1.00  0.00     0.135 A 
ATOM     71  F   UNL A   1      35.042  32.635  32.580  1.00  0.00    -0.206 F 
ATOM     72  C   UNL A   1      34.186  33.990  30.863  1.00  0.00     0.059 A 
ATOM     73  C   UNL A   1      35.673  34.828  29.136  1.00  0.00     0.059 A 
ATOM     74  F   UNL A   1      37.947  34.256  29.185  1.00  0.00    -0.206 F 
ATOM     75  C   UNL A   1      34.402  34.732  29.700  1.00  0.00     0.060 A 
BRANCH  75  76
ATOM     76  S   UNL A   1      33.009  35.611  28.959  1.00  0.00     0.124 S 
ATOM     77  O   UNL A   1      32.492  34.611  28.033  1.00  0.00    -0.237 OA
ATOM     78  O   UNL A   1      32.175  35.898  30.122  1.00  0.00    -0.237 OA
ATOM     79  O   UNL A   1      33.638  36.776  28.345  1.00  0.00    -0.744 OA
ENDBRANCH  75  76
ENDBRANCH  43  68
BRANCH  55  80
ATOM     80  C   UNL A   1      39.978  34.398  36.923  1.00  0.00     0.058 A 
ATOM     81  C   UNL A   1      40.602  35.654  36.860  1.00  0.00     0.135 A 
ATOM     82  C   UNL A   1      39.150  34.130  38.024  1.00  0.00     0.135 A 
ATOM     83  F   UNL A   1      41.411  35.956  35.833  1.00  0.00    -0.206 F 
ATOM     84  C   UNL A   1      40.417  36.607  37.858  1.00  0.00     0.059 A 
ATOM     85  C   UNL A   1      38.931  35.077  39.021  1.00  0.00     0.059 A 
ATOM     86  F   UNL A   1      38.524  32.948  38.128  1.00  0.00    -0.206 F 
ATOM     87  C   UNL A   1      39.575  36.311  38.931  1.00  0.00     0.060 A 
BRANCH  87  88
ATOM     88  S   UNL A   1      39.302  37.576  40.191  1.00  0.00     0.124 S 
ATOM     89  O   UNL A   1      38.930  36.766  41.347  1.00  0.00    -0.237 OA
ATOM     90  O   UNL A   1      40.606  38.228  40.267  1.00  0.00    -0.237 OA
ATOM     91  O   UNL A   1      38.232  38.392  39.626  1.00  0.00    -0.744 OA
ENDBRANCH  87  88
ENDBRANCH  55  80
ENDBRANCH  29  30
ENDBRANCH  22  24
ENDBRANCH  21  22
ENDBRANCH  20  21
ENDBRANCH   1  20
TORSDOF 18
ENDMDL
MODEL 2
REMARK VINA RESULT:     -10.0      1.142      2.294
REMARK SMILES C[C@@H]1C[C@@H](C)C[NH+](C(C)(C)C(=O)OCCOCCOC(=O)c2ccc(-c3c4nc(c(-c5c(F)cc(S(=O)(=O)[O-])cc5F)c5ccc([nH]5)c(-c5c(F)cc(S(=O)(=O)[O-])cc5F)c5nc(c(-c6c(F)cc(S(=O)(=O)[O-])cc6F)c6ccc3[nH]6)C=C5)C=C4)cc2)C1
REMARK SMILES IDX 17 1 16 2 15 3 14 4 13 5 11 6 12 7 8 8 9 9 10 10 7 11 1 12
REMARK SMILES IDX 2 13 3 14 88 15 4 16 6 17 5 18 18 20 19 21 20 22 21 23 22 24
REMARK SMILES IDX 23 25 87 26 24 27 86 28 25 29 26 30 27 31 80 32 28 33 85 34
REMARK SMILES IDX 79 35 81 36 29 37 84 38 78 39 77 40 30 42 64 43 43 44 63 45
REMARK SMILES IDX 44 46 47 47 62 48 82 49 45 50 46 51 61 53 83 54 48 55 31 56
REMARK SMILES IDX 32 57 41 58 33 59 34 60 40 61 42 62 35 63 36 64 37 65 38 66
REMARK SMILES IDX 39 67 65 68 66 69 75 70 67 71 68 72 74 73 76 74 69 75 70 76
REMARK SMILES IDX 71 77 72 78 73 79 49 80 50 81 59 82 51 83 52 84 58 85 60 86
REMARK SMILES IDX 53 87 54 88 55 89 56 90 57 91
REMARK H PARENT 7 19 81 41 47 52
REMARK Flexibility Score: inf
ROOT
ATOM      1  C   UNL A   1      41.409  21.491  26.148  1.00  0.00     0.202 C 
ENDROOT
BRANCH   1   2
ATOM      2  O   UNL A   1      40.099  21.108  26.575  1.00  0.00    -0.374 OA
BRANCH   2   3
ATOM      3  C   UNL A   1      38.995  21.867  26.085  1.00  0.00     0.202 C 
BRANCH   3   4
ATOM      4  C   UNL A   1      37.948  21.124  25.249  1.00  0.00     0.261 C 
BRANCH   4   5
ATOM      5  O   UNL A   1      36.616  21.322  25.747  1.00  0.00    -0.459 OA
BRANCH   5   6
ATOM      6  C   UNL A   1      36.128  22.587  25.628  1.00  0.00     0.367 C 
ATOM      7  O   UNL A   1      36.668  23.574  26.124  1.00  0.00    -0.245 OA
BRANCH   6   8
ATOM      8  C   UNL A   1      34.817  22.674  24.771  1.00  0.00     0.190 C 
ATOM      9  C   UNL A   1      34.324  21.211  24.680  1.00  0.00     0.092 C 
ATOM     10  C   UNL A   1      35.131  23.142  23.330  1.00  0.00     0.092 C 
BRANCH   8  11
ATOM     11  N   UNL A   1      33.807  23.642  25.384  1.00  0.00    -0.321 N 
ATOM     12  C   UNL A   1      32.978  26.624  26.162  1.00  0.00     0.013 C 
ATOM     13  C   UNL A   1      32.429  25.757  25.025  1.00  0.00     0.042 C 
ATOM     14  C   UNL A   1      31.167  25.001  25.444  1.00  0.00     0.018 C 
ATOM     15  C   UNL A   1      33.472  24.763  24.479  1.00  0.00     0.266 C 
ATOM     16  C   UNL A   1      31.513  23.908  26.449  1.00  0.00     0.042 C 
ATOM     17  C   UNL A   1      32.585  22.964  25.872  1.00  0.00     0.266 C 
ATOM     18  C   UNL A   1      30.259  23.123  26.839  1.00  0.00     0.013 C 
ATOM     19  H   UNL A   1      34.272  24.040  26.200  1.00  0.00     0.349 HD
ENDBRANCH   8  11
ENDBRANCH   6   8
ENDBRANCH   5   6
ENDBRANCH   4   5
ENDBRANCH   3   4
ENDBRANCH   2   3
ENDBRANCH   1   2
BRANCH   1  20
ATOM     20  C   UNL A   1      41.938  22.859  26.608  1.00  0.00     0.261 C 
BRANCH  20  21
ATOM     21  O   UNL A   1      41.045  23.952  26.311  1.00  0.00    -0.460 OA
BRANCH  21  22
ATOM     22  C   UNL A   1      41.651  25.151  26.126  1.00  0.00     0.338 C 
ATOM     23  O   UNL A   1      42.062  25.617  25.069  1.00  0.00    -0.246 OA
BRANCH  22  24
ATOM     24  C   UNL A   1      41.611  25.946  27.365  1.00  0.00     0.060 A 
ATOM     25  C   UNL A   1      40.455  25.882  28.153  1.00  0.00     0.016 A 
ATOM     26  C   UNL A   1      42.645  26.823  27.696  1.00  0.00     0.016 A 
ATOM     27  C   UNL A   1      40.321  26.708  29.270  1.00  0.00     0.010 A 
ATOM     28  C   UNL A   1      42.502  27.661  28.808  1.00  0.00     0.010 A 
ATOM     29  C   UNL A   1      41.332  27.623  29.589  1.00  0.00    -0.014 A 
BRANCH  29  30
ATOM     30  C   UNL A   1      41.127  28.602  30.684  1.00  0.00     0.031 A 
ATOM     31  C   UNL A   1      41.978  28.518  31.922  1.00  0.00     0.074 A 
ATOM     32  C   UNL A   1      40.193  29.564  30.572  1.00  0.00     0.049 A 
ATOM     33  N   UNL A   1      41.921  29.232  33.016  1.00  0.00    -0.248 NA
ATOM     34  C   UNL A   1      43.033  27.493  31.926  1.00  0.00     0.031 C 
ATOM     35  C   UNL A   1      39.335  29.772  29.406  1.00  0.00     0.029 A 
ATOM     36  N   UNL A   1      39.802  30.538  31.456  1.00  0.00    -0.354 N 
ATOM     37  C   UNL A   1      42.926  28.743  33.842  1.00  0.00     0.074 A 
ATOM     38  C   UNL A   1      43.564  27.655  33.131  1.00  0.00     0.031 C 
ATOM     39  C   UNL A   1      38.504  30.799  29.654  1.00  0.00     0.029 A 
ATOM     40  C   UNL A   1      38.746  31.297  31.006  1.00  0.00     0.049 A 
ATOM     41  H   UNL A   1      40.234  30.680  32.328  1.00  0.00     0.167 HD
ATOM     42  C   UNL A   1      43.287  29.167  35.077  1.00  0.00     0.037 A 
ATOM     43  C   UNL A   1      38.036  32.259  31.628  1.00  0.00     0.037 A 
ATOM     44  C   UNL A   1      42.648  30.249  35.780  1.00  0.00     0.049 A 
ATOM     45  C   UNL A   1      38.400  32.656  33.035  1.00  0.00     0.074 A 
ATOM     46  C   UNL A   1      42.962  30.774  37.021  1.00  0.00     0.029 A 
ATOM     47  N   UNL A   1      41.555  30.964  35.310  1.00  0.00    -0.354 N 
ATOM     48  N   UNL A   1      39.372  32.207  33.792  1.00  0.00    -0.248 NA
ATOM     49  C   UNL A   1      37.567  33.685  33.675  1.00  0.00     0.031 C 
ATOM     50  C   UNL A   1      42.029  31.771  37.324  1.00  0.00     0.029 A 
ATOM     51  C   UNL A   1      41.160  31.899  36.252  1.00  0.00     0.049 A 
ATOM     52  H   UNL A   1      41.124  30.826  34.436  1.00  0.00     0.167 HD
ATOM     53  C   UNL A   1      39.277  32.906  34.990  1.00  0.00     0.074 A 
ATOM     54  C   UNL A   1      38.162  33.819  34.853  1.00  0.00     0.031 C 
ATOM     55  C   UNL A   1      40.043  32.800  36.104  1.00  0.00     0.037 A 
BRANCH  42  56
ATOM     56  C   UNL A   1      44.411  28.441  35.763  1.00  0.00     0.058 A 
ATOM     57  C   UNL A   1      45.742  28.871  35.658  1.00  0.00     0.135 A 
ATOM     58  C   UNL A   1      44.146  27.322  36.569  1.00  0.00     0.135 A 
ATOM     59  F   UNL A   1      46.053  29.927  34.889  1.00  0.00    -0.206 F 
ATOM     60  C   UNL A   1      46.775  28.204  36.310  1.00  0.00     0.059 A 
ATOM     61  C   UNL A   1      45.159  26.652  37.248  1.00  0.00     0.059 A 
ATOM     62  F   UNL A   1      42.889  26.867  36.702  1.00  0.00    -0.206 F 
ATOM     63  C   UNL A   1      46.474  27.094  37.101  1.00  0.00     0.060 A 
BRANCH  63  64
ATOM     64  S   UNL A   1      47.824  26.239  37.942  1.00  0.00     0.124 S 
ATOM     65  O   UNL A   1      48.913  26.405  36.983  1.00  0.00    -0.237 OA
ATOM     66  O   UNL A   1      47.952  27.000  39.181  1.00  0.00    -0.237 OA
ATOM     67  O   UNL A   1      47.324  24.878  38.094  1.00  0.00    -0.744 OA
ENDBRANCH  63  64
ENDBRANCH  42  56
BRANCH  43  68
ATOM     68  C   UNL A   1      36.884  32.894  30.933  1.00  0.00     0.058 A 
ATOM     69  C   UNL A   1      35.564  32.548  31.250  1.00  0.00     0.135 A 
ATOM     70  C   UNL A   1      37.085  33.869  29.942  1.00  0.00     0.135 A 
ATOM     71  F   UNL A   1      35.321  31.611  32.180  1.00  0.00    -0.206 F 
ATOM     72  C   UNL A   1      34.481  33.138  30.605  1.00  0.00     0.059 A 
ATOM     73  C   UNL A   1      36.019  34.490  29.300  1.00  0.00     0.059 A 
ATOM     74  F   UNL A   1      38.331  34.241  29.607  1.00  0.00    -0.206 F 
ATOM     75  C   UNL A   1      34.720  34.112  29.633  1.00  0.00     0.060 A 
BRANCH  75  76
ATOM     76  S   UNL A   1      33.308  34.914  28.843  1.00  0.00     0.124 S 
ATOM     77  O   UNL A   1      32.843  33.867  27.942  1.00  0.00    -0.237 OA
ATOM     78  O   UNL A   1      32.445  35.208  29.983  1.00  0.00    -0.237 OA
ATOM     79  O   UNL A   1      33.903  36.082  28.201  1.00  0.00    -0.744 OA
ENDBRANCH  75  76
ENDBRANCH  43  68
BRANCH  55  80
ATOM     80  C   UNL A   1      39.713  33.697  37.265  1.00  0.00     0.058 A 
ATOM     81  C   UNL A   1      38.814  33.296  38.266  1.00  0.00     0.135 A 
ATOM     82  C   UNL A   1      40.352  34.938  37.415  1.00  0.00     0.135 A 
ATOM     83  F   UNL A   1      38.170  32.123  38.166  1.00  0.00    -0.206 F 
ATOM     84  C   UNL A   1      38.553  34.100  39.372  1.00  0.00     0.059 A 
ATOM     85  C   UNL A   1      40.125  35.747  38.525  1.00  0.00     0.059 A 
ATOM     86  F   UNL A   1      41.226  35.364  36.491  1.00  0.00    -0.206 F 
ATOM     87  C   UNL A   1      39.218  35.322  39.495  1.00  0.00     0.060 A 
BRANCH  87  88
ATOM     88  S   UNL A   1      38.910  36.331  40.960  1.00  0.00     0.124 S 
ATOM     89  O   UNL A   1      37.831  35.590  41.607  1.00  0.00    -0.237 OA
ATOM     90  O   UNL A   1      40.200  36.295  41.642  1.00  0.00    -0.237 OA
ATOM     91  O   UNL A   1      38.536  37.629  40.408  1.00  0.00    -0.744 OA
ENDBRANCH  87  88
ENDBRANCH  55  80
ENDBRANCH  29  30
ENDBRANCH  22  24
ENDBRANCH  21  22
ENDBRANCH  20  21
ENDBRANCH   1  20
TORSDOF 18
ENDMDL
MODEL 3
REMARK VINA RESULT:     -10.0      1.199      8.620
REMARK SMILES C[C@@H]1C[C@@H](C)C[NH+](C(C)(C)C(=O)OCCOCCOC(=O)c2ccc(-c3c4nc(c(-c5c(F)cc(S(=O)(=O)[O-])cc5F)c5ccc([nH]5)c(-c5c(F)cc(S(=O)(=O)[O-])cc5F)c5nc(c(-c6c(F)cc(S(=O)(=O)[O-])cc6F)c6ccc3[nH]6)C=C5)C=C4)cc2)C1
REMARK SMILES IDX 17 1 16 2 15 3 14 4 13 5 11 6 12 7 8 8 9 9 10 10 7 11 1 12
REMARK SMILES IDX 2 13 3 14 88 15 4 16 6 17 5 18 18 20 19 21 20 22 21 23 22 24
REMARK SMILES IDX 23 25 87 26 24 27 86 28 25 29 26 30 27 31 80 32 28 33 85 34
REMARK SMILES IDX 79 35 81 36 29 37 84 38 78 39 77 40 30 42 64 43 43 44 63 45
REMARK SMILES IDX 44 46 47 47 62 48 82 49 45 50 46 51 61 53 83 54 48 55 31 56
REMARK SMILES IDX 32 57 41 58 33 59 34 60 40 61 42 62 35 63 36 64 37 65 38 66
REMARK SMILES IDX 39 67 65 68 66 69 75 70 67 71 68 72 74 73 76 74 69 75 70 76
REMARK SMILES IDX 71 77 72 78 73 79 49 80 50 81 59 82 51 83 52 84 58 85 60 86
REMARK SMILES IDX 53 87 54 88 55 89 56 90 57 91
REMARK H PARENT 7 19 81 41 47 52
REMARK Flexibility Score: inf
ROOT
ATOM      1  C   UNL A   1      41.583  22.386  26.716  1.00  0.00     0.202 C 
ENDROOT
BRANCH   1   2
ATOM      2  O   UNL A   1      40.522  22.053  25.817  1.00  0.00    -0.374 OA
BRANCH   2   3
ATOM      3  C   UNL A   1      39.199  21.995  26.348  1.00  0.00     0.202 C 
BRANCH   3   4
ATOM      4  C   UNL A   1      38.095  21.470  25.425  1.00  0.00     0.261 C 
BRANCH   4   5
ATOM      5  O   UNL A   1      37.094  22.463  25.155  1.00  0.00    -0.459 OA
BRANCH   5   6
ATOM      6  C   UNL A   1      35.821  22.120  25.495  1.00  0.00     0.367 C 
ATOM      7  O   UNL A   1      35.539  21.457  26.492  1.00  0.00    -0.245 OA
BRANCH   6   8
ATOM      8  C   UNL A   1      34.738  22.672  24.505  1.00  0.00     0.190 C 
ATOM      9  C   UNL A   1      33.879  21.435  24.152  1.00  0.00     0.092 C 
ATOM     10  C   UNL A   1      35.392  23.165  23.192  1.00  0.00     0.092 C 
BRANCH   8  11
ATOM     11  N   UNL A   1      33.952  23.829  25.118  1.00  0.00    -0.321 N 
ATOM     12  C   UNL A   1      33.770  26.917  25.906  1.00  0.00     0.013 C 
ATOM     13  C   UNL A   1      33.056  26.190  24.763  1.00  0.00     0.042 C 
ATOM     14  C   UNL A   1      31.660  25.717  25.172  1.00  0.00     0.018 C 
ATOM     15  C   UNL A   1      33.868  24.999  24.216  1.00  0.00     0.266 C 
ATOM     16  C   UNL A   1      31.761  24.572  26.174  1.00  0.00     0.042 C 
ATOM     17  C   UNL A   1      32.612  23.425  25.597  1.00  0.00     0.266 C 
ATOM     18  C   UNL A   1      30.367  24.070  26.554  1.00  0.00     0.013 C 
ATOM     19  H   UNL A   1      34.486  24.117  25.938  1.00  0.00     0.349 HD
ENDBRANCH   8  11
ENDBRANCH   6   8
ENDBRANCH   5   6
ENDBRANCH   4   5
ENDBRANCH   3   4
ENDBRANCH   2   3
ENDBRANCH   1   2
BRANCH   1  20
ATOM     20  C   UNL A   1      42.822  23.083  26.131  1.00  0.00     0.261 C 
BRANCH  20  21
ATOM     21  O   UNL A   1      43.160  24.315  26.799  1.00  0.00    -0.460 OA
BRANCH  21  22
ATOM     22  C   UNL A   1      42.596  25.428  26.267  1.00  0.00     0.338 C 
ATOM     23  O   UNL A   1      42.363  25.646  25.084  1.00  0.00    -0.246 OA
BRANCH  22  24
ATOM     24  C   UNL A   1      42.118  26.324  27.334  1.00  0.00     0.060 A 
ATOM     25  C   UNL A   1      42.821  27.514  27.561  1.00  0.00     0.016 A 
ATOM     26  C   UNL A   1      41.063  25.954  28.171  1.00  0.00     0.016 A 
ATOM     27  C   UNL A   1      42.480  28.334  28.637  1.00  0.00     0.010 A 
ATOM     28  C   UNL A   1      40.733  26.772  29.257  1.00  0.00     0.010 A 
ATOM     29  C   UNL A   1      41.452  27.955  29.509  1.00  0.00    -0.014 A 
BRANCH  29  30
ATOM     30  C   UNL A   1      41.189  28.748  30.735  1.00  0.00     0.031 A 
ATOM     31  C   UNL A   1      40.085  29.771  30.733  1.00  0.00     0.074 A 
ATOM     32  C   UNL A   1      41.925  28.552  31.844  1.00  0.00     0.049 A 
ATOM     33  N   UNL A   1      39.732  30.609  31.672  1.00  0.00    -0.248 NA
ATOM     34  C   UNL A   1      39.273  29.859  29.509  1.00  0.00     0.031 C 
ATOM     35  C   UNL A   1      42.994  27.564  31.981  1.00  0.00     0.029 A 
ATOM     36  N   UNL A   1      41.893  29.185  33.062  1.00  0.00    -0.354 N 
ATOM     37  C   UNL A   1      38.661  31.329  31.155  1.00  0.00     0.074 A 
ATOM     38  C   UNL A   1      38.437  30.843  29.809  1.00  0.00     0.031 C 
ATOM     39  C   UNL A   1      43.529  27.669  33.209  1.00  0.00     0.029 A 
ATOM     40  C   UNL A   1      42.867  28.753  33.931  1.00  0.00     0.049 A 
ATOM     41  H   UNL A   1      41.236  29.881  33.291  1.00  0.00     0.167 HD
ATOM     42  C   UNL A   1      37.928  32.301  31.752  1.00  0.00     0.037 A 
ATOM     43  C   UNL A   1      43.206  29.203  35.156  1.00  0.00     0.037 A 
ATOM     44  C   UNL A   1      38.157  32.780  33.090  1.00  0.00     0.049 A 
ATOM     45  C   UNL A   1      42.433  30.343  35.765  1.00  0.00     0.074 A 
ATOM     46  C   UNL A   1      37.449  33.737  33.794  1.00  0.00     0.029 A 
ATOM     47  N   UNL A   1      39.180  32.348  33.922  1.00  0.00    -0.354 N 
ATOM     48  N   UNL A   1      41.403  30.994  35.278  1.00  0.00    -0.248 NA
ATOM     49  C   UNL A   1      42.871  30.816  37.086  1.00  0.00     0.031 C 
ATOM     50  C   UNL A   1      38.073  33.923  35.032  1.00  0.00     0.029 A 
ATOM     51  C   UNL A   1      39.144  33.047  35.118  1.00  0.00     0.049 A 
ATOM     52  H   UNL A   1      39.835  31.650  33.696  1.00  0.00     0.167 HD
ATOM     53  C   UNL A   1      41.062  31.942  36.237  1.00  0.00     0.074 A 
ATOM     54  C   UNL A   1      41.985  31.771  37.339  1.00  0.00     0.031 C 
ATOM     55  C   UNL A   1      40.074  32.870  36.206  1.00  0.00     0.037 A 
BRANCH  42  56
ATOM     56  C   UNL A   1      36.824  32.933  30.950  1.00  0.00     0.058 A 
ATOM     57  C   UNL A   1      37.084  33.905  29.972  1.00  0.00     0.135 A 
ATOM     58  C   UNL A   1      35.492  32.530  31.134  1.00  0.00     0.135 A 
ATOM     59  F   UNL A   1      38.339  34.337  29.764  1.00  0.00    -0.206 F 
ATOM     60  C   UNL A   1      36.060  34.473  29.221  1.00  0.00     0.059 A 
ATOM     61  C   UNL A   1      34.454  33.067  30.380  1.00  0.00     0.059 A 
ATOM     62  F   UNL A   1      35.188  31.604  32.058  1.00  0.00    -0.206 F 
ATOM     63  C   UNL A   1      34.747  34.049  29.434  1.00  0.00     0.060 A 
BRANCH  63  64
ATOM     64  S   UNL A   1      33.428  34.794  28.451  1.00  0.00     0.124 S 
ATOM     65  O   UNL A   1      32.563  35.341  29.493  1.00  0.00    -0.237 OA
ATOM     66  O   UNL A   1      34.151  35.776  27.650  1.00  0.00    -0.237 OA
ATOM     67  O   UNL A   1      32.877  33.666  27.708  1.00  0.00    -0.744 OA
ENDBRANCH  63  64
ENDBRANCH  42  56
BRANCH  43  68
ATOM     68  C   UNL A   1      44.356  28.594  35.876  1.00  0.00     0.058 A 
ATOM     69  C   UNL A   1      45.665  29.051  35.672  1.00  0.00     0.135 A 
ATOM     70  C   UNL A   1      44.163  27.546  36.791  1.00  0.00     0.135 A 
ATOM     71  F   UNL A   1      45.901  30.041  34.797  1.00  0.00    -0.206 F 
ATOM     72  C   UNL A   1      46.746  28.487  36.343  1.00  0.00     0.059 A 
ATOM     73  C   UNL A   1      45.225  26.983  37.491  1.00  0.00     0.059 A 
ATOM     74  F   UNL A   1      42.928  27.078  37.027  1.00  0.00    -0.206 F 
ATOM     75  C   UNL A   1      46.515  27.455  37.254  1.00  0.00     0.060 A 
BRANCH  75  76
ATOM     76  S   UNL A   1      47.916  26.769  38.163  1.00  0.00     0.124 S 
ATOM     77  O   UNL A   1      49.039  27.204  37.342  1.00  0.00    -0.237 OA
ATOM     78  O   UNL A   1      47.785  27.417  39.464  1.00  0.00    -0.237 OA
ATOM     79  O   UNL A   1      47.648  25.333  38.157  1.00  0.00    -0.744 OA
ENDBRANCH  75  76
ENDBRANCH  43  68
BRANCH  55  80
ATOM     80  C   UNL A   1      39.929  33.773  37.400  1.00  0.00     0.058 A 
ATOM     81  C   UNL A   1      40.601  35.003  37.474  1.00  0.00     0.135 A 
ATOM     82  C   UNL A   1      39.056  33.439  38.448  1.00  0.00     0.135 A 
ATOM     83  F   UNL A   1      41.454  35.366  36.502  1.00  0.00    -0.206 F 
ATOM     84  C   UNL A   1      40.421  35.866  38.551  1.00  0.00     0.059 A 
ATOM     85  C   UNL A   1      38.842  34.297  39.523  1.00  0.00     0.059 A 
ATOM     86  F   UNL A   1      38.382  32.278  38.423  1.00  0.00    -0.206 F 
ATOM     87  C   UNL A   1      39.535  35.506  39.568  1.00  0.00     0.060 A 
BRANCH  87  88
ATOM     88  S   UNL A   1      39.271  36.659  40.932  1.00  0.00     0.124 S 
ATOM     89  O   UNL A   1      38.422  35.873  41.822  1.00  0.00    -0.237 OA
ATOM     90  O   UNL A   1      40.631  36.902  41.405  1.00  0.00    -0.237 OA
ATOM     91  O   UNL A   1      38.624  37.800  40.293  1.00  0.00    -0.744 OA
ENDBRANCH  87  88
ENDBRANCH  55  80
ENDBRANCH  29  30
ENDBRANCH  22  24
ENDBRANCH  21  22
ENDBRANCH  20  21
ENDBRANCH   1  20
TORSDOF 18
ENDMDL
