MODEL 1
REMARK VINA RESULT:     -10.0      0.000      0.000
REMARK SMILES O=C(C[C@@H](c1ccc(Cl)c(Cl)c1)N1Cc2ccccc2C1=O)OCCOCCOC(=O)c1ccc(-c2c3nc(c(-c4c(F)cc(S(=O)(=O)[O-])cc4F)c4ccc([nH]4)c(-c4c(F)cc(S(=O)(=O)[O-])cc4F)c4nc(c(-c5c(F)cc(S(=O)(=O)[O-])cc5F)c5ccc2[nH]5)C=C4)C=C3)cc1
REMARK SMILES IDX 27 1 26 2 25 3 24 4 23 5 2 6 1 7 3 8 4 9 5 10 6 11 12 12
REMARK SMILES IDX 7 13 10 14 8 15 11 16 9 17 13 18 14 19 21 20 15 21 20 22
REMARK SMILES IDX 22 23 16 24 19 25 17 26 18 27 28 28 29 29 30 30 31 31 32 32
REMARK SMILES IDX 33 33 97 34 34 35 96 36 35 37 36 38 37 39 90 40 38 41 95 42
REMARK SMILES IDX 89 43 91 44 39 45 94 46 88 47 87 48 40 50 74 51 53 52 73 53
REMARK SMILES IDX 54 54 57 55 72 56 92 57 55 58 56 59 71 61 93 62 58 63 41 64
REMARK SMILES IDX 42 65 51 66 43 67 44 68 50 69 52 70 45 71 46 72 47 73 48 74
REMARK SMILES IDX 49 75 75 76 76 77 85 78 77 79 78 80 84 81 86 82 79 83 80 84
REMARK SMILES IDX 81 85 82 86 83 87 59 88 60 89 69 90 61 91 62 92 68 93 70 94
REMARK SMILES IDX 63 95 64 96 65 97 66 98 67 99
REMARK H PARENT 91 49 57 60
REMARK Flexibility Score: inf
ROOT
ATOM      1  C   UNL A   1      33.900  34.734  29.252  1.00  0.00     0.202 C 
ENDROOT
BRANCH   1   2
ATOM      2  O   UNL A   1      33.369  34.478  30.555  1.00  0.00    -0.374 OA
BRANCH   2   3
ATOM      3  C   UNL A   1      33.687  35.452  31.536  1.00  0.00     0.202 C 
BRANCH   3   4
ATOM      4  C   UNL A   1      34.378  35.019  32.827  1.00  0.00     0.261 C 
BRANCH   4   5
ATOM      5  O   UNL A   1      35.755  34.670  32.718  1.00  0.00    -0.463 OA
BRANCH   5   6
ATOM      6  C   UNL A   1      36.012  33.343  32.578  1.00  0.00     0.308 C 
ATOM      7  O   UNL A   1      35.119  32.505  32.545  1.00  0.00    -0.252 OA
BRANCH   6   8
ATOM      8  C   UNL A   1      37.462  32.976  32.672  1.00  0.00     0.152 C 
BRANCH   8   9
ATOM      9  C   UNL A   1      37.868  32.176  33.914  1.00  0.00     0.127 C 
BRANCH   9  10
ATOM     10  C   UNL A   1      38.927  31.107  33.638  1.00  0.00    -0.023 A 
ATOM     11  C   UNL A   1      40.302  31.400  33.679  1.00  0.00     0.007 A 
ATOM     12  C   UNL A   1      38.537  29.803  33.273  1.00  0.00     0.028 A 
ATOM     13  C   UNL A   1      41.254  30.434  33.335  1.00  0.00     0.022 A 
ATOM     14  C   UNL A   1      39.491  28.843  32.898  1.00  0.00     0.060 A 
ATOM     15  C   UNL A   1      40.852  29.163  32.921  1.00  0.00     0.059 A 
ATOM     16  Cl  UNL A   1      38.913  27.308  32.358  1.00  0.00    -0.083 Cl
ATOM     17  Cl  UNL A   1      42.078  28.063  32.404  1.00  0.00    -0.083 Cl
ENDBRANCH   9  10
BRANCH   9  18
ATOM     18  N   UNL A   1      38.303  33.053  35.020  1.00  0.00    -0.327 N 
ATOM     19  C   UNL A   1      38.983  34.314  34.759  1.00  0.00     0.157 C 
ATOM     20  C   UNL A   1      38.083  32.852  36.377  1.00  0.00     0.255 C 
ATOM     21  C   UNL A   1      39.188  34.866  36.128  1.00  0.00    -0.016 A 
ATOM     22  C   UNL A   1      38.649  34.001  37.076  1.00  0.00     0.045 A 
ATOM     23  O   UNL A   1      37.545  31.929  36.960  1.00  0.00    -0.269 OA
ATOM     24  C   UNL A   1      39.791  36.041  36.533  1.00  0.00     0.006 A 
ATOM     25  C   UNL A   1      38.686  34.246  38.435  1.00  0.00     0.014 A 
ATOM     26  C   UNL A   1      39.847  36.315  37.906  1.00  0.00     0.000 A 
ATOM     27  C   UNL A   1      39.300  35.426  38.850  1.00  0.00     0.001 A 
ENDBRANCH   9  18
ENDBRANCH   8   9
ENDBRANCH   6   8
ENDBRANCH   5   6
ENDBRANCH   4   5
ENDBRANCH   3   4
ENDBRANCH   2   3
ENDBRANCH   1   2
BRANCH   1  28
ATOM     28  C   UNL A   1      34.552  33.519  28.572  1.00  0.00     0.261 C 
BRANCH  28  29
ATOM     29  O   UNL A   1      34.277  32.287  29.265  1.00  0.00    -0.460 OA
BRANCH  29  30
ATOM     30  C   UNL A   1      34.385  31.155  28.515  1.00  0.00     0.338 C 
ATOM     31  O   UNL A   1      33.588  30.743  27.690  1.00  0.00    -0.246 OA
BRANCH  30  32
ATOM     32  C   UNL A   1      35.765  30.618  28.659  1.00  0.00     0.060 A 
ATOM     33  C   UNL A   1      36.220  30.301  29.950  1.00  0.00     0.016 A 
ATOM     34  C   UNL A   1      36.562  30.338  27.549  1.00  0.00     0.016 A 
ATOM     35  C   UNL A   1      37.478  29.720  30.135  1.00  0.00     0.010 A 
ATOM     36  C   UNL A   1      37.829  29.779  27.736  1.00  0.00     0.010 A 
ATOM     37  C   UNL A   1      38.303  29.485  29.029  1.00  0.00    -0.014 A 
BRANCH  37  38
ATOM     38  C   UNL A   1      39.725  29.094  29.200  1.00  0.00     0.031 A 
ATOM     39  C   UNL A   1      40.714  30.172  29.549  1.00  0.00     0.074 A 
ATOM     40  C   UNL A   1      40.141  27.832  28.983  1.00  0.00     0.049 A 
ATOM     41  N   UNL A   1      42.020  30.130  29.557  1.00  0.00    -0.248 NA
ATOM     42  C   UNL A   1      40.151  31.479  29.931  1.00  0.00     0.031 C 
ATOM     43  C   UNL A   1      39.276  26.692  28.683  1.00  0.00     0.029 A 
ATOM     44  N   UNL A   1      41.411  27.307  28.945  1.00  0.00    -0.354 N 
ATOM     45  C   UNL A   1      42.435  31.409  29.908  1.00  0.00     0.074 A 
ATOM     46  C   UNL A   1      41.246  32.206  30.106  1.00  0.00     0.031 C 
ATOM     47  C   UNL A   1      40.042  25.613  28.447  1.00  0.00     0.029 A 
ATOM     48  C   UNL A   1      41.451  25.994  28.532  1.00  0.00     0.049 A 
ATOM     49  H   UNL A   1      42.215  27.820  29.189  1.00  0.00     0.167 HD
ATOM     50  C   UNL A   1      43.698  31.874  30.043  1.00  0.00     0.037 A 
ATOM     51  C   UNL A   1      42.502  25.212  28.209  1.00  0.00     0.037 A 
ATOM     52  C   UNL A   1      44.875  31.067  29.863  1.00  0.00     0.049 A 
ATOM     53  C   UNL A   1      43.901  25.776  28.306  1.00  0.00     0.074 A 
ATOM     54  C   UNL A   1      46.198  31.432  30.039  1.00  0.00     0.029 A 
ATOM     55  N   UNL A   1      44.874  29.744  29.449  1.00  0.00    -0.354 N 
ATOM     56  N   UNL A   1      44.285  26.970  28.691  1.00  0.00    -0.248 NA
ATOM     57  C   UNL A   1      45.010  24.892  27.916  1.00  0.00     0.031 C 
ATOM     58  C   UNL A   1      47.001  30.351  29.666  1.00  0.00     0.029 A 
ATOM     59  C   UNL A   1      46.177  29.292  29.318  1.00  0.00     0.049 A 
ATOM     60  H   UNL A   1      44.069  29.206  29.274  1.00  0.00     0.167 HD
ATOM     61  C   UNL A   1      45.676  26.970  28.611  1.00  0.00     0.074 A 
ATOM     62  C   UNL A   1      46.068  25.653  28.161  1.00  0.00     0.031 C 
ATOM     63  C   UNL A   1      46.550  27.971  28.880  1.00  0.00     0.037 A 
BRANCH  50  64
ATOM     64  C   UNL A   1      43.891  33.327  30.369  1.00  0.00     0.058 A 
ATOM     65  C   UNL A   1      44.019  33.783  31.689  1.00  0.00     0.135 A 
ATOM     66  C   UNL A   1      44.048  34.264  29.333  1.00  0.00     0.135 A 
ATOM     67  F   UNL A   1      43.856  32.935  32.717  1.00  0.00    -0.206 F 
ATOM     68  C   UNL A   1      44.301  35.116  31.972  1.00  0.00     0.059 A 
ATOM     69  C   UNL A   1      44.355  35.594  29.591  1.00  0.00     0.059 A 
ATOM     70  F   UNL A   1      43.924  33.879  28.053  1.00  0.00    -0.206 F 
ATOM     71  C   UNL A   1      44.480  36.012  30.914  1.00  0.00     0.060 A 
BRANCH  71  72
ATOM     72  S   UNL A   1      44.912  37.722  31.299  1.00  0.00     0.124 S 
ATOM     73  O   UNL A   1      44.933  38.323  29.969  1.00  0.00    -0.237 OA
ATOM     74  O   UNL A   1      43.810  38.133  32.162  1.00  0.00    -0.237 OA
ATOM     75  O   UNL A   1      46.211  37.608  31.954  1.00  0.00    -0.744 OA
ENDBRANCH  71  72
ENDBRANCH  50  64
BRANCH  51  76
ATOM     76  C   UNL A   1      42.288  23.828  27.693  1.00  0.00     0.058 A 
ATOM     77  C   UNL A   1      42.340  22.715  28.546  1.00  0.00     0.135 A 
ATOM     78  C   UNL A   1      42.083  23.588  26.324  1.00  0.00     0.135 A 
ATOM     79  F   UNL A   1      42.550  22.886  29.860  1.00  0.00    -0.206 F 
ATOM     80  C   UNL A   1      42.230  21.415  28.058  1.00  0.00     0.059 A 
ATOM     81  C   UNL A   1      41.938  22.299  25.818  1.00  0.00     0.059 A 
ATOM     82  F   UNL A   1      42.020  24.615  25.463  1.00  0.00    -0.206 F 
ATOM     83  C   UNL A   1      42.033  21.218  26.691  1.00  0.00     0.060 A 
BRANCH  83  84
ATOM     84  S   UNL A   1      41.889  19.528  26.069  1.00  0.00     0.124 S 
ATOM     85  O   UNL A   1      42.758  19.572  24.898  1.00  0.00    -0.237 OA
ATOM     86  O   UNL A   1      42.380  18.743  27.197  1.00  0.00    -0.237 OA
ATOM     87  O   UNL A   1      40.462  19.392  25.791  1.00  0.00    -0.744 OA
ENDBRANCH  83  84
ENDBRANCH  51  76
BRANCH  63  88
ATOM     88  C   UNL A   1      48.020  27.685  28.724  1.00  0.00     0.058 A 
ATOM     89  C   UNL A   1      48.735  26.959  29.689  1.00  0.00     0.135 A 
ATOM     90  C   UNL A   1      48.699  28.065  27.554  1.00  0.00     0.135 A 
ATOM     91  F   UNL A   1      48.136  26.576  30.828  1.00  0.00    -0.206 F 
ATOM     92  C   UNL A   1      50.075  26.631  29.506  1.00  0.00     0.059 A 
ATOM     93  C   UNL A   1      50.030  27.721  27.337  1.00  0.00     0.059 A 
ATOM     94  F   UNL A   1      48.059  28.750  26.593  1.00  0.00    -0.206 F 
ATOM     95  C   UNL A   1      50.711  27.009  28.323  1.00  0.00     0.060 A 
BRANCH  95  96
ATOM     96  S   UNL A   1      52.433  26.525  28.075  1.00  0.00     0.124 S 
ATOM     97  O   UNL A   1      52.912  26.425  29.449  1.00  0.00    -0.237 OA
ATOM     98  O   UNL A   1      52.300  25.262  27.356  1.00  0.00    -0.237 OA
ATOM     99  O   UNL A   1      52.989  27.627  27.296  1.00  0.00    -0.744 OA
ENDBRANCH  95  96
ENDBRANCH  63  88
ENDBRANCH  37  38
ENDBRANCH  30  32
ENDBRANCH  29  30
ENDBRANCH  28  29
ENDBRANCH   1  28
TORSDOF 20
ENDMDL
MODEL 2
REMARK VINA RESULT:      -9.5      5.691     12.885
REMARK SMILES O=C(C[C@@H](c1ccc(Cl)c(Cl)c1)N1Cc2ccccc2C1=O)OCCOCCOC(=O)c1ccc(-c2c3nc(c(-c4c(F)cc(S(=O)(=O)[O-])cc4F)c4ccc([nH]4)c(-c4c(F)cc(S(=O)(=O)[O-])cc4F)c4nc(c(-c5c(F)cc(S(=O)(=O)[O-])cc5F)c5ccc2[nH]5)C=C4)C=C3)cc1
REMARK SMILES IDX 27 1 26 2 25 3 24 4 23 5 2 6 1 7 3 8 4 9 5 10 6 11 12 12
REMARK SMILES IDX 7 13 10 14 8 15 11 16 9 17 13 18 14 19 21 20 15 21 20 22
REMARK SMILES IDX 22 23 16 24 19 25 17 26 18 27 28 28 29 29 30 30 31 31 32 32
REMARK SMILES IDX 33 33 97 34 34 35 96 36 35 37 36 38 37 39 90 40 38 41 95 42
REMARK SMILES IDX 89 43 91 44 39 45 94 46 88 47 87 48 40 50 74 51 53 52 73 53
REMARK SMILES IDX 54 54 57 55 72 56 92 57 55 58 56 59 71 61 93 62 58 63 41 64
REMARK SMILES IDX 42 65 51 66 43 67 44 68 50 69 52 70 45 71 46 72 47 73 48 74
REMARK SMILES IDX 49 75 75 76 76 77 85 78 77 79 78 80 84 81 86 82 79 83 80 84
REMARK SMILES IDX 81 85 82 86 83 87 59 88 60 89 69 90 61 91 62 92 68 93 70 94
REMARK SMILES IDX 63 95 64 96 65 97 66 98 67 99
REMARK H PARENT 91 49 57 60
REMARK Flexibility Score: inf
ROOT
ATOM      1  C   UNL A   1      41.047  22.266  27.593  1.00  0.00     0.202 C 
ENDROOT
BRANCH   1   2
ATOM      2  O   UNL A   1      40.036  21.311  27.261  1.00  0.00    -0.374 OA
BRANCH   2   3
ATOM      3  C   UNL A   1      39.496  21.435  25.955  1.00  0.00     0.202 C 
BRANCH   3   4
ATOM      4  C   UNL A   1      38.128  22.085  25.768  1.00  0.00     0.261 C 
BRANCH   4   5
ATOM      5  O   UNL A   1      37.424  21.742  24.576  1.00  0.00    -0.463 OA
BRANCH   5   6
ATOM      6  C   UNL A   1      36.728  22.755  23.998  1.00  0.00     0.308 C 
ATOM      7  O   UNL A   1      36.635  22.875  22.783  1.00  0.00    -0.252 OA
BRANCH   6   8
ATOM      8  C   UNL A   1      36.258  23.812  24.953  1.00  0.00     0.152 C 
BRANCH   8   9
ATOM      9  C   UNL A   1      34.897  23.561  25.609  1.00  0.00     0.127 C 
BRANCH   9  10
ATOM     10  C   UNL A   1      33.925  24.736  25.478  1.00  0.00    -0.023 A 
ATOM     11  C   UNL A   1      32.691  24.752  26.152  1.00  0.00     0.007 A 
ATOM     12  C   UNL A   1      34.228  25.811  24.621  1.00  0.00     0.028 A 
ATOM     13  C   UNL A   1      31.776  25.791  25.950  1.00  0.00     0.022 A 
ATOM     14  C   UNL A   1      33.296  26.838  24.394  1.00  0.00     0.060 A 
ATOM     15  C   UNL A   1      32.064  26.822  25.054  1.00  0.00     0.059 A 
ATOM     16  Cl  UNL A   1      33.709  28.054  23.240  1.00  0.00    -0.083 Cl
ATOM     17  Cl  UNL A   1      30.839  28.005  24.773  1.00  0.00    -0.083 Cl
ENDBRANCH   9  10
BRANCH   9  18
ATOM     18  N   UNL A   1      34.267  22.319  25.117  1.00  0.00    -0.327 N 
ATOM     19  C   UNL A   1      34.267  21.104  25.921  1.00  0.00     0.157 C 
ATOM     20  C   UNL A   1      33.568  22.155  23.928  1.00  0.00     0.255 C 
ATOM     21  C   UNL A   1      33.504  20.147  25.070  1.00  0.00    -0.016 A 
ATOM     22  C   UNL A   1      33.091  20.776  23.899  1.00  0.00     0.045 A 
ATOM     23  O   UNL A   1      33.354  22.941  23.024  1.00  0.00    -0.269 OA
ATOM     24  C   UNL A   1      33.179  18.823  25.292  1.00  0.00     0.006 A 
ATOM     25  C   UNL A   1      32.361  20.140  22.914  1.00  0.00     0.014 A 
ATOM     26  C   UNL A   1      32.443  18.150  24.308  1.00  0.00     0.000 A 
ATOM     27  C   UNL A   1      32.037  18.802  23.128  1.00  0.00     0.001 A 
ENDBRANCH   9  18
ENDBRANCH   8   9
ENDBRANCH   6   8
ENDBRANCH   5   6
ENDBRANCH   4   5
ENDBRANCH   3   4
ENDBRANCH   2   3
ENDBRANCH   1   2
BRANCH   1  28
ATOM     28  C   UNL A   1      41.653  23.008  26.389  1.00  0.00     0.261 C 
BRANCH  28  29
ATOM     29  O   UNL A   1      41.196  24.370  26.296  1.00  0.00    -0.460 OA
BRANCH  29  30
ATOM     30  C   UNL A   1      42.151  25.323  26.482  1.00  0.00     0.338 C 
ATOM     31  O   UNL A   1      43.057  25.613  25.719  1.00  0.00    -0.246 OA
BRANCH  30  32
ATOM     32  C   UNL A   1      41.771  26.157  27.653  1.00  0.00     0.060 A 
ATOM     33  C   UNL A   1      42.559  27.284  27.946  1.00  0.00     0.016 A 
ATOM     34  C   UNL A   1      40.615  25.902  28.392  1.00  0.00     0.016 A 
ATOM     35  C   UNL A   1      42.201  28.147  28.986  1.00  0.00     0.010 A 
ATOM     36  C   UNL A   1      40.272  26.752  29.447  1.00  0.00     0.010 A 
ATOM     37  C   UNL A   1      41.072  27.867  29.764  1.00  0.00    -0.014 A 
BRANCH  37  38
ATOM     38  C   UNL A   1      40.794  28.617  31.014  1.00  0.00     0.031 A 
ATOM     39  C   UNL A   1      39.692  29.642  30.988  1.00  0.00     0.074 A 
ATOM     40  C   UNL A   1      41.539  28.446  32.122  1.00  0.00     0.049 A 
ATOM     41  N   UNL A   1      39.387  30.555  31.871  1.00  0.00    -0.248 NA
ATOM     42  C   UNL A   1      38.825  29.642  29.797  1.00  0.00     0.031 C 
ATOM     43  C   UNL A   1      42.603  27.456  32.285  1.00  0.00     0.029 A 
ATOM     44  N   UNL A   1      41.538  29.136  33.312  1.00  0.00    -0.354 N 
ATOM     45  C   UNL A   1      38.320  31.260  31.329  1.00  0.00     0.074 A 
ATOM     46  C   UNL A   1      38.026  30.671  30.042  1.00  0.00     0.031 C 
ATOM     47  C   UNL A   1      43.182  27.631  33.486  1.00  0.00     0.029 A 
ATOM     48  C   UNL A   1      42.562  28.774  34.158  1.00  0.00     0.049 A 
ATOM     49  H   UNL A   1      40.869  29.822  33.537  1.00  0.00     0.167 HD
ATOM     50  C   UNL A   1      37.652  32.310  31.859  1.00  0.00     0.037 A 
ATOM     51  C   UNL A   1      42.983  29.336  35.310  1.00  0.00     0.037 A 
ATOM     52  C   UNL A   1      37.938  32.876  33.150  1.00  0.00     0.049 A 
ATOM     53  C   UNL A   1      42.259  30.549  35.848  1.00  0.00     0.074 A 
ATOM     54  C   UNL A   1      37.275  33.902  33.801  1.00  0.00     0.029 A 
ATOM     55  N   UNL A   1      38.979  32.482  33.976  1.00  0.00    -0.354 N 
ATOM     56  N   UNL A   1      41.216  31.174  35.355  1.00  0.00    -0.248 NA
ATOM     57  C   UNL A   1      42.773  31.140  37.093  1.00  0.00     0.031 C 
ATOM     58  C   UNL A   1      37.957  34.174  34.990  1.00  0.00     0.029 A 
ATOM     59  C   UNL A   1      39.005  33.275  35.110  1.00  0.00     0.049 A 
ATOM     60  H   UNL A   1      39.605  31.747  33.785  1.00  0.00     0.167 HD
ATOM     61  C   UNL A   1      40.939  32.214  36.240  1.00  0.00     0.074 A 
ATOM     62  C   UNL A   1      41.909  32.123  37.309  1.00  0.00     0.031 C 
ATOM     63  C   UNL A   1      39.972  33.162  36.173  1.00  0.00     0.037 A 
BRANCH  50  64
ATOM     64  C   UNL A   1      36.565  32.949  31.042  1.00  0.00     0.058 A 
ATOM     65  C   UNL A   1      35.206  32.782  31.349  1.00  0.00     0.135 A 
ATOM     66  C   UNL A   1      36.898  33.822  29.993  1.00  0.00     0.135 A 
ATOM     67  F   UNL A   1      34.832  31.941  32.327  1.00  0.00    -0.206 F 
ATOM     68  C   UNL A   1      34.216  33.462  30.648  1.00  0.00     0.059 A 
ATOM     69  C   UNL A   1      35.927  34.532  29.296  1.00  0.00     0.059 A 
ATOM     70  F   UNL A   1      38.183  34.009  29.653  1.00  0.00    -0.206 F 
ATOM     71  C   UNL A   1      34.587  34.345  29.631  1.00  0.00     0.060 A 
BRANCH  71  72
ATOM     72  S   UNL A   1      33.292  35.270  28.778  1.00  0.00     0.124 S 
ATOM     73  O   UNL A   1      32.523  35.797  29.901  1.00  0.00    -0.237 OA
ATOM     74  O   UNL A   1      34.060  36.251  28.020  1.00  0.00    -0.237 OA
ATOM     75  O   UNL A   1      32.616  34.253  27.979  1.00  0.00    -0.744 OA
ENDBRANCH  71  72
ENDBRANCH  50  64
BRANCH  51  76
ATOM     76  C   UNL A   1      44.190  28.813  36.013  1.00  0.00     0.058 A 
ATOM     77  C   UNL A   1      44.100  27.759  36.935  1.00  0.00     0.135 A 
ATOM     78  C   UNL A   1      45.453  29.397  35.817  1.00  0.00     0.135 A 
ATOM     79  F   UNL A   1      42.915  27.177  37.173  1.00  0.00    -0.206 F 
ATOM     80  C   UNL A   1      45.207  27.325  37.661  1.00  0.00     0.059 A 
ATOM     81  C   UNL A   1      46.580  28.960  36.507  1.00  0.00     0.059 A 
ATOM     82  F   UNL A   1      45.600  30.405  34.944  1.00  0.00    -0.206 F 
ATOM     83  C   UNL A   1      46.443  27.935  37.442  1.00  0.00     0.060 A 
BRANCH  83  84
ATOM     84  S   UNL A   1      47.873  27.364  38.385  1.00  0.00     0.124 S 
ATOM     85  O   UNL A   1      48.775  26.940  37.322  1.00  0.00    -0.237 OA
ATOM     86  O   UNL A   1      48.263  28.570  39.110  1.00  0.00    -0.237 OA
ATOM     87  O   UNL A   1      47.324  26.294  39.213  1.00  0.00    -0.744 OA
ENDBRANCH  83  84
ENDBRANCH  51  76
BRANCH  63  88
ATOM     88  C   UNL A   1      39.890  34.166  37.292  1.00  0.00     0.058 A 
ATOM     89  C   UNL A   1      40.499  35.426  37.197  1.00  0.00     0.135 A 
ATOM     90  C   UNL A   1      39.118  33.897  38.435  1.00  0.00     0.135 A 
ATOM     91  F   UNL A   1      41.252  35.734  36.129  1.00  0.00    -0.206 F 
ATOM     92  C   UNL A   1      40.357  36.380  38.200  1.00  0.00     0.059 A 
ATOM     93  C   UNL A   1      38.938  34.846  39.436  1.00  0.00     0.059 A 
ATOM     94  F   UNL A   1      38.504  32.710  38.572  1.00  0.00    -0.206 F 
ATOM     95  C   UNL A   1      39.568  36.083  39.312  1.00  0.00     0.060 A 
BRANCH  95  96
ATOM     96  S   UNL A   1      39.345  37.353  40.577  1.00  0.00     0.124 S 
ATOM     97  O   UNL A   1      38.961  36.553  41.734  1.00  0.00    -0.237 OA
ATOM     98  O   UNL A   1      40.668  37.965  40.639  1.00  0.00    -0.237 OA
ATOM     99  O   UNL A   1      38.293  38.203  40.025  1.00  0.00    -0.744 OA
ENDBRANCH  95  96
ENDBRANCH  63  88
ENDBRANCH  37  38
ENDBRANCH  30  32
ENDBRANCH  29  30
ENDBRANCH  28  29
ENDBRANCH   1  28
TORSDOF 20
ENDMDL
MODEL 3
REMARK VINA RESULT:      -9.5      4.887     11.662
REMARK SMILES O=C(C[C@@H](c1ccc(Cl)c(Cl)c1)N1Cc2ccccc2C1=O)OCCOCCOC(=O)c1ccc(-c2c3nc(c(-c4c(F)cc(S(=O)(=O)[O-])cc4F)c4ccc([nH]4)c(-c4c(F)cc(S(=O)(=O)[O-])cc4F)c4nc(c(-c5c(F)cc(S(=O)(=O)[O-])cc5F)c5ccc2[nH]5)C=C4)C=C3)cc1
REMARK SMILES IDX 27 1 26 2 25 3 24 4 23 5 2 6 1 7 3 8 4 9 5 10 6 11 12 12
REMARK SMILES IDX 7 13 10 14 8 15 11 16 9 17 13 18 14 19 21 20 15 21 20 22
REMARK SMILES IDX 22 23 16 24 19 25 17 26 18 27 28 28 29 29 30 30 31 31 32 32
REMARK SMILES IDX 33 33 97 34 34 35 96 36 35 37 36 38 37 39 90 40 38 41 95 42
REMARK SMILES IDX 89 43 91 44 39 45 94 46 88 47 87 48 40 50 74 51 53 52 73 53
REMARK SMILES IDX 54 54 57 55 72 56 92 57 55 58 56 59 71 61 93 62 58 63 41 64
REMARK SMILES IDX 42 65 51 66 43 67 44 68 50 69 52 70 45 71 46 72 47 73 48 74
REMARK SMILES IDX 49 75 75 76 76 77 85 78 77 79 78 80 84 81 86 82 79 83 80 84
REMARK SMILES IDX 81 85 82 86 83 87 59 88 60 89 69 90 61 91 62 92 68 93 70 94
REMARK SMILES IDX 63 95 64 96 65 97 66 98 67 99
REMARK H PARENT 91 49 57 60
REMARK Flexibility Score: inf
ROOT
ATOM      1  C   UNL A   1      37.492  21.450  24.348  1.00  0.00     0.202 C 
ENDROOT
BRANCH   1   2
ATOM      2  O   UNL A   1      36.822  22.236  23.360  1.00  0.00    -0.374 OA
BRANCH   2   3
ATOM      3  C   UNL A   1      35.461  22.522  23.639  1.00  0.00     0.202 C 
BRANCH   3   4
ATOM      4  C   UNL A   1      34.955  23.957  23.512  1.00  0.00     0.261 C 
BRANCH   4   5
ATOM      5  O   UNL A   1      33.931  24.181  22.546  1.00  0.00    -0.463 OA
BRANCH   5   6
ATOM      6  C   UNL A   1      33.581  25.480  22.357  1.00  0.00     0.308 C 
ATOM      7  O   UNL A   1      33.281  25.922  21.255  1.00  0.00    -0.252 OA
BRANCH   6   8
ATOM      8  C   UNL A   1      33.787  26.360  23.553  1.00  0.00     0.152 C 
BRANCH   8   9
ATOM      9  C   UNL A   1      32.513  26.895  24.215  1.00  0.00     0.127 C 
BRANCH   9  10
ATOM     10  C   UNL A   1      31.709  25.825  24.956  1.00  0.00    -0.023 A 
ATOM     11  C   UNL A   1      30.306  25.874  25.030  1.00  0.00     0.007 A 
ATOM     12  C   UNL A   1      32.374  24.788  25.640  1.00  0.00     0.028 A 
ATOM     13  C   UNL A   1      29.593  24.939  25.788  1.00  0.00     0.022 A 
ATOM     14  C   UNL A   1      31.661  23.868  26.426  1.00  0.00     0.060 A 
ATOM     15  C   UNL A   1      30.267  23.950  26.507  1.00  0.00     0.059 A 
ATOM     16  Cl  UNL A   1      32.569  22.702  27.318  1.00  0.00    -0.083 Cl
ATOM     17  Cl  UNL A   1      29.327  22.905  27.508  1.00  0.00    -0.083 Cl
ENDBRANCH   9  10
BRANCH   9  18
ATOM     18  N   UNL A   1      32.792  28.036  25.110  1.00  0.00    -0.327 N 
ATOM     19  C   UNL A   1      33.995  28.076  25.931  1.00  0.00     0.157 C 
ATOM     20  C   UNL A   1      32.035  29.194  25.242  1.00  0.00     0.255 C 
ATOM     21  C   UNL A   1      33.881  29.394  26.617  1.00  0.00    -0.016 A 
ATOM     22  C   UNL A   1      32.726  30.050  26.202  1.00  0.00     0.045 A 
ATOM     23  O   UNL A   1      30.987  29.516  24.713  1.00  0.00    -0.269 OA
ATOM     24  C   UNL A   1      34.721  29.994  27.534  1.00  0.00     0.006 A 
ATOM     25  C   UNL A   1      32.353  31.296  26.665  1.00  0.00     0.014 A 
ATOM     26  C   UNL A   1      34.366  31.257  28.026  1.00  0.00     0.000 A 
ATOM     27  C   UNL A   1      33.192  31.904  27.596  1.00  0.00     0.001 A 
ENDBRANCH   9  18
ENDBRANCH   8   9
ENDBRANCH   6   8
ENDBRANCH   5   6
ENDBRANCH   4   5
ENDBRANCH   3   4
ENDBRANCH   2   3
ENDBRANCH   1   2
BRANCH   1  28
ATOM     28  C   UNL A   1      37.482  22.049  25.765  1.00  0.00     0.261 C 
BRANCH  28  29
ATOM     29  O   UNL A   1      38.172  23.311  25.833  1.00  0.00    -0.460 OA
BRANCH  29  30
ATOM     30  C   UNL A   1      39.412  23.272  26.396  1.00  0.00     0.338 C 
ATOM     31  O   UNL A   1      40.306  22.482  26.145  1.00  0.00    -0.246 OA
BRANCH  30  32
ATOM     32  C   UNL A   1      39.616  24.515  27.186  1.00  0.00     0.060 A 
ATOM     33  C   UNL A   1      40.451  25.510  26.649  1.00  0.00     0.016 A 
ATOM     34  C   UNL A   1      38.932  24.746  28.380  1.00  0.00     0.016 A 
ATOM     35  C   UNL A   1      40.615  26.730  27.312  1.00  0.00     0.010 A 
ATOM     36  C   UNL A   1      39.116  25.957  29.054  1.00  0.00     0.010 A 
ATOM     37  C   UNL A   1      39.973  26.947  28.536  1.00  0.00    -0.014 A 
BRANCH  37  38
ATOM     38  C   UNL A   1      40.304  28.121  29.381  1.00  0.00     0.031 A 
ATOM     39  C   UNL A   1      41.495  28.017  30.295  1.00  0.00     0.074 A 
ATOM     40  C   UNL A   1      39.532  29.224  29.393  1.00  0.00     0.049 A 
ATOM     41  N   UNL A   1      41.872  28.811  31.262  1.00  0.00    -0.248 NA
ATOM     42  C   UNL A   1      42.374  26.851  30.095  1.00  0.00     0.031 C 
ATOM     43  C   UNL A   1      38.379  29.462  28.525  1.00  0.00     0.029 A 
ATOM     44  N   UNL A   1      39.581  30.339  30.197  1.00  0.00    -0.354 N 
ATOM     45  C   UNL A   1      43.007  28.224  31.808  1.00  0.00     0.074 A 
ATOM     46  C   UNL A   1      43.261  27.010  31.067  1.00  0.00     0.031 C 
ATOM     47  C   UNL A   1      37.804  30.627  28.873  1.00  0.00     0.029 A 
ATOM     48  C   UNL A   1      38.518  31.194  30.017  1.00  0.00     0.049 A 
ATOM     49  H   UNL A   1      40.308  30.509  30.839  1.00  0.00     0.167 HD
ATOM     50  C   UNL A   1      43.762  28.661  32.842  1.00  0.00     0.037 A 
ATOM     51  C   UNL A   1      38.136  32.275  30.729  1.00  0.00     0.037 A 
ATOM     52  C   UNL A   1      43.513  29.882  33.560  1.00  0.00     0.049 A 
ATOM     53  C   UNL A   1      38.962  32.704  31.920  1.00  0.00     0.074 A 
ATOM     54  C   UNL A   1      44.259  30.442  34.582  1.00  0.00     0.029 A 
ATOM     55  N   UNL A   1      42.430  30.720  33.347  1.00  0.00    -0.354 N 
ATOM     56  N   UNL A   1      40.064  32.174  32.395  1.00  0.00    -0.248 NA
ATOM     57  C   UNL A   1      38.489  33.872  32.679  1.00  0.00     0.031 C 
ATOM     58  C   UNL A   1      43.591  31.582  35.034  1.00  0.00     0.029 A 
ATOM     59  C   UNL A   1      42.463  31.769  34.251  1.00  0.00     0.049 A 
ATOM     60  H   UNL A   1      41.741  30.590  32.657  1.00  0.00     0.167 HD
ATOM     61  C   UNL A   1      40.425  32.956  33.490  1.00  0.00     0.074 A 
ATOM     62  C   UNL A   1      39.437  34.007  33.596  1.00  0.00     0.031 C 
ATOM     63  C   UNL A   1      41.476  32.816  34.335  1.00  0.00     0.037 A 
BRANCH  50  64
ATOM     64  C   UNL A   1      44.914  27.809  33.293  1.00  0.00     0.058 A 
ATOM     65  C   UNL A   1      44.776  26.843  34.301  1.00  0.00     0.135 A 
ATOM     66  C   UNL A   1      46.152  27.897  32.633  1.00  0.00     0.135 A 
ATOM     67  F   UNL A   1      43.622  26.733  34.979  1.00  0.00    -0.206 F 
ATOM     68  C   UNL A   1      45.822  25.991  34.636  1.00  0.00     0.059 A 
ATOM     69  C   UNL A   1      47.202  27.038  32.934  1.00  0.00     0.059 A 
ATOM     70  F   UNL A   1      46.338  28.811  31.669  1.00  0.00    -0.206 F 
ATOM     71  C   UNL A   1      47.029  26.087  33.938  1.00  0.00     0.060 A 
BRANCH  71  72
ATOM     72  S   UNL A   1      48.353  24.928  34.340  1.00  0.00     0.124 S 
ATOM     73  O   UNL A   1      49.290  25.164  33.247  1.00  0.00    -0.237 OA
ATOM     74  O   UNL A   1      48.783  25.393  35.655  1.00  0.00    -0.237 OA
ATOM     75  O   UNL A   1      47.687  23.629  34.324  1.00  0.00    -0.744 OA
ENDBRANCH  71  72
ENDBRANCH  50  64
BRANCH  51  76
ATOM     76  C   UNL A   1      36.877  33.000  30.392  1.00  0.00     0.058 A 
ATOM     77  C   UNL A   1      36.835  33.951  29.362  1.00  0.00     0.135 A 
ATOM     78  C   UNL A   1      35.701  32.795  31.133  1.00  0.00     0.135 A 
ATOM     79  F   UNL A   1      37.934  34.199  28.633  1.00  0.00    -0.206 F 
ATOM     80  C   UNL A   1      35.687  34.696  29.100  1.00  0.00     0.059 A 
ATOM     81  C   UNL A   1      34.532  33.503  30.870  1.00  0.00     0.059 A 
ATOM     82  F   UNL A   1      35.681  31.893  32.128  1.00  0.00    -0.206 F 
ATOM     83  C   UNL A   1      34.542  34.467  29.863  1.00  0.00     0.060 A 
BRANCH  83  84
ATOM     84  S   UNL A   1      33.058  35.435  29.514  1.00  0.00     0.124 S 
ATOM     85  O   UNL A   1      32.338  35.335  30.778  1.00  0.00    -0.237 OA
ATOM     86  O   UNL A   1      33.614  36.748  29.200  1.00  0.00    -0.237 OA
ATOM     87  O   UNL A   1      32.454  34.732  28.387  1.00  0.00    -0.744 OA
ENDBRANCH  83  84
ENDBRANCH  51  76
BRANCH  63  88
ATOM     88  C   UNL A   1      41.636  33.830  35.436  1.00  0.00     0.058 A 
ATOM     89  C   UNL A   1      41.079  33.630  36.708  1.00  0.00     0.135 A 
ATOM     90  C   UNL A   1      42.432  34.972  35.241  1.00  0.00     0.135 A 
ATOM     91  F   UNL A   1      40.307  32.559  36.947  1.00  0.00    -0.206 F 
ATOM     92  C   UNL A   1      41.293  34.533  37.745  1.00  0.00     0.059 A 
ATOM     93  C   UNL A   1      42.684  35.872  36.272  1.00  0.00     0.059 A 
ATOM     94  F   UNL A   1      42.998  35.206  34.047  1.00  0.00    -0.206 F 
ATOM     95  C   UNL A   1      42.104  35.647  37.520  1.00  0.00     0.060 A 
BRANCH  95  96
ATOM     96  S   UNL A   1      42.420  36.776  38.892  1.00  0.00     0.124 S 
ATOM     97  O   UNL A   1      41.184  37.549  38.929  1.00  0.00    -0.237 OA
ATOM     98  O   UNL A   1      42.629  35.860  40.008  1.00  0.00    -0.237 OA
ATOM     99  O   UNL A   1      43.607  37.511  38.462  1.00  0.00    -0.744 OA
ENDBRANCH  95  96
ENDBRANCH  63  88
ENDBRANCH  37  38
ENDBRANCH  30  32
ENDBRANCH  29  30
ENDBRANCH  28  29
ENDBRANCH   1  28
TORSDOF 20
ENDMDL
