MODEL 1
REMARK VINA RESULT:     -11.7      0.000      0.000
REMARK SMILES COC(=O)c1c(NC(=O)[C@@H]2C[C@@H]2C(=O)OCCOCCOC(=O)c2ccc(-c3c4nc(c(-c5c(F)cc(S(=O)(=O)[O-])cc5F)c5ccc([nH]5)c(-c5c(F)cc(S(=O)(=O)[O-])cc5F)c5nc(c(-c6c(F)cc(S(=O)(=O)[O-])cc6F)c6ccc3[nH]6)C=C5)C=C4)cc2)sc2c1CC[N@@H+](Cc1ccccc1)C2
REMARK SMILES IDX 17 1 16 2 15 3 13 4 14 5 12 6 10 7 11 8 8 9 7 10 9 12 6 13
REMARK SMILES IDX 5 14 92 15 90 16 91 17 93 18 103 19 94 20 95 21 3 23 4 24
REMARK SMILES IDX 2 25 1 26 96 27 97 28 98 29 102 30 99 31 101 32 100 33 18 34
REMARK SMILES IDX 19 35 20 36 21 37 22 38 23 39 24 40 25 41 89 42 26 43 88 44
REMARK SMILES IDX 27 45 28 46 29 47 82 48 30 49 87 50 81 51 83 52 31 53 86 54
REMARK SMILES IDX 80 55 79 56 32 58 66 59 45 60 65 61 46 62 49 63 64 64 84 65
REMARK SMILES IDX 47 66 48 67 63 69 85 70 50 71 33 72 34 73 43 74 35 75 36 76
REMARK SMILES IDX 42 77 44 78 37 79 38 80 39 81 40 82 41 83 67 84 68 85 77 86
REMARK SMILES IDX 69 87 70 88 76 89 78 90 71 91 72 92 73 93 74 94 75 95 51 96
REMARK SMILES IDX 52 97 61 98 53 99 54 100 60 101 62 102 55 103 56 104 57 105
REMARK SMILES IDX 58 106 59 107
REMARK H PARENT 7 11 95 22 83 57 49 68
REMARK Flexibility Score: inf
ROOT
ATOM      1  C   UNL A   1      40.112  21.135  26.898  1.00  0.00     0.202 C 
ENDROOT
BRANCH   1   2
ATOM      2  C   UNL A   1      39.401  21.179  25.547  1.00  0.00     0.261 C 
BRANCH   2   3
ATOM      3  O   UNL A   1      38.295  20.249  25.430  1.00  0.00    -0.463 OA
BRANCH   3   4
ATOM      4  C   UNL A   1      37.161  20.803  24.927  1.00  0.00     0.309 C 
ATOM      5  O   UNL A   1      36.041  20.313  25.012  1.00  0.00    -0.252 OA
BRANCH   4   6
ATOM      6  C   UNL A   1      37.305  22.094  24.203  1.00  0.00     0.112 C 
ATOM      7  C   UNL A   1      36.637  23.470  24.255  1.00  0.00     0.094 C 
ATOM      8  C   UNL A   1      36.019  22.394  23.463  1.00  0.00     0.030 C 
BRANCH   7   9
ATOM      9  C   UNL A   1      36.234  24.042  25.537  1.00  0.00     0.229 C 
ATOM     10  N   UNL A   1      35.055  24.678  25.784  1.00  0.00    -0.317 N 
ATOM     11  H   UNL A   1      35.103  25.165  26.638  1.00  0.00     0.170 HD
ATOM     12  O   UNL A   1      37.087  24.059  26.426  1.00  0.00    -0.274 OA
BRANCH  10  13
ATOM     13  C   UNL A   1      33.818  24.849  25.209  1.00  0.00     0.110 A 
ATOM     14  C   UNL A   1      32.473  24.547  25.363  1.00  0.00     0.098 A 
ATOM     15  C   UNL A   1      31.661  25.327  24.425  1.00  0.00    -0.006 A 
ATOM     16  S   UNL A   1      34.078  25.881  23.851  1.00  0.00    -0.116 S 
ATOM     17  C   UNL A   1      32.431  26.169  23.651  1.00  0.00     0.065 A 
ATOM     18  C   UNL A   1      30.154  25.400  24.331  1.00  0.00     0.099 C 
ATOM     19  C   UNL A   1      31.916  27.245  22.739  1.00  0.00     0.310 C 
ATOM     20  C   UNL A   1      29.669  26.419  23.257  1.00  0.00     0.267 C 
ATOM     21  N   UNL A   1      30.517  27.598  23.027  1.00  0.00    -0.326 N 
ATOM     22  H   UNL A   1      30.156  27.988  22.157  1.00  0.00     0.348 HD
BRANCH  14  23
ATOM     23  C   UNL A   1      31.892  23.655  26.356  1.00  0.00     0.341 C 
ATOM     24  O   UNL A   1      31.450  24.014  27.426  1.00  0.00    -0.246 OA
BRANCH  23  25
ATOM     25  O   UNL A   1      31.886  22.365  25.892  1.00  0.00    -0.465 OA
ATOM     26  C   UNL A   1      32.996  21.523  26.216  1.00  0.00     0.282 C 
ENDBRANCH  23  25
ENDBRANCH  14  23
BRANCH  21  27
ATOM     27  C   UNL A   1      30.297  28.772  23.886  1.00  0.00     0.299 C 
BRANCH  27  28
ATOM     28  C   UNL A   1      29.450  29.895  23.327  1.00  0.00     0.006 A 
ATOM     29  C   UNL A   1      29.406  31.154  23.946  1.00  0.00     0.009 A 
ATOM     30  C   UNL A   1      28.728  29.723  22.149  1.00  0.00     0.009 A 
ATOM     31  C   UNL A   1      28.738  32.226  23.345  1.00  0.00     0.001 A 
ATOM     32  C   UNL A   1      28.150  30.816  21.504  1.00  0.00     0.001 A 
ATOM     33  C   UNL A   1      28.140  32.066  22.102  1.00  0.00     0.000 A 
ENDBRANCH  27  28
ENDBRANCH  21  27
ENDBRANCH  10  13
ENDBRANCH   7   9
ENDBRANCH   4   6
ENDBRANCH   3   4
ENDBRANCH   2   3
ENDBRANCH   1   2
BRANCH   1  34
ATOM     34  O   UNL A   1      41.502  20.805  26.863  1.00  0.00    -0.374 OA
BRANCH  34  35
ATOM     35  C   UNL A   1      41.850  19.450  26.624  1.00  0.00     0.202 C 
BRANCH  35  36
ATOM     36  C   UNL A   1      42.996  19.211  25.658  1.00  0.00     0.261 C 
BRANCH  36  37
ATOM     37  O   UNL A   1      43.280  20.343  24.869  1.00  0.00    -0.460 OA
BRANCH  37  38
ATOM     38  C   UNL A   1      44.585  20.688  24.822  1.00  0.00     0.338 C 
ATOM     39  O   UNL A   1      45.548  19.951  24.727  1.00  0.00    -0.246 OA
BRANCH  38  40
ATOM     40  C   UNL A   1      44.629  22.115  25.151  1.00  0.00     0.060 A 
ATOM     41  C   UNL A   1      45.444  22.488  26.215  1.00  0.00     0.016 A 
ATOM     42  C   UNL A   1      43.659  22.977  24.614  1.00  0.00     0.016 A 
ATOM     43  C   UNL A   1      45.161  23.669  26.861  1.00  0.00     0.010 A 
ATOM     44  C   UNL A   1      43.329  24.117  25.297  1.00  0.00     0.010 A 
ATOM     45  C   UNL A   1      44.058  24.420  26.440  1.00  0.00    -0.014 A 
BRANCH  45  46
ATOM     46  C   UNL A   1      43.766  25.631  27.159  1.00  0.00     0.031 A 
ATOM     47  C   UNL A   1      44.742  26.710  26.903  1.00  0.00     0.074 A 
ATOM     48  C   UNL A   1      42.641  25.800  27.868  1.00  0.00     0.049 A 
ATOM     49  N   UNL A   1      45.681  27.137  27.679  1.00  0.00    -0.248 NA
ATOM     50  C   UNL A   1      44.809  27.230  25.529  1.00  0.00     0.031 C 
ATOM     51  C   UNL A   1      41.424  24.991  27.862  1.00  0.00     0.029 A 
ATOM     52  N   UNL A   1      42.326  26.841  28.670  1.00  0.00    -0.354 N 
ATOM     53  C   UNL A   1      46.321  28.137  26.955  1.00  0.00     0.074 A 
ATOM     54  C   UNL A   1      45.920  27.959  25.588  1.00  0.00     0.031 C 
ATOM     55  C   UNL A   1      40.432  25.703  28.447  1.00  0.00     0.029 A 
ATOM     56  C   UNL A   1      40.980  26.952  28.956  1.00  0.00     0.049 A 
ATOM     57  H   UNL A   1      43.001  27.467  29.021  1.00  0.00     0.167 HD
ATOM     58  C   UNL A   1      46.914  29.197  27.568  1.00  0.00     0.037 A 
ATOM     59  C   UNL A   1      40.388  28.068  29.449  1.00  0.00     0.037 A 
ATOM     60  C   UNL A   1      47.130  28.929  28.971  1.00  0.00     0.049 A 
ATOM     61  C   UNL A   1      41.469  28.921  30.037  1.00  0.00     0.074 A 
ATOM     62  C   UNL A   1      47.796  27.942  29.674  1.00  0.00     0.029 A 
ATOM     63  N   UNL A   1      46.292  29.529  29.884  1.00  0.00    -0.354 N 
ATOM     64  N   UNL A   1      42.184  28.592  31.083  1.00  0.00    -0.248 NA
ATOM     65  C   UNL A   1      42.064  29.946  29.189  1.00  0.00     0.031 C 
ATOM     66  C   UNL A   1      46.984  27.685  30.818  1.00  0.00     0.029 A 
ATOM     67  C   UNL A   1      45.895  28.556  30.767  1.00  0.00     0.049 A 
ATOM     68  H   UNL A   1      46.027  30.477  29.900  1.00  0.00     0.167 HD
ATOM     69  C   UNL A   1      43.463  29.071  30.822  1.00  0.00     0.074 A 
ATOM     70  C   UNL A   1      43.304  29.970  29.683  1.00  0.00     0.031 C 
ATOM     71  C   UNL A   1      44.577  28.489  31.365  1.00  0.00     0.037 A 
BRANCH  58  72
ATOM     72  C   UNL A   1      46.943  30.598  26.987  1.00  0.00     0.058 A 
ATOM     73  C   UNL A   1      48.169  31.294  26.963  1.00  0.00     0.135 A 
ATOM     74  C   UNL A   1      45.798  31.386  26.716  1.00  0.00     0.135 A 
ATOM     75  F   UNL A   1      49.326  30.651  27.182  1.00  0.00    -0.206 F 
ATOM     76  C   UNL A   1      48.239  32.679  26.807  1.00  0.00     0.059 A 
ATOM     77  C   UNL A   1      45.854  32.756  26.496  1.00  0.00     0.059 A 
ATOM     78  F   UNL A   1      44.552  30.906  26.746  1.00  0.00    -0.206 F 
ATOM     79  C   UNL A   1      47.068  33.403  26.605  1.00  0.00     0.060 A 
BRANCH  79  80
ATOM     80  S   UNL A   1      47.122  35.200  26.586  1.00  0.00     0.124 S 
ATOM     81  O   UNL A   1      45.713  35.524  26.399  1.00  0.00    -0.237 OA
ATOM     82  O   UNL A   1      47.683  35.501  27.899  1.00  0.00    -0.237 OA
ATOM     83  O   UNL A   1      47.996  35.497  25.454  1.00  0.00    -0.744 OA
ENDBRANCH  79  80
ENDBRANCH  58  72
BRANCH  59  84
ATOM     84  C   UNL A   1      39.049  28.593  29.071  1.00  0.00     0.058 A 
ATOM     85  C   UNL A   1      38.051  28.788  30.040  1.00  0.00     0.135 A 
ATOM     86  C   UNL A   1      38.792  29.145  27.797  1.00  0.00     0.135 A 
ATOM     87  F   UNL A   1      38.224  28.327  31.288  1.00  0.00    -0.206 F 
ATOM     88  C   UNL A   1      36.882  29.511  29.771  1.00  0.00     0.059 A 
ATOM     89  C   UNL A   1      37.628  29.847  27.500  1.00  0.00     0.059 A 
ATOM     90  F   UNL A   1      39.704  29.098  26.816  1.00  0.00    -0.206 F 
ATOM     91  C   UNL A   1      36.686  30.047  28.499  1.00  0.00     0.060 A 
BRANCH  91  92
ATOM     92  S   UNL A   1      35.253  31.102  28.184  1.00  0.00     0.124 S 
ATOM     93  O   UNL A   1      34.753  31.339  29.533  1.00  0.00    -0.237 OA
ATOM     94  O   UNL A   1      35.855  32.248  27.514  1.00  0.00    -0.237 OA
ATOM     95  O   UNL A   1      34.398  30.269  27.341  1.00  0.00    -0.744 OA
ENDBRANCH  91  92
ENDBRANCH  59  84
BRANCH  71  96
ATOM     96  C   UNL A   1      44.401  27.497  32.485  1.00  0.00     0.058 A 
ATOM     97  C   UNL A   1      44.220  27.860  33.831  1.00  0.00     0.135 A 
ATOM     98  C   UNL A   1      44.224  26.142  32.161  1.00  0.00     0.135 A 
ATOM     99  F   UNL A   1      44.256  29.145  34.207  1.00  0.00    -0.206 F 
ATOM    100  C   UNL A   1      43.918  26.918  34.815  1.00  0.00     0.059 A 
ATOM    101  C   UNL A   1      43.891  25.188  33.121  1.00  0.00     0.059 A 
ATOM    102  F   UNL A   1      44.315  25.738  30.883  1.00  0.00    -0.206 F 
ATOM    103  C   UNL A   1      43.749  25.583  34.450  1.00  0.00     0.060 A 
BRANCH 103 104
ATOM    104  S   UNL A   1      43.252  24.387  35.709  1.00  0.00     0.124 S 
ATOM    105  O   UNL A   1      41.809  24.314  35.511  1.00  0.00    -0.237 OA
ATOM    106  O   UNL A   1      44.004  23.194  35.329  1.00  0.00    -0.237 OA
ATOM    107  O   UNL A   1      43.681  25.010  36.960  1.00  0.00    -0.744 OA
ENDBRANCH 103 104
ENDBRANCH  71  96
ENDBRANCH  45  46
ENDBRANCH  38  40
ENDBRANCH  37  38
ENDBRANCH  36  37
ENDBRANCH  35  36
ENDBRANCH  34  35
ENDBRANCH   1  34
TORSDOF 23
ENDMDL
MODEL 2
REMARK VINA RESULT:     -11.7      2.659      9.416
REMARK SMILES COC(=O)c1c(NC(=O)[C@@H]2C[C@@H]2C(=O)OCCOCCOC(=O)c2ccc(-c3c4nc(c(-c5c(F)cc(S(=O)(=O)[O-])cc5F)c5ccc([nH]5)c(-c5c(F)cc(S(=O)(=O)[O-])cc5F)c5nc(c(-c6c(F)cc(S(=O)(=O)[O-])cc6F)c6ccc3[nH]6)C=C5)C=C4)cc2)sc2c1CC[N@@H+](Cc1ccccc1)C2
REMARK SMILES IDX 17 1 16 2 15 3 13 4 14 5 12 6 10 7 11 8 8 9 7 10 9 12 6 13
REMARK SMILES IDX 5 14 92 15 90 16 91 17 93 18 103 19 94 20 95 21 3 23 4 24
REMARK SMILES IDX 2 25 1 26 96 27 97 28 98 29 102 30 99 31 101 32 100 33 18 34
REMARK SMILES IDX 19 35 20 36 21 37 22 38 23 39 24 40 25 41 89 42 26 43 88 44
REMARK SMILES IDX 27 45 28 46 29 47 82 48 30 49 87 50 81 51 83 52 31 53 86 54
REMARK SMILES IDX 80 55 79 56 32 58 66 59 45 60 65 61 46 62 49 63 64 64 84 65
REMARK SMILES IDX 47 66 48 67 63 69 85 70 50 71 33 72 34 73 43 74 35 75 36 76
REMARK SMILES IDX 42 77 44 78 37 79 38 80 39 81 40 82 41 83 67 84 68 85 77 86
REMARK SMILES IDX 69 87 70 88 76 89 78 90 71 91 72 92 73 93 74 94 75 95 51 96
REMARK SMILES IDX 52 97 61 98 53 99 54 100 60 101 62 102 55 103 56 104 57 105
REMARK SMILES IDX 58 106 59 107
REMARK H PARENT 7 11 95 22 83 57 49 68
REMARK Flexibility Score: inf
ROOT
ATOM      1  C   UNL A   1      33.779  28.602  23.761  1.00  0.00     0.202 C 
ENDROOT
BRANCH   1   2
ATOM      2  C   UNL A   1      33.277  28.364  22.339  1.00  0.00     0.261 C 
BRANCH   2   3
ATOM      3  O   UNL A   1      33.929  27.262  21.657  1.00  0.00    -0.463 OA
BRANCH   3   4
ATOM      4  C   UNL A   1      33.471  26.038  22.029  1.00  0.00     0.309 C 
ATOM      5  O   UNL A   1      34.168  25.126  22.457  1.00  0.00    -0.252 OA
BRANCH   4   6
ATOM      6  C   UNL A   1      32.012  25.791  21.881  1.00  0.00     0.112 C 
ATOM      7  C   UNL A   1      30.813  25.657  22.823  1.00  0.00     0.094 C 
ATOM      8  C   UNL A   1      31.660  24.482  22.557  1.00  0.00     0.030 C 
BRANCH   7   9
ATOM      9  C   UNL A   1      30.721  26.496  24.015  1.00  0.00     0.229 C 
ATOM     10  N   UNL A   1      31.048  26.111  25.280  1.00  0.00    -0.317 N 
ATOM     11  H   UNL A   1      30.696  26.757  25.935  1.00  0.00     0.170 HD
ATOM     12  O   UNL A   1      30.182  27.595  23.877  1.00  0.00    -0.274 OA
BRANCH  10  13
ATOM     13  C   UNL A   1      31.719  25.100  25.926  1.00  0.00     0.110 A 
ATOM     14  C   UNL A   1      31.555  23.837  26.479  1.00  0.00     0.098 A 
ATOM     15  C   UNL A   1      32.857  23.241  26.789  1.00  0.00    -0.006 A 
ATOM     16  S   UNL A   1      33.370  25.598  25.977  1.00  0.00    -0.116 S 
ATOM     17  C   UNL A   1      33.903  24.068  26.438  1.00  0.00     0.065 A 
ATOM     18  C   UNL A   1      33.150  21.844  27.288  1.00  0.00     0.099 C 
ATOM     19  C   UNL A   1      35.357  23.695  26.427  1.00  0.00     0.310 C 
ATOM     20  C   UNL A   1      34.676  21.558  27.410  1.00  0.00     0.267 C 
ATOM     21  N   UNL A   1      35.560  22.238  26.452  1.00  0.00    -0.326 N 
ATOM     22  H   UNL A   1      36.490  22.106  26.847  1.00  0.00     0.348 HD
BRANCH  14  23
ATOM     23  C   UNL A   1      30.298  23.128  26.666  1.00  0.00     0.341 C 
ATOM     24  O   UNL A   1      30.044  22.045  26.185  1.00  0.00    -0.246 OA
BRANCH  23  25
ATOM     25  O   UNL A   1      29.465  23.843  27.487  1.00  0.00    -0.465 OA
ATOM     26  C   UNL A   1      28.494  24.703  26.884  1.00  0.00     0.282 C 
ENDBRANCH  23  25
ENDBRANCH  14  23
BRANCH  21  27
ATOM     27  C   UNL A   1      35.790  21.583  25.156  1.00  0.00     0.299 C 
BRANCH  27  28
ATOM     28  C   UNL A   1      34.616  20.874  24.515  1.00  0.00     0.006 A 
ATOM     29  C   UNL A   1      34.422  19.493  24.673  1.00  0.00     0.009 A 
ATOM     30  C   UNL A   1      33.666  21.587  23.788  1.00  0.00     0.009 A 
ATOM     31  C   UNL A   1      33.261  18.873  24.200  1.00  0.00     0.001 A 
ATOM     32  C   UNL A   1      32.466  20.986  23.408  1.00  0.00     0.001 A 
ATOM     33  C   UNL A   1      32.263  19.629  23.599  1.00  0.00     0.000 A 
ENDBRANCH  27  28
ENDBRANCH  21  27
ENDBRANCH  10  13
ENDBRANCH   7   9
ENDBRANCH   4   6
ENDBRANCH   3   4
ENDBRANCH   2   3
ENDBRANCH   1   2
BRANCH   1  34
ATOM     34  O   UNL A   1      33.043  29.553  24.533  1.00  0.00    -0.374 OA
BRANCH  34  35
ATOM     35  C   UNL A   1      32.889  29.297  25.920  1.00  0.00     0.202 C 
BRANCH  35  36
ATOM     36  C   UNL A   1      33.015  30.495  26.843  1.00  0.00     0.261 C 
BRANCH  36  37
ATOM     37  O   UNL A   1      33.897  30.259  27.915  1.00  0.00    -0.460 OA
BRANCH  37  38
ATOM     38  C   UNL A   1      34.548  31.353  28.367  1.00  0.00     0.338 C 
ATOM     39  O   UNL A   1      34.068  32.420  28.701  1.00  0.00    -0.246 OA
BRANCH  38  40
ATOM     40  C   UNL A   1      35.971  31.086  28.148  1.00  0.00     0.060 A 
ATOM     41  C   UNL A   1      36.306  29.821  27.676  1.00  0.00     0.016 A 
ATOM     42  C   UNL A   1      36.929  31.961  28.687  1.00  0.00     0.016 A 
ATOM     43  C   UNL A   1      37.580  29.360  27.913  1.00  0.00     0.010 A 
ATOM     44  C   UNL A   1      38.175  31.481  28.987  1.00  0.00     0.010 A 
ATOM     45  C   UNL A   1      38.465  30.169  28.636  1.00  0.00    -0.014 A 
BRANCH  45  46
ATOM     46  C   UNL A   1      39.779  29.645  28.899  1.00  0.00     0.031 A 
ATOM     47  C   UNL A   1      40.045  29.436  30.337  1.00  0.00     0.074 A 
ATOM     48  C   UNL A   1      40.610  29.250  27.925  1.00  0.00     0.049 A 
ATOM     49  N   UNL A   1      40.781  30.147  31.123  1.00  0.00    -0.248 NA
ATOM     50  C   UNL A   1      39.218  28.432  31.024  1.00  0.00     0.031 C 
ATOM     51  C   UNL A   1      40.320  29.013  26.512  1.00  0.00     0.029 A 
ATOM     52  N   UNL A   1      41.897  28.859  28.055  1.00  0.00    -0.354 N 
ATOM     53  C   UNL A   1      40.671  29.539  32.369  1.00  0.00     0.074 A 
ATOM     54  C   UNL A   1      39.521  28.683  32.295  1.00  0.00     0.031 C 
ATOM     55  C   UNL A   1      41.342  28.303  25.977  1.00  0.00     0.029 A 
ATOM     56  C   UNL A   1      42.386  28.144  26.979  1.00  0.00     0.049 A 
ATOM     57  H   UNL A   1      42.441  29.067  28.849  1.00  0.00     0.167 HD
ATOM     58  C   UNL A   1      41.686  29.575  33.275  1.00  0.00     0.037 A 
ATOM     59  C   UNL A   1      43.505  27.379  27.009  1.00  0.00     0.037 A 
ATOM     60  C   UNL A   1      42.638  30.610  32.945  1.00  0.00     0.049 A 
ATOM     61  C   UNL A   1      44.311  27.817  28.192  1.00  0.00     0.074 A 
ATOM     62  C   UNL A   1      42.550  31.975  32.745  1.00  0.00     0.029 A 
ATOM     63  N   UNL A   1      43.839  30.233  32.386  1.00  0.00    -0.354 N 
ATOM     64  N   UNL A   1      44.868  28.995  28.312  1.00  0.00    -0.248 NA
ATOM     65  C   UNL A   1      44.122  27.100  29.447  1.00  0.00     0.031 C 
ATOM     66  C   UNL A   1      43.447  32.255  31.672  1.00  0.00     0.029 A 
ATOM     67  C   UNL A   1      44.058  31.054  31.308  1.00  0.00     0.049 A 
ATOM     68  H   UNL A   1      44.430  29.511  32.701  1.00  0.00     0.167 HD
ATOM     69  C   UNL A   1      44.745  29.328  29.657  1.00  0.00     0.074 A 
ATOM     70  C   UNL A   1      44.358  28.085  30.318  1.00  0.00     0.031 C 
ATOM     71  C   UNL A   1      44.693  30.629  30.078  1.00  0.00     0.037 A 
BRANCH  58  72
ATOM     72  C   UNL A   1      42.009  28.437  34.224  1.00  0.00     0.058 A 
ATOM     73  C   UNL A   1      41.843  28.645  35.609  1.00  0.00     0.135 A 
ATOM     74  C   UNL A   1      42.725  27.267  33.873  1.00  0.00     0.135 A 
ATOM     75  F   UNL A   1      41.161  29.706  36.066  1.00  0.00    -0.206 F 
ATOM     76  C   UNL A   1      42.448  27.827  36.565  1.00  0.00     0.059 A 
ATOM     77  C   UNL A   1      43.282  26.407  34.810  1.00  0.00     0.059 A 
ATOM     78  F   UNL A   1      43.019  26.938  32.613  1.00  0.00    -0.206 F 
ATOM     79  C   UNL A   1      43.192  26.728  36.150  1.00  0.00     0.060 A 
BRANCH  79  80
ATOM     80  S   UNL A   1      44.125  25.775  37.356  1.00  0.00     0.124 S 
ATOM     81  O   UNL A   1      45.494  26.117  36.991  1.00  0.00    -0.237 OA
ATOM     82  O   UNL A   1      43.639  26.323  38.618  1.00  0.00    -0.237 OA
ATOM     83  O   UNL A   1      43.721  24.399  37.079  1.00  0.00    -0.744 OA
ENDBRANCH  79  80
ENDBRANCH  58  72
BRANCH  59  84
ATOM     84  C   UNL A   1      43.690  26.065  26.336  1.00  0.00     0.058 A 
ATOM     85  C   UNL A   1      44.802  25.828  25.511  1.00  0.00     0.135 A 
ATOM     86  C   UNL A   1      42.919  24.933  26.676  1.00  0.00     0.135 A 
ATOM     87  F   UNL A   1      45.612  26.840  25.163  1.00  0.00    -0.206 F 
ATOM     88  C   UNL A   1      45.144  24.543  25.072  1.00  0.00     0.059 A 
ATOM     89  C   UNL A   1      43.226  23.650  26.234  1.00  0.00     0.059 A 
ATOM     90  F   UNL A   1      41.885  25.019  27.525  1.00  0.00    -0.206 F 
ATOM     91  C   UNL A   1      44.354  23.457  25.450  1.00  0.00     0.060 A 
BRANCH  91  92
ATOM     92  S   UNL A   1      44.867  21.782  25.011  1.00  0.00     0.124 S 
ATOM     93  O   UNL A   1      46.268  21.781  25.417  1.00  0.00    -0.237 OA
ATOM     94  O   UNL A   1      43.968  20.963  25.816  1.00  0.00    -0.237 OA
ATOM     95  O   UNL A   1      44.636  21.723  23.569  1.00  0.00    -0.744 OA
ENDBRANCH  91  92
ENDBRANCH  59  84
BRANCH  71  96
ATOM     96  C   UNL A   1      45.061  31.719  29.104  1.00  0.00     0.058 A 
ATOM     97  C   UNL A   1      46.379  32.153  28.877  1.00  0.00     0.135 A 
ATOM     98  C   UNL A   1      44.070  32.209  28.240  1.00  0.00     0.135 A 
ATOM     99  F   UNL A   1      47.401  31.646  29.580  1.00  0.00    -0.206 F 
ATOM    100  C   UNL A   1      46.692  33.062  27.866  1.00  0.00     0.059 A 
ATOM    101  C   UNL A   1      44.363  33.094  27.203  1.00  0.00     0.059 A 
ATOM    102  F   UNL A   1      42.802  31.783  28.358  1.00  0.00    -0.206 F 
ATOM    103  C   UNL A   1      45.677  33.523  27.029  1.00  0.00     0.060 A 
BRANCH 103 104
ATOM    104  S   UNL A   1      46.105  34.616  25.655  1.00  0.00     0.124 S 
ATOM    105  O   UNL A   1      45.171  34.188  24.620  1.00  0.00    -0.237 OA
ATOM    106  O   UNL A   1      45.863  35.942  26.216  1.00  0.00    -0.237 OA
ATOM    107  O   UNL A   1      47.510  34.307  25.397  1.00  0.00    -0.744 OA
ENDBRANCH 103 104
ENDBRANCH  71  96
ENDBRANCH  45  46
ENDBRANCH  38  40
ENDBRANCH  37  38
ENDBRANCH  36  37
ENDBRANCH  35  36
ENDBRANCH  34  35
ENDBRANCH   1  34
TORSDOF 23
ENDMDL
MODEL 3
REMARK VINA RESULT:     -11.2      1.926      2.827
REMARK SMILES COC(=O)c1c(NC(=O)[C@@H]2C[C@@H]2C(=O)OCCOCCOC(=O)c2ccc(-c3c4nc(c(-c5c(F)cc(S(=O)(=O)[O-])cc5F)c5ccc([nH]5)c(-c5c(F)cc(S(=O)(=O)[O-])cc5F)c5nc(c(-c6c(F)cc(S(=O)(=O)[O-])cc6F)c6ccc3[nH]6)C=C5)C=C4)cc2)sc2c1CC[N@@H+](Cc1ccccc1)C2
REMARK SMILES IDX 17 1 16 2 15 3 13 4 14 5 12 6 10 7 11 8 8 9 7 10 9 12 6 13
REMARK SMILES IDX 5 14 92 15 90 16 91 17 93 18 103 19 94 20 95 21 3 23 4 24
REMARK SMILES IDX 2 25 1 26 96 27 97 28 98 29 102 30 99 31 101 32 100 33 18 34
REMARK SMILES IDX 19 35 20 36 21 37 22 38 23 39 24 40 25 41 89 42 26 43 88 44
REMARK SMILES IDX 27 45 28 46 29 47 82 48 30 49 87 50 81 51 83 52 31 53 86 54
REMARK SMILES IDX 80 55 79 56 32 58 66 59 45 60 65 61 46 62 49 63 64 64 84 65
REMARK SMILES IDX 47 66 48 67 63 69 85 70 50 71 33 72 34 73 43 74 35 75 36 76
REMARK SMILES IDX 42 77 44 78 37 79 38 80 39 81 40 82 41 83 67 84 68 85 77 86
REMARK SMILES IDX 69 87 70 88 76 89 78 90 71 91 72 92 73 93 74 94 75 95 51 96
REMARK SMILES IDX 52 97 61 98 53 99 54 100 60 101 62 102 55 103 56 104 57 105
REMARK SMILES IDX 58 106 59 107
REMARK H PARENT 7 11 95 22 83 57 49 68
REMARK Flexibility Score: inf
ROOT
ATOM      1  C   UNL A   1      38.873  20.700  25.656  1.00  0.00     0.202 C 
ENDROOT
BRANCH   1   2
ATOM      2  C   UNL A   1      38.129  22.023  25.484  1.00  0.00     0.261 C 
BRANCH   2   3
ATOM      3  O   UNL A   1      36.704  21.876  25.262  1.00  0.00    -0.463 OA
BRANCH   3   4
ATOM      4  C   UNL A   1      35.958  22.880  25.795  1.00  0.00     0.309 C 
ATOM      5  O   UNL A   1      36.001  24.052  25.441  1.00  0.00    -0.252 OA
BRANCH   4   6
ATOM      6  C   UNL A   1      35.037  22.518  26.905  1.00  0.00     0.112 C 
ATOM      7  C   UNL A   1      33.558  22.147  27.037  1.00  0.00     0.094 C 
ATOM      8  C   UNL A   1      33.949  23.566  27.007  1.00  0.00     0.030 C 
BRANCH   7   9
ATOM      9  C   UNL A   1      32.914  21.329  26.012  1.00  0.00     0.229 C 
ATOM     10  N   UNL A   1      32.004  21.775  25.102  1.00  0.00    -0.317 N 
ATOM     11  H   UNL A   1      31.551  21.013  24.672  1.00  0.00     0.170 HD
ATOM     12  O   UNL A   1      33.119  20.116  26.064  1.00  0.00    -0.274 OA
BRANCH  10  13
ATOM     13  C   UNL A   1      31.521  22.959  24.597  1.00  0.00     0.110 A 
ATOM     14  C   UNL A   1      30.829  24.111  24.942  1.00  0.00     0.098 A 
ATOM     15  C   UNL A   1      30.909  25.099  23.864  1.00  0.00    -0.006 A 
ATOM     16  S   UNL A   1      32.063  23.018  22.960  1.00  0.00    -0.116 S 
ATOM     17  C   UNL A   1      31.661  24.646  22.800  1.00  0.00     0.065 A 
ATOM     18  C   UNL A   1      30.404  26.525  23.863  1.00  0.00     0.099 C 
ATOM     19  C   UNL A   1      32.113  25.467  21.626  1.00  0.00     0.310 C 
ATOM     20  C   UNL A   1      30.764  27.288  22.554  1.00  0.00     0.267 C 
ATOM     21  N   UNL A   1      32.019  26.912  21.887  1.00  0.00    -0.326 N 
ATOM     22  H   UNL A   1      31.941  27.343  20.966  1.00  0.00     0.348 HD
BRANCH  14  23
ATOM     23  C   UNL A   1      30.174  24.382  26.214  1.00  0.00     0.341 C 
ATOM     24  O   UNL A   1      29.558  25.395  26.465  1.00  0.00    -0.246 OA
BRANCH  23  25
ATOM     25  O   UNL A   1      30.326  23.318  27.064  1.00  0.00    -0.465 OA
ATOM     26  C   UNL A   1      29.177  22.521  27.365  1.00  0.00     0.282 C 
ENDBRANCH  23  25
ENDBRANCH  14  23
BRANCH  21  27
ATOM     27  C   UNL A   1      33.251  27.584  22.326  1.00  0.00     0.299 C 
BRANCH  27  28
ATOM     28  C   UNL A   1      33.427  27.815  23.812  1.00  0.00     0.006 A 
ATOM     29  C   UNL A   1      33.881  26.795  24.661  1.00  0.00     0.009 A 
ATOM     30  C   UNL A   1      33.188  29.069  24.369  1.00  0.00     0.009 A 
ATOM     31  C   UNL A   1      34.178  27.058  26.003  1.00  0.00     0.001 A 
ATOM     32  C   UNL A   1      33.580  29.351  25.677  1.00  0.00     0.001 A 
ATOM     33  C   UNL A   1      34.062  28.348  26.503  1.00  0.00     0.000 A 
ENDBRANCH  27  28
ENDBRANCH  21  27
ENDBRANCH  10  13
ENDBRANCH   7   9
ENDBRANCH   4   6
ENDBRANCH   3   4
ENDBRANCH   2   3
ENDBRANCH   1   2
BRANCH   1  34
ATOM     34  O   UNL A   1      40.069  20.751  26.436  1.00  0.00    -0.374 OA
BRANCH  34  35
ATOM     35  C   UNL A   1      41.030  19.727  26.235  1.00  0.00     0.202 C 
BRANCH  35  36
ATOM     36  C   UNL A   1      42.477  20.174  26.131  1.00  0.00     0.261 C 
BRANCH  36  37
ATOM     37  O   UNL A   1      42.615  21.574  26.203  1.00  0.00    -0.460 OA
BRANCH  37  38
ATOM     38  C   UNL A   1      43.670  22.076  25.526  1.00  0.00     0.338 C 
ATOM     39  O   UNL A   1      44.481  21.469  24.854  1.00  0.00    -0.246 OA
BRANCH  38  40
ATOM     40  C   UNL A   1      43.789  23.472  25.957  1.00  0.00     0.060 A 
ATOM     41  C   UNL A   1      44.422  23.699  27.175  1.00  0.00     0.016 A 
ATOM     42  C   UNL A   1      43.027  24.460  25.314  1.00  0.00     0.016 A 
ATOM     43  C   UNL A   1      44.138  24.869  27.841  1.00  0.00     0.010 A 
ATOM     44  C   UNL A   1      42.687  25.593  26.003  1.00  0.00     0.010 A 
ATOM     45  C   UNL A   1      43.213  25.756  27.279  1.00  0.00    -0.014 A 
BRANCH  45  46
ATOM     46  C   UNL A   1      42.910  26.954  28.016  1.00  0.00     0.031 A 
ATOM     47  C   UNL A   1      43.909  28.025  27.823  1.00  0.00     0.074 A 
ATOM     48  C   UNL A   1      41.762  27.121  28.686  1.00  0.00     0.049 A 
ATOM     49  N   UNL A   1      44.823  28.421  28.644  1.00  0.00    -0.248 NA
ATOM     50  C   UNL A   1      44.034  28.576  26.465  1.00  0.00     0.031 C 
ATOM     51  C   UNL A   1      40.535  26.329  28.615  1.00  0.00     0.029 A 
ATOM     52  N   UNL A   1      41.430  28.147  29.501  1.00  0.00    -0.354 N 
ATOM     53  C   UNL A   1      45.503  29.428  27.968  1.00  0.00     0.074 A 
ATOM     54  C   UNL A   1      45.151  29.289  26.583  1.00  0.00     0.031 C 
ATOM     55  C   UNL A   1      39.531  27.041  29.180  1.00  0.00     0.029 A 
ATOM     56  C   UNL A   1      40.076  28.269  29.740  1.00  0.00     0.049 A 
ATOM     57  H   UNL A   1      42.099  28.755  29.892  1.00  0.00     0.167 HD
ATOM     58  C   UNL A   1      46.086  30.466  28.629  1.00  0.00     0.037 A 
ATOM     59  C   UNL A   1      39.480  29.381  30.237  1.00  0.00     0.037 A 
ATOM     60  C   UNL A   1      46.246  30.161  30.032  1.00  0.00     0.049 A 
ATOM     61  C   UNL A   1      40.549  30.205  30.886  1.00  0.00     0.074 A 
ATOM     62  C   UNL A   1      46.873  29.148  30.735  1.00  0.00     0.029 A 
ATOM     63  N   UNL A   1      45.382  30.751  30.927  1.00  0.00    -0.354 N 
ATOM     64  N   UNL A   1      41.220  29.842  31.949  1.00  0.00    -0.248 NA
ATOM     65  C   UNL A   1      41.188  31.243  30.085  1.00  0.00     0.031 C 
ATOM     66  C   UNL A   1      46.015  28.875  31.841  1.00  0.00     0.029 A 
ATOM     67  C   UNL A   1      44.939  29.762  31.771  1.00  0.00     0.049 A 
ATOM     68  H   UNL A   1      45.129  31.701  30.956  1.00  0.00     0.167 HD
ATOM     69  C   UNL A   1      42.514  30.309  31.748  1.00  0.00     0.074 A 
ATOM     70  C   UNL A   1      42.409  31.237  30.626  1.00  0.00     0.031 C 
ATOM     71  C   UNL A   1      43.599  29.699  32.317  1.00  0.00     0.037 A 
BRANCH  58  72
ATOM     72  C   UNL A   1      46.155  31.879  28.083  1.00  0.00     0.058 A 
ATOM     73  C   UNL A   1      47.395  32.550  28.099  1.00  0.00     0.135 A 
ATOM     74  C   UNL A   1      45.032  32.697  27.810  1.00  0.00     0.135 A 
ATOM     75  F   UNL A   1      48.535  31.878  28.323  1.00  0.00    -0.206 F 
ATOM     76  C   UNL A   1      47.496  33.936  27.979  1.00  0.00     0.059 A 
ATOM     77  C   UNL A   1      45.119  34.071  27.626  1.00  0.00     0.059 A 
ATOM     78  F   UNL A   1      43.776  32.243  27.805  1.00  0.00    -0.206 F 
ATOM     79  C   UNL A   1      46.345  34.689  27.774  1.00  0.00     0.060 A 
BRANCH  79  80
ATOM     80  S   UNL A   1      46.435  36.485  27.800  1.00  0.00     0.124 S 
ATOM     81  O   UNL A   1      45.038  36.837  28.022  1.00  0.00    -0.237 OA
ATOM     82  O   UNL A   1      47.345  36.726  28.915  1.00  0.00    -0.237 OA
ATOM     83  O   UNL A   1      46.969  36.812  26.481  1.00  0.00    -0.744 OA
ENDBRANCH  79  80
ENDBRANCH  58  72
BRANCH  59  84
ATOM     84  C   UNL A   1      38.163  29.934  29.823  1.00  0.00     0.058 A 
ATOM     85  C   UNL A   1      37.275  30.469  30.770  1.00  0.00     0.135 A 
ATOM     86  C   UNL A   1      37.843  30.174  28.469  1.00  0.00     0.135 A 
ATOM     87  F   UNL A   1      37.517  30.319  32.081  1.00  0.00    -0.206 F 
ATOM     88  C   UNL A   1      36.153  31.221  30.399  1.00  0.00     0.059 A 
ATOM     89  C   UNL A   1      36.722  30.899  28.075  1.00  0.00     0.059 A 
ATOM     90  F   UNL A   1      38.658  29.788  27.477  1.00  0.00    -0.206 F 
ATOM     91  C   UNL A   1      35.892  31.440  29.046  1.00  0.00     0.060 A 
BRANCH  91  92
ATOM     92  S   UNL A   1      34.533  32.527  28.562  1.00  0.00     0.124 S 
ATOM     93  O   UNL A   1      33.610  31.590  27.931  1.00  0.00    -0.237 OA
ATOM     94  O   UNL A   1      34.108  33.078  29.843  1.00  0.00    -0.237 OA
ATOM     95  O   UNL A   1      35.169  33.481  27.656  1.00  0.00    -0.744 OA
ENDBRANCH  91  92
ENDBRANCH  59  84
BRANCH  71  96
ATOM     96  C   UNL A   1      43.369  28.683  33.406  1.00  0.00     0.058 A 
ATOM     97  C   UNL A   1      43.222  27.305  33.172  1.00  0.00     0.135 A 
ATOM     98  C   UNL A   1      43.486  29.094  34.743  1.00  0.00     0.135 A 
ATOM     99  F   UNL A   1      43.219  26.815  31.925  1.00  0.00    -0.206 F 
ATOM    100  C   UNL A   1      43.154  26.383  34.216  1.00  0.00     0.059 A 
ATOM    101  C   UNL A   1      43.452  28.188  35.802  1.00  0.00     0.059 A 
ATOM    102  F   UNL A   1      43.696  30.388  35.034  1.00  0.00    -0.206 F 
ATOM    103  C   UNL A   1      43.276  26.833  35.530  1.00  0.00     0.060 A 
BRANCH 103 104
ATOM    104  S   UNL A   1      43.295  25.623  36.872  1.00  0.00     0.124 S 
ATOM    105  O   UNL A   1      42.677  26.367  37.965  1.00  0.00    -0.237 OA
ATOM    106  O   UNL A   1      42.500  24.527  36.324  1.00  0.00    -0.237 OA
ATOM    107  O   UNL A   1      44.715  25.325  37.043  1.00  0.00    -0.744 OA
ENDBRANCH 103 104
ENDBRANCH  71  96
ENDBRANCH  45  46
ENDBRANCH  38  40
ENDBRANCH  37  38
ENDBRANCH  36  37
ENDBRANCH  35  36
ENDBRANCH  34  35
ENDBRANCH   1  34
TORSDOF 23
ENDMDL
