MODEL 1
REMARK VINA RESULT:      -9.9      0.000      0.000
REMARK SMILES CC(C)Cc1noc(C[NH+]2CCC(CC(=O)OCCOCCOC(=O)c3ccc(-c4c5nc(c(-c6c(F)cc(S(=O)(=O)[O-])cc6F)c6ccc([nH]6)c(-c6c(F)cc(S(=O)(=O)[O-])cc6F)c6nc(c(-c7c(F)cc(S(=O)(=O)[O-])cc7F)c7ccc4[nH]7)C=C6)C=C5)cc3)CC2)n1
REMARK SMILES IDX 19 1 18 2 17 3 15 4 16 5 14 6 13 7 10 8 11 9 93 10 12 12
REMARK SMILES IDX 92 13 9 14 8 15 5 16 6 17 94 18 7 19 4 20 2 21 1 22 3 23
REMARK SMILES IDX 20 24 21 25 22 26 23 27 24 28 25 29 26 30 27 31 91 32 28 33
REMARK SMILES IDX 90 34 29 35 30 36 31 37 84 38 32 39 89 40 83 41 85 42 33 43
REMARK SMILES IDX 88 44 82 45 81 46 34 48 68 49 47 50 67 51 48 52 51 53 66 54
REMARK SMILES IDX 86 55 49 56 50 57 65 59 87 60 52 61 35 62 36 63 45 64 37 65
REMARK SMILES IDX 38 66 44 67 46 68 39 69 40 70 41 71 42 72 43 73 69 74 70 75
REMARK SMILES IDX 79 76 71 77 72 78 78 79 80 80 73 81 74 82 75 83 76 84 77 85
REMARK SMILES IDX 53 86 54 87 63 88 55 89 56 90 62 91 64 92 57 93 58 94 59 95
REMARK SMILES IDX 60 96 61 97
REMARK H PARENT 10 11 85 47 51 58
REMARK Flexibility Score: inf
ROOT
ATOM      1  C   UNL A   1      33.858  29.580  26.531  1.00  0.00     0.202 C 
ENDROOT
BRANCH   1   2
ATOM      2  C   UNL A   1      32.482  30.175  26.222  1.00  0.00     0.261 C 
BRANCH   2   3
ATOM      3  O   UNL A   1      31.477  29.144  26.166  1.00  0.00    -0.463 OA
BRANCH   3   4
ATOM      4  C   UNL A   1      31.124  28.705  24.934  1.00  0.00     0.306 C 
ATOM      5  O   UNL A   1      30.790  29.423  23.999  1.00  0.00    -0.252 OA
BRANCH   4   6
ATOM      6  C   UNL A   1      31.131  27.195  24.834  1.00  0.00     0.126 C 
BRANCH   6   7
ATOM      7  C   UNL A   1      32.092  26.410  25.752  1.00  0.00     0.011 C 
ATOM      8  N   UNL A   1      33.729  23.995  25.945  1.00  0.00    -0.327 N 
ATOM      9  C   UNL A   1      32.574  24.139  26.833  1.00  0.00     0.262 C 
ATOM     10  C   UNL A   1      34.389  25.282  25.735  1.00  0.00     0.262 C 
ATOM     11  H   UNL A   1      33.379  23.687  25.038  1.00  0.00     0.348 HD
ATOM     12  C   UNL A   1      31.525  25.043  26.177  1.00  0.00     0.066 C 
ATOM     13  C   UNL A   1      33.433  26.229  25.013  1.00  0.00     0.066 C 
BRANCH   8  14
ATOM     14  C   UNL A   1      34.654  22.928  26.371  1.00  0.00     0.364 C 
BRANCH  14  15
ATOM     15  C   UNL A   1      34.412  21.562  25.825  1.00  0.00     0.281 A 
ATOM     16  C   UNL A   1      33.713  19.771  25.010  1.00  0.00     0.172 A 
ATOM     17  N   UNL A   1      35.044  19.649  24.910  1.00  0.00    -0.062 NA
ATOM     18  N   UNL A   1      33.280  20.937  25.586  1.00  0.00    -0.191 NA
ATOM     19  O   UNL A   1      35.514  20.846  25.452  1.00  0.00    -0.333 OA
BRANCH  16  20
ATOM     20  C   UNL A   1      32.771  18.745  24.494  1.00  0.00     0.084 C 
BRANCH  20  21
ATOM     21  C   UNL A   1      33.259  18.030  23.222  1.00  0.00    -0.010 C 
ATOM     22  C   UNL A   1      33.657  16.578  23.498  1.00  0.00     0.008 C 
ATOM     23  C   UNL A   1      32.166  18.077  22.151  1.00  0.00     0.008 C 
ENDBRANCH  20  21
ENDBRANCH  16  20
ENDBRANCH  14  15
ENDBRANCH   8  14
ENDBRANCH   6   7
ENDBRANCH   4   6
ENDBRANCH   3   4
ENDBRANCH   2   3
ENDBRANCH   1   2
BRANCH   1  24
ATOM     24  O   UNL A   1      34.527  30.133  27.667  1.00  0.00    -0.374 OA
BRANCH  24  25
ATOM     25  C   UNL A   1      34.424  31.543  27.851  1.00  0.00     0.202 C 
BRANCH  25  26
ATOM     26  C   UNL A   1      34.757  32.066  29.253  1.00  0.00     0.261 C 
BRANCH  26  27
ATOM     27  O   UNL A   1      36.168  32.017  29.530  1.00  0.00    -0.460 OA
BRANCH  27  28
ATOM     28  C   UNL A   1      36.532  31.051  30.407  1.00  0.00     0.338 C 
ATOM     29  O   UNL A   1      35.902  30.679  31.390  1.00  0.00    -0.246 OA
BRANCH  28  30
ATOM     30  C   UNL A   1      37.743  30.349  29.940  1.00  0.00     0.060 A 
ATOM     31  C   UNL A   1      38.667  29.955  30.916  1.00  0.00     0.016 A 
ATOM     32  C   UNL A   1      38.021  30.157  28.585  1.00  0.00     0.016 A 
ATOM     33  C   UNL A   1      39.903  29.436  30.541  1.00  0.00     0.010 A 
ATOM     34  C   UNL A   1      39.268  29.638  28.208  1.00  0.00     0.010 A 
ATOM     35  C   UNL A   1      40.231  29.322  29.183  1.00  0.00    -0.014 A 
BRANCH  35  36
ATOM     36  C   UNL A   1      41.644  29.061  28.803  1.00  0.00     0.031 A 
ATOM     37  C   UNL A   1      42.030  27.668  28.373  1.00  0.00     0.074 A 
ATOM     38  C   UNL A   1      42.551  30.054  28.766  1.00  0.00     0.049 A 
ATOM     39  N   UNL A   1      43.196  27.205  28.006  1.00  0.00    -0.248 NA
ATOM     40  C   UNL A   1      40.951  26.665  28.347  1.00  0.00     0.031 C 
ATOM     41  C   UNL A   1      42.289  31.453  29.100  1.00  0.00     0.029 A 
ATOM     42  N   UNL A   1      43.880  30.035  28.421  1.00  0.00    -0.354 N 
ATOM     43  C   UNL A   1      42.992  25.863  27.701  1.00  0.00     0.074 A 
ATOM     44  C   UNL A   1      41.599  25.575  27.964  1.00  0.00     0.031 C 
ATOM     45  C   UNL A   1      43.425  32.158  28.947  1.00  0.00     0.029 A 
ATOM     46  C   UNL A   1      44.499  31.258  28.530  1.00  0.00     0.049 A 
ATOM     47  H   UNL A   1      44.347  29.220  28.122  1.00  0.00     0.167 HD
ATOM     48  C   UNL A   1      43.880  24.956  27.228  1.00  0.00     0.037 A 
ATOM     49  C   UNL A   1      45.786  31.604  28.330  1.00  0.00     0.037 A 
ATOM     50  C   UNL A   1      45.266  25.241  26.967  1.00  0.00     0.049 A 
ATOM     51  C   UNL A   1      46.773  30.555  27.882  1.00  0.00     0.074 A 
ATOM     52  C   UNL A   1      46.253  24.380  26.520  1.00  0.00     0.029 A 
ATOM     53  N   UNL A   1      45.860  26.484  27.121  1.00  0.00    -0.354 N 
ATOM     54  N   UNL A   1      46.568  29.286  27.615  1.00  0.00    -0.248 NA
ATOM     55  C   UNL A   1      48.168  30.986  27.702  1.00  0.00     0.031 C 
ATOM     56  C   UNL A   1      47.452  25.096  26.431  1.00  0.00     0.029 A 
ATOM     57  C   UNL A   1      47.200  26.413  26.781  1.00  0.00     0.049 A 
ATOM     58  H   UNL A   1      45.397  27.297  27.427  1.00  0.00     0.167 HD
ATOM     59  C   UNL A   1      47.796  28.782  27.194  1.00  0.00     0.074 A 
ATOM     60  C   UNL A   1      48.737  29.881  27.241  1.00  0.00     0.031 C 
ATOM     61  C   UNL A   1      48.116  27.525  26.801  1.00  0.00     0.037 A 
BRANCH  48  62
ATOM     62  C   UNL A   1      43.379  23.562  26.969  1.00  0.00     0.058 A 
ATOM     63  C   UNL A   1      43.059  23.128  25.673  1.00  0.00     0.135 A 
ATOM     64  C   UNL A   1      43.256  22.639  28.018  1.00  0.00     0.135 A 
ATOM     65  F   UNL A   1      43.138  23.979  24.636  1.00  0.00    -0.206 F 
ATOM     66  C   UNL A   1      42.620  21.831  25.428  1.00  0.00     0.059 A 
ATOM     67  C   UNL A   1      42.842  21.329  27.794  1.00  0.00     0.059 A 
ATOM     68  F   UNL A   1      43.545  23.004  29.278  1.00  0.00    -0.206 F 
ATOM     69  C   UNL A   1      42.516  20.939  26.495  1.00  0.00     0.060 A 
BRANCH  69  70
ATOM     70  S   UNL A   1      41.960  19.254  26.160  1.00  0.00     0.124 S 
ATOM     71  O   UNL A   1      40.539  19.463  25.902  1.00  0.00    -0.237 OA
ATOM     72  O   UNL A   1      42.768  18.883  25.002  1.00  0.00    -0.237 OA
ATOM     73  O   UNL A   1      42.275  18.540  27.394  1.00  0.00    -0.744 OA
ENDBRANCH  69  70
ENDBRANCH  48  62
BRANCH  49  74
ATOM     74  C   UNL A   1      46.236  33.004  28.559  1.00  0.00     0.058 A 
ATOM     75  C   UNL A   1      46.247  33.943  27.515  1.00  0.00     0.135 A 
ATOM     76  C   UNL A   1      46.711  33.417  29.813  1.00  0.00     0.135 A 
ATOM     77  F   UNL A   1      45.812  33.595  26.295  1.00  0.00    -0.206 F 
ATOM     78  C   UNL A   1      46.747  35.229  27.697  1.00  0.00     0.059 A 
ATOM     79  C   UNL A   1      47.192  34.705  30.026  1.00  0.00     0.059 A 
ATOM     80  F   UNL A   1      46.712  32.561  30.847  1.00  0.00    -0.206 F 
ATOM     81  C   UNL A   1      47.224  35.598  28.956  1.00  0.00     0.060 A 
BRANCH  81  82
ATOM     82  S   UNL A   1      47.869  37.269  29.187  1.00  0.00     0.124 S 
ATOM     83  O   UNL A   1      48.879  37.340  28.137  1.00  0.00    -0.237 OA
ATOM     84  O   UNL A   1      46.680  38.090  28.986  1.00  0.00    -0.237 OA
ATOM     85  O   UNL A   1      48.381  37.243  30.554  1.00  0.00    -0.744 OA
ENDBRANCH  81  82
ENDBRANCH  49  74
BRANCH  61  86
ATOM     86  C   UNL A   1      49.520  27.281  26.323  1.00  0.00     0.058 A 
ATOM     87  C   UNL A   1      50.549  26.901  27.199  1.00  0.00     0.135 A 
ATOM     88  C   UNL A   1      49.828  27.383  24.956  1.00  0.00     0.135 A 
ATOM     89  F   UNL A   1      50.309  26.791  28.515  1.00  0.00    -0.206 F 
ATOM     90  C   UNL A   1      51.840  26.660  26.741  1.00  0.00     0.059 A 
ATOM     91  C   UNL A   1      51.105  27.120  24.472  1.00  0.00     0.059 A 
ATOM     92  F   UNL A   1      48.877  27.730  24.074  1.00  0.00    -0.206 F 
ATOM     93  C   UNL A   1      52.109  26.773  25.375  1.00  0.00     0.060 A 
BRANCH  93  94
ATOM     94  S   UNL A   1      53.782  26.431  24.787  1.00  0.00     0.124 S 
ATOM     95  O   UNL A   1      53.519  25.570  23.639  1.00  0.00    -0.237 OA
ATOM     96  O   UNL A   1      54.285  27.766  24.476  1.00  0.00    -0.237 OA
ATOM     97  O   UNL A   1      54.417  25.780  25.928  1.00  0.00    -0.744 OA
ENDBRANCH  93  94
ENDBRANCH  61  86
ENDBRANCH  35  36
ENDBRANCH  28  30
ENDBRANCH  27  28
ENDBRANCH  26  27
ENDBRANCH  25  26
ENDBRANCH  24  25
ENDBRANCH   1  24
TORSDOF 22
ENDMDL
MODEL 2
REMARK VINA RESULT:      -9.8      6.005     10.570
REMARK SMILES CC(C)Cc1noc(C[NH+]2CCC(CC(=O)OCCOCCOC(=O)c3ccc(-c4c5nc(c(-c6c(F)cc(S(=O)(=O)[O-])cc6F)c6ccc([nH]6)c(-c6c(F)cc(S(=O)(=O)[O-])cc6F)c6nc(c(-c7c(F)cc(S(=O)(=O)[O-])cc7F)c7ccc4[nH]7)C=C6)C=C5)cc3)CC2)n1
REMARK SMILES IDX 19 1 18 2 17 3 15 4 16 5 14 6 13 7 10 8 11 9 93 10 12 12
REMARK SMILES IDX 92 13 9 14 8 15 5 16 6 17 94 18 7 19 4 20 2 21 1 22 3 23
REMARK SMILES IDX 20 24 21 25 22 26 23 27 24 28 25 29 26 30 27 31 91 32 28 33
REMARK SMILES IDX 90 34 29 35 30 36 31 37 84 38 32 39 89 40 83 41 85 42 33 43
REMARK SMILES IDX 88 44 82 45 81 46 34 48 68 49 47 50 67 51 48 52 51 53 66 54
REMARK SMILES IDX 86 55 49 56 50 57 65 59 87 60 52 61 35 62 36 63 45 64 37 65
REMARK SMILES IDX 38 66 44 67 46 68 39 69 40 70 41 71 42 72 43 73 69 74 70 75
REMARK SMILES IDX 79 76 71 77 72 78 78 79 80 80 73 81 74 82 75 83 76 84 77 85
REMARK SMILES IDX 53 86 54 87 63 88 55 89 56 90 62 91 64 92 57 93 58 94 59 95
REMARK SMILES IDX 60 96 61 97
REMARK H PARENT 10 11 85 47 51 58
REMARK Flexibility Score: inf
ROOT
ATOM      1  C   UNL A   1      33.584  29.109  26.473  1.00  0.00     0.202 C 
ENDROOT
BRANCH   1   2
ATOM      2  C   UNL A   1      32.592  29.713  25.477  1.00  0.00     0.261 C 
BRANCH   2   3
ATOM      3  O   UNL A   1      31.903  28.681  24.746  1.00  0.00    -0.463 OA
BRANCH   3   4
ATOM      4  C   UNL A   1      32.462  28.285  23.577  1.00  0.00     0.306 C 
ATOM      5  O   UNL A   1      32.937  29.037  22.734  1.00  0.00    -0.252 OA
BRANCH   4   6
ATOM      6  C   UNL A   1      32.396  26.787  23.381  1.00  0.00     0.126 C 
BRANCH   6   7
ATOM      7  C   UNL A   1      33.370  25.904  24.191  1.00  0.00     0.011 C 
ATOM      8  N   UNL A   1      34.017  23.144  24.907  1.00  0.00    -0.327 N 
ATOM      9  C   UNL A   1      33.553  24.056  25.955  1.00  0.00     0.262 C 
ATOM     10  C   UNL A   1      34.866  23.842  23.945  1.00  0.00     0.262 C 
ATOM     11  H   UNL A   1      33.193  22.821  24.399  1.00  0.00     0.348 HD
ATOM     12  C   UNL A   1      32.673  25.149  25.338  1.00  0.00     0.066 C 
ATOM     13  C   UNL A   1      34.044  24.909  23.225  1.00  0.00     0.066 C 
BRANCH   8  14
ATOM     14  C   UNL A   1      34.632  21.915  25.443  1.00  0.00     0.364 C 
BRANCH  14  15
ATOM     15  C   UNL A   1      33.948  20.626  25.139  1.00  0.00     0.281 A 
ATOM     16  C   UNL A   1      33.343  18.680  24.680  1.00  0.00     0.172 A 
ATOM     17  N   UNL A   1      32.233  19.228  25.192  1.00  0.00    -0.062 NA
ATOM     18  N   UNL A   1      34.426  19.519  24.615  1.00  0.00    -0.191 NA
ATOM     19  O   UNL A   1      32.634  20.528  25.502  1.00  0.00    -0.333 OA
BRANCH  16  20
ATOM     20  C   UNL A   1      33.417  17.258  24.255  1.00  0.00     0.084 C 
BRANCH  20  21
ATOM     21  C   UNL A   1      33.715  16.277  25.402  1.00  0.00    -0.010 C 
ATOM     22  C   UNL A   1      32.801  15.050  25.359  1.00  0.00     0.008 C 
ATOM     23  C   UNL A   1      35.180  15.838  25.340  1.00  0.00     0.008 C 
ENDBRANCH  20  21
ENDBRANCH  16  20
ENDBRANCH  14  15
ENDBRANCH   8  14
ENDBRANCH   6   7
ENDBRANCH   4   6
ENDBRANCH   3   4
ENDBRANCH   2   3
ENDBRANCH   1   2
BRANCH   1  24
ATOM     24  O   UNL A   1      33.874  29.913  27.619  1.00  0.00    -0.374 OA
BRANCH  24  25
ATOM     25  C   UNL A   1      34.134  31.295  27.386  1.00  0.00     0.202 C 
BRANCH  25  26
ATOM     26  C   UNL A   1      33.073  32.276  27.895  1.00  0.00     0.261 C 
BRANCH  26  27
ATOM     27  O   UNL A   1      33.392  33.641  27.568  1.00  0.00    -0.460 OA
BRANCH  27  28
ATOM     28  C   UNL A   1      33.387  34.485  28.628  1.00  0.00     0.338 C 
ATOM     29  O   UNL A   1      32.507  35.284  28.923  1.00  0.00    -0.246 OA
BRANCH  28  30
ATOM     30  C   UNL A   1      34.530  34.211  29.520  1.00  0.00     0.060 A 
ATOM     31  C   UNL A   1      35.812  34.365  28.979  1.00  0.00     0.016 A 
ATOM     32  C   UNL A   1      34.365  33.730  30.822  1.00  0.00     0.016 A 
ATOM     33  C   UNL A   1      36.931  33.970  29.706  1.00  0.00     0.010 A 
ATOM     34  C   UNL A   1      35.492  33.328  31.551  1.00  0.00     0.010 A 
ATOM     35  C   UNL A   1      36.775  33.402  30.978  1.00  0.00    -0.014 A 
BRANCH  35  36
ATOM     36  C   UNL A   1      37.933  32.713  31.606  1.00  0.00     0.031 A 
ATOM     37  C   UNL A   1      38.433  33.212  32.938  1.00  0.00     0.074 A 
ATOM     38  C   UNL A   1      38.481  31.620  31.045  1.00  0.00     0.049 A 
ATOM     39  N   UNL A   1      39.426  32.776  33.668  1.00  0.00    -0.248 NA
ATOM     40  C   UNL A   1      37.709  34.352  33.527  1.00  0.00     0.031 C 
ATOM     41  C   UNL A   1      38.050  31.004  29.791  1.00  0.00     0.029 A 
ATOM     42  N   UNL A   1      39.521  30.828  31.468  1.00  0.00    -0.354 N 
ATOM     43  C   UNL A   1      39.444  33.582  34.802  1.00  0.00     0.074 A 
ATOM     44  C   UNL A   1      38.388  34.558  34.646  1.00  0.00     0.031 C 
ATOM     45  C   UNL A   1      38.823  29.930  29.544  1.00  0.00     0.029 A 
ATOM     46  C   UNL A   1      39.819  29.799  30.607  1.00  0.00     0.049 A 
ATOM     47  H   UNL A   1      40.008  30.983  32.310  1.00  0.00     0.167 HD
ATOM     48  C   UNL A   1      40.255  33.505  35.885  1.00  0.00     0.037 A 
ATOM     49  C   UNL A   1      40.792  28.869  30.664  1.00  0.00     0.037 A 
ATOM     50  C   UNL A   1      41.305  32.535  36.041  1.00  0.00     0.049 A 
ATOM     51  C   UNL A   1      41.735  28.857  31.842  1.00  0.00     0.074 A 
ATOM     52  C   UNL A   1      42.203  32.398  37.086  1.00  0.00     0.029 A 
ATOM     53  N   UNL A   1      41.595  31.530  35.131  1.00  0.00    -0.354 N 
ATOM     54  N   UNL A   1      41.750  29.636  32.899  1.00  0.00    -0.248 NA
ATOM     55  C   UNL A   1      42.791  27.833  31.840  1.00  0.00     0.031 C 
ATOM     56  C   UNL A   1      43.055  31.327  36.794  1.00  0.00     0.029 A 
ATOM     57  C   UNL A   1      42.659  30.771  35.589  1.00  0.00     0.049 A 
ATOM     58  H   UNL A   1      41.115  31.379  34.285  1.00  0.00     0.167 HD
ATOM     59  C   UNL A   1      42.785  29.168  33.703  1.00  0.00     0.074 A 
ATOM     60  C   UNL A   1      43.373  28.039  33.014  1.00  0.00     0.031 C 
ATOM     61  C   UNL A   1      43.210  29.629  34.905  1.00  0.00     0.037 A 
BRANCH  48  62
ATOM     62  C   UNL A   1      40.040  34.506  36.986  1.00  0.00     0.058 A 
ATOM     63  C   UNL A   1      40.744  35.720  37.019  1.00  0.00     0.135 A 
ATOM     64  C   UNL A   1      39.093  34.270  37.993  1.00  0.00     0.135 A 
ATOM     65  F   UNL A   1      41.677  35.986  36.091  1.00  0.00    -0.206 F 
ATOM     66  C   UNL A   1      40.527  36.659  38.023  1.00  0.00     0.059 A 
ATOM     67  C   UNL A   1      38.841  35.204  38.994  1.00  0.00     0.059 A 
ATOM     68  F   UNL A   1      38.395  33.123  38.011  1.00  0.00    -0.206 F 
ATOM     69  C   UNL A   1      39.572  36.392  39.005  1.00  0.00     0.060 A 
BRANCH  69  70
ATOM     70  S   UNL A   1      39.290  37.627  40.292  1.00  0.00     0.124 S 
ATOM     71  O   UNL A   1      39.141  36.785  41.475  1.00  0.00    -0.237 OA
ATOM     72  O   UNL A   1      40.511  38.425  40.232  1.00  0.00    -0.237 OA
ATOM     73  O   UNL A   1      38.078  38.308  39.850  1.00  0.00    -0.744 OA
ENDBRANCH  69  70
ENDBRANCH  48  62
BRANCH  49  74
ATOM     74  C   UNL A   1      40.948  27.868  29.573  1.00  0.00     0.058 A 
ATOM     75  C   UNL A   1      40.049  26.799  29.436  1.00  0.00     0.135 A 
ATOM     76  C   UNL A   1      42.026  27.933  28.678  1.00  0.00     0.135 A 
ATOM     77  F   UNL A   1      39.007  26.686  30.273  1.00  0.00    -0.206 F 
ATOM     78  C   UNL A   1      40.234  25.809  28.474  1.00  0.00     0.059 A 
ATOM     79  C   UNL A   1      42.218  26.972  27.692  1.00  0.00     0.059 A 
ATOM     80  F   UNL A   1      42.908  28.942  28.759  1.00  0.00    -0.206 F 
ATOM     81  C   UNL A   1      41.327  25.902  27.610  1.00  0.00     0.060 A 
BRANCH  81  82
ATOM     82  S   UNL A   1      41.561  24.618  26.362  1.00  0.00     0.124 S 
ATOM     83  O   UNL A   1      40.336  23.841  26.510  1.00  0.00    -0.237 OA
ATOM     84  O   UNL A   1      41.680  25.398  25.135  1.00  0.00    -0.237 OA
ATOM     85  O   UNL A   1      42.787  23.953  26.794  1.00  0.00    -0.744 OA
ENDBRANCH  81  82
ENDBRANCH  49  74
BRANCH  61  86
ATOM     86  C   UNL A   1      44.317  28.874  35.588  1.00  0.00     0.058 A 
ATOM     87  C   UNL A   1      44.061  27.814  36.470  1.00  0.00     0.135 A 
ATOM     88  C   UNL A   1      45.659  29.191  35.316  1.00  0.00     0.135 A 
ATOM     89  F   UNL A   1      42.797  27.472  36.766  1.00  0.00    -0.206 F 
ATOM     90  C   UNL A   1      45.094  27.111  37.081  1.00  0.00     0.059 A 
ATOM     91  C   UNL A   1      46.709  28.485  35.894  1.00  0.00     0.059 A 
ATOM     92  F   UNL A   1      45.959  30.188  34.469  1.00  0.00    -0.206 F 
ATOM     93  C   UNL A   1      46.416  27.455  36.787  1.00  0.00     0.060 A 
BRANCH  93  94
ATOM     94  S   UNL A   1      47.751  26.519  37.565  1.00  0.00     0.124 S 
ATOM     95  O   UNL A   1      48.919  27.032  36.857  1.00  0.00    -0.237 OA
ATOM     96  O   UNL A   1      47.636  26.913  38.966  1.00  0.00    -0.237 OA
ATOM     97  O   UNL A   1      47.402  25.131  37.281  1.00  0.00    -0.744 OA
ENDBRANCH  93  94
ENDBRANCH  61  86
ENDBRANCH  35  36
ENDBRANCH  28  30
ENDBRANCH  27  28
ENDBRANCH  26  27
ENDBRANCH  25  26
ENDBRANCH  24  25
ENDBRANCH   1  24
TORSDOF 22
ENDMDL
MODEL 3
REMARK VINA RESULT:      -9.7      6.331     11.933
REMARK SMILES CC(C)Cc1noc(C[NH+]2CCC(CC(=O)OCCOCCOC(=O)c3ccc(-c4c5nc(c(-c6c(F)cc(S(=O)(=O)[O-])cc6F)c6ccc([nH]6)c(-c6c(F)cc(S(=O)(=O)[O-])cc6F)c6nc(c(-c7c(F)cc(S(=O)(=O)[O-])cc7F)c7ccc4[nH]7)C=C6)C=C5)cc3)CC2)n1
REMARK SMILES IDX 19 1 18 2 17 3 15 4 16 5 14 6 13 7 10 8 11 9 93 10 12 12
REMARK SMILES IDX 92 13 9 14 8 15 5 16 6 17 94 18 7 19 4 20 2 21 1 22 3 23
REMARK SMILES IDX 20 24 21 25 22 26 23 27 24 28 25 29 26 30 27 31 91 32 28 33
REMARK SMILES IDX 90 34 29 35 30 36 31 37 84 38 32 39 89 40 83 41 85 42 33 43
REMARK SMILES IDX 88 44 82 45 81 46 34 48 68 49 47 50 67 51 48 52 51 53 66 54
REMARK SMILES IDX 86 55 49 56 50 57 65 59 87 60 52 61 35 62 36 63 45 64 37 65
REMARK SMILES IDX 38 66 44 67 46 68 39 69 40 70 41 71 42 72 43 73 69 74 70 75
REMARK SMILES IDX 79 76 71 77 72 78 78 79 80 80 73 81 74 82 75 83 76 84 77 85
REMARK SMILES IDX 53 86 54 87 63 88 55 89 56 90 62 91 64 92 57 93 58 94 59 95
REMARK SMILES IDX 60 96 61 97
REMARK H PARENT 10 11 85 47 51 58
REMARK Flexibility Score: inf
ROOT
ATOM      1  C   UNL A   1      40.100  22.419  26.891  1.00  0.00     0.202 C 
ENDROOT
BRANCH   1   2
ATOM      2  C   UNL A   1      38.778  22.337  26.125  1.00  0.00     0.261 C 
BRANCH   2   3
ATOM      3  O   UNL A   1      38.710  21.130  25.342  1.00  0.00    -0.463 OA
BRANCH   3   4
ATOM      4  C   UNL A   1      37.493  20.544  25.230  1.00  0.00     0.306 C 
ATOM      5  O   UNL A   1      37.296  19.401  24.837  1.00  0.00    -0.252 OA
BRANCH   4   6
ATOM      6  C   UNL A   1      36.364  21.482  25.596  1.00  0.00     0.126 C 
BRANCH   6   7
ATOM      7  C   UNL A   1      35.461  22.011  24.461  1.00  0.00     0.011 C 
ATOM      8  N   UNL A   1      33.277  23.854  23.845  1.00  0.00    -0.327 N 
ATOM      9  C   UNL A   1      33.043  22.415  23.718  1.00  0.00     0.262 C 
ATOM     10  C   UNL A   1      34.634  24.203  23.430  1.00  0.00     0.262 C 
ATOM     11  H   UNL A   1      33.198  24.089  24.834  1.00  0.00     0.348 HD
ATOM     12  C   UNL A   1      33.978  21.652  24.664  1.00  0.00     0.066 C 
ATOM     13  C   UNL A   1      35.637  23.541  24.372  1.00  0.00     0.066 C 
BRANCH   8  14
ATOM     14  C   UNL A   1      32.238  24.667  23.184  1.00  0.00     0.364 C 
BRANCH  14  15
ATOM     15  C   UNL A   1      31.702  25.832  23.944  1.00  0.00     0.281 A 
ATOM     16  C   UNL A   1      31.273  27.433  25.214  1.00  0.00     0.172 A 
ATOM     17  N   UNL A   1      30.429  27.625  24.191  1.00  0.00    -0.062 NA
ATOM     18  N   UNL A   1      32.070  26.323  25.107  1.00  0.00    -0.191 NA
ATOM     19  O   UNL A   1      30.715  26.558  23.339  1.00  0.00    -0.333 OA
BRANCH  16  20
ATOM     20  C   UNL A   1      31.375  28.375  26.359  1.00  0.00     0.084 C 
BRANCH  20  21
ATOM     21  C   UNL A   1      32.579  29.329  26.279  1.00  0.00    -0.010 C 
ATOM     22  C   UNL A   1      32.227  30.736  26.769  1.00  0.00     0.008 C 
ATOM     23  C   UNL A   1      33.741  28.767  27.100  1.00  0.00     0.008 C 
ENDBRANCH  20  21
ENDBRANCH  16  20
ENDBRANCH  14  15
ENDBRANCH   8  14
ENDBRANCH   6   7
ENDBRANCH   4   6
ENDBRANCH   3   4
ENDBRANCH   2   3
ENDBRANCH   1   2
BRANCH   1  24
ATOM     24  O   UNL A   1      41.231  21.845  26.232  1.00  0.00    -0.374 OA
BRANCH  24  25
ATOM     25  C   UNL A   1      42.471  22.537  26.361  1.00  0.00     0.202 C 
BRANCH  25  26
ATOM     26  C   UNL A   1      42.757  23.610  25.304  1.00  0.00     0.261 C 
BRANCH  26  27
ATOM     27  O   UNL A   1      42.918  24.916  25.885  1.00  0.00    -0.460 OA
BRANCH  27  28
ATOM     28  C   UNL A   1      41.758  25.587  26.083  1.00  0.00     0.338 C 
ATOM     29  O   UNL A   1      40.766  25.562  25.365  1.00  0.00    -0.246 OA
BRANCH  28  30
ATOM     30  C   UNL A   1      41.757  26.253  27.400  1.00  0.00     0.060 A 
ATOM     31  C   UNL A   1      40.593  26.138  28.171  1.00  0.00     0.016 A 
ATOM     32  C   UNL A   1      42.821  27.043  27.840  1.00  0.00     0.016 A 
ATOM     33  C   UNL A   1      40.457  26.870  29.347  1.00  0.00     0.010 A 
ATOM     34  C   UNL A   1      42.681  27.784  29.022  1.00  0.00     0.010 A 
ATOM     35  C   UNL A   1      41.480  27.737  29.754  1.00  0.00    -0.014 A 
BRANCH  35  36
ATOM     36  C   UNL A   1      41.201  28.727  30.827  1.00  0.00     0.031 A 
ATOM     37  C   UNL A   1      42.097  28.749  32.039  1.00  0.00     0.074 A 
ATOM     38  C   UNL A   1      40.221  29.639  30.695  1.00  0.00     0.049 A 
ATOM     39  N   UNL A   1      42.044  29.514  33.097  1.00  0.00    -0.248 NA
ATOM     40  C   UNL A   1      43.208  27.781  32.054  1.00  0.00     0.031 C 
ATOM     41  C   UNL A   1      39.325  29.761  29.546  1.00  0.00     0.029 A 
ATOM     42  N   UNL A   1      39.821  30.645  31.540  1.00  0.00    -0.354 N 
ATOM     43  C   UNL A   1      43.112  29.125  33.900  1.00  0.00     0.074 A 
ATOM     44  C   UNL A   1      43.773  28.030  33.226  1.00  0.00     0.031 C 
ATOM     45  C   UNL A   1      38.476  30.783  29.761  1.00  0.00     0.029 A 
ATOM     46  C   UNL A   1      38.751  31.371  31.071  1.00  0.00     0.049 A 
ATOM     47  H   UNL A   1      40.260  30.831  32.402  1.00  0.00     0.167 HD
ATOM     48  C   UNL A   1      43.517  29.646  35.084  1.00  0.00     0.037 A 
ATOM     49  C   UNL A   1      38.066  32.381  31.642  1.00  0.00     0.037 A 
ATOM     50  C   UNL A   1      42.860  30.734  35.756  1.00  0.00     0.049 A 
ATOM     51  C   UNL A   1      38.488  32.886  33.000  1.00  0.00     0.074 A 
ATOM     52  C   UNL A   1      43.174  31.309  36.975  1.00  0.00     0.029 A 
ATOM     53  N   UNL A   1      41.761  31.420  35.262  1.00  0.00    -0.354 N 
ATOM     54  N   UNL A   1      39.490  32.497  33.753  1.00  0.00    -0.248 NA
ATOM     55  C   UNL A   1      37.688  33.975  33.582  1.00  0.00     0.031 C 
ATOM     56  C   UNL A   1      42.246  32.324  37.233  1.00  0.00     0.029 A 
ATOM     57  C   UNL A   1      41.382  32.409  36.153  1.00  0.00     0.049 A 
ATOM     58  H   UNL A   1      41.316  31.231  34.405  1.00  0.00     0.167 HD
ATOM     59  C   UNL A   1      39.465  33.322  34.874  1.00  0.00     0.074 A 
ATOM     60  C   UNL A   1      38.352  34.231  34.701  1.00  0.00     0.031 C 
ATOM     61  C   UNL A   1      40.291  33.329  35.950  1.00  0.00     0.037 A 
BRANCH  48  62
ATOM     62  C   UNL A   1      44.728  29.034  35.733  1.00  0.00     0.058 A 
ATOM     63  C   UNL A   1      46.017  29.537  35.498  1.00  0.00     0.135 A 
ATOM     64  C   UNL A   1      44.595  27.965  36.631  1.00  0.00     0.135 A 
ATOM     65  F   UNL A   1      46.202  30.545  34.630  1.00  0.00    -0.206 F 
ATOM     66  C   UNL A   1      47.135  28.989  36.118  1.00  0.00     0.059 A 
ATOM     67  C   UNL A   1      45.696  27.416  37.282  1.00  0.00     0.059 A 
ATOM     68  F   UNL A   1      43.385  27.443  36.889  1.00  0.00    -0.206 F 
ATOM     69  C   UNL A   1      46.964  27.930  37.010  1.00  0.00     0.060 A 
BRANCH  69  70
ATOM     70  S   UNL A   1      48.423  27.240  37.820  1.00  0.00     0.124 S 
ATOM     71  O   UNL A   1      47.959  27.118  39.199  1.00  0.00    -0.237 OA
ATOM     72  O   UNL A   1      48.613  25.983  37.102  1.00  0.00    -0.237 OA
ATOM     73  O   UNL A   1      49.450  28.251  37.590  1.00  0.00    -0.744 OA
ENDBRANCH  69  70
ENDBRANCH  48  62
BRANCH  49  74
ATOM     74  C   UNL A   1      36.897  32.987  30.949  1.00  0.00     0.058 A 
ATOM     75  C   UNL A   1      37.068  33.860  29.864  1.00  0.00     0.135 A 
ATOM     76  C   UNL A   1      35.587  32.746  31.391  1.00  0.00     0.135 A 
ATOM     77  F   UNL A   1      38.301  34.131  29.409  1.00  0.00    -0.206 F 
ATOM     78  C   UNL A   1      35.987  34.501  29.264  1.00  0.00     0.059 A 
ATOM     79  C   UNL A   1      34.488  33.353  30.792  1.00  0.00     0.059 A 
ATOM     80  F   UNL A   1      35.367  31.910  32.418  1.00  0.00    -0.206 F 
ATOM     81  C   UNL A   1      34.700  34.245  29.741  1.00  0.00     0.060 A 
BRANCH  81  82
ATOM     82  S   UNL A   1      33.301  35.075  28.958  1.00  0.00     0.124 S 
ATOM     83  O   UNL A   1      32.835  34.051  28.031  1.00  0.00    -0.237 OA
ATOM     84  O   UNL A   1      32.430  35.353  30.096  1.00  0.00    -0.237 OA
ATOM     85  O   UNL A   1      33.912  36.251  28.345  1.00  0.00    -0.744 OA
ENDBRANCH  81  82
ENDBRANCH  49  74
BRANCH  61  86
ATOM     86  C   UNL A   1      40.071  34.392  36.990  1.00  0.00     0.058 A 
ATOM     87  C   UNL A   1      40.787  35.599  36.983  1.00  0.00     0.135 A 
ATOM     88  C   UNL A   1      39.092  34.215  37.983  1.00  0.00     0.135 A 
ATOM     89  F   UNL A   1      41.734  35.816  36.058  1.00  0.00    -0.206 F 
ATOM     90  C   UNL A   1      40.560  36.583  37.940  1.00  0.00     0.059 A 
ATOM     91  C   UNL A   1      38.830  35.196  38.933  1.00  0.00     0.059 A 
ATOM     92  F   UNL A   1      38.370  33.085  38.026  1.00  0.00    -0.206 F 
ATOM     93  C   UNL A   1      39.580  36.372  38.913  1.00  0.00     0.060 A 
BRANCH  93  94
ATOM     94  S   UNL A   1      39.275  37.666  40.134  1.00  0.00     0.124 S 
ATOM     95  O   UNL A   1      38.113  38.340  39.563  1.00  0.00    -0.237 OA
ATOM     96  O   UNL A   1      39.026  36.898  41.351  1.00  0.00    -0.237 OA
ATOM     97  O   UNL A   1      40.514  38.436  40.130  1.00  0.00    -0.744 OA
ENDBRANCH  93  94
ENDBRANCH  61  86
ENDBRANCH  35  36
ENDBRANCH  28  30
ENDBRANCH  27  28
ENDBRANCH  26  27
ENDBRANCH  25  26
ENDBRANCH  24  25
ENDBRANCH   1  24
TORSDOF 22
ENDMDL
