MODEL 1
REMARK VINA RESULT:      -9.8      0.000      0.000
REMARK SMILES Cc1cccn2c(=O)cc(C[N@@H+](C)CC(=O)OCCOCCOC(=O)c3ccc(-c4c5nc(c(-c6c(F)cc(S(=O)(=O)[O-])cc6F)c6ccc([nH]6)c(-c6c(F)cc(S(=O)(=O)[O-])cc6F)c6nc(c(-c7c(F)cc(S(=O)(=O)[O-])cc7F)c7ccc4[nH]7)C=C6)C=C5)cc3)nc12
REMARK SMILES IDX 20 1 19 2 18 3 17 4 15 5 16 6 14 7 12 8 13 9 11 11 10 12
REMARK SMILES IDX 1 13 2 14 3 15 93 16 4 17 6 18 92 19 5 20 7 21 8 22 9 23
REMARK SMILES IDX 21 24 22 25 23 26 24 27 25 28 26 29 27 30 91 31 28 32 90 33
REMARK SMILES IDX 29 34 30 35 31 36 84 37 32 38 89 39 83 40 85 41 33 42 88 43
REMARK SMILES IDX 82 44 81 45 34 47 68 48 47 49 67 50 48 51 51 52 66 53 86 54
REMARK SMILES IDX 49 55 50 56 65 58 87 59 52 60 35 61 36 62 45 63 37 64 38 65
REMARK SMILES IDX 44 66 46 67 39 68 40 69 41 70 42 71 43 72 69 73 70 74 79 75
REMARK SMILES IDX 71 76 72 77 78 78 80 79 73 80 74 81 75 82 76 83 77 84 53 85
REMARK SMILES IDX 54 86 63 87 55 88 56 89 62 90 64 91 57 92 58 93 59 94 60 95
REMARK SMILES IDX 61 96
REMARK H PARENT 12 10 85 46 51 57
REMARK Flexibility Score: inf
ROOT
ATOM      1  O   UNL A   1      40.507  21.562  26.129  1.00  0.00    -0.374 OA
ENDROOT
BRANCH   1   2
ATOM      2  C   UNL A   1      40.429  20.146  26.296  1.00  0.00     0.202 C 
BRANCH   2   3
ATOM      3  C   UNL A   1      41.770  19.421  26.445  1.00  0.00     0.261 C 
BRANCH   3   4
ATOM      4  O   UNL A   1      42.359  19.099  25.164  1.00  0.00    -0.459 OA
BRANCH   4   5
ATOM      5  C   UNL A   1      43.711  19.203  25.061  1.00  0.00     0.361 C 
ATOM      6  O   UNL A   1      44.448  18.286  24.714  1.00  0.00    -0.245 OA
BRANCH   5   7
ATOM      7  C   UNL A   1      44.248  20.558  25.508  1.00  0.00     0.386 C 
BRANCH   7   8
ATOM      8  N   UNL A   1      44.435  21.614  24.495  1.00  0.00    -0.323 N 
ATOM      9  C   UNL A   1      45.838  21.889  24.194  1.00  0.00     0.333 C 
ATOM     10  H   UNL A   1      44.002  21.181  23.678  1.00  0.00     0.348 HD
BRANCH   8  11
ATOM     11  C   UNL A   1      43.683  22.860  24.681  1.00  0.00     0.320 C 
BRANCH  11  12
ATOM     12  C   UNL A   1      44.256  23.918  25.622  1.00  0.00     0.103 A 
ATOM     13  C   UNL A   1      43.600  23.233  29.728  1.00  0.00     0.048 C 
ATOM     14  C   UNL A   1      44.278  24.484  29.267  1.00  0.00    -0.008 A 
ATOM     15  C   UNL A   1      44.680  25.458  30.100  1.00  0.00     0.009 A 
ATOM     16  C   UNL A   1      44.482  24.654  27.785  1.00  0.00     0.143 A 
ATOM     17  C   UNL A   1      45.303  26.654  29.602  1.00  0.00     0.019 A 
ATOM     18  N   UNL A   1      45.072  25.849  27.375  1.00  0.00    -0.268 N 
ATOM     19  N   UNL A   1      44.097  23.715  26.971  1.00  0.00    -0.229 NA
ATOM     20  C   UNL A   1      45.474  26.814  28.287  1.00  0.00     0.096 A 
ATOM     21  C   UNL A   1      45.255  26.095  26.028  1.00  0.00     0.258 A 
ATOM     22  O   UNL A   1      45.739  27.116  25.539  1.00  0.00    -0.269 OA
ATOM     23  C   UNL A   1      44.786  25.041  25.126  1.00  0.00     0.102 A 
ENDBRANCH  11  12
ENDBRANCH   8  11
ENDBRANCH   7   8
ENDBRANCH   5   7
ENDBRANCH   4   5
ENDBRANCH   3   4
ENDBRANCH   2   3
ENDBRANCH   1   2
BRANCH   1  24
ATOM     24  C   UNL A   1      39.282  22.271  26.279  1.00  0.00     0.202 C 
BRANCH  24  25
ATOM     25  C   UNL A   1      39.415  23.794  26.387  1.00  0.00     0.261 C 
BRANCH  25  26
ATOM     26  O   UNL A   1      40.781  24.166  26.631  1.00  0.00    -0.460 OA
BRANCH  26  27
ATOM     27  C   UNL A   1      41.071  25.446  26.304  1.00  0.00     0.338 C 
ATOM     28  O   UNL A   1      41.011  25.961  25.196  1.00  0.00    -0.246 OA
BRANCH  27  29
ATOM     29  C   UNL A   1      41.281  26.233  27.527  1.00  0.00     0.060 A 
ATOM     30  C   UNL A   1      40.639  25.781  28.685  1.00  0.00     0.016 A 
ATOM     31  C   UNL A   1      42.008  27.427  27.527  1.00  0.00     0.016 A 
ATOM     32  C   UNL A   1      40.663  26.556  29.837  1.00  0.00     0.010 A 
ATOM     33  C   UNL A   1      42.012  28.216  28.682  1.00  0.00     0.010 A 
ATOM     34  C   UNL A   1      41.296  27.805  29.821  1.00  0.00    -0.014 A 
BRANCH  34  35
ATOM     35  C   UNL A   1      40.978  28.758  30.909  1.00  0.00     0.031 A 
ATOM     36  C   UNL A   1      41.858  28.754  32.129  1.00  0.00     0.074 A 
ATOM     37  C   UNL A   1      40.004  29.673  30.771  1.00  0.00     0.049 A 
ATOM     38  N   UNL A   1      41.833  29.541  33.173  1.00  0.00    -0.248 NA
ATOM     39  C   UNL A   1      42.921  27.734  32.171  1.00  0.00     0.031 C 
ATOM     40  C   UNL A   1      39.134  29.810  29.604  1.00  0.00     0.029 A 
ATOM     41  N   UNL A   1      39.596  30.672  31.617  1.00  0.00    -0.354 N 
ATOM     42  C   UNL A   1      42.884  29.126  33.981  1.00  0.00     0.074 A 
ATOM     43  C   UNL A   1      43.501  27.991  33.333  1.00  0.00     0.031 C 
ATOM     44  C   UNL A   1      38.294  30.842  29.807  1.00  0.00     0.029 A 
ATOM     45  C   UNL A   1      38.555  31.420  31.125  1.00  0.00     0.049 A 
ATOM     46  H   UNL A   1      40.011  30.836  32.495  1.00  0.00     0.167 HD
ATOM     47  C   UNL A   1      43.310  29.657  35.152  1.00  0.00     0.037 A 
ATOM     48  C   UNL A   1      37.887  32.451  31.681  1.00  0.00     0.037 A 
ATOM     49  C   UNL A   1      42.682  30.775  35.801  1.00  0.00     0.049 A 
ATOM     50  C   UNL A   1      38.305  32.952  33.040  1.00  0.00     0.074 A 
ATOM     51  C   UNL A   1      43.027  31.381  36.995  1.00  0.00     0.029 A 
ATOM     52  N   UNL A   1      41.572  31.449  35.313  1.00  0.00    -0.354 N 
ATOM     53  N   UNL A   1      39.305  32.557  33.792  1.00  0.00    -0.248 NA
ATOM     54  C   UNL A   1      37.504  34.035  33.628  1.00  0.00     0.031 C 
ATOM     55  C   UNL A   1      42.094  32.391  37.254  1.00  0.00     0.029 A 
ATOM     56  C   UNL A   1      41.198  32.446  36.198  1.00  0.00     0.049 A 
ATOM     57  H   UNL A   1      41.116  31.248  34.464  1.00  0.00     0.167 HD
ATOM     58  C   UNL A   1      39.265  33.354  34.932  1.00  0.00     0.074 A 
ATOM     59  C   UNL A   1      38.148  34.262  34.765  1.00  0.00     0.031 C 
ATOM     60  C   UNL A   1      40.079  33.337  36.016  1.00  0.00     0.037 A 
BRANCH  47  61
ATOM     61  C   UNL A   1      44.498  29.017  35.811  1.00  0.00     0.058 A 
ATOM     62  C   UNL A   1      45.805  29.469  35.566  1.00  0.00     0.135 A 
ATOM     63  C   UNL A   1      44.330  27.958  36.716  1.00  0.00     0.135 A 
ATOM     64  F   UNL A   1      46.024  30.464  34.692  1.00  0.00    -0.206 F 
ATOM     65  C   UNL A   1      46.905  28.880  36.182  1.00  0.00     0.059 A 
ATOM     66  C   UNL A   1      45.412  27.370  37.363  1.00  0.00     0.059 A 
ATOM     67  F   UNL A   1      43.102  27.483  36.979  1.00  0.00    -0.206 F 
ATOM     68  C   UNL A   1      46.698  27.832  37.080  1.00  0.00     0.060 A 
BRANCH  68  69
ATOM     69  S   UNL A   1      48.136  27.083  37.875  1.00  0.00     0.124 S 
ATOM     70  O   UNL A   1      47.590  26.713  39.177  1.00  0.00    -0.237 OA
ATOM     71  O   UNL A   1      48.445  25.974  36.978  1.00  0.00    -0.237 OA
ATOM     72  O   UNL A   1      49.116  28.164  37.892  1.00  0.00    -0.744 OA
ENDBRANCH  68  69
ENDBRANCH  47  61
BRANCH  48  73
ATOM     73  C   UNL A   1      36.754  33.078  30.950  1.00  0.00     0.058 A 
ATOM     74  C   UNL A   1      35.424  32.801  31.297  1.00  0.00     0.135 A 
ATOM     75  C   UNL A   1      36.982  33.989  29.905  1.00  0.00     0.135 A 
ATOM     76  F   UNL A   1      35.156  31.928  32.279  1.00  0.00    -0.206 F 
ATOM     77  C   UNL A   1      34.359  33.404  30.636  1.00  0.00     0.059 A 
ATOM     78  C   UNL A   1      35.934  34.621  29.245  1.00  0.00     0.059 A 
ATOM     79  F   UNL A   1      38.237  34.292  29.540  1.00  0.00    -0.206 F 
ATOM     80  C   UNL A   1      34.625  34.320  29.617  1.00  0.00     0.060 A 
BRANCH  80  81
ATOM     81  S   UNL A   1      33.234  35.151  28.817  1.00  0.00     0.124 S 
ATOM     82  O   UNL A   1      32.710  34.092  27.962  1.00  0.00    -0.237 OA
ATOM     83  O   UNL A   1      32.405  35.521  29.959  1.00  0.00    -0.237 OA
ATOM     84  O   UNL A   1      33.865  36.270  28.122  1.00  0.00    -0.744 OA
ENDBRANCH  80  81
ENDBRANCH  48  73
BRANCH  60  85
ATOM     85  C   UNL A   1      39.805  34.328  37.114  1.00  0.00     0.058 A 
ATOM     86  C   UNL A   1      39.072  33.969  38.255  1.00  0.00     0.135 A 
ATOM     87  C   UNL A   1      40.358  35.617  37.066  1.00  0.00     0.135 A 
ATOM     88  F   UNL A   1      38.518  32.750  38.347  1.00  0.00    -0.206 F 
ATOM     89  C   UNL A   1      38.893  34.857  39.310  1.00  0.00     0.059 A 
ATOM     90  C   UNL A   1      40.212  36.513  38.121  1.00  0.00     0.059 A 
ATOM     91  F   UNL A   1      41.077  36.007  36.001  1.00  0.00    -0.206 F 
ATOM     92  C   UNL A   1      39.473  36.125  39.237  1.00  0.00     0.060 A 
BRANCH  92  93
ATOM     93  S   UNL A   1      39.279  37.244  40.641  1.00  0.00     0.124 S 
ATOM     94  O   UNL A   1      40.649  37.706  40.841  1.00  0.00    -0.237 OA
ATOM     95  O   UNL A   1      38.345  38.238  40.119  1.00  0.00    -0.237 OA
ATOM     96  O   UNL A   1      38.747  36.383  41.692  1.00  0.00    -0.744 OA
ENDBRANCH  92  93
ENDBRANCH  60  85
ENDBRANCH  34  35
ENDBRANCH  27  29
ENDBRANCH  26  27
ENDBRANCH  25  26
ENDBRANCH  24  25
ENDBRANCH   1  24
TORSDOF 20
ENDMDL
MODEL 2
REMARK VINA RESULT:      -9.2      2.983      3.787
REMARK SMILES Cc1cccn2c(=O)cc(C[N@@H+](C)CC(=O)OCCOCCOC(=O)c3ccc(-c4c5nc(c(-c6c(F)cc(S(=O)(=O)[O-])cc6F)c6ccc([nH]6)c(-c6c(F)cc(S(=O)(=O)[O-])cc6F)c6nc(c(-c7c(F)cc(S(=O)(=O)[O-])cc7F)c7ccc4[nH]7)C=C6)C=C5)cc3)nc12
REMARK SMILES IDX 20 1 19 2 18 3 17 4 15 5 16 6 14 7 12 8 13 9 11 11 10 12
REMARK SMILES IDX 1 13 2 14 3 15 93 16 4 17 6 18 92 19 5 20 7 21 8 22 9 23
REMARK SMILES IDX 21 24 22 25 23 26 24 27 25 28 26 29 27 30 91 31 28 32 90 33
REMARK SMILES IDX 29 34 30 35 31 36 84 37 32 38 89 39 83 40 85 41 33 42 88 43
REMARK SMILES IDX 82 44 81 45 34 47 68 48 47 49 67 50 48 51 51 52 66 53 86 54
REMARK SMILES IDX 49 55 50 56 65 58 87 59 52 60 35 61 36 62 45 63 37 64 38 65
REMARK SMILES IDX 44 66 46 67 39 68 40 69 41 70 42 71 43 72 69 73 70 74 79 75
REMARK SMILES IDX 71 76 72 77 78 78 80 79 73 80 74 81 75 82 76 83 77 84 53 85
REMARK SMILES IDX 54 86 63 87 55 88 56 89 62 90 64 91 57 92 58 93 59 94 60 95
REMARK SMILES IDX 61 96
REMARK H PARENT 12 10 85 46 51 57
REMARK Flexibility Score: inf
ROOT
ATOM      1  O   UNL A   1      40.046  20.380  26.046  1.00  0.00    -0.374 OA
ENDROOT
BRANCH   1   2
ATOM      2  C   UNL A   1      40.757  19.146  26.160  1.00  0.00     0.202 C 
BRANCH   2   3
ATOM      3  C   UNL A   1      42.279  19.266  26.280  1.00  0.00     0.261 C 
BRANCH   3   4
ATOM      4  O   UNL A   1      42.933  19.181  24.993  1.00  0.00    -0.459 OA
BRANCH   4   5
ATOM      5  C   UNL A   1      44.293  19.224  24.986  1.00  0.00     0.361 C 
ATOM      6  O   UNL A   1      45.013  18.232  24.975  1.00  0.00    -0.245 OA
BRANCH   5   7
ATOM      7  C   UNL A   1      44.852  20.639  25.085  1.00  0.00     0.386 C 
BRANCH   7   8
ATOM      8  N   UNL A   1      44.071  21.750  24.508  1.00  0.00    -0.323 N 
ATOM      9  C   UNL A   1      44.835  22.570  23.570  1.00  0.00     0.333 C 
ATOM     10  H   UNL A   1      43.355  21.239  23.990  1.00  0.00     0.348 HD
BRANCH   8  11
ATOM     11  C   UNL A   1      43.310  22.589  25.440  1.00  0.00     0.320 C 
BRANCH  11  12
ATOM     12  C   UNL A   1      44.034  23.740  26.135  1.00  0.00     0.103 A 
ATOM     13  C   UNL A   1      42.775  27.604  25.021  1.00  0.00     0.048 C 
ATOM     14  C   UNL A   1      43.915  27.424  25.972  1.00  0.00    -0.008 A 
ATOM     15  C   UNL A   1      44.616  28.445  26.491  1.00  0.00     0.009 A 
ATOM     16  C   UNL A   1      44.303  26.013  26.327  1.00  0.00     0.143 A 
ATOM     17  C   UNL A   1      45.721  28.216  27.381  1.00  0.00     0.019 A 
ATOM     18  N   UNL A   1      45.399  25.867  27.175  1.00  0.00    -0.268 N 
ATOM     19  N   UNL A   1      43.630  25.016  25.829  1.00  0.00    -0.229 NA
ATOM     20  C   UNL A   1      46.076  26.965  27.688  1.00  0.00     0.096 A 
ATOM     21  C   UNL A   1      45.839  24.602  27.514  1.00  0.00     0.258 A 
ATOM     22  O   UNL A   1      46.805  24.341  28.232  1.00  0.00    -0.269 OA
ATOM     23  C   UNL A   1      45.089  23.493  26.919  1.00  0.00     0.102 A 
ENDBRANCH  11  12
ENDBRANCH   8  11
ENDBRANCH   7   8
ENDBRANCH   5   7
ENDBRANCH   4   5
ENDBRANCH   3   4
ENDBRANCH   2   3
ENDBRANCH   1   2
BRANCH   1  24
ATOM     24  C   UNL A   1      38.780  20.307  25.401  1.00  0.00     0.202 C 
BRANCH  24  25
ATOM     25  C   UNL A   1      38.025  21.636  25.288  1.00  0.00     0.261 C 
BRANCH  25  26
ATOM     26  O   UNL A   1      38.839  22.722  25.760  1.00  0.00    -0.460 OA
BRANCH  26  27
ATOM     27  C   UNL A   1      38.146  23.849  26.040  1.00  0.00     0.338 C 
ATOM     28  O   UNL A   1      36.967  24.074  25.804  1.00  0.00    -0.246 OA
BRANCH  27  29
ATOM     29  C   UNL A   1      38.962  24.734  26.883  1.00  0.00     0.060 A 
ATOM     30  C   UNL A   1      38.649  24.771  28.247  1.00  0.00     0.016 A 
ATOM     31  C   UNL A   1      39.944  25.573  26.348  1.00  0.00     0.016 A 
ATOM     32  C   UNL A   1      39.270  25.696  29.075  1.00  0.00     0.010 A 
ATOM     33  C   UNL A   1      40.552  26.518  27.180  1.00  0.00     0.010 A 
ATOM     34  C   UNL A   1      40.177  26.615  28.532  1.00  0.00    -0.014 A 
BRANCH  34  35
ATOM     35  C   UNL A   1      40.517  27.811  29.336  1.00  0.00     0.031 A 
ATOM     36  C   UNL A   1      41.887  27.878  29.956  1.00  0.00     0.074 A 
ATOM     37  C   UNL A   1      39.675  28.854  29.424  1.00  0.00     0.049 A 
ATOM     38  N   UNL A   1      42.444  28.848  30.632  1.00  0.00    -0.248 NA
ATOM     39  C   UNL A   1      42.749  26.697  29.776  1.00  0.00     0.031 C 
ATOM     40  C   UNL A   1      38.351  28.924  28.808  1.00  0.00     0.029 A 
ATOM     41  N   UNL A   1      39.820  30.064  30.053  1.00  0.00    -0.354 N 
ATOM     42  C   UNL A   1      43.725  28.404  30.938  1.00  0.00     0.074 A 
ATOM     43  C   UNL A   1      43.850  27.062  30.414  1.00  0.00     0.031 C 
ATOM     44  C   UNL A   1      37.804  30.121  29.088  1.00  0.00     0.029 A 
ATOM     45  C   UNL A   1      38.730  30.889  29.919  1.00  0.00     0.049 A 
ATOM     46  H   UNL A   1      40.629  30.316  30.555  1.00  0.00     0.167 HD
ATOM     47  C   UNL A   1      44.717  29.064  31.581  1.00  0.00     0.037 A 
ATOM     48  C   UNL A   1      38.508  32.122  30.417  1.00  0.00     0.037 A 
ATOM     49  C   UNL A   1      44.583  30.392  32.114  1.00  0.00     0.049 A 
ATOM     50  C   UNL A   1      39.586  32.793  31.230  1.00  0.00     0.074 A 
ATOM     51  C   UNL A   1      45.522  31.145  32.795  1.00  0.00     0.029 A 
ATOM     52  N   UNL A   1      43.431  31.160  32.036  1.00  0.00    -0.354 N 
ATOM     53  N   UNL A   1      40.796  32.367  31.506  1.00  0.00    -0.248 NA
ATOM     54  C   UNL A   1      39.268  34.110  31.802  1.00  0.00     0.031 C 
ATOM     55  C   UNL A   1      44.921  32.351  33.171  1.00  0.00     0.029 A 
ATOM     56  C   UNL A   1      43.624  32.369  32.683  1.00  0.00     0.049 A 
ATOM     57  H   UNL A   1      42.597  30.887  31.587  1.00  0.00     0.167 HD
ATOM     58  C   UNL A   1      41.390  33.369  32.267  1.00  0.00     0.074 A 
ATOM     59  C   UNL A   1      40.409  34.428  32.399  1.00  0.00     0.031 C 
ATOM     60  C   UNL A   1      42.633  33.409  32.807  1.00  0.00     0.037 A 
BRANCH  47  61
ATOM     61  C   UNL A   1      46.025  28.347  31.758  1.00  0.00     0.058 A 
ATOM     62  C   UNL A   1      46.197  27.366  32.747  1.00  0.00     0.135 A 
ATOM     63  C   UNL A   1      47.112  28.624  30.914  1.00  0.00     0.135 A 
ATOM     64  F   UNL A   1      45.197  27.078  33.595  1.00  0.00    -0.206 F 
ATOM     65  C   UNL A   1      47.407  26.697  32.905  1.00  0.00     0.059 A 
ATOM     66  C   UNL A   1      48.323  27.951  31.037  1.00  0.00     0.059 A 
ATOM     67  F   UNL A   1      47.003  29.560  29.957  1.00  0.00    -0.206 F 
ATOM     68  C   UNL A   1      48.464  26.997  32.044  1.00  0.00     0.060 A 
BRANCH  68  69
ATOM     69  S   UNL A   1      50.025  26.115  32.260  1.00  0.00     0.124 S 
ATOM     70  O   UNL A   1      50.390  25.826  30.877  1.00  0.00    -0.237 OA
ATOM     71  O   UNL A   1      50.851  27.108  32.939  1.00  0.00    -0.237 OA
ATOM     72  O   UNL A   1      49.653  24.956  33.065  1.00  0.00    -0.744 OA
ENDBRANCH  68  69
ENDBRANCH  47  61
BRANCH  48  73
ATOM     73  C   UNL A   1      37.212  32.802  30.157  1.00  0.00     0.058 A 
ATOM     74  C   UNL A   1      36.102  32.590  30.987  1.00  0.00     0.135 A 
ATOM     75  C   UNL A   1      37.066  33.698  29.085  1.00  0.00     0.135 A 
ATOM     76  F   UNL A   1      36.188  31.733  32.016  1.00  0.00    -0.206 F 
ATOM     77  C   UNL A   1      34.893  33.243  30.767  1.00  0.00     0.059 A 
ATOM     78  C   UNL A   1      35.874  34.379  28.858  1.00  0.00     0.059 A 
ATOM     79  F   UNL A   1      38.100  33.940  28.266  1.00  0.00    -0.206 F 
ATOM     80  C   UNL A   1      34.792  34.143  29.704  1.00  0.00     0.060 A 
BRANCH  80  81
ATOM     81  S   UNL A   1      33.240  35.037  29.473  1.00  0.00     0.124 S 
ATOM     82  O   UNL A   1      33.715  36.346  29.038  1.00  0.00    -0.237 OA
ATOM     83  O   UNL A   1      32.572  34.229  28.458  1.00  0.00    -0.237 OA
ATOM     84  O   UNL A   1      32.628  34.996  30.798  1.00  0.00    -0.744 OA
ENDBRANCH  80  81
ENDBRANCH  48  73
BRANCH  60  85
ATOM     85  C   UNL A   1      43.018  34.635  33.589  1.00  0.00     0.058 A 
ATOM     86  C   UNL A   1      42.768  34.731  34.966  1.00  0.00     0.135 A 
ATOM     87  C   UNL A   1      43.726  35.680  32.975  1.00  0.00     0.135 A 
ATOM     88  F   UNL A   1      42.090  33.761  35.599  1.00  0.00    -0.206 F 
ATOM     89  C   UNL A   1      43.202  35.826  35.706  1.00  0.00     0.059 A 
ATOM     90  C   UNL A   1      44.192  36.772  33.701  1.00  0.00     0.059 A 
ATOM     91  F   UNL A   1      44.001  35.632  31.661  1.00  0.00    -0.206 F 
ATOM     92  C   UNL A   1      43.920  36.838  35.066  1.00  0.00     0.060 A 
BRANCH  92  93
ATOM     93  S   UNL A   1      44.526  38.222  36.054  1.00  0.00     0.124 S 
ATOM     94  O   UNL A   1      45.961  37.962  36.077  1.00  0.00    -0.237 OA
ATOM     95  O   UNL A   1      44.103  39.376  35.266  1.00  0.00    -0.237 OA
ATOM     96  O   UNL A   1      43.838  38.056  37.331  1.00  0.00    -0.744 OA
ENDBRANCH  92  93
ENDBRANCH  60  85
ENDBRANCH  34  35
ENDBRANCH  27  29
ENDBRANCH  26  27
ENDBRANCH  25  26
ENDBRANCH  24  25
ENDBRANCH   1  24
TORSDOF 20
ENDMDL
MODEL 3
REMARK VINA RESULT:      -9.1      6.801     13.556
REMARK SMILES Cc1cccn2c(=O)cc(C[N@@H+](C)CC(=O)OCCOCCOC(=O)c3ccc(-c4c5nc(c(-c6c(F)cc(S(=O)(=O)[O-])cc6F)c6ccc([nH]6)c(-c6c(F)cc(S(=O)(=O)[O-])cc6F)c6nc(c(-c7c(F)cc(S(=O)(=O)[O-])cc7F)c7ccc4[nH]7)C=C6)C=C5)cc3)nc12
REMARK SMILES IDX 20 1 19 2 18 3 17 4 15 5 16 6 14 7 12 8 13 9 11 11 10 12
REMARK SMILES IDX 1 13 2 14 3 15 93 16 4 17 6 18 92 19 5 20 7 21 8 22 9 23
REMARK SMILES IDX 21 24 22 25 23 26 24 27 25 28 26 29 27 30 91 31 28 32 90 33
REMARK SMILES IDX 29 34 30 35 31 36 84 37 32 38 89 39 83 40 85 41 33 42 88 43
REMARK SMILES IDX 82 44 81 45 34 47 68 48 47 49 67 50 48 51 51 52 66 53 86 54
REMARK SMILES IDX 49 55 50 56 65 58 87 59 52 60 35 61 36 62 45 63 37 64 38 65
REMARK SMILES IDX 44 66 46 67 39 68 40 69 41 70 42 71 43 72 69 73 70 74 79 75
REMARK SMILES IDX 71 76 72 77 78 78 80 79 73 80 74 81 75 82 76 83 77 84 53 85
REMARK SMILES IDX 54 86 63 87 55 88 56 89 62 90 64 91 57 92 58 93 59 94 60 95
REMARK SMILES IDX 61 96
REMARK H PARENT 12 10 85 46 51 57
REMARK Flexibility Score: inf
ROOT
ATOM      1  O   UNL A   1      33.360  32.031  28.052  1.00  0.00    -0.374 OA
ENDROOT
BRANCH   1   2
ATOM      2  C   UNL A   1      32.622  31.196  27.159  1.00  0.00     0.202 C 
BRANCH   2   3
ATOM      3  C   UNL A   1      33.264  29.844  26.833  1.00  0.00     0.261 C 
BRANCH   3   4
ATOM      4  O   UNL A   1      33.598  29.726  25.431  1.00  0.00    -0.459 OA
BRANCH   4   5
ATOM      5  C   UNL A   1      33.316  28.541  24.825  1.00  0.00     0.361 C 
ATOM      6  O   UNL A   1      33.468  27.444  25.353  1.00  0.00    -0.245 OA
BRANCH   5   7
ATOM      7  C   UNL A   1      32.871  28.694  23.375  1.00  0.00     0.386 C 
BRANCH   7   8
ATOM      8  N   UNL A   1      31.427  28.749  23.080  1.00  0.00    -0.323 N 
ATOM      9  C   UNL A   1      30.648  29.424  24.116  1.00  0.00     0.333 C 
ATOM     10  H   UNL A   1      31.419  29.324  22.237  1.00  0.00     0.348 HD
BRANCH   8  11
ATOM     11  C   UNL A   1      30.780  27.498  22.668  1.00  0.00     0.320 C 
BRANCH  11  12
ATOM     12  C   UNL A   1      30.893  26.286  23.590  1.00  0.00     0.103 A 
ATOM     13  C   UNL A   1      33.063  23.026  22.037  1.00  0.00     0.048 C 
ATOM     14  C   UNL A   1      32.395  22.924  23.370  1.00  0.00    -0.008 A 
ATOM     15  C   UNL A   1      32.410  21.812  24.124  1.00  0.00     0.009 A 
ATOM     16  C   UNL A   1      31.643  24.133  23.861  1.00  0.00     0.143 A 
ATOM     17  C   UNL A   1      31.728  21.759  25.388  1.00  0.00     0.019 A 
ATOM     18  N   UNL A   1      30.987  24.000  25.084  1.00  0.00    -0.268 N 
ATOM     19  N   UNL A   1      31.623  25.215  23.139  1.00  0.00    -0.229 NA
ATOM     20  C   UNL A   1      31.049  22.825  25.821  1.00  0.00     0.096 A 
ATOM     21  C   UNL A   1      30.244  25.052  25.581  1.00  0.00     0.258 A 
ATOM     22  O   UNL A   1      29.601  25.052  26.631  1.00  0.00    -0.269 OA
ATOM     23  C   UNL A   1      30.207  26.250  24.738  1.00  0.00     0.102 A 
ENDBRANCH  11  12
ENDBRANCH   8  11
ENDBRANCH   7   8
ENDBRANCH   5   7
ENDBRANCH   4   5
ENDBRANCH   3   4
ENDBRANCH   2   3
ENDBRANCH   1   2
BRANCH   1  24
ATOM     24  C   UNL A   1      34.776  31.961  27.937  1.00  0.00     0.202 C 
BRANCH  24  25
ATOM     25  C   UNL A   1      35.522  31.601  29.227  1.00  0.00     0.261 C 
BRANCH  25  26
ATOM     26  O   UNL A   1      35.875  30.208  29.234  1.00  0.00    -0.460 OA
BRANCH  26  27
ATOM     27  C   UNL A   1      36.664  29.845  30.270  1.00  0.00     0.338 C 
ATOM     28  O   UNL A   1      36.311  29.375  31.343  1.00  0.00    -0.246 OA
BRANCH  27  29
ATOM     29  C   UNL A   1      38.074  29.895  29.859  1.00  0.00     0.060 A 
ATOM     30  C   UNL A   1      38.332  29.830  28.485  1.00  0.00     0.016 A 
ATOM     31  C   UNL A   1      39.119  29.912  30.787  1.00  0.00     0.016 A 
ATOM     32  C   UNL A   1      39.639  29.714  28.030  1.00  0.00     0.010 A 
ATOM     33  C   UNL A   1      40.433  29.774  30.328  1.00  0.00     0.010 A 
ATOM     34  C   UNL A   1      40.689  29.622  28.953  1.00  0.00    -0.014 A 
BRANCH  34  35
ATOM     35  C   UNL A   1      41.994  29.116  28.470  1.00  0.00     0.031 A 
ATOM     36  C   UNL A   1      43.156  30.073  28.445  1.00  0.00     0.074 A 
ATOM     37  C   UNL A   1      42.169  27.819  28.164  1.00  0.00     0.049 A 
ATOM     38  N   UNL A   1      44.408  29.849  28.142  1.00  0.00    -0.248 NA
ATOM     39  C   UNL A   1      42.869  31.466  28.830  1.00  0.00     0.031 C 
ATOM     40  C   UNL A   1      41.130  26.792  28.216  1.00  0.00     0.029 A 
ATOM     41  N   UNL A   1      43.294  27.144  27.765  1.00  0.00    -0.354 N 
ATOM     42  C   UNL A   1      45.059  31.064  28.319  1.00  0.00     0.074 A 
ATOM     43  C   UNL A   1      44.060  32.033  28.713  1.00  0.00     0.031 C 
ATOM     44  C   UNL A   1      41.669  25.611  27.865  1.00  0.00     0.029 A 
ATOM     45  C   UNL A   1      43.083  25.805  27.544  1.00  0.00     0.049 A 
ATOM     46  H   UNL A   1      44.169  27.579  27.648  1.00  0.00     0.167 HD
ATOM     47  C   UNL A   1      46.377  31.344  28.185  1.00  0.00     0.037 A 
ATOM     48  C   UNL A   1      43.936  24.849  27.125  1.00  0.00     0.037 A 
ATOM     49  C   UNL A   1      47.363  30.381  27.777  1.00  0.00     0.049 A 
ATOM     50  C   UNL A   1      45.377  25.209  26.869  1.00  0.00     0.074 A 
ATOM     51  C   UNL A   1      48.722  30.565  27.597  1.00  0.00     0.029 A 
ATOM     52  N   UNL A   1      47.093  29.055  27.474  1.00  0.00    -0.354 N 
ATOM     53  N   UNL A   1      45.984  26.359  27.048  1.00  0.00    -0.248 NA
ATOM     54  C   UNL A   1      46.250  24.144  26.353  1.00  0.00     0.031 C 
ATOM     55  C   UNL A   1      49.266  29.361  27.138  1.00  0.00     0.029 A 
ATOM     56  C   UNL A   1      48.255  28.414  27.079  1.00  0.00     0.049 A 
ATOM     57  H   UNL A   1      46.206  28.630  27.531  1.00  0.00     0.167 HD
ATOM     58  C   UNL A   1      47.311  26.152  26.684  1.00  0.00     0.074 A 
ATOM     59  C   UNL A   1      47.421  24.763  26.286  1.00  0.00     0.031 C 
ATOM     60  C   UNL A   1      48.343  27.030  26.681  1.00  0.00     0.037 A 
BRANCH  47  61
ATOM     61  C   UNL A   1      46.818  32.752  28.464  1.00  0.00     0.058 A 
ATOM     62  C   UNL A   1      47.211  33.158  29.749  1.00  0.00     0.135 A 
ATOM     63  C   UNL A   1      46.875  33.701  27.431  1.00  0.00     0.135 A 
ATOM     64  F   UNL A   1      47.154  32.296  30.777  1.00  0.00    -0.206 F 
ATOM     65  C   UNL A   1      47.626  34.461  30.005  1.00  0.00     0.059 A 
ATOM     66  C   UNL A   1      47.310  35.003  27.658  1.00  0.00     0.059 A 
ATOM     67  F   UNL A   1      46.502  33.366  26.185  1.00  0.00    -0.206 F 
ATOM     68  C   UNL A   1      47.673  35.375  28.952  1.00  0.00     0.060 A 
BRANCH  68  69
ATOM     69  S   UNL A   1      48.220  37.061  29.300  1.00  0.00     0.124 S 
ATOM     70  O   UNL A   1      47.612  37.799  28.199  1.00  0.00    -0.237 OA
ATOM     71  O   UNL A   1      47.649  37.306  30.621  1.00  0.00    -0.237 OA
ATOM     72  O   UNL A   1      49.676  36.961  29.259  1.00  0.00    -0.744 OA
ENDBRANCH  68  69
ENDBRANCH  47  61
BRANCH  48  73
ATOM     73  C   UNL A   1      43.448  23.459  26.923  1.00  0.00     0.058 A 
ATOM     74  C   UNL A   1      43.136  22.978  25.644  1.00  0.00     0.135 A 
ATOM     75  C   UNL A   1      43.308  22.577  28.006  1.00  0.00     0.135 A 
ATOM     76  F   UNL A   1      43.241  23.788  24.579  1.00  0.00    -0.206 F 
ATOM     77  C   UNL A   1      42.704  21.671  25.443  1.00  0.00     0.059 A 
ATOM     78  C   UNL A   1      42.899  21.258  27.828  1.00  0.00     0.059 A 
ATOM     79  F   UNL A   1      43.600  22.987  29.250  1.00  0.00    -0.206 F 
ATOM     80  C   UNL A   1      42.598  20.816  26.541  1.00  0.00     0.060 A 
BRANCH  80  81
ATOM     81  S   UNL A   1      42.106  19.101  26.257  1.00  0.00     0.124 S 
ATOM     82  O   UNL A   1      42.311  18.512  27.576  1.00  0.00    -0.237 OA
ATOM     83  O   UNL A   1      40.718  19.250  25.832  1.00  0.00    -0.237 OA
ATOM     84  O   UNL A   1      43.028  18.655  25.217  1.00  0.00    -0.744 OA
ENDBRANCH  80  81
ENDBRANCH  48  73
BRANCH  60  85
ATOM     85  C   UNL A   1      49.690  26.529  26.239  1.00  0.00     0.058 A 
ATOM     86  C   UNL A   1      50.157  26.742  24.933  1.00  0.00     0.135 A 
ATOM     87  C   UNL A   1      50.557  25.911  27.154  1.00  0.00     0.135 A 
ATOM     88  F   UNL A   1      49.364  27.324  24.019  1.00  0.00    -0.206 F 
ATOM     89  C   UNL A   1      51.436  26.356  24.548  1.00  0.00     0.059 A 
ATOM     90  C   UNL A   1      51.851  25.539  26.797  1.00  0.00     0.059 A 
ATOM     91  F   UNL A   1      50.163  25.693  28.419  1.00  0.00    -0.206 F 
ATOM     92  C   UNL A   1      52.279  25.762  25.490  1.00  0.00     0.060 A 
BRANCH  92  93
ATOM     93  S   UNL A   1      53.956  25.320  24.988  1.00  0.00     0.124 S 
ATOM     94  O   UNL A   1      53.877  23.863  24.948  1.00  0.00    -0.237 OA
ATOM     95  O   UNL A   1      54.078  25.983  23.694  1.00  0.00    -0.237 OA
ATOM     96  O   UNL A   1      54.788  25.874  26.052  1.00  0.00    -0.744 OA
ENDBRANCH  92  93
ENDBRANCH  60  85
ENDBRANCH  34  35
ENDBRANCH  27  29
ENDBRANCH  26  27
ENDBRANCH  25  26
ENDBRANCH  24  25
ENDBRANCH   1  24
TORSDOF 20
ENDMDL
