MODEL 1
REMARK VINA RESULT:     -11.0      0.000      0.000
REMARK SMILES O=C(OCCOCCOC(=O)c1ccc(-c2c3nc(c(-c4c(F)cc(S(=O)(=O)[O-])cc4F)c4ccc([nH]4)c(-c4c(F)cc(S(=O)(=O)[O-])cc4F)c4nc(c(-c5c(F)cc(S(=O)(=O)[O-])cc5F)c5ccc2[nH]5)C=C4)C=C3)cc1)c1ccc(C[C@H]2CCN(C(=O)Cc3cccc(O)c3)C2)cc1
REMARK SMILES IDX 4 1 3 2 2 3 1 4 78 5 79 6 99 7 80 8 98 9 81 10 82 11 83 12
REMARK SMILES IDX 84 13 97 14 85 15 86 16 87 17 88 18 89 19 90 20 91 21 96 22
REMARK SMILES IDX 92 23 94 24 93 25 95 26 5 28 6 29 7 30 8 31 9 32 10 33 11 34
REMARK SMILES IDX 12 35 13 36 77 37 14 38 76 39 15 40 16 41 17 42 70 43 18 44
REMARK SMILES IDX 75 45 69 46 71 47 19 48 74 49 68 50 67 51 20 53 54 54 33 55
REMARK SMILES IDX 53 56 34 57 37 58 52 59 72 60 35 61 36 62 51 64 73 65 38 66
REMARK SMILES IDX 21 67 22 68 31 69 23 70 24 71 30 72 32 73 25 74 26 75 27 76
REMARK SMILES IDX 28 77 29 78 55 79 56 80 65 81 57 82 58 83 64 84 66 85 59 86
REMARK SMILES IDX 60 87 61 88 62 89 63 90 39 91 40 92 49 93 41 94 42 95 48 96
REMARK SMILES IDX 50 97 43 98 44 99 45 100 46 101 47 102
REMARK H PARENT 95 27 71 52 37 63
REMARK Flexibility Score: inf
ROOT
ATOM      1  C   UNL A   1      34.759  33.975  29.177  1.00  0.00     0.261 C 
ENDROOT
BRANCH   1   2
ATOM      2  O   UNL A   1      34.141  32.753  28.720  1.00  0.00    -0.460 OA
BRANCH   2   3
ATOM      3  C   UNL A   1      34.718  31.824  27.921  1.00  0.00     0.338 C 
ATOM      4  O   UNL A   1      35.921  31.842  27.685  1.00  0.00    -0.246 OA
BRANCH   3   5
ATOM      5  C   UNL A   1      33.899  30.737  27.348  1.00  0.00     0.060 A 
ATOM      6  C   UNL A   1      34.426  29.463  27.137  1.00  0.00     0.016 A 
ATOM      7  C   UNL A   1      32.544  30.976  27.103  1.00  0.00     0.016 A 
ATOM      8  C   UNL A   1      33.626  28.455  26.611  1.00  0.00     0.004 A 
ATOM      9  C   UNL A   1      31.742  29.963  26.568  1.00  0.00     0.004 A 
ATOM     10  C   UNL A   1      32.285  28.701  26.294  1.00  0.00    -0.048 A 
BRANCH  10  11
ATOM     11  C   UNL A   1      31.471  27.619  25.626  1.00  0.00     0.041 C 
BRANCH  11  12
ATOM     12  C   UNL A   1      32.202  26.272  25.589  1.00  0.00     0.015 C 
ATOM     13  C   UNL A   1      31.772  25.280  26.678  1.00  0.00     0.027 C 
ATOM     14  C   UNL A   1      31.925  25.483  24.302  1.00  0.00     0.123 C 
ATOM     15  C   UNL A   1      32.217  23.949  26.116  1.00  0.00     0.120 C 
ATOM     16  N   UNL A   1      31.983  24.081  24.690  1.00  0.00    -0.342 N 
BRANCH  16  17
ATOM     17  C   UNL A   1      31.833  23.071  23.765  1.00  0.00     0.227 C 
ATOM     18  O   UNL A   1      30.745  22.843  23.229  1.00  0.00    -0.275 OA
BRANCH  17  19
ATOM     19  C   UNL A   1      33.054  22.224  23.421  1.00  0.00     0.135 C 
BRANCH  19  20
ATOM     20  C   UNL A   1      32.873  20.766  23.772  1.00  0.00    -0.035 A 
ATOM     21  C   UNL A   1      32.536  19.825  22.790  1.00  0.00     0.004 A 
ATOM     22  C   UNL A   1      32.995  20.341  25.102  1.00  0.00     0.050 A 
ATOM     23  C   UNL A   1      32.265  18.499  23.133  1.00  0.00     0.004 A 
ATOM     24  C   UNL A   1      32.763  19.007  25.428  1.00  0.00     0.115 A 
ATOM     25  C   UNL A   1      32.376  18.091  24.458  1.00  0.00     0.046 A 
BRANCH  24  26
ATOM     26  O   UNL A   1      32.908  18.555  26.707  1.00  0.00    -0.508 OA
ATOM     27  H   UNL A   1      32.861  19.155  27.424  1.00  0.00     0.293 HD
ENDBRANCH  24  26
ENDBRANCH  19  20
ENDBRANCH  17  19
ENDBRANCH  16  17
ENDBRANCH  11  12
ENDBRANCH  10  11
ENDBRANCH   3   5
ENDBRANCH   2   3
ENDBRANCH   1   2
BRANCH   1  28
ATOM     28  C   UNL A   1      34.050  34.478  30.433  1.00  0.00     0.202 C 
BRANCH  28  29
ATOM     29  O   UNL A   1      34.873  34.384  31.597  1.00  0.00    -0.374 OA
BRANCH  29  30
ATOM     30  C   UNL A   1      34.967  33.065  32.159  1.00  0.00     0.202 C 
BRANCH  30  31
ATOM     31  C   UNL A   1      36.438  32.655  32.243  1.00  0.00     0.261 C 
BRANCH  31  32
ATOM     32  O   UNL A   1      36.723  31.792  31.134  1.00  0.00    -0.460 OA
BRANCH  32  33
ATOM     33  C   UNL A   1      37.041  30.518  31.470  1.00  0.00     0.338 C 
ATOM     34  O   UNL A   1      36.342  29.714  32.067  1.00  0.00    -0.246 OA
BRANCH  33  35
ATOM     35  C   UNL A   1      38.308  30.176  30.784  1.00  0.00     0.060 A 
ATOM     36  C   UNL A   1      39.359  29.653  31.550  1.00  0.00     0.016 A 
ATOM     37  C   UNL A   1      38.437  30.297  29.396  1.00  0.00     0.016 A 
ATOM     38  C   UNL A   1      40.543  29.253  30.930  1.00  0.00     0.010 A 
ATOM     39  C   UNL A   1      39.619  29.899  28.779  1.00  0.00     0.010 A 
ATOM     40  C   UNL A   1      40.681  29.392  29.544  1.00  0.00    -0.014 A 
BRANCH  40  41
ATOM     41  C   UNL A   1      41.976  29.150  28.873  1.00  0.00     0.031 A 
ATOM     42  C   UNL A   1      42.250  27.770  28.351  1.00  0.00     0.074 A 
ATOM     43  C   UNL A   1      42.910  30.115  28.818  1.00  0.00     0.049 A 
ATOM     44  N   UNL A   1      43.361  27.267  27.889  1.00  0.00    -0.248 NA
ATOM     45  C   UNL A   1      41.121  26.823  28.372  1.00  0.00     0.031 C 
ATOM     46  C   UNL A   1      42.739  31.488  29.294  1.00  0.00     0.029 A 
ATOM     47  N   UNL A   1      44.207  30.074  28.372  1.00  0.00    -0.354 N 
ATOM     48  C   UNL A   1      43.075  25.943  27.584  1.00  0.00     0.074 A 
ATOM     49  C   UNL A   1      41.688  25.713  27.923  1.00  0.00     0.031 C 
ATOM     50  C   UNL A   1      43.902  32.149  29.150  1.00  0.00     0.029 A 
ATOM     51  C   UNL A   1      44.905  31.236  28.606  1.00  0.00     0.049 A 
ATOM     52  H   UNL A   1      44.600  29.289  27.927  1.00  0.00     0.167 HD
ATOM     53  C   UNL A   1      43.901  25.005  27.065  1.00  0.00     0.037 A 
ATOM     54  C   UNL A   1      46.214  31.509  28.439  1.00  0.00     0.037 A 
ATOM     55  C   UNL A   1      45.275  25.253  26.725  1.00  0.00     0.049 A 
ATOM     56  C   UNL A   1      47.123  30.431  27.903  1.00  0.00     0.074 A 
ATOM     57  C   UNL A   1      46.181  24.392  26.134  1.00  0.00     0.029 A 
ATOM     58  N   UNL A   1      45.943  26.444  26.960  1.00  0.00    -0.354 N 
ATOM     59  N   UNL A   1      46.825  29.201  27.553  1.00  0.00    -0.248 NA
ATOM     60  C   UNL A   1      48.545  30.772  27.746  1.00  0.00     0.031 C 
ATOM     61  C   UNL A   1      47.413  25.048  26.055  1.00  0.00     0.029 A 
ATOM     62  C   UNL A   1      47.261  26.332  26.557  1.00  0.00     0.049 A 
ATOM     63  H   UNL A   1      45.540  27.252  27.354  1.00  0.00     0.167 HD
ATOM     64  C   UNL A   1      48.018  28.629  27.123  1.00  0.00     0.074 A 
ATOM     65  C   UNL A   1      49.036  29.651  27.236  1.00  0.00     0.031 C 
ATOM     66  C   UNL A   1      48.253  27.369  26.677  1.00  0.00     0.037 A 
BRANCH  53  67
ATOM     67  C   UNL A   1      43.352  23.626  26.846  1.00  0.00     0.058 A 
ATOM     68  C   UNL A   1      43.007  23.167  25.566  1.00  0.00     0.135 A 
ATOM     69  C   UNL A   1      43.235  22.730  27.921  1.00  0.00     0.135 A 
ATOM     70  F   UNL A   1      43.077  23.991  24.510  1.00  0.00    -0.206 F 
ATOM     71  C   UNL A   1      42.566  21.864  25.359  1.00  0.00     0.059 A 
ATOM     72  C   UNL A   1      42.818  21.417  27.733  1.00  0.00     0.059 A 
ATOM     73  F   UNL A   1      43.540  23.127  29.167  1.00  0.00    -0.206 F 
ATOM     74  C   UNL A   1      42.483  20.993  26.448  1.00  0.00     0.060 A 
BRANCH  74  75
ATOM     75  S   UNL A   1      41.961  19.292  26.152  1.00  0.00     0.124 S 
ATOM     76  O   UNL A   1      42.720  18.959  24.950  1.00  0.00    -0.237 OA
ATOM     77  O   UNL A   1      42.386  18.619  27.375  1.00  0.00    -0.237 OA
ATOM     78  O   UNL A   1      40.517  19.405  25.971  1.00  0.00    -0.744 OA
ENDBRANCH  74  75
ENDBRANCH  53  67
BRANCH  54  79
ATOM     79  C   UNL A   1      46.765  32.838  28.823  1.00  0.00     0.058 A 
ATOM     80  C   UNL A   1      46.844  33.886  27.894  1.00  0.00     0.135 A 
ATOM     81  C   UNL A   1      47.258  33.074  30.117  1.00  0.00     0.135 A 
ATOM     82  F   UNL A   1      46.395  33.707  26.643  1.00  0.00    -0.206 F 
ATOM     83  C   UNL A   1      47.415  35.111  28.224  1.00  0.00     0.059 A 
ATOM     84  C   UNL A   1      47.810  34.299  30.477  1.00  0.00     0.059 A 
ATOM     85  F   UNL A   1      47.196  32.109  31.047  1.00  0.00    -0.206 F 
ATOM     86  C   UNL A   1      47.900  35.307  29.518  1.00  0.00     0.060 A 
BRANCH  86  87
ATOM     87  S   UNL A   1      48.625  36.906  29.942  1.00  0.00     0.124 S 
ATOM     88  O   UNL A   1      47.452  37.652  30.379  1.00  0.00    -0.237 OA
ATOM     89  O   UNL A   1      49.579  36.543  30.987  1.00  0.00    -0.237 OA
ATOM     90  O   UNL A   1      49.224  37.345  28.685  1.00  0.00    -0.744 OA
ENDBRANCH  86  87
ENDBRANCH  54  79
BRANCH  66  91
ATOM     91  C   UNL A   1      49.658  27.031  26.267  1.00  0.00     0.058 A 
ATOM     92  C   UNL A   1      50.602  26.576  27.199  1.00  0.00     0.135 A 
ATOM     93  C   UNL A   1      50.040  27.092  24.917  1.00  0.00     0.135 A 
ATOM     94  F   UNL A   1      50.286  26.507  28.502  1.00  0.00    -0.206 F 
ATOM     95  C   UNL A   1      51.884  26.202  26.809  1.00  0.00     0.059 A 
ATOM     96  C   UNL A   1      51.307  26.700  24.500  1.00  0.00     0.059 A 
ATOM     97  F   UNL A   1      49.168  27.510  23.985  1.00  0.00    -0.206 F 
ATOM     98  C   UNL A   1      52.225  26.264  25.456  1.00  0.00     0.060 A 
BRANCH  98  99
ATOM     99  S   UNL A   1      53.875  25.729  24.956  1.00  0.00     0.124 S 
ATOM    100  O   UNL A   1      54.039  26.430  23.688  1.00  0.00    -0.237 OA
ATOM    101  O   UNL A   1      54.707  26.205  26.057  1.00  0.00    -0.237 OA
ATOM    102  O   UNL A   1      53.746  24.277  24.858  1.00  0.00    -0.744 OA
ENDBRANCH  98  99
ENDBRANCH  66  91
ENDBRANCH  40  41
ENDBRANCH  33  35
ENDBRANCH  32  33
ENDBRANCH  31  32
ENDBRANCH  30  31
ENDBRANCH  29  30
ENDBRANCH  28  29
ENDBRANCH   1  28
TORSDOF 23
ENDMDL
MODEL 2
REMARK VINA RESULT:     -10.8      6.215     12.296
REMARK SMILES O=C(OCCOCCOC(=O)c1ccc(-c2c3nc(c(-c4c(F)cc(S(=O)(=O)[O-])cc4F)c4ccc([nH]4)c(-c4c(F)cc(S(=O)(=O)[O-])cc4F)c4nc(c(-c5c(F)cc(S(=O)(=O)[O-])cc5F)c5ccc2[nH]5)C=C4)C=C3)cc1)c1ccc(C[C@H]2CCN(C(=O)Cc3cccc(O)c3)C2)cc1
REMARK SMILES IDX 4 1 3 2 2 3 1 4 78 5 79 6 99 7 80 8 98 9 81 10 82 11 83 12
REMARK SMILES IDX 84 13 97 14 85 15 86 16 87 17 88 18 89 19 90 20 91 21 96 22
REMARK SMILES IDX 92 23 94 24 93 25 95 26 5 28 6 29 7 30 8 31 9 32 10 33 11 34
REMARK SMILES IDX 12 35 13 36 77 37 14 38 76 39 15 40 16 41 17 42 70 43 18 44
REMARK SMILES IDX 75 45 69 46 71 47 19 48 74 49 68 50 67 51 20 53 54 54 33 55
REMARK SMILES IDX 53 56 34 57 37 58 52 59 72 60 35 61 36 62 51 64 73 65 38 66
REMARK SMILES IDX 21 67 22 68 31 69 23 70 24 71 30 72 32 73 25 74 26 75 27 76
REMARK SMILES IDX 28 77 29 78 55 79 56 80 65 81 57 82 58 83 64 84 66 85 59 86
REMARK SMILES IDX 60 87 61 88 62 89 63 90 39 91 40 92 49 93 41 94 42 95 48 96
REMARK SMILES IDX 50 97 43 98 44 99 45 100 46 101 47 102
REMARK H PARENT 95 27 71 52 37 63
REMARK Flexibility Score: inf
ROOT
ATOM      1  C   UNL A   1      39.461  21.604  26.499  1.00  0.00     0.261 C 
ENDROOT
BRANCH   1   2
ATOM      2  O   UNL A   1      38.782  21.391  25.243  1.00  0.00    -0.460 OA
BRANCH   2   3
ATOM      3  C   UNL A   1      37.530  20.897  25.093  1.00  0.00     0.338 C 
ATOM      4  O   UNL A   1      37.328  19.695  24.964  1.00  0.00    -0.246 OA
BRANCH   3   5
ATOM      5  C   UNL A   1      36.370  21.810  25.124  1.00  0.00     0.060 A 
ATOM      6  C   UNL A   1      35.064  21.326  25.183  1.00  0.00     0.016 A 
ATOM      7  C   UNL A   1      36.603  23.187  25.190  1.00  0.00     0.016 A 
ATOM      8  C   UNL A   1      33.993  22.211  25.227  1.00  0.00     0.004 A 
ATOM      9  C   UNL A   1      35.524  24.076  25.229  1.00  0.00     0.004 A 
ATOM     10  C   UNL A   1      34.209  23.594  25.222  1.00  0.00    -0.048 A 
BRANCH  10  11
ATOM     11  C   UNL A   1      33.025  24.529  25.164  1.00  0.00     0.041 C 
BRANCH  11  12
ATOM     12  C   UNL A   1      32.994  25.358  23.875  1.00  0.00     0.015 C 
ATOM     13  C   UNL A   1      32.085  24.797  22.774  1.00  0.00     0.027 C 
ATOM     14  C   UNL A   1      32.418  26.764  24.090  1.00  0.00     0.123 C 
ATOM     15  C   UNL A   1      31.836  26.003  21.897  1.00  0.00     0.120 C 
ATOM     16  N   UNL A   1      31.758  27.104  22.837  1.00  0.00    -0.342 N 
BRANCH  16  17
ATOM     17  C   UNL A   1      31.167  28.335  22.645  1.00  0.00     0.227 C 
ATOM     18  O   UNL A   1      31.827  29.319  22.301  1.00  0.00    -0.275 OA
BRANCH  17  19
ATOM     19  C   UNL A   1      29.665  28.457  22.881  1.00  0.00     0.135 C 
BRANCH  19  20
ATOM     20  C   UNL A   1      29.142  29.848  22.609  1.00  0.00    -0.035 A 
ATOM     21  C   UNL A   1      29.143  30.828  23.612  1.00  0.00     0.004 A 
ATOM     22  C   UNL A   1      28.604  30.165  21.354  1.00  0.00     0.050 A 
ATOM     23  C   UNL A   1      28.564  32.077  23.390  1.00  0.00     0.004 A 
ATOM     24  C   UNL A   1      28.065  31.430  21.131  1.00  0.00     0.115 A 
ATOM     25  C   UNL A   1      28.019  32.377  22.146  1.00  0.00     0.046 A 
BRANCH  24  26
ATOM     26  O   UNL A   1      27.564  31.781  19.911  1.00  0.00    -0.508 OA
ATOM     27  H   UNL A   1      26.641  31.885  19.796  1.00  0.00     0.293 HD
ENDBRANCH  24  26
ENDBRANCH  19  20
ENDBRANCH  17  19
ENDBRANCH  16  17
ENDBRANCH  11  12
ENDBRANCH  10  11
ENDBRANCH   3   5
ENDBRANCH   2   3
ENDBRANCH   1   2
BRANCH   1  28
ATOM     28  C   UNL A   1      40.749  20.783  26.538  1.00  0.00     0.202 C 
BRANCH  28  29
ATOM     29  O   UNL A   1      41.721  21.253  25.601  1.00  0.00    -0.374 OA
BRANCH  29  30
ATOM     30  C   UNL A   1      42.971  21.653  26.185  1.00  0.00     0.202 C 
BRANCH  30  31
ATOM     31  C   UNL A   1      42.703  22.605  27.351  1.00  0.00     0.261 C 
BRANCH  31  32
ATOM     32  O   UNL A   1      43.011  23.937  26.916  1.00  0.00    -0.460 OA
BRANCH  32  33
ATOM     33  C   UNL A   1      41.933  24.706  26.626  1.00  0.00     0.338 C 
ATOM     34  O   UNL A   1      41.092  24.505  25.764  1.00  0.00    -0.246 OA
BRANCH  33  35
ATOM     35  C   UNL A   1      41.812  25.726  27.691  1.00  0.00     0.060 A 
ATOM     36  C   UNL A   1      40.638  25.753  28.458  1.00  0.00     0.016 A 
ATOM     37  C   UNL A   1      42.866  26.597  27.986  1.00  0.00     0.016 A 
ATOM     38  C   UNL A   1      40.515  26.652  29.516  1.00  0.00     0.010 A 
ATOM     39  C   UNL A   1      42.742  27.495  29.042  1.00  0.00     0.010 A 
ATOM     40  C   UNL A   1      41.561  27.539  29.799  1.00  0.00    -0.014 A 
BRANCH  40  41
ATOM     41  C   UNL A   1      41.403  28.622  30.791  1.00  0.00     0.031 A 
ATOM     42  C   UNL A   1      42.227  28.555  32.044  1.00  0.00     0.074 A 
ATOM     43  C   UNL A   1      40.482  29.586  30.612  1.00  0.00     0.049 A 
ATOM     44  N   UNL A   1      42.144  29.278  33.126  1.00  0.00    -0.248 NA
ATOM     45  C   UNL A   1      43.273  27.519  32.087  1.00  0.00     0.031 C 
ATOM     46  C   UNL A   1      39.635  29.739  29.429  1.00  0.00     0.029 A 
ATOM     47  N   UNL A   1      40.077  30.596  31.448  1.00  0.00    -0.354 N 
ATOM     48  C   UNL A   1      43.110  28.773  33.988  1.00  0.00     0.074 A 
ATOM     49  C   UNL A   1      43.760  27.675  33.309  1.00  0.00     0.031 C 
ATOM     50  C   UNL A   1      38.782  30.760  29.631  1.00  0.00     0.029 A 
ATOM     51  C   UNL A   1      39.001  31.306  30.968  1.00  0.00     0.049 A 
ATOM     52  H   UNL A   1      40.514  30.793  32.307  1.00  0.00     0.167 HD
ATOM     53  C   UNL A   1      43.421  29.194  35.235  1.00  0.00     0.037 A 
ATOM     54  C   UNL A   1      38.255  32.257  31.565  1.00  0.00     0.037 A 
ATOM     55  C   UNL A   1      42.770  30.293  35.892  1.00  0.00     0.049 A 
ATOM     56  C   UNL A   1      38.595  32.674  32.974  1.00  0.00     0.074 A 
ATOM     57  C   UNL A   1      43.052  30.843  37.129  1.00  0.00     0.029 A 
ATOM     58  N   UNL A   1      41.697  31.000  35.372  1.00  0.00    -0.354 N 
ATOM     59  N   UNL A   1      39.555  32.236  33.755  1.00  0.00    -0.248 NA
ATOM     60  C   UNL A   1      37.748  33.708  33.588  1.00  0.00     0.031 C 
ATOM     61  C   UNL A   1      42.117  31.853  37.378  1.00  0.00     0.029 A 
ATOM     62  C   UNL A   1      41.282  31.959  36.276  1.00  0.00     0.049 A 
ATOM     63  H   UNL A   1      41.291  30.843  34.488  1.00  0.00     0.167 HD
ATOM     64  C   UNL A   1      39.435  32.950  34.943  1.00  0.00     0.074 A 
ATOM     65  C   UNL A   1      38.324  33.862  34.772  1.00  0.00     0.031 C 
ATOM     66  C   UNL A   1      40.174  32.859  36.077  1.00  0.00     0.037 A 
BRANCH  53  67
ATOM     67  C   UNL A   1      44.499  28.461  35.977  1.00  0.00     0.058 A 
ATOM     68  C   UNL A   1      44.210  27.355  36.793  1.00  0.00     0.135 A 
ATOM     69  C   UNL A   1      45.845  28.825  35.816  1.00  0.00     0.135 A 
ATOM     70  F   UNL A   1      42.938  26.982  37.000  1.00  0.00    -0.206 F 
ATOM     71  C   UNL A   1      45.221  26.636  37.421  1.00  0.00     0.059 A 
ATOM     72  C   UNL A   1      46.873  28.107  36.417  1.00  0.00     0.059 A 
ATOM     73  F   UNL A   1      46.171  29.884  35.056  1.00  0.00    -0.206 F 
ATOM     74  C   UNL A   1      46.551  27.014  37.221  1.00  0.00     0.060 A 
BRANCH  74  75
ATOM     75  S   UNL A   1      47.851  26.036  38.001  1.00  0.00     0.124 S 
ATOM     76  O   UNL A   1      48.859  25.997  36.946  1.00  0.00    -0.237 OA
ATOM     77  O   UNL A   1      48.188  26.843  39.169  1.00  0.00    -0.237 OA
ATOM     78  O   UNL A   1      47.195  24.764  38.289  1.00  0.00    -0.744 OA
ENDBRANCH  74  75
ENDBRANCH  53  67
BRANCH  54  79
ATOM     79  C   UNL A   1      37.083  32.850  30.864  1.00  0.00     0.058 A 
ATOM     80  C   UNL A   1      37.249  33.849  29.894  1.00  0.00     0.135 A 
ATOM     81  C   UNL A   1      35.772  32.456  31.178  1.00  0.00     0.135 A 
ATOM     82  F   UNL A   1      38.481  34.266  29.566  1.00  0.00    -0.206 F 
ATOM     83  C   UNL A   1      36.159  34.456  29.278  1.00  0.00     0.059 A 
ATOM     84  C   UNL A   1      34.668  33.031  30.557  1.00  0.00     0.059 A 
ATOM     85  F   UNL A   1      35.558  31.497  32.091  1.00  0.00    -0.206 F 
ATOM     86  C   UNL A   1      34.871  34.043  29.620  1.00  0.00     0.060 A 
BRANCH  86  87
ATOM     87  S   UNL A   1      33.461  34.825  28.804  1.00  0.00     0.124 S 
ATOM     88  O   UNL A   1      33.093  33.812  27.823  1.00  0.00    -0.237 OA
ATOM     89  O   UNL A   1      32.529  35.011  29.913  1.00  0.00    -0.237 OA
ATOM     90  O   UNL A   1      34.030  36.055  28.262  1.00  0.00    -0.744 OA
ENDBRANCH  86  87
ENDBRANCH  54  79
BRANCH  66  91
ATOM     91  C   UNL A   1      39.815  33.774  37.213  1.00  0.00     0.058 A 
ATOM     92  C   UNL A   1      38.902  33.386  38.204  1.00  0.00     0.135 A 
ATOM     93  C   UNL A   1      40.449  35.019  37.351  1.00  0.00     0.135 A 
ATOM     94  F   UNL A   1      38.266  32.208  38.112  1.00  0.00    -0.206 F 
ATOM     95  C   UNL A   1      38.618  34.208  39.289  1.00  0.00     0.059 A 
ATOM     96  C   UNL A   1      40.200  35.847  38.440  1.00  0.00     0.059 A 
ATOM     97  F   UNL A   1      41.340  35.430  36.434  1.00  0.00    -0.206 F 
ATOM     98  C   UNL A   1      39.276  35.435  39.400  1.00  0.00     0.060 A 
BRANCH  98  99
ATOM     99  S   UNL A   1      38.936  36.470  40.840  1.00  0.00     0.124 S 
ATOM    100  O   UNL A   1      37.912  35.690  41.526  1.00  0.00    -0.237 OA
ATOM    101  O   UNL A   1      40.236  36.529  41.499  1.00  0.00    -0.237 OA
ATOM    102  O   UNL A   1      38.479  37.727  40.254  1.00  0.00    -0.744 OA
ENDBRANCH  98  99
ENDBRANCH  66  91
ENDBRANCH  40  41
ENDBRANCH  33  35
ENDBRANCH  32  33
ENDBRANCH  31  32
ENDBRANCH  30  31
ENDBRANCH  29  30
ENDBRANCH  28  29
ENDBRANCH   1  28
TORSDOF 23
ENDMDL
MODEL 3
REMARK VINA RESULT:     -10.5      6.508     11.866
REMARK SMILES O=C(OCCOCCOC(=O)c1ccc(-c2c3nc(c(-c4c(F)cc(S(=O)(=O)[O-])cc4F)c4ccc([nH]4)c(-c4c(F)cc(S(=O)(=O)[O-])cc4F)c4nc(c(-c5c(F)cc(S(=O)(=O)[O-])cc5F)c5ccc2[nH]5)C=C4)C=C3)cc1)c1ccc(C[C@H]2CCN(C(=O)Cc3cccc(O)c3)C2)cc1
REMARK SMILES IDX 4 1 3 2 2 3 1 4 78 5 79 6 99 7 80 8 98 9 81 10 82 11 83 12
REMARK SMILES IDX 84 13 97 14 85 15 86 16 87 17 88 18 89 19 90 20 91 21 96 22
REMARK SMILES IDX 92 23 94 24 93 25 95 26 5 28 6 29 7 30 8 31 9 32 10 33 11 34
REMARK SMILES IDX 12 35 13 36 77 37 14 38 76 39 15 40 16 41 17 42 70 43 18 44
REMARK SMILES IDX 75 45 69 46 71 47 19 48 74 49 68 50 67 51 20 53 54 54 33 55
REMARK SMILES IDX 53 56 34 57 37 58 52 59 72 60 35 61 36 62 51 64 73 65 38 66
REMARK SMILES IDX 21 67 22 68 31 69 23 70 24 71 30 72 32 73 25 74 26 75 27 76
REMARK SMILES IDX 28 77 29 78 55 79 56 80 65 81 57 82 58 83 64 84 66 85 59 86
REMARK SMILES IDX 60 87 61 88 62 89 63 90 39 91 40 92 49 93 41 94 42 95 48 96
REMARK SMILES IDX 50 97 43 98 44 99 45 100 46 101 47 102
REMARK H PARENT 95 27 71 52 37 63
REMARK Flexibility Score: inf
ROOT
ATOM      1  C   UNL A   1      35.354  32.273  29.931  1.00  0.00     0.261 C 
ENDROOT
BRANCH   1   2
ATOM      2  O   UNL A   1      35.652  30.917  29.533  1.00  0.00    -0.460 OA
BRANCH   2   3
ATOM      3  C   UNL A   1      36.454  30.054  30.200  1.00  0.00     0.338 C 
ATOM      4  O   UNL A   1      36.264  29.787  31.382  1.00  0.00    -0.246 OA
BRANCH   3   5
ATOM      5  C   UNL A   1      37.561  29.381  29.491  1.00  0.00     0.060 A 
ATOM      6  C   UNL A   1      38.209  28.274  30.038  1.00  0.00     0.016 A 
ATOM      7  C   UNL A   1      37.893  29.813  28.204  1.00  0.00     0.016 A 
ATOM      8  C   UNL A   1      39.237  27.652  29.339  1.00  0.00     0.004 A 
ATOM      9  C   UNL A   1      38.932  29.189  27.505  1.00  0.00     0.004 A 
ATOM     10  C   UNL A   1      39.629  28.119  28.080  1.00  0.00    -0.048 A 
BRANCH  10  11
ATOM     11  C   UNL A   1      40.817  27.490  27.392  1.00  0.00     0.041 C 
BRANCH  11  12
ATOM     12  C   UNL A   1      40.902  25.978  27.633  1.00  0.00     0.015 C 
ATOM     13  C   UNL A   1      40.120  25.124  26.627  1.00  0.00     0.027 C 
ATOM     14  C   UNL A   1      42.330  25.435  27.483  1.00  0.00     0.123 C 
ATOM     15  C   UNL A   1      40.774  23.767  26.758  1.00  0.00     0.120 C 
ATOM     16  N   UNL A   1      42.173  24.078  26.979  1.00  0.00    -0.342 N 
BRANCH  16  17
ATOM     17  C   UNL A   1      43.261  23.256  26.774  1.00  0.00     0.227 C 
ATOM     18  O   UNL A   1      44.118  23.092  27.647  1.00  0.00    -0.275 OA
BRANCH  17  19
ATOM     19  C   UNL A   1      43.389  22.553  25.427  1.00  0.00     0.135 C 
BRANCH  19  20
ATOM     20  C   UNL A   1      43.394  21.048  25.550  1.00  0.00    -0.035 A 
ATOM     21  C   UNL A   1      42.326  20.371  26.155  1.00  0.00     0.004 A 
ATOM     22  C   UNL A   1      44.495  20.308  25.098  1.00  0.00     0.050 A 
ATOM     23  C   UNL A   1      42.380  18.992  26.364  1.00  0.00     0.004 A 
ATOM     24  C   UNL A   1      44.520  18.926  25.273  1.00  0.00     0.115 A 
ATOM     25  C   UNL A   1      43.484  18.269  25.924  1.00  0.00     0.046 A 
BRANCH  24  26
ATOM     26  O   UNL A   1      45.562  18.173  24.814  1.00  0.00    -0.508 OA
ATOM     27  H   UNL A   1      45.468  17.245  24.731  1.00  0.00     0.293 HD
ENDBRANCH  24  26
ENDBRANCH  19  20
ENDBRANCH  17  19
ENDBRANCH  16  17
ENDBRANCH  11  12
ENDBRANCH  10  11
ENDBRANCH   3   5
ENDBRANCH   2   3
ENDBRANCH   1   2
BRANCH   1  28
ATOM     28  C   UNL A   1      36.198  33.251  29.117  1.00  0.00     0.202 C 
BRANCH  28  29
ATOM     29  O   UNL A   1      35.502  34.467  28.837  1.00  0.00    -0.374 OA
BRANCH  29  30
ATOM     30  C   UNL A   1      34.087  34.316  28.642  1.00  0.00     0.202 C 
BRANCH  30  31
ATOM     31  C   UNL A   1      33.347  35.374  29.461  1.00  0.00     0.261 C 
BRANCH  31  32
ATOM     32  O   UNL A   1      32.757  34.725  30.595  1.00  0.00    -0.460 OA
BRANCH  32  33
ATOM     33  C   UNL A   1      32.941  35.364  31.777  1.00  0.00     0.338 C 
ATOM     34  O   UNL A   1      32.170  36.133  32.329  1.00  0.00    -0.246 OA
BRANCH  33  35
ATOM     35  C   UNL A   1      34.150  34.792  32.411  1.00  0.00     0.060 A 
ATOM     36  C   UNL A   1      35.311  35.576  32.458  1.00  0.00     0.016 A 
ATOM     37  C   UNL A   1      34.123  33.533  33.021  1.00  0.00     0.016 A 
ATOM     38  C   UNL A   1      36.449  35.101  33.109  1.00  0.00     0.010 A 
ATOM     39  C   UNL A   1      35.260  33.060  33.670  1.00  0.00     0.010 A 
ATOM     40  C   UNL A   1      36.431  33.833  33.702  1.00  0.00    -0.014 A 
BRANCH  40  41
ATOM     41  C   UNL A   1      37.661  33.220  34.244  1.00  0.00     0.031 A 
ATOM     42  C   UNL A   1      37.899  33.310  35.723  1.00  0.00     0.074 A 
ATOM     43  C   UNL A   1      38.578  32.681  33.421  1.00  0.00     0.049 A 
ATOM     44  N   UNL A   1      38.969  33.011  36.407  1.00  0.00    -0.248 NA
ATOM     45  C   UNL A   1      36.785  33.826  36.538  1.00  0.00     0.031 C 
ATOM     46  C   UNL A   1      38.439  32.545  31.970  1.00  0.00     0.029 A 
ATOM     47  N   UNL A   1      39.830  32.186  33.686  1.00  0.00    -0.354 N 
ATOM     48  C   UNL A   1      38.667  33.320  37.727  1.00  0.00     0.074 A 
ATOM     49  C   UNL A   1      37.319  33.842  37.750  1.00  0.00     0.031 C 
ATOM     50  C   UNL A   1      39.579  32.036  31.468  1.00  0.00     0.029 A 
ATOM     51  C   UNL A   1      40.536  31.846  32.555  1.00  0.00     0.049 A 
ATOM     52  H   UNL A   1      40.188  32.084  34.597  1.00  0.00     0.167 HD
ATOM     53  C   UNL A   1      39.451  33.179  38.821  1.00  0.00     0.037 A 
ATOM     54  C   UNL A   1      41.823  31.468  32.418  1.00  0.00     0.037 A 
ATOM     55  C   UNL A   1      40.787  32.651  38.781  1.00  0.00     0.049 A 
ATOM     56  C   UNL A   1      42.688  31.364  33.649  1.00  0.00     0.074 A 
ATOM     57  C   UNL A   1      41.643  32.404  39.838  1.00  0.00     0.029 A 
ATOM     58  N   UNL A   1      41.464  32.301  37.623  1.00  0.00    -0.354 N 
ATOM     59  N   UNL A   1      42.372  31.594  34.902  1.00  0.00    -0.248 NA
ATOM     60  C   UNL A   1      44.087  30.957  33.450  1.00  0.00     0.031 C 
ATOM     61  C   UNL A   1      42.858  31.950  39.315  1.00  0.00     0.029 A 
ATOM     62  C   UNL A   1      42.740  31.873  37.935  1.00  0.00     0.049 A 
ATOM     63  H   UNL A   1      41.090  32.349  36.713  1.00  0.00     0.167 HD
ATOM     64  C   UNL A   1      43.525  31.346  35.639  1.00  0.00     0.074 A 
ATOM     65  C   UNL A   1      44.541  30.929  34.695  1.00  0.00     0.031 C 
ATOM     66  C   UNL A   1      43.730  31.457  36.975  1.00  0.00     0.037 A 
BRANCH  53  67
ATOM     67  C   UNL A   1      38.897  33.612  40.146  1.00  0.00     0.058 A 
ATOM     68  C   UNL A   1      38.136  32.744  40.944  1.00  0.00     0.135 A 
ATOM     69  C   UNL A   1      39.189  34.888  40.654  1.00  0.00     0.135 A 
ATOM     70  F   UNL A   1      37.809  31.523  40.493  1.00  0.00    -0.206 F 
ATOM     71  C   UNL A   1      37.685  33.126  42.203  1.00  0.00     0.059 A 
ATOM     72  C   UNL A   1      38.767  35.283  41.919  1.00  0.00     0.059 A 
ATOM     73  F   UNL A   1      39.902  35.759  39.922  1.00  0.00    -0.206 F 
ATOM     74  C   UNL A   1      38.013  34.395  42.686  1.00  0.00     0.060 A 
BRANCH  74  75
ATOM     75  S   UNL A   1      37.465  34.854  44.343  1.00  0.00     0.124 S 
ATOM     76  O   UNL A   1      38.032  33.775  45.146  1.00  0.00    -0.237 OA
ATOM     77  O   UNL A   1      38.080  36.165  44.521  1.00  0.00    -0.237 OA
ATOM     78  O   UNL A   1      36.010  34.856  44.232  1.00  0.00    -0.744 OA
ENDBRANCH  74  75
ENDBRANCH  53  67
BRANCH  54  79
ATOM     79  C   UNL A   1      42.394  31.205  31.069  1.00  0.00     0.058 A 
ATOM     80  C   UNL A   1      42.993  32.231  30.324  1.00  0.00     0.135 A 
ATOM     81  C   UNL A   1      42.320  29.931  30.483  1.00  0.00     0.135 A 
ATOM     82  F   UNL A   1      43.079  33.468  30.835  1.00  0.00    -0.206 F 
ATOM     83  C   UNL A   1      43.473  32.013  29.036  1.00  0.00     0.059 A 
ATOM     84  C   UNL A   1      42.816  29.682  29.208  1.00  0.00     0.059 A 
ATOM     85  F   UNL A   1      41.768  28.911  31.158  1.00  0.00    -0.206 F 
ATOM     86  C   UNL A   1      43.376  30.735  28.484  1.00  0.00     0.060 A 
BRANCH  86  87
ATOM     87  S   UNL A   1      44.017  30.456  26.819  1.00  0.00     0.124 S 
ATOM     88  O   UNL A   1      42.924  29.711  26.206  1.00  0.00    -0.237 OA
ATOM     89  O   UNL A   1      44.214  31.818  26.333  1.00  0.00    -0.237 OA
ATOM     90  O   UNL A   1      45.244  29.701  27.055  1.00  0.00    -0.744 OA
ENDBRANCH  86  87
ENDBRANCH  54  79
BRANCH  66  91
ATOM     91  C   UNL A   1      45.096  31.111  37.496  1.00  0.00     0.058 A 
ATOM     92  C   UNL A   1      46.071  32.097  37.704  1.00  0.00     0.135 A 
ATOM     93  C   UNL A   1      45.403  29.791  37.864  1.00  0.00     0.135 A 
ATOM     94  F   UNL A   1      45.826  33.371  37.362  1.00  0.00    -0.206 F 
ATOM     95  C   UNL A   1      47.313  31.785  38.246  1.00  0.00     0.059 A 
ATOM     96  C   UNL A   1      46.629  29.460  38.432  1.00  0.00     0.059 A 
ATOM     97  F   UNL A   1      44.498  28.813  37.696  1.00  0.00    -0.206 F 
ATOM     98  C   UNL A   1      47.581  30.463  38.611  1.00  0.00     0.060 A 
BRANCH  98  99
ATOM     99  S   UNL A   1      49.177  30.081  39.361  1.00  0.00     0.124 S 
ATOM    100  O   UNL A   1      49.011  30.632  40.701  1.00  0.00    -0.237 OA
ATOM    101  O   UNL A   1      49.225  28.625  39.275  1.00  0.00    -0.237 OA
ATOM    102  O   UNL A   1      50.131  30.785  38.507  1.00  0.00    -0.744 OA
ENDBRANCH  98  99
ENDBRANCH  66  91
ENDBRANCH  40  41
ENDBRANCH  33  35
ENDBRANCH  32  33
ENDBRANCH  31  32
ENDBRANCH  30  31
ENDBRANCH  29  30
ENDBRANCH  28  29
ENDBRANCH   1  28
TORSDOF 23
ENDMDL
