MODEL 1
REMARK VINA RESULT:     -12.0      0.000      0.000
REMARK SMILES C[C@H]1CC[C@H]([NH2+]Cc2c(C(=O)OCCOCCOC(=O)c3ccc(-c4c5nc(c(-c6c(F)cc(S(=O)(=O)[O-])cc6F)c6ccc([nH]6)c(-c6c(F)cc(S(=O)(=O)[O-])cc6F)c6nc(c(-c7c(F)cc(S(=O)(=O)[O-])cc7F)c7ccc4[nH]7)C=C6)C=C5)cc3)n(Cc3ccccc3F)c3ccccc23)CC1
REMARK SMILES IDX 15 1 14 2 13 3 12 4 10 5 11 6 9 7 8 8 101 9 87 10 96 11
REMARK SMILES IDX 100 12 97 13 99 14 98 15 7 16 6 17 5 20 1 21 2 22 3 23
REMARK SMILES IDX 103 24 4 25 102 26 88 27 89 28 90 29 94 30 91 31 93 32 95 33
REMARK SMILES IDX 92 34 16 35 17 36 18 37 19 38 20 39 21 40 22 41 86 42 23 43
REMARK SMILES IDX 85 44 24 45 25 46 26 47 79 48 27 49 84 50 78 51 80 52 28 53
REMARK SMILES IDX 83 54 77 55 76 56 29 58 63 59 42 60 62 61 43 62 46 63 61 64
REMARK SMILES IDX 81 65 44 66 45 67 60 69 82 70 47 71 30 72 31 73 40 74 32 75
REMARK SMILES IDX 33 76 39 77 41 78 34 79 35 80 36 81 37 82 38 83 64 84 65 85
REMARK SMILES IDX 74 86 66 87 67 88 73 89 75 90 68 91 69 92 70 93 71 94 72 95
REMARK SMILES IDX 48 96 49 97 58 98 50 99 51 100 57 101 59 102 52 103 53 104
REMARK SMILES IDX 54 105 55 106 56 107
REMARK H PARENT 6 18 6 19 80 57 46 68
REMARK Flexibility Score: inf
ROOT
ATOM      1  O   UNL A   1      35.550  21.949  24.110  1.00  0.00    -0.374 OA
ENDROOT
BRANCH   1   2
ATOM      2  C   UNL A   1      35.736  23.290  23.675  1.00  0.00     0.202 C 
BRANCH   2   3
ATOM      3  C   UNL A   1      35.271  24.440  24.577  1.00  0.00     0.261 C 
BRANCH   3   4
ATOM      4  O   UNL A   1      34.028  25.062  24.205  1.00  0.00    -0.459 OA
BRANCH   4   5
ATOM      5  C   UNL A   1      33.276  25.479  25.267  1.00  0.00     0.355 C 
ATOM      6  O   UNL A   1      33.534  25.178  26.429  1.00  0.00    -0.244 OA
BRANCH   5   7
ATOM      7  C   UNL A   1      32.144  26.316  24.870  1.00  0.00     0.137 A 
ATOM      8  C   UNL A   1      32.091  27.590  24.263  1.00  0.00     0.047 A 
ATOM      9  C   UNL A   1      30.705  27.867  23.978  1.00  0.00     0.009 A 
ATOM     10  N   UNL A   1      30.828  25.839  24.895  1.00  0.00    -0.330 N 
ATOM     11  C   UNL A   1      29.977  26.717  24.245  1.00  0.00     0.050 A 
ATOM     12  C   UNL A   1      30.031  28.976  23.411  1.00  0.00     0.011 A 
ATOM     13  C   UNL A   1      28.629  26.594  23.859  1.00  0.00     0.027 A 
ATOM     14  C   UNL A   1      28.674  28.883  23.088  1.00  0.00     0.001 A 
ATOM     15  C   UNL A   1      27.989  27.694  23.287  1.00  0.00     0.002 A 
BRANCH   8  16
ATOM     16  C   UNL A   1      33.157  28.563  23.804  1.00  0.00     0.300 C 
BRANCH  16  17
ATOM     17  N   UNL A   1      33.308  29.761  24.599  1.00  0.00    -0.340 N 
ATOM     18  H   UNL A   1      34.199  30.181  24.334  1.00  0.00     0.346 HD
ATOM     19  H   UNL A   1      32.465  30.295  24.391  1.00  0.00     0.346 HD
BRANCH  17  20
ATOM     20  C   UNL A   1      33.301  29.660  26.075  1.00  0.00     0.182 C 
ATOM     21  C   UNL A   1      36.631  31.128  28.589  1.00  0.00     0.007 C 
ATOM     22  C   UNL A   1      35.539  30.662  27.641  1.00  0.00    -0.014 C 
ATOM     23  C   UNL A   1      34.169  31.226  27.991  1.00  0.00     0.009 C 
ATOM     24  C   UNL A   1      35.382  29.148  27.597  1.00  0.00     0.009 C 
ATOM     25  C   UNL A   1      33.210  31.007  26.827  1.00  0.00     0.065 C 
ATOM     26  C   UNL A   1      34.514  28.757  26.412  1.00  0.00     0.065 C 
ENDBRANCH  17  20
ENDBRANCH  16  17
ENDBRANCH   8  16
BRANCH  10  27
ATOM     27  C   UNL A   1      30.372  24.552  25.431  1.00  0.00     0.161 C 
BRANCH  27  28
ATOM     28  C   UNL A   1      31.006  23.365  24.748  1.00  0.00     0.008 A 
ATOM     29  C   UNL A   1      31.108  23.289  23.350  1.00  0.00     0.008 A 
ATOM     30  C   UNL A   1      31.559  22.325  25.497  1.00  0.00     0.128 A 
ATOM     31  C   UNL A   1      31.747  22.213  22.730  1.00  0.00     0.001 A 
ATOM     32  C   UNL A   1      32.207  21.250  24.887  1.00  0.00     0.039 A 
ATOM     33  F   UNL A   1      31.501  22.354  26.833  1.00  0.00    -0.207 F 
ATOM     34  C   UNL A   1      32.302  21.195  23.500  1.00  0.00     0.003 A 
ENDBRANCH  27  28
ENDBRANCH  10  27
ENDBRANCH   5   7
ENDBRANCH   4   5
ENDBRANCH   3   4
ENDBRANCH   2   3
ENDBRANCH   1   2
BRANCH   1  35
ATOM     35  C   UNL A   1      36.106  21.565  25.369  1.00  0.00     0.202 C 
BRANCH  35  36
ATOM     36  C   UNL A   1      37.611  21.265  25.432  1.00  0.00     0.261 C 
BRANCH  36  37
ATOM     37  O   UNL A   1      38.371  22.439  25.754  1.00  0.00    -0.460 OA
BRANCH  37  38
ATOM     38  C   UNL A   1      39.445  22.228  26.559  1.00  0.00     0.338 C 
ATOM     39  O   UNL A   1      40.097  21.203  26.673  1.00  0.00    -0.246 OA
BRANCH  38  40
ATOM     40  C   UNL A   1      39.883  23.553  27.034  1.00  0.00     0.060 A 
ATOM     41  C   UNL A   1      41.091  23.706  27.710  1.00  0.00     0.016 A 
ATOM     42  C   UNL A   1      38.971  24.616  26.942  1.00  0.00     0.016 A 
ATOM     43  C   UNL A   1      41.358  24.924  28.327  1.00  0.00     0.010 A 
ATOM     44  C   UNL A   1      39.226  25.816  27.607  1.00  0.00     0.010 A 
ATOM     45  C   UNL A   1      40.412  25.965  28.328  1.00  0.00    -0.014 A 
BRANCH  45  46
ATOM     46  C   UNL A   1      40.791  27.214  29.005  1.00  0.00     0.031 A 
ATOM     47  C   UNL A   1      41.978  27.906  28.428  1.00  0.00     0.074 A 
ATOM     48  C   UNL A   1      40.122  27.863  29.981  1.00  0.00     0.049 A 
ATOM     49  N   UNL A   1      43.113  28.170  28.991  1.00  0.00    -0.248 NA
ATOM     50  C   UNL A   1      41.887  28.310  27.017  1.00  0.00     0.031 C 
ATOM     51  C   UNL A   1      38.768  27.615  30.473  1.00  0.00     0.029 A 
ATOM     52  N   UNL A   1      40.513  28.977  30.684  1.00  0.00    -0.354 N 
ATOM     53  C   UNL A   1      43.823  28.929  28.065  1.00  0.00     0.074 A 
ATOM     54  C   UNL A   1      43.069  28.898  26.835  1.00  0.00     0.031 C 
ATOM     55  C   UNL A   1      38.377  28.665  31.235  1.00  0.00     0.029 A 
ATOM     56  C   UNL A   1      39.489  29.592  31.391  1.00  0.00     0.049 A 
ATOM     57  H   UNL A   1      41.439  29.310  30.686  1.00  0.00     0.167 HD
ATOM     58  C   UNL A   1      44.902  29.686  28.396  1.00  0.00     0.037 A 
ATOM     59  C   UNL A   1      39.531  30.801  32.003  1.00  0.00     0.037 A 
ATOM     60  C   UNL A   1      45.438  29.378  29.691  1.00  0.00     0.049 A 
ATOM     61  C   UNL A   1      40.947  31.187  32.226  1.00  0.00     0.074 A 
ATOM     62  C   UNL A   1      46.003  28.270  30.287  1.00  0.00     0.029 A 
ATOM     63  N   UNL A   1      45.210  30.277  30.701  1.00  0.00    -0.354 N 
ATOM     64  N   UNL A   1      41.742  30.663  33.114  1.00  0.00    -0.248 NA
ATOM     65  C   UNL A   1      41.588  32.082  31.270  1.00  0.00     0.031 C 
ATOM     66  C   UNL A   1      45.723  28.395  31.679  1.00  0.00     0.029 A 
ATOM     67  C   UNL A   1      44.987  29.565  31.853  1.00  0.00     0.049 A 
ATOM     68  H   UNL A   1      45.206  31.257  30.615  1.00  0.00     0.167 HD
ATOM     69  C   UNL A   1      43.014  30.841  32.602  1.00  0.00     0.074 A 
ATOM     70  C   UNL A   1      42.867  31.852  31.567  1.00  0.00     0.031 C 
ATOM     71  C   UNL A   1      44.011  29.943  32.855  1.00  0.00     0.037 A 
BRANCH  58  72
ATOM     72  C   UNL A   1      45.289  30.936  27.655  1.00  0.00     0.058 A 
ATOM     73  C   UNL A   1      46.551  31.031  27.038  1.00  0.00     0.135 A 
ATOM     74  C   UNL A   1      44.557  32.139  27.767  1.00  0.00     0.135 A 
ATOM     75  F   UNL A   1      47.331  29.946  26.913  1.00  0.00    -0.206 F 
ATOM     76  C   UNL A   1      47.068  32.249  26.596  1.00  0.00     0.059 A 
ATOM     77  C   UNL A   1      45.032  33.353  27.290  1.00  0.00     0.059 A 
ATOM     78  F   UNL A   1      43.391  32.187  28.428  1.00  0.00    -0.206 F 
ATOM     79  C   UNL A   1      46.306  33.407  26.743  1.00  0.00     0.060 A 
BRANCH  79  80
ATOM     80  S   UNL A   1      47.017  34.996  26.276  1.00  0.00     0.124 S 
ATOM     81  O   UNL A   1      47.931  34.601  25.212  1.00  0.00    -0.237 OA
ATOM     82  O   UNL A   1      45.839  35.751  25.860  1.00  0.00    -0.237 OA
ATOM     83  O   UNL A   1      47.641  35.458  27.513  1.00  0.00    -0.744 OA
ENDBRANCH  79  80
ENDBRANCH  58  72
BRANCH  59  84
ATOM     84  C   UNL A   1      38.443  31.791  32.229  1.00  0.00     0.058 A 
ATOM     85  C   UNL A   1      38.108  32.728  31.232  1.00  0.00     0.135 A 
ATOM     86  C   UNL A   1      37.516  31.638  33.276  1.00  0.00     0.135 A 
ATOM     87  F   UNL A   1      38.928  32.935  30.191  1.00  0.00    -0.206 F 
ATOM     88  C   UNL A   1      36.890  33.411  31.230  1.00  0.00     0.059 A 
ATOM     89  C   UNL A   1      36.302  32.322  33.305  1.00  0.00     0.059 A 
ATOM     90  F   UNL A   1      37.716  30.738  34.251  1.00  0.00    -0.206 F 
ATOM     91  C   UNL A   1      35.979  33.178  32.258  1.00  0.00     0.060 A 
BRANCH  91  92
ATOM     92  S   UNL A   1      34.322  33.887  32.140  1.00  0.00     0.124 S 
ATOM     93  O   UNL A   1      34.017  33.714  30.723  1.00  0.00    -0.237 OA
ATOM     94  O   UNL A   1      33.564  33.047  33.063  1.00  0.00    -0.237 OA
ATOM     95  O   UNL A   1      34.512  35.269  32.574  1.00  0.00    -0.744 OA
ENDBRANCH  91  92
ENDBRANCH  59  84
BRANCH  71  96
ATOM     96  C   UNL A   1      43.911  29.091  34.090  1.00  0.00     0.058 A 
ATOM     97  C   UNL A   1      43.157  27.913  34.186  1.00  0.00     0.135 A 
ATOM     98  C   UNL A   1      44.700  29.436  35.204  1.00  0.00     0.135 A 
ATOM     99  F   UNL A   1      42.469  27.438  33.137  1.00  0.00    -0.206 F 
ATOM    100  C   UNL A   1      43.147  27.150  35.353  1.00  0.00     0.059 A 
ATOM    101  C   UNL A   1      44.742  28.657  36.359  1.00  0.00     0.059 A 
ATOM    102  F   UNL A   1      45.481  30.529  35.162  1.00  0.00    -0.206 F 
ATOM    103  C   UNL A   1      43.952  27.515  36.427  1.00  0.00     0.060 A 
BRANCH 103 104
ATOM    104  S   UNL A   1      44.001  26.435  37.873  1.00  0.00     0.124 S 
ATOM    105  O   UNL A   1      44.661  27.275  38.866  1.00  0.00    -0.237 OA
ATOM    106  O   UNL A   1      42.586  26.167  38.110  1.00  0.00    -0.237 OA
ATOM    107  O   UNL A   1      44.776  25.284  37.414  1.00  0.00    -0.744 OA
ENDBRANCH 103 104
ENDBRANCH  71  96
ENDBRANCH  45  46
ENDBRANCH  38  40
ENDBRANCH  37  38
ENDBRANCH  36  37
ENDBRANCH  35  36
ENDBRANCH   1  35
TORSDOF 22
ENDMDL
MODEL 2
REMARK VINA RESULT:     -11.3      2.721      9.161
REMARK SMILES C[C@H]1CC[C@H]([NH2+]Cc2c(C(=O)OCCOCCOC(=O)c3ccc(-c4c5nc(c(-c6c(F)cc(S(=O)(=O)[O-])cc6F)c6ccc([nH]6)c(-c6c(F)cc(S(=O)(=O)[O-])cc6F)c6nc(c(-c7c(F)cc(S(=O)(=O)[O-])cc7F)c7ccc4[nH]7)C=C6)C=C5)cc3)n(Cc3ccccc3F)c3ccccc23)CC1
REMARK SMILES IDX 15 1 14 2 13 3 12 4 10 5 11 6 9 7 8 8 101 9 87 10 96 11
REMARK SMILES IDX 100 12 97 13 99 14 98 15 7 16 6 17 5 20 1 21 2 22 3 23
REMARK SMILES IDX 103 24 4 25 102 26 88 27 89 28 90 29 94 30 91 31 93 32 95 33
REMARK SMILES IDX 92 34 16 35 17 36 18 37 19 38 20 39 21 40 22 41 86 42 23 43
REMARK SMILES IDX 85 44 24 45 25 46 26 47 79 48 27 49 84 50 78 51 80 52 28 53
REMARK SMILES IDX 83 54 77 55 76 56 29 58 63 59 42 60 62 61 43 62 46 63 61 64
REMARK SMILES IDX 81 65 44 66 45 67 60 69 82 70 47 71 30 72 31 73 40 74 32 75
REMARK SMILES IDX 33 76 39 77 41 78 34 79 35 80 36 81 37 82 38 83 64 84 65 85
REMARK SMILES IDX 74 86 66 87 67 88 73 89 75 90 68 91 69 92 70 93 71 94 72 95
REMARK SMILES IDX 48 96 49 97 58 98 50 99 51 100 57 101 59 102 52 103 53 104
REMARK SMILES IDX 54 105 55 106 56 107
REMARK H PARENT 6 18 6 19 80 57 46 68
REMARK Flexibility Score: inf
ROOT
ATOM      1  O   UNL A   1      31.334  29.923  27.273  1.00  0.00    -0.374 OA
ENDROOT
BRANCH   1   2
ATOM      2  C   UNL A   1      31.869  28.677  26.847  1.00  0.00     0.202 C 
BRANCH   2   3
ATOM      3  C   UNL A   1      31.265  27.377  27.392  1.00  0.00     0.261 C 
BRANCH   3   4
ATOM      4  O   UNL A   1      31.886  26.161  26.938  1.00  0.00    -0.459 OA
BRANCH   4   5
ATOM      5  C   UNL A   1      31.064  25.362  26.196  1.00  0.00     0.355 C 
ATOM      6  O   UNL A   1      29.922  25.071  26.541  1.00  0.00    -0.244 OA
BRANCH   5   7
ATOM      7  C   UNL A   1      31.687  24.898  24.956  1.00  0.00     0.137 A 
ATOM      8  C   UNL A   1      31.963  23.597  24.478  1.00  0.00     0.047 A 
ATOM      9  C   UNL A   1      32.461  23.737  23.132  1.00  0.00     0.009 A 
ATOM     10  N   UNL A   1      31.970  25.771  23.900  1.00  0.00    -0.330 N 
ATOM     11  C   UNL A   1      32.316  25.065  22.760  1.00  0.00     0.050 A 
ATOM     12  C   UNL A   1      32.924  22.812  22.166  1.00  0.00     0.011 A 
ATOM     13  C   UNL A   1      32.506  25.480  21.428  1.00  0.00     0.027 A 
ATOM     14  C   UNL A   1      33.180  23.232  20.857  1.00  0.00     0.001 A 
ATOM     15  C   UNL A   1      32.947  24.548  20.489  1.00  0.00     0.002 A 
BRANCH   8  16
ATOM     16  C   UNL A   1      31.734  22.215  25.051  1.00  0.00     0.300 C 
BRANCH  16  17
ATOM     17  N   UNL A   1      32.231  21.991  26.389  1.00  0.00    -0.340 N 
ATOM     18  H   UNL A   1      31.949  22.797  26.948  1.00  0.00     0.346 HD
ATOM     19  H   UNL A   1      31.832  21.088  26.646  1.00  0.00     0.346 HD
BRANCH  17  20
ATOM     20  C   UNL A   1      33.682  21.803  26.605  1.00  0.00     0.182 C 
ATOM     21  C   UNL A   1      36.714  22.929  23.586  1.00  0.00     0.007 C 
ATOM     22  C   UNL A   1      35.598  22.582  24.558  1.00  0.00    -0.014 C 
ATOM     23  C   UNL A   1      35.798  23.201  25.935  1.00  0.00     0.009 C 
ATOM     24  C   UNL A   1      35.433  21.085  24.780  1.00  0.00     0.009 C 
ATOM     25  C   UNL A   1      34.504  23.106  26.734  1.00  0.00     0.065 C 
ATOM     26  C   UNL A   1      34.118  20.814  25.494  1.00  0.00     0.065 C 
ENDBRANCH  17  20
ENDBRANCH  16  17
ENDBRANCH   8  16
BRANCH  10  27
ATOM     27  C   UNL A   1      31.838  27.232  23.911  1.00  0.00     0.161 C 
BRANCH  27  28
ATOM     28  C   UNL A   1      30.478  27.710  23.464  1.00  0.00     0.008 A 
ATOM     29  C   UNL A   1      29.302  27.060  23.867  1.00  0.00     0.008 A 
ATOM     30  C   UNL A   1      30.350  28.852  22.671  1.00  0.00     0.128 A 
ATOM     31  C   UNL A   1      28.045  27.543  23.493  1.00  0.00     0.001 A 
ATOM     32  C   UNL A   1      29.100  29.347  22.300  1.00  0.00     0.039 A 
ATOM     33  F   UNL A   1      31.440  29.517  22.270  1.00  0.00    -0.207 F 
ATOM     34  C   UNL A   1      27.944  28.691  22.714  1.00  0.00     0.003 A 
ENDBRANCH  27  28
ENDBRANCH  10  27
ENDBRANCH   5   7
ENDBRANCH   4   5
ENDBRANCH   3   4
ENDBRANCH   2   3
ENDBRANCH   1   2
BRANCH   1  35
ATOM     35  C   UNL A   1      31.511  31.059  26.426  1.00  0.00     0.202 C 
BRANCH  35  36
ATOM     36  C   UNL A   1      32.488  32.153  26.881  1.00  0.00     0.261 C 
BRANCH  36  37
ATOM     37  O   UNL A   1      33.577  31.608  27.639  1.00  0.00    -0.460 OA
BRANCH  37  38
ATOM     38  C   UNL A   1      34.351  32.524  28.278  1.00  0.00     0.338 C 
ATOM     39  O   UNL A   1      33.978  33.473  28.948  1.00  0.00    -0.246 OA
BRANCH  38  40
ATOM     40  C   UNL A   1      35.723  31.985  28.286  1.00  0.00     0.060 A 
ATOM     41  C   UNL A   1      35.985  30.690  27.846  1.00  0.00     0.016 A 
ATOM     42  C   UNL A   1      36.722  32.747  28.913  1.00  0.00     0.016 A 
ATOM     43  C   UNL A   1      37.248  30.152  28.075  1.00  0.00     0.010 A 
ATOM     44  C   UNL A   1      37.968  32.180  29.184  1.00  0.00     0.010 A 
ATOM     45  C   UNL A   1      38.227  30.866  28.790  1.00  0.00    -0.014 A 
BRANCH  45  46
ATOM     46  C   UNL A   1      39.530  30.212  28.977  1.00  0.00     0.031 A 
ATOM     47  C   UNL A   1      39.936  30.014  30.397  1.00  0.00     0.074 A 
ATOM     48  C   UNL A   1      40.322  29.659  28.033  1.00  0.00     0.049 A 
ATOM     49  N   UNL A   1      40.964  30.494  31.019  1.00  0.00    -0.248 NA
ATOM     50  C   UNL A   1      39.038  29.205  31.235  1.00  0.00     0.031 C 
ATOM     51  C   UNL A   1      40.008  29.385  26.632  1.00  0.00     0.029 A 
ATOM     52  N   UNL A   1      41.581  29.130  28.183  1.00  0.00    -0.354 N 
ATOM     53  C   UNL A   1      40.944  29.912  32.283  1.00  0.00     0.074 A 
ATOM     54  C   UNL A   1      39.688  29.211  32.398  1.00  0.00     0.031 C 
ATOM     55  C   UNL A   1      40.956  28.563  26.122  1.00  0.00     0.029 A 
ATOM     56  C   UNL A   1      42.005  28.358  27.111  1.00  0.00     0.049 A 
ATOM     57  H   UNL A   1      42.134  29.285  28.983  1.00  0.00     0.167 HD
ATOM     58  C   UNL A   1      42.024  29.887  33.106  1.00  0.00     0.037 A 
ATOM     59  C   UNL A   1      43.100  27.560  27.062  1.00  0.00     0.037 A 
ATOM     60  C   UNL A   1      43.067  30.787  32.706  1.00  0.00     0.049 A 
ATOM     61  C   UNL A   1      44.049  27.966  28.129  1.00  0.00     0.074 A 
ATOM     62  C   UNL A   1      43.187  32.152  32.552  1.00  0.00     0.029 A 
ATOM     63  N   UNL A   1      44.194  30.242  32.145  1.00  0.00    -0.354 N 
ATOM     64  N   UNL A   1      44.781  29.042  28.118  1.00  0.00    -0.248 NA
ATOM     65  C   UNL A   1      44.046  27.230  29.387  1.00  0.00     0.031 C 
ATOM     66  C   UNL A   1      44.187  32.343  31.555  1.00  0.00     0.029 A 
ATOM     67  C   UNL A   1      44.610  31.081  31.141  1.00  0.00     0.049 A 
ATOM     68  H   UNL A   1      44.625  29.399  32.413  1.00  0.00     0.167 HD
ATOM     69  C   UNL A   1      45.011  29.331  29.451  1.00  0.00     0.074 A 
ATOM     70  C   UNL A   1      44.682  28.107  30.163  1.00  0.00     0.031 C 
ATOM     71  C   UNL A   1      45.157  30.618  29.882  1.00  0.00     0.037 A 
BRANCH  58  72
ATOM     72  C   UNL A   1      42.260  28.802  34.122  1.00  0.00     0.058 A 
ATOM     73  C   UNL A   1      42.527  27.485  33.702  1.00  0.00     0.135 A 
ATOM     74  C   UNL A   1      41.963  28.972  35.492  1.00  0.00     0.135 A 
ATOM     75  F   UNL A   1      42.791  27.222  32.412  1.00  0.00    -0.206 F 
ATOM     76  C   UNL A   1      42.465  26.402  34.579  1.00  0.00     0.059 A 
ATOM     77  C   UNL A   1      41.945  27.914  36.392  1.00  0.00     0.059 A 
ATOM     78  F   UNL A   1      41.591  30.163  35.983  1.00  0.00    -0.206 F 
ATOM     79  C   UNL A   1      42.157  26.628  35.919  1.00  0.00     0.060 A 
BRANCH  79  80
ATOM     80  S   UNL A   1      41.965  25.220  37.029  1.00  0.00     0.124 S 
ATOM     81  O   UNL A   1      41.642  24.154  36.089  1.00  0.00    -0.237 OA
ATOM     82  O   UNL A   1      43.281  25.141  37.657  1.00  0.00    -0.237 OA
ATOM     83  O   UNL A   1      40.883  25.638  37.914  1.00  0.00    -0.744 OA
ENDBRANCH  79  80
ENDBRANCH  58  72
BRANCH  59  84
ATOM     84  C   UNL A   1      43.325  26.300  26.303  1.00  0.00     0.058 A 
ATOM     85  C   UNL A   1      44.472  26.141  25.501  1.00  0.00     0.135 A 
ATOM     86  C   UNL A   1      42.600  25.129  26.591  1.00  0.00     0.135 A 
ATOM     87  F   UNL A   1      45.230  27.200  25.182  1.00  0.00    -0.206 F 
ATOM     88  C   UNL A   1      44.919  24.887  25.079  1.00  0.00     0.059 A 
ATOM     89  C   UNL A   1      43.016  23.869  26.165  1.00  0.00     0.059 A 
ATOM     90  F   UNL A   1      41.519  25.163  27.385  1.00  0.00    -0.206 F 
ATOM     91  C   UNL A   1      44.198  23.752  25.442  1.00  0.00     0.060 A 
BRANCH  91  92
ATOM     92  S   UNL A   1      44.891  22.121  25.090  1.00  0.00     0.124 S 
ATOM     93  O   UNL A   1      46.305  22.321  25.388  1.00  0.00    -0.237 OA
ATOM     94  O   UNL A   1      44.156  21.269  26.019  1.00  0.00    -0.237 OA
ATOM     95  O   UNL A   1      44.573  21.916  23.678  1.00  0.00    -0.744 OA
ENDBRANCH  91  92
ENDBRANCH  59  84
BRANCH  71  96
ATOM     96  C   UNL A   1      45.615  31.656  28.895  1.00  0.00     0.058 A 
ATOM     97  C   UNL A   1      46.956  31.948  28.611  1.00  0.00     0.135 A 
ATOM     98  C   UNL A   1      44.640  32.321  28.127  1.00  0.00     0.135 A 
ATOM     99  F   UNL A   1      47.956  31.280  29.205  1.00  0.00    -0.206 F 
ATOM    100  C   UNL A   1      47.306  32.896  27.650  1.00  0.00     0.059 A 
ATOM    101  C   UNL A   1      44.974  33.233  27.126  1.00  0.00     0.059 A 
ATOM    102  F   UNL A   1      43.337  32.055  28.317  1.00  0.00    -0.206 F 
ATOM    103  C   UNL A   1      46.315  33.521  26.900  1.00  0.00     0.060 A 
BRANCH 103 104
ATOM    104  S   UNL A   1      46.814  34.651  25.584  1.00  0.00     0.124 S 
ATOM    105  O   UNL A   1      45.832  34.369  24.543  1.00  0.00    -0.237 OA
ATOM    106  O   UNL A   1      46.694  35.955  26.230  1.00  0.00    -0.237 OA
ATOM    107  O   UNL A   1      48.182  34.240  25.280  1.00  0.00    -0.744 OA
ENDBRANCH 103 104
ENDBRANCH  71  96
ENDBRANCH  45  46
ENDBRANCH  38  40
ENDBRANCH  37  38
ENDBRANCH  36  37
ENDBRANCH  35  36
ENDBRANCH   1  35
TORSDOF 22
ENDMDL
MODEL 3
REMARK VINA RESULT:     -11.3      3.728      6.219
REMARK SMILES C[C@H]1CC[C@H]([NH2+]Cc2c(C(=O)OCCOCCOC(=O)c3ccc(-c4c5nc(c(-c6c(F)cc(S(=O)(=O)[O-])cc6F)c6ccc([nH]6)c(-c6c(F)cc(S(=O)(=O)[O-])cc6F)c6nc(c(-c7c(F)cc(S(=O)(=O)[O-])cc7F)c7ccc4[nH]7)C=C6)C=C5)cc3)n(Cc3ccccc3F)c3ccccc23)CC1
REMARK SMILES IDX 15 1 14 2 13 3 12 4 10 5 11 6 9 7 8 8 101 9 87 10 96 11
REMARK SMILES IDX 100 12 97 13 99 14 98 15 7 16 6 17 5 20 1 21 2 22 3 23
REMARK SMILES IDX 103 24 4 25 102 26 88 27 89 28 90 29 94 30 91 31 93 32 95 33
REMARK SMILES IDX 92 34 16 35 17 36 18 37 19 38 20 39 21 40 22 41 86 42 23 43
REMARK SMILES IDX 85 44 24 45 25 46 26 47 79 48 27 49 84 50 78 51 80 52 28 53
REMARK SMILES IDX 83 54 77 55 76 56 29 58 63 59 42 60 62 61 43 62 46 63 61 64
REMARK SMILES IDX 81 65 44 66 45 67 60 69 82 70 47 71 30 72 31 73 40 74 32 75
REMARK SMILES IDX 33 76 39 77 41 78 34 79 35 80 36 81 37 82 38 83 64 84 65 85
REMARK SMILES IDX 74 86 66 87 67 88 73 89 75 90 68 91 69 92 70 93 71 94 72 95
REMARK SMILES IDX 48 96 49 97 58 98 50 99 51 100 57 101 59 102 52 103 53 104
REMARK SMILES IDX 54 105 55 106 56 107
REMARK H PARENT 6 18 6 19 80 57 46 68
REMARK Flexibility Score: inf
ROOT
ATOM      1  O   UNL A   1      32.323  26.858  26.439  1.00  0.00    -0.374 OA
ENDROOT
BRANCH   1   2
ATOM      2  C   UNL A   1      30.999  26.370  26.610  1.00  0.00     0.202 C 
BRANCH   2   3
ATOM      3  C   UNL A   1      30.401  25.439  25.548  1.00  0.00     0.261 C 
BRANCH   3   4
ATOM      4  O   UNL A   1      30.827  24.066  25.610  1.00  0.00    -0.459 OA
BRANCH   4   5
ATOM      5  C   UNL A   1      31.198  23.545  24.403  1.00  0.00     0.355 C 
ATOM      6  O   UNL A   1      30.417  23.409  23.464  1.00  0.00    -0.244 OA
BRANCH   5   7
ATOM      7  C   UNL A   1      32.612  23.175  24.351  1.00  0.00     0.137 A 
ATOM      8  C   UNL A   1      33.765  23.929  24.040  1.00  0.00     0.047 A 
ATOM      9  C   UNL A   1      34.906  23.081  24.284  1.00  0.00     0.009 A 
ATOM     10  N   UNL A   1      33.068  21.935  24.812  1.00  0.00    -0.330 N 
ATOM     11  C   UNL A   1      34.450  21.920  24.892  1.00  0.00     0.050 A 
ATOM     12  C   UNL A   1      36.301  23.261  24.133  1.00  0.00     0.011 A 
ATOM     13  C   UNL A   1      35.341  20.988  25.456  1.00  0.00     0.027 A 
ATOM     14  C   UNL A   1      37.191  22.304  24.630  1.00  0.00     0.001 A 
ATOM     15  C   UNL A   1      36.714  21.193  25.308  1.00  0.00     0.002 A 
BRANCH   8  16
ATOM     16  C   UNL A   1      33.980  25.374  23.643  1.00  0.00     0.300 C 
BRANCH  16  17
ATOM     17  N   UNL A   1      33.989  25.649  22.224  1.00  0.00    -0.340 N 
ATOM     18  H   UNL A   1      34.964  25.783  21.954  1.00  0.00     0.346 HD
ATOM     19  H   UNL A   1      33.504  24.848  21.821  1.00  0.00     0.346 HD
BRANCH  17  20
ATOM     20  C   UNL A   1      33.235  26.810  21.703  1.00  0.00     0.182 C 
ATOM     21  C   UNL A   1      30.651  29.327  24.264  1.00  0.00     0.007 C 
ATOM     22  C   UNL A   1      31.566  28.407  23.471  1.00  0.00    -0.014 C 
ATOM     23  C   UNL A   1      32.637  29.162  22.696  1.00  0.00     0.009 C 
ATOM     24  C   UNL A   1      30.827  27.548  22.455  1.00  0.00     0.009 C 
ATOM     25  C   UNL A   1      33.707  28.189  22.218  1.00  0.00     0.065 C 
ATOM     26  C   UNL A   1      31.747  26.451  21.946  1.00  0.00     0.065 C 
ENDBRANCH  17  20
ENDBRANCH  16  17
ENDBRANCH   8  16
BRANCH  10  27
ATOM     27  C   UNL A   1      32.242  20.807  25.258  1.00  0.00     0.161 C 
BRANCH  27  28
ATOM     28  C   UNL A   1      32.564  19.516  24.545  1.00  0.00     0.008 A 
ATOM     29  C   UNL A   1      33.028  18.389  25.239  1.00  0.00     0.008 A 
ATOM     30  C   UNL A   1      32.360  19.393  23.169  1.00  0.00     0.128 A 
ATOM     31  C   UNL A   1      33.270  17.182  24.578  1.00  0.00     0.001 A 
ATOM     32  C   UNL A   1      32.590  18.190  22.501  1.00  0.00     0.039 A 
ATOM     33  F   UNL A   1      31.906  20.434  22.461  1.00  0.00    -0.207 F 
ATOM     34  C   UNL A   1      33.045  17.081  23.208  1.00  0.00     0.003 A 
ENDBRANCH  27  28
ENDBRANCH  10  27
ENDBRANCH   5   7
ENDBRANCH   4   5
ENDBRANCH   3   4
ENDBRANCH   2   3
ENDBRANCH   1   2
BRANCH   1  35
ATOM     35  C   UNL A   1      32.702  28.042  27.141  1.00  0.00     0.202 C 
BRANCH  35  36
ATOM     36  C   UNL A   1      33.844  28.891  26.562  1.00  0.00     0.261 C 
BRANCH  36  37
ATOM     37  O   UNL A   1      34.597  29.541  27.597  1.00  0.00    -0.460 OA
BRANCH  37  38
ATOM     38  C   UNL A   1      34.371  30.874  27.725  1.00  0.00     0.338 C 
ATOM     39  O   UNL A   1      33.343  31.480  27.469  1.00  0.00    -0.246 OA
BRANCH  38  40
ATOM     40  C   UNL A   1      35.480  31.415  28.531  1.00  0.00     0.060 A 
ATOM     41  C   UNL A   1      36.722  30.787  28.550  1.00  0.00     0.016 A 
ATOM     42  C   UNL A   1      35.195  32.473  29.410  1.00  0.00     0.016 A 
ATOM     43  C   UNL A   1      37.664  31.203  29.487  1.00  0.00     0.010 A 
ATOM     44  C   UNL A   1      36.127  32.848  30.378  1.00  0.00     0.010 A 
ATOM     45  C   UNL A   1      37.358  32.193  30.439  1.00  0.00    -0.014 A 
BRANCH  45  46
ATOM     46  C   UNL A   1      38.422  32.564  31.383  1.00  0.00     0.031 A 
ATOM     47  C   UNL A   1      39.661  33.101  30.754  1.00  0.00     0.074 A 
ATOM     48  C   UNL A   1      38.357  32.603  32.731  1.00  0.00     0.049 A 
ATOM     49  N   UNL A   1      40.863  32.623  30.797  1.00  0.00    -0.248 NA
ATOM     50  C   UNL A   1      39.515  34.310  29.930  1.00  0.00     0.031 C 
ATOM     51  C   UNL A   1      37.177  32.487  33.587  1.00  0.00     0.029 A 
ATOM     52  N   UNL A   1      39.369  32.857  33.624  1.00  0.00    -0.354 N 
ATOM     53  C   UNL A   1      41.664  33.560  30.151  1.00  0.00     0.074 A 
ATOM     54  C   UNL A   1      40.774  34.524  29.550  1.00  0.00     0.031 C 
ATOM     55  C   UNL A   1      37.504  32.875  34.843  1.00  0.00     0.029 A 
ATOM     56  C   UNL A   1      38.935  33.139  34.912  1.00  0.00     0.049 A 
ATOM     57  H   UNL A   1      40.321  32.841  33.373  1.00  0.00     0.167 HD
ATOM     58  C   UNL A   1      43.015  33.600  30.284  1.00  0.00     0.037 A 
ATOM     59  C   UNL A   1      39.680  33.616  35.939  1.00  0.00     0.037 A 
ATOM     60  C   UNL A   1      43.566  32.411  30.868  1.00  0.00     0.049 A 
ATOM     61  C   UNL A   1      41.116  33.363  35.660  1.00  0.00     0.074 A 
ATOM     62  C   UNL A   1      43.615  31.076  30.526  1.00  0.00     0.029 A 
ATOM     63  N   UNL A   1      44.005  32.487  32.165  1.00  0.00    -0.354 N 
ATOM     64  N   UNL A   1      41.703  32.203  35.718  1.00  0.00    -0.248 NA
ATOM     65  C   UNL A   1      41.918  34.437  35.088  1.00  0.00     0.031 C 
ATOM     66  C   UNL A   1      43.703  30.364  31.758  1.00  0.00     0.029 A 
ATOM     67  C   UNL A   1      43.685  31.306  32.786  1.00  0.00     0.049 A 
ATOM     68  H   UNL A   1      44.466  33.252  32.577  1.00  0.00     0.167 HD
ATOM     69  C   UNL A   1      42.776  32.302  34.850  1.00  0.00     0.074 A 
ATOM     70  C   UNL A   1      42.950  33.729  34.628  1.00  0.00     0.031 C 
ATOM     71  C   UNL A   1      43.231  31.217  34.159  1.00  0.00     0.037 A 
BRANCH  58  72
ATOM     72  C   UNL A   1      43.818  34.867  30.160  1.00  0.00     0.058 A 
ATOM     73  C   UNL A   1      43.623  35.921  31.072  1.00  0.00     0.135 A 
ATOM     74  C   UNL A   1      44.576  35.171  29.008  1.00  0.00     0.135 A 
ATOM     75  F   UNL A   1      42.890  35.735  32.181  1.00  0.00    -0.206 F 
ATOM     76  C   UNL A   1      44.117  37.204  30.836  1.00  0.00     0.059 A 
ATOM     77  C   UNL A   1      45.119  36.428  28.778  1.00  0.00     0.059 A 
ATOM     78  F   UNL A   1      44.739  34.276  28.022  1.00  0.00    -0.206 F 
ATOM     79  C   UNL A   1      44.850  37.450  29.677  1.00  0.00     0.060 A 
BRANCH  79  80
ATOM     80  S   UNL A   1      45.392  39.131  29.315  1.00  0.00     0.124 S 
ATOM     81  O   UNL A   1      46.456  38.888  28.349  1.00  0.00    -0.237 OA
ATOM     82  O   UNL A   1      44.176  39.741  28.788  1.00  0.00    -0.237 OA
ATOM     83  O   UNL A   1      45.819  39.630  30.619  1.00  0.00    -0.744 OA
ENDBRANCH  79  80
ENDBRANCH  58  72
BRANCH  59  84
ATOM     84  C   UNL A   1      39.284  34.491  37.075  1.00  0.00     0.058 A 
ATOM     85  C   UNL A   1      38.875  33.933  38.302  1.00  0.00     0.135 A 
ATOM     86  C   UNL A   1      39.594  35.863  37.089  1.00  0.00     0.135 A 
ATOM     87  F   UNL A   1      38.567  32.630  38.386  1.00  0.00    -0.206 F 
ATOM     88  C   UNL A   1      38.855  34.671  39.487  1.00  0.00     0.059 A 
ATOM     89  C   UNL A   1      39.563  36.625  38.256  1.00  0.00     0.059 A 
ATOM     90  F   UNL A   1      40.038  36.483  35.985  1.00  0.00    -0.206 F 
ATOM     91  C   UNL A   1      39.230  36.012  39.459  1.00  0.00     0.060 A 
BRANCH  91  92
ATOM     92  S   UNL A   1      39.419  36.905  41.018  1.00  0.00     0.124 S 
ATOM     93  O   UNL A   1      38.599  36.109  41.925  1.00  0.00    -0.237 OA
ATOM     94  O   UNL A   1      40.860  36.839  41.235  1.00  0.00    -0.237 OA
ATOM     95  O   UNL A   1      38.899  38.236  40.711  1.00  0.00    -0.744 OA
ENDBRANCH  91  92
ENDBRANCH  59  84
BRANCH  71  96
ATOM     96  C   UNL A   1      42.962  29.847  34.719  1.00  0.00     0.058 A 
ATOM     97  C   UNL A   1      43.797  29.179  35.624  1.00  0.00     0.135 A 
ATOM     98  C   UNL A   1      41.743  29.222  34.393  1.00  0.00     0.135 A 
ATOM     99  F   UNL A   1      44.920  29.747  36.087  1.00  0.00    -0.206 F 
ATOM    100  C   UNL A   1      43.460  27.925  36.134  1.00  0.00     0.059 A 
ATOM    101  C   UNL A   1      41.367  27.993  34.935  1.00  0.00     0.059 A 
ATOM    102  F   UNL A   1      40.876  29.829  33.565  1.00  0.00    -0.206 F 
ATOM    103  C   UNL A   1      42.240  27.346  35.802  1.00  0.00     0.060 A 
BRANCH 103 104
ATOM    104  S   UNL A   1      41.789  25.780  36.578  1.00  0.00     0.124 S 
ATOM    105  O   UNL A   1      41.436  24.954  35.429  1.00  0.00    -0.237 OA
ATOM    106  O   UNL A   1      43.020  25.410  37.270  1.00  0.00    -0.237 OA
ATOM    107  O   UNL A   1      40.677  26.140  37.454  1.00  0.00    -0.744 OA
ENDBRANCH 103 104
ENDBRANCH  71  96
ENDBRANCH  45  46
ENDBRANCH  38  40
ENDBRANCH  37  38
ENDBRANCH  36  37
ENDBRANCH  35  36
ENDBRANCH   1  35
TORSDOF 22
ENDMDL
