MODEL 1
REMARK VINA RESULT:     -10.4      0.000      0.000
REMARK SMILES N#C[C@H]1CN(c2cc(C(=O)OCCOCCOC(=O)c3ccc(-c4c5nc(c(-c6c(F)cc(S(=O)(=O)[O-])cc6F)c6ccc([nH]6)c(-c6c(F)cc(S(=O)(=O)[O-])cc6F)c6nc(c(-c7c(F)cc(S(=O)(=O)[O-])cc7F)c7ccc4[nH]7)C=C6)C=C5)cc3)c(N)cc2F)CCO1
REMARK SMILES IDX 15 1 14 2 13 3 12 4 11 5 9 6 10 7 8 8 6 9 7 10 89 11 88 12
REMARK SMILES IDX 90 13 86 14 5 15 3 16 4 17 93 18 92 19 91 20 2 21 1 22 87 23
REMARK SMILES IDX 16 26 17 27 18 28 19 29 20 30 21 31 85 32 22 33 84 34 23 35
REMARK SMILES IDX 24 36 25 37 78 38 26 39 83 40 77 41 79 42 27 43 82 44 76 45
REMARK SMILES IDX 75 46 28 48 62 49 41 50 61 51 42 52 45 53 60 54 80 55 43 56
REMARK SMILES IDX 44 57 59 59 81 60 46 61 29 62 30 63 39 64 31 65 32 66 38 67
REMARK SMILES IDX 40 68 33 69 34 70 35 71 36 72 37 73 63 74 64 75 73 76 65 77
REMARK SMILES IDX 66 78 72 79 74 80 67 81 68 82 69 83 70 84 71 85 47 86 48 87
REMARK SMILES IDX 57 88 49 89 50 90 56 91 58 92 51 93 52 94 53 95 54 96 55 97
REMARK H PARENT 87 24 87 25 79 47 45 58
REMARK Flexibility Score: inf
ROOT
ATOM      1  C   UNL A   1      44.752  23.513  25.388  1.00  0.00     0.202 C 
ENDROOT
BRANCH   1   2
ATOM      2  O   UNL A   1      44.888  22.252  26.038  1.00  0.00    -0.374 OA
BRANCH   2   3
ATOM      3  C   UNL A   1      45.363  21.143  25.279  1.00  0.00     0.202 C 
BRANCH   3   4
ATOM      4  C   UNL A   1      44.425  19.953  25.054  1.00  0.00     0.261 C 
BRANCH   4   5
ATOM      5  O   UNL A   1      43.049  20.356  25.015  1.00  0.00    -0.460 OA
BRANCH   5   6
ATOM      6  C   UNL A   1      42.292  19.865  26.029  1.00  0.00     0.340 C 
ATOM      7  O   UNL A   1      42.400  18.762  26.544  1.00  0.00    -0.246 OA
BRANCH   6   8
ATOM      8  C   UNL A   1      41.412  20.919  26.600  1.00  0.00     0.085 A 
ATOM      9  C   UNL A   1      39.268  22.055  26.319  1.00  0.00     0.074 A 
ATOM     10  C   UNL A   1      40.153  21.039  25.974  1.00  0.00     0.047 A 
ATOM     11  C   UNL A   1      39.678  22.950  27.316  1.00  0.00     0.148 A 
ATOM     12  C   UNL A   1      40.892  22.805  27.988  1.00  0.00     0.067 A 
ATOM     13  F   UNL A   1      38.881  23.980  27.646  1.00  0.00    -0.205 F 
ATOM     14  C   UNL A   1      41.764  21.757  27.673  1.00  0.00     0.049 A 
BRANCH   9  15
ATOM     15  N   UNL A   1      38.081  22.212  25.649  1.00  0.00    -0.363 N 
ATOM     16  C   UNL A   1      35.767  21.397  25.607  1.00  0.00     0.240 C 
ATOM     17  C   UNL A   1      37.237  21.095  25.219  1.00  0.00     0.164 C 
ATOM     18  O   UNL A   1      35.352  22.697  25.111  1.00  0.00    -0.360 OA
ATOM     19  C   UNL A   1      36.187  23.739  25.651  1.00  0.00     0.183 C 
ATOM     20  C   UNL A   1      37.652  23.549  25.244  1.00  0.00     0.145 C 
BRANCH  16  21
ATOM     21  C   UNL A   1      34.877  20.352  25.074  1.00  0.00     0.096 C 
ATOM     22  N   UNL A   1      34.170  19.520  24.669  1.00  0.00    -0.195 NA
ENDBRANCH  16  21
ENDBRANCH   9  15
BRANCH  14  23
ATOM     23  N   UNL A   1      42.985  21.692  28.334  1.00  0.00    -0.398 N 
ATOM     24  H   UNL A   1      43.251  22.412  28.949  1.00  0.00     0.156 HD
ATOM     25  H   UNL A   1      43.584  20.924  28.186  1.00  0.00     0.156 HD
ENDBRANCH  14  23
ENDBRANCH   6   8
ENDBRANCH   5   6
ENDBRANCH   4   5
ENDBRANCH   3   4
ENDBRANCH   2   3
ENDBRANCH   1   2
BRANCH   1  26
ATOM     26  C   UNL A   1      43.354  24.008  24.990  1.00  0.00     0.261 C 
BRANCH  26  27
ATOM     27  O   UNL A   1      42.663  24.710  26.034  1.00  0.00    -0.460 OA
BRANCH  27  28
ATOM     28  C   UNL A   1      42.548  26.047  25.830  1.00  0.00     0.338 C 
ATOM     29  O   UNL A   1      42.414  26.622  24.764  1.00  0.00    -0.246 OA
BRANCH  28  30
ATOM     30  C   UNL A   1      42.413  26.729  27.129  1.00  0.00     0.060 A 
ATOM     31  C   UNL A   1      41.528  26.189  28.072  1.00  0.00     0.016 A 
ATOM     32  C   UNL A   1      43.103  27.912  27.394  1.00  0.00     0.016 A 
ATOM     33  C   UNL A   1      41.315  26.844  29.282  1.00  0.00     0.010 A 
ATOM     34  C   UNL A   1      42.879  28.571  28.605  1.00  0.00     0.010 A 
ATOM     35  C   UNL A   1      41.969  28.054  29.545  1.00  0.00    -0.014 A 
BRANCH  35  36
ATOM     36  C   UNL A   1      41.645  28.834  30.763  1.00  0.00     0.031 A 
ATOM     37  C   UNL A   1      40.478  29.780  30.745  1.00  0.00     0.074 A 
ATOM     38  C   UNL A   1      42.399  28.709  31.869  1.00  0.00     0.049 A 
ATOM     39  N   UNL A   1      40.073  30.616  31.666  1.00  0.00    -0.248 NA
ATOM     40  C   UNL A   1      39.665  29.790  29.520  1.00  0.00     0.031 C 
ATOM     41  C   UNL A   1      43.526  27.789  32.022  1.00  0.00     0.029 A 
ATOM     42  N   UNL A   1      42.336  29.366  33.071  1.00  0.00    -0.354 N 
ATOM     43  C   UNL A   1      38.965  31.262  31.130  1.00  0.00     0.074 A 
ATOM     44  C   UNL A   1      38.791  30.749  29.787  1.00  0.00     0.031 C 
ATOM     45  C   UNL A   1      44.048  27.941  33.249  1.00  0.00     0.029 A 
ATOM     46  C   UNL A   1      43.325  29.000  33.950  1.00  0.00     0.049 A 
ATOM     47  H   UNL A   1      41.647  30.037  33.283  1.00  0.00     0.167 HD
ATOM     48  C   UNL A   1      38.164  32.191  31.708  1.00  0.00     0.037 A 
ATOM     49  C   UNL A   1      43.626  29.481  35.173  1.00  0.00     0.037 A 
ATOM     50  C   UNL A   1      38.365  32.707  33.038  1.00  0.00     0.049 A 
ATOM     51  C   UNL A   1      42.791  30.590  35.755  1.00  0.00     0.074 A 
ATOM     52  C   UNL A   1      37.605  33.638  33.724  1.00  0.00     0.029 A 
ATOM     53  N   UNL A   1      39.411  32.351  33.879  1.00  0.00    -0.354 N 
ATOM     54  N   UNL A   1      41.730  31.176  35.251  1.00  0.00    -0.248 NA
ATOM     55  C   UNL A   1      43.197  31.106  37.069  1.00  0.00     0.031 C 
ATOM     56  C   UNL A   1      38.234  33.901  34.947  1.00  0.00     0.029 A 
ATOM     57  C   UNL A   1      39.342  33.077  35.059  1.00  0.00     0.049 A 
ATOM     58  H   UNL A   1      40.103  31.682  33.668  1.00  0.00     0.167 HD
ATOM     59  C   UNL A   1      41.321  32.106  36.202  1.00  0.00     0.074 A 
ATOM     60  C   UNL A   1      42.246  31.999  37.312  1.00  0.00     0.031 C 
ATOM     61  C   UNL A   1      40.272  32.965  36.160  1.00  0.00     0.037 A 
BRANCH  48  62
ATOM     62  C   UNL A   1      37.031  32.738  30.877  1.00  0.00     0.058 A 
ATOM     63  C   UNL A   1      37.236  33.715  29.887  1.00  0.00     0.135 A 
ATOM     64  C   UNL A   1      35.715  32.292  31.086  1.00  0.00     0.135 A 
ATOM     65  F   UNL A   1      38.469  34.186  29.646  1.00  0.00    -0.206 F 
ATOM     66  C   UNL A   1      36.174  34.273  29.182  1.00  0.00     0.059 A 
ATOM     67  C   UNL A   1      34.642  32.808  30.364  1.00  0.00     0.059 A 
ATOM     68  F   UNL A   1      35.456  31.357  32.012  1.00  0.00    -0.206 F 
ATOM     69  C   UNL A   1      34.878  33.819  29.435  1.00  0.00     0.060 A 
BRANCH  69  70
ATOM     70  S   UNL A   1      33.506  34.593  28.553  1.00  0.00     0.124 S 
ATOM     71  O   UNL A   1      34.168  35.739  27.937  1.00  0.00    -0.237 OA
ATOM     72  O   UNL A   1      33.089  33.536  27.638  1.00  0.00    -0.237 OA
ATOM     73  O   UNL A   1      32.556  34.914  29.614  1.00  0.00    -0.744 OA
ENDBRANCH  69  70
ENDBRANCH  48  62
BRANCH  49  74
ATOM     74  C   UNL A   1      44.761  28.895  35.933  1.00  0.00     0.058 A 
ATOM     75  C   UNL A   1      46.056  29.415  35.794  1.00  0.00     0.135 A 
ATOM     76  C   UNL A   1      44.574  27.839  36.840  1.00  0.00     0.135 A 
ATOM     77  F   UNL A   1      46.287  30.416  34.930  1.00  0.00    -0.206 F 
ATOM     78  C   UNL A   1      47.126  28.914  36.527  1.00  0.00     0.059 A 
ATOM     79  C   UNL A   1      45.623  27.339  37.605  1.00  0.00     0.059 A 
ATOM     80  F   UNL A   1      43.353  27.311  37.016  1.00  0.00    -0.206 F 
ATOM     81  C   UNL A   1      46.896  27.884  37.441  1.00  0.00     0.060 A 
BRANCH  81  82
ATOM     82  S   UNL A   1      48.277  27.306  38.449  1.00  0.00     0.124 S 
ATOM     83  O   UNL A   1      47.692  27.311  39.784  1.00  0.00    -0.237 OA
ATOM     84  O   UNL A   1      48.542  25.992  37.871  1.00  0.00    -0.237 OA
ATOM     85  O   UNL A   1      49.311  28.308  38.209  1.00  0.00    -0.744 OA
ENDBRANCH  81  82
ENDBRANCH  49  74
BRANCH  61  86
ATOM     86  C   UNL A   1      40.041  33.846  37.362  1.00  0.00     0.058 A 
ATOM     87  C   UNL A   1      40.710  35.069  37.527  1.00  0.00     0.135 A 
ATOM     88  C   UNL A   1      39.086  33.489  38.330  1.00  0.00     0.135 A 
ATOM     89  F   UNL A   1      41.641  35.455  36.640  1.00  0.00    -0.206 F 
ATOM     90  C   UNL A   1      40.453  35.898  38.615  1.00  0.00     0.059 A 
ATOM     91  C   UNL A   1      38.788  34.319  39.407  1.00  0.00     0.059 A 
ATOM     92  F   UNL A   1      38.410  32.334  38.220  1.00  0.00    -0.206 F 
ATOM     93  C   UNL A   1      39.484  35.519  39.546  1.00  0.00     0.060 A 
BRANCH  93  94
ATOM     94  S   UNL A   1      39.124  36.632  40.920  1.00  0.00     0.124 S 
ATOM     95  O   UNL A   1      38.502  35.724  41.879  1.00  0.00    -0.237 OA
ATOM     96  O   UNL A   1      40.452  37.120  41.278  1.00  0.00    -0.237 OA
ATOM     97  O   UNL A   1      38.233  37.627  40.330  1.00  0.00    -0.744 OA
ENDBRANCH  93  94
ENDBRANCH  61  86
ENDBRANCH  35  36
ENDBRANCH  28  30
ENDBRANCH  27  28
ENDBRANCH  26  27
ENDBRANCH   1  26
TORSDOF 20
ENDMDL
MODEL 2
REMARK VINA RESULT:     -10.4      1.676      2.452
REMARK SMILES N#C[C@H]1CN(c2cc(C(=O)OCCOCCOC(=O)c3ccc(-c4c5nc(c(-c6c(F)cc(S(=O)(=O)[O-])cc6F)c6ccc([nH]6)c(-c6c(F)cc(S(=O)(=O)[O-])cc6F)c6nc(c(-c7c(F)cc(S(=O)(=O)[O-])cc7F)c7ccc4[nH]7)C=C6)C=C5)cc3)c(N)cc2F)CCO1
REMARK SMILES IDX 15 1 14 2 13 3 12 4 11 5 9 6 10 7 8 8 6 9 7 10 89 11 88 12
REMARK SMILES IDX 90 13 86 14 5 15 3 16 4 17 93 18 92 19 91 20 2 21 1 22 87 23
REMARK SMILES IDX 16 26 17 27 18 28 19 29 20 30 21 31 85 32 22 33 84 34 23 35
REMARK SMILES IDX 24 36 25 37 78 38 26 39 83 40 77 41 79 42 27 43 82 44 76 45
REMARK SMILES IDX 75 46 28 48 62 49 41 50 61 51 42 52 45 53 60 54 80 55 43 56
REMARK SMILES IDX 44 57 59 59 81 60 46 61 29 62 30 63 39 64 31 65 32 66 38 67
REMARK SMILES IDX 40 68 33 69 34 70 35 71 36 72 37 73 63 74 64 75 73 76 65 77
REMARK SMILES IDX 66 78 72 79 74 80 67 81 68 82 69 83 70 84 71 85 47 86 48 87
REMARK SMILES IDX 57 88 49 89 50 90 56 91 58 92 51 93 52 94 53 95 54 96 55 97
REMARK H PARENT 87 24 87 25 79 47 45 58
REMARK Flexibility Score: inf
ROOT
ATOM      1  C   UNL A   1      42.945  22.140  25.677  1.00  0.00     0.202 C 
ENDROOT
BRANCH   1   2
ATOM      2  O   UNL A   1      41.920  21.483  26.418  1.00  0.00    -0.374 OA
BRANCH   2   3
ATOM      3  C   UNL A   1      41.733  20.082  26.224  1.00  0.00     0.202 C 
BRANCH   3   4
ATOM      4  C   UNL A   1      40.313  19.558  25.994  1.00  0.00     0.261 C 
BRANCH   4   5
ATOM      5  O   UNL A   1      39.322  20.554  26.281  1.00  0.00    -0.460 OA
BRANCH   5   6
ATOM      6  C   UNL A   1      38.264  20.555  25.429  1.00  0.00     0.340 C 
ATOM      7  O   UNL A   1      37.907  19.626  24.720  1.00  0.00    -0.246 OA
BRANCH   6   8
ATOM      8  C   UNL A   1      37.439  21.779  25.600  1.00  0.00     0.085 A 
ATOM      9  C   UNL A   1      35.165  22.656  25.441  1.00  0.00     0.074 A 
ATOM     10  C   UNL A   1      36.052  21.585  25.428  1.00  0.00     0.047 A 
ATOM     11  C   UNL A   1      35.706  23.933  25.636  1.00  0.00     0.148 A 
ATOM     12  C   UNL A   1      37.066  24.133  25.873  1.00  0.00     0.067 A 
ATOM     13  F   UNL A   1      34.896  25.004  25.603  1.00  0.00    -0.205 F 
ATOM     14  C   UNL A   1      37.954  23.053  25.905  1.00  0.00     0.049 A 
BRANCH   9  15
ATOM     15  N   UNL A   1      33.829  22.466  25.191  1.00  0.00    -0.363 N 
ATOM     16  C   UNL A   1      31.610  23.282  25.847  1.00  0.00     0.240 C 
ATOM     17  C   UNL A   1      32.810  22.385  26.240  1.00  0.00     0.164 C 
ATOM     18  O   UNL A   1      31.134  22.962  24.512  1.00  0.00    -0.360 OA
ATOM     19  C   UNL A   1      32.179  23.149  23.539  1.00  0.00     0.183 C 
ATOM     20  C   UNL A   1      33.376  22.235  23.822  1.00  0.00     0.145 C 
BRANCH  16  21
ATOM     21  C   UNL A   1      30.515  23.121  26.819  1.00  0.00     0.096 C 
ATOM     22  N   UNL A   1      29.642  22.981  27.576  1.00  0.00    -0.195 NA
ENDBRANCH  16  21
ENDBRANCH   9  15
BRANCH  14  23
ATOM     23  N   UNL A   1      39.307  23.313  26.087  1.00  0.00    -0.398 N 
ATOM     24  H   UNL A   1      39.645  23.559  26.978  1.00  0.00     0.156 HD
ATOM     25  H   UNL A   1      39.927  23.250  25.326  1.00  0.00     0.156 HD
ENDBRANCH  14  23
ENDBRANCH   6   8
ENDBRANCH   5   6
ENDBRANCH   4   5
ENDBRANCH   3   4
ENDBRANCH   2   3
ENDBRANCH   1   2
BRANCH   1  26
ATOM     26  C   UNL A   1      43.217  23.630  25.926  1.00  0.00     0.261 C 
BRANCH  26  27
ATOM     27  O   UNL A   1      42.060  24.376  26.331  1.00  0.00    -0.460 OA
BRANCH  27  28
ATOM     28  C   UNL A   1      42.073  25.680  25.952  1.00  0.00     0.338 C 
ATOM     29  O   UNL A   1      42.228  26.120  24.826  1.00  0.00    -0.246 OA
BRANCH  28  30
ATOM     30  C   UNL A   1      41.673  26.523  27.091  1.00  0.00     0.060 A 
ATOM     31  C   UNL A   1      42.352  27.734  27.291  1.00  0.00     0.016 A 
ATOM     32  C   UNL A   1      40.684  26.105  27.982  1.00  0.00     0.016 A 
ATOM     33  C   UNL A   1      42.055  28.524  28.399  1.00  0.00     0.010 A 
ATOM     34  C   UNL A   1      40.397  26.896  29.097  1.00  0.00     0.010 A 
ATOM     35  C   UNL A   1      41.094  28.097  29.323  1.00  0.00    -0.014 A 
BRANCH  35  36
ATOM     36  C   UNL A   1      40.871  28.855  30.578  1.00  0.00     0.031 A 
ATOM     37  C   UNL A   1      39.788  29.896  30.629  1.00  0.00     0.074 A 
ATOM     38  C   UNL A   1      41.642  28.625  31.655  1.00  0.00     0.049 A 
ATOM     39  N   UNL A   1      39.482  30.727  31.591  1.00  0.00    -0.248 NA
ATOM     40  C   UNL A   1      38.946  30.020  29.430  1.00  0.00     0.031 C 
ATOM     41  C   UNL A   1      42.690  27.608  31.740  1.00  0.00     0.029 A 
ATOM     42  N   UNL A   1      41.668  29.238  32.881  1.00  0.00    -0.354 N 
ATOM     43  C   UNL A   1      38.418  31.483  31.113  1.00  0.00     0.074 A 
ATOM     44  C   UNL A   1      38.164  31.038  29.758  1.00  0.00     0.031 C 
ATOM     45  C   UNL A   1      43.256  27.669  32.956  1.00  0.00     0.029 A 
ATOM     46  C   UNL A   1      42.646  28.758  33.716  1.00  0.00     0.049 A 
ATOM     47  H   UNL A   1      41.044  29.956  33.138  1.00  0.00     0.167 HD
ATOM     48  C   UNL A   1      37.716  32.453  31.747  1.00  0.00     0.037 A 
ATOM     49  C   UNL A   1      43.020  29.164  34.945  1.00  0.00     0.037 A 
ATOM     50  C   UNL A   1      37.996  32.900  33.089  1.00  0.00     0.049 A 
ATOM     51  C   UNL A   1      42.299  30.317  35.591  1.00  0.00     0.074 A 
ATOM     52  C   UNL A   1      37.338  33.865  33.830  1.00  0.00     0.029 A 
ATOM     53  N   UNL A   1      39.031  32.426  33.884  1.00  0.00    -0.354 N 
ATOM     54  N   UNL A   1      41.278  31.008  35.141  1.00  0.00    -0.248 NA
ATOM     55  C   UNL A   1      42.783  30.746  36.910  1.00  0.00     0.031 C 
ATOM     56  C   UNL A   1      38.019  34.027  35.042  1.00  0.00     0.029 A 
ATOM     57  C   UNL A   1      39.056  33.109  35.091  1.00  0.00     0.049 A 
ATOM     58  H   UNL A   1      39.657  31.709  33.628  1.00  0.00     0.167 HD
ATOM     59  C   UNL A   1      40.976  31.933  36.137  1.00  0.00     0.074 A 
ATOM     60  C   UNL A   1      41.919  31.706  37.214  1.00  0.00     0.031 C 
ATOM     61  C   UNL A   1      40.003  32.878  36.158  1.00  0.00     0.037 A 
BRANCH  48  62
ATOM     62  C   UNL A   1      36.611  33.125  30.972  1.00  0.00     0.058 A 
ATOM     63  C   UNL A   1      36.874  34.050  29.947  1.00  0.00     0.135 A 
ATOM     64  C   UNL A   1      35.265  32.853  31.269  1.00  0.00     0.135 A 
ATOM     65  F   UNL A   1      38.140  34.357  29.621  1.00  0.00    -0.206 F 
ATOM     66  C   UNL A   1      35.849  34.726  29.292  1.00  0.00     0.059 A 
ATOM     67  C   UNL A   1      34.222  33.488  30.600  1.00  0.00     0.059 A 
ATOM     68  F   UNL A   1      34.948  31.974  32.233  1.00  0.00    -0.206 F 
ATOM     69  C   UNL A   1      34.525  34.445  29.633  1.00  0.00     0.060 A 
BRANCH  69  70
ATOM     70  S   UNL A   1      33.209  35.371  28.814  1.00  0.00     0.124 S 
ATOM     71  O   UNL A   1      32.548  34.318  28.049  1.00  0.00    -0.237 OA
ATOM     72  O   UNL A   1      32.454  35.902  29.943  1.00  0.00    -0.237 OA
ATOM     73  O   UNL A   1      33.931  36.361  28.023  1.00  0.00    -0.744 OA
ENDBRANCH  69  70
ENDBRANCH  48  62
BRANCH  49  74
ATOM     74  C   UNL A   1      44.122  28.457  35.649  1.00  0.00     0.058 A 
ATOM     75  C   UNL A   1      45.456  28.842  35.453  1.00  0.00     0.135 A 
ATOM     76  C   UNL A   1      43.868  27.416  36.557  1.00  0.00     0.135 A 
ATOM     77  F   UNL A   1      45.750  29.823  34.585  1.00  0.00    -0.206 F 
ATOM     78  C   UNL A   1      46.500  28.226  36.133  1.00  0.00     0.059 A 
ATOM     79  C   UNL A   1      44.893  26.802  37.270  1.00  0.00     0.059 A 
ATOM     80  F   UNL A   1      42.607  27.015  36.786  1.00  0.00    -0.206 F 
ATOM     81  C   UNL A   1      46.206  27.215  37.051  1.00  0.00     0.060 A 
BRANCH  81  82
ATOM     82  S   UNL A   1      47.565  26.487  37.991  1.00  0.00     0.124 S 
ATOM     83  O   UNL A   1      48.602  26.375  36.972  1.00  0.00    -0.237 OA
ATOM     84  O   UNL A   1      47.788  27.493  39.024  1.00  0.00    -0.237 OA
ATOM     85  O   UNL A   1      47.006  25.224  38.464  1.00  0.00    -0.744 OA
ENDBRANCH  81  82
ENDBRANCH  49  74
BRANCH  61  86
ATOM     86  C   UNL A   1      39.880  33.728  37.397  1.00  0.00     0.058 A 
ATOM     87  C   UNL A   1      40.525  34.970  37.513  1.00  0.00     0.135 A 
ATOM     88  C   UNL A   1      39.053  33.321  38.458  1.00  0.00     0.135 A 
ATOM     89  F   UNL A   1      41.337  35.404  36.536  1.00  0.00    -0.206 F 
ATOM     90  C   UNL A   1      40.366  35.770  38.640  1.00  0.00     0.059 A 
ATOM     91  C   UNL A   1      38.852  34.121  39.579  1.00  0.00     0.059 A 
ATOM     92  F   UNL A   1      38.405  32.146  38.399  1.00  0.00    -0.206 F 
ATOM     93  C   UNL A   1      39.520  35.341  39.665  1.00  0.00     0.060 A 
BRANCH  93  94
ATOM     94  S   UNL A   1      39.282  36.416  41.095  1.00  0.00     0.124 S 
ATOM     95  O   UNL A   1      37.992  35.955  41.600  1.00  0.00    -0.237 OA
ATOM     96  O   UNL A   1      40.440  36.092  41.922  1.00  0.00    -0.237 OA
ATOM     97  O   UNL A   1      39.285  37.758  40.519  1.00  0.00    -0.744 OA
ENDBRANCH  93  94
ENDBRANCH  61  86
ENDBRANCH  35  36
ENDBRANCH  28  30
ENDBRANCH  27  28
ENDBRANCH  26  27
ENDBRANCH   1  26
TORSDOF 20
ENDMDL
MODEL 3
REMARK VINA RESULT:     -10.2      2.796      4.381
REMARK SMILES N#C[C@H]1CN(c2cc(C(=O)OCCOCCOC(=O)c3ccc(-c4c5nc(c(-c6c(F)cc(S(=O)(=O)[O-])cc6F)c6ccc([nH]6)c(-c6c(F)cc(S(=O)(=O)[O-])cc6F)c6nc(c(-c7c(F)cc(S(=O)(=O)[O-])cc7F)c7ccc4[nH]7)C=C6)C=C5)cc3)c(N)cc2F)CCO1
REMARK SMILES IDX 15 1 14 2 13 3 12 4 11 5 9 6 10 7 8 8 6 9 7 10 89 11 88 12
REMARK SMILES IDX 90 13 86 14 5 15 3 16 4 17 93 18 92 19 91 20 2 21 1 22 87 23
REMARK SMILES IDX 16 26 17 27 18 28 19 29 20 30 21 31 85 32 22 33 84 34 23 35
REMARK SMILES IDX 24 36 25 37 78 38 26 39 83 40 77 41 79 42 27 43 82 44 76 45
REMARK SMILES IDX 75 46 28 48 62 49 41 50 61 51 42 52 45 53 60 54 80 55 43 56
REMARK SMILES IDX 44 57 59 59 81 60 46 61 29 62 30 63 39 64 31 65 32 66 38 67
REMARK SMILES IDX 40 68 33 69 34 70 35 71 36 72 37 73 63 74 64 75 73 76 65 77
REMARK SMILES IDX 66 78 72 79 74 80 67 81 68 82 69 83 70 84 71 85 47 86 48 87
REMARK SMILES IDX 57 88 49 89 50 90 56 91 58 92 51 93 52 94 53 95 54 96 55 97
REMARK H PARENT 87 24 87 25 79 47 45 58
REMARK Flexibility Score: inf
ROOT
ATOM      1  C   UNL A   1      39.766  21.904  26.696  1.00  0.00     0.202 C 
ENDROOT
BRANCH   1   2
ATOM      2  O   UNL A   1      38.983  21.125  25.795  1.00  0.00    -0.374 OA
BRANCH   2   3
ATOM      3  C   UNL A   1      37.883  21.748  25.137  1.00  0.00     0.202 C 
BRANCH   3   4
ATOM      4  C   UNL A   1      36.462  21.348  25.545  1.00  0.00     0.261 C 
BRANCH   4   5
ATOM      5  O   UNL A   1      35.488  22.298  25.094  1.00  0.00    -0.460 OA
BRANCH   5   6
ATOM      6  C   UNL A   1      35.424  23.432  25.839  1.00  0.00     0.340 C 
ATOM      7  O   UNL A   1      36.373  24.084  26.246  1.00  0.00    -0.246 OA
BRANCH   6   8
ATOM      8  C   UNL A   1      34.025  23.923  25.948  1.00  0.00     0.085 A 
ATOM      9  C   UNL A   1      32.589  25.864  25.580  1.00  0.00     0.074 A 
ATOM     10  C   UNL A   1      33.816  25.224  25.442  1.00  0.00     0.047 A 
ATOM     11  C   UNL A   1      31.570  25.162  26.236  1.00  0.00     0.148 A 
ATOM     12  C   UNL A   1      31.742  23.851  26.682  1.00  0.00     0.067 A 
ATOM     13  F   UNL A   1      30.384  25.758  26.440  1.00  0.00    -0.205 F 
ATOM     14  C   UNL A   1      32.962  23.190  26.505  1.00  0.00     0.049 A 
BRANCH   9  15
ATOM     15  N   UNL A   1      32.420  27.159  25.158  1.00  0.00    -0.363 N 
ATOM     16  C   UNL A   1      30.794  28.633  24.059  1.00  0.00     0.240 C 
ATOM     17  C   UNL A   1      31.856  27.522  23.856  1.00  0.00     0.164 C 
ATOM     18  O   UNL A   1      31.341  29.746  24.815  1.00  0.00    -0.360 OA
ATOM     19  C   UNL A   1      31.795  29.309  26.111  1.00  0.00     0.183 C 
ATOM     20  C   UNL A   1      32.904  28.258  25.989  1.00  0.00     0.145 C 
BRANCH  16  21
ATOM     21  C   UNL A   1      30.302  29.109  22.755  1.00  0.00     0.096 C 
ATOM     22  N   UNL A   1      29.930  29.484  21.718  1.00  0.00    -0.195 NA
ENDBRANCH  16  21
ENDBRANCH   9  15
BRANCH  14  23
ATOM     23  N   UNL A   1      33.099  21.905  27.019  1.00  0.00    -0.398 N 
ATOM     24  H   UNL A   1      33.924  21.650  27.491  1.00  0.00     0.156 HD
ATOM     25  H   UNL A   1      32.370  21.252  26.912  1.00  0.00     0.156 HD
ENDBRANCH  14  23
ENDBRANCH   6   8
ENDBRANCH   5   6
ENDBRANCH   4   5
ENDBRANCH   3   4
ENDBRANCH   2   3
ENDBRANCH   1   2
BRANCH   1  26
ATOM     26  C   UNL A   1      40.475  23.165  26.182  1.00  0.00     0.261 C 
BRANCH  26  27
ATOM     27  O   UNL A   1      39.811  24.390  26.524  1.00  0.00    -0.460 OA
BRANCH  27  28
ATOM     28  C   UNL A   1      40.570  25.504  26.359  1.00  0.00     0.338 C 
ATOM     29  O   UNL A   1      41.034  25.932  25.316  1.00  0.00    -0.246 OA
BRANCH  28  30
ATOM     30  C   UNL A   1      40.606  26.262  27.621  1.00  0.00     0.060 A 
ATOM     31  C   UNL A   1      39.619  26.000  28.581  1.00  0.00     0.016 A 
ATOM     32  C   UNL A   1      41.562  27.255  27.835  1.00  0.00     0.016 A 
ATOM     33  C   UNL A   1      39.573  26.746  29.755  1.00  0.00     0.010 A 
ATOM     34  C   UNL A   1      41.506  28.009  29.009  1.00  0.00     0.010 A 
ATOM     35  C   UNL A   1      40.500  27.774  29.965  1.00  0.00    -0.014 A 
BRANCH  35  36
ATOM     36  C   UNL A   1      40.376  28.669  31.140  1.00  0.00     0.031 A 
ATOM     37  C   UNL A   1      39.371  29.786  31.115  1.00  0.00     0.074 A 
ATOM     38  C   UNL A   1      41.168  28.494  32.212  1.00  0.00     0.049 A 
ATOM     39  N   UNL A   1      39.159  30.731  31.994  1.00  0.00    -0.248 NA
ATOM     40  C   UNL A   1      38.496  29.850  29.935  1.00  0.00     0.031 C 
ATOM     41  C   UNL A   1      42.146  27.418  32.371  1.00  0.00     0.029 A 
ATOM     42  N   UNL A   1      41.282  29.225  33.366  1.00  0.00    -0.354 N 
ATOM     43  C   UNL A   1      38.133  31.510  31.471  1.00  0.00     0.074 A 
ATOM     44  C   UNL A   1      37.799  30.950  30.178  1.00  0.00     0.031 C 
ATOM     45  C   UNL A   1      42.760  27.560  33.557  1.00  0.00     0.029 A 
ATOM     46  C   UNL A   1      42.254  28.762  34.217  1.00  0.00     0.049 A 
ATOM     47  H   UNL A   1      40.720  30.009  33.565  1.00  0.00     0.167 HD
ATOM     48  C   UNL A   1      37.524  32.588  32.022  1.00  0.00     0.037 A 
ATOM     49  C   UNL A   1      42.701  29.263  35.386  1.00  0.00     0.037 A 
ATOM     50  C   UNL A   1      37.883  33.147  33.301  1.00  0.00     0.049 A 
ATOM     51  C   UNL A   1      42.086  30.524  35.931  1.00  0.00     0.074 A 
ATOM     52  C   UNL A   1      37.321  34.227  33.958  1.00  0.00     0.029 A 
ATOM     53  N   UNL A   1      38.912  32.682  34.111  1.00  0.00    -0.354 N 
ATOM     54  N   UNL A   1      41.099  31.239  35.442  1.00  0.00    -0.248 NA
ATOM     55  C   UNL A   1      42.647  31.049  37.183  1.00  0.00     0.031 C 
ATOM     56  C   UNL A   1      38.057  34.461  35.125  1.00  0.00     0.029 A 
ATOM     57  C   UNL A   1      39.028  33.480  35.239  1.00  0.00     0.049 A 
ATOM     58  H   UNL A   1      39.476  31.899  33.912  1.00  0.00     0.167 HD
ATOM     59  C   UNL A   1      40.899  32.279  36.345  1.00  0.00     0.074 A 
ATOM     60  C   UNL A   1      41.863  32.095  37.411  1.00  0.00     0.031 C 
ATOM     61  C   UNL A   1      39.995  33.290  36.296  1.00  0.00     0.037 A 
BRANCH  48  62
ATOM     62  C   UNL A   1      36.440  33.256  31.214  1.00  0.00     0.058 A 
ATOM     63  C   UNL A   1      36.728  34.031  30.077  1.00  0.00     0.135 A 
ATOM     64  C   UNL A   1      35.092  33.135  31.592  1.00  0.00     0.135 A 
ATOM     65  F   UNL A   1      37.997  34.191  29.670  1.00  0.00    -0.206 F 
ATOM     66  C   UNL A   1      35.730  34.711  29.386  1.00  0.00     0.059 A 
ATOM     67  C   UNL A   1      34.073  33.774  30.891  1.00  0.00     0.059 A 
ATOM     68  F   UNL A   1      34.753  32.404  32.665  1.00  0.00    -0.206 F 
ATOM     69  C   UNL A   1      34.405  34.584  29.807  1.00  0.00     0.060 A 
BRANCH  69  70
ATOM     70  S   UNL A   1      33.130  35.516  28.933  1.00  0.00     0.124 S 
ATOM     71  O   UNL A   1      32.524  34.475  28.110  1.00  0.00    -0.237 OA
ATOM     72  O   UNL A   1      32.306  36.017  30.028  1.00  0.00    -0.237 OA
ATOM     73  O   UNL A   1      33.887  36.529  28.205  1.00  0.00    -0.744 OA
ENDBRANCH  69  70
ENDBRANCH  48  62
BRANCH  49  74
ATOM     74  C   UNL A   1      43.776  28.552  36.127  1.00  0.00     0.058 A 
ATOM     75  C   UNL A   1      43.469  27.470  36.965  1.00  0.00     0.135 A 
ATOM     76  C   UNL A   1      45.128  28.907  35.986  1.00  0.00     0.135 A 
ATOM     77  F   UNL A   1      42.191  27.102  37.143  1.00  0.00    -0.206 F 
ATOM     78  C   UNL A   1      44.461  26.761  37.634  1.00  0.00     0.059 A 
ATOM     79  C   UNL A   1      46.140  28.197  36.623  1.00  0.00     0.059 A 
ATOM     80  F   UNL A   1      45.475  29.930  35.190  1.00  0.00    -0.206 F 
ATOM     81  C   UNL A   1      45.795  27.125  37.445  1.00  0.00     0.060 A 
BRANCH  81  82
ATOM     82  S   UNL A   1      47.076  26.139  38.250  1.00  0.00     0.124 S 
ATOM     83  O   UNL A   1      46.476  25.882  39.554  1.00  0.00    -0.237 OA
ATOM     84  O   UNL A   1      47.178  24.990  37.355  1.00  0.00    -0.237 OA
ATOM     85  O   UNL A   1      48.233  27.029  38.252  1.00  0.00    -0.744 OA
ENDBRANCH  81  82
ENDBRANCH  49  74
BRANCH  61  86
ATOM     86  C   UNL A   1      39.978  34.268  37.443  1.00  0.00     0.058 A 
ATOM     87  C   UNL A   1      40.763  35.432  37.439  1.00  0.00     0.135 A 
ATOM     88  C   UNL A   1      39.113  34.068  38.533  1.00  0.00     0.135 A 
ATOM     89  F   UNL A   1      41.616  35.669  36.430  1.00  0.00    -0.206 F 
ATOM     90  C   UNL A   1      40.703  36.354  38.480  1.00  0.00     0.059 A 
ATOM     91  C   UNL A   1      39.011  34.994  39.567  1.00  0.00     0.059 A 
ATOM     92  F   UNL A   1      38.334  32.976  38.587  1.00  0.00    -0.206 F 
ATOM     93  C   UNL A   1      39.817  36.131  39.536  1.00  0.00     0.060 A 
BRANCH  93  94
ATOM     94  S   UNL A   1      39.712  37.364  40.850  1.00  0.00     0.124 S 
ATOM     95  O   UNL A   1      41.086  37.851  40.909  1.00  0.00    -0.237 OA
ATOM     96  O   UNL A   1      38.729  38.302  40.315  1.00  0.00    -0.237 OA
ATOM     97  O   UNL A   1      39.269  36.593  42.008  1.00  0.00    -0.744 OA
ENDBRANCH  93  94
ENDBRANCH  61  86
ENDBRANCH  35  36
ENDBRANCH  28  30
ENDBRANCH  27  28
ENDBRANCH  26  27
ENDBRANCH   1  26
TORSDOF 20
ENDMDL
