MODEL 1
REMARK VINA RESULT:     -10.4      0.000      0.000
REMARK SMILES C[C@H]([C@@H](C)C(=O)OCCOCCOC(=O)c1ccc(-c2c3nc(c(-c4c(F)cc(S(=O)(=O)[O-])cc4F)c4ccc([nH]4)c(-c4c(F)cc(S(=O)(=O)[O-])cc4F)c4nc(c(-c5c(F)cc(S(=O)(=O)[O-])cc5F)c5ccc2[nH]5)C=C4)C=C3)cc1)[NH+]1CCN(c2nccs2)CC1
REMARK SMILES IDX 10 1 9 2 8 3 7 4 5 5 6 6 3 7 4 8 2 9 1 10 82 11 83 12 92 13
REMARK SMILES IDX 84 15 91 16 85 17 86 18 87 19 90 20 88 21 89 22 11 23 12 24
REMARK SMILES IDX 13 25 14 26 15 27 16 28 17 29 81 30 18 31 80 32 19 33 20 34
REMARK SMILES IDX 21 35 74 36 22 37 79 38 73 39 75 40 23 41 78 42 72 43 71 44
REMARK SMILES IDX 24 46 58 47 37 48 57 49 38 50 41 51 56 52 76 53 39 54 40 55
REMARK SMILES IDX 55 57 77 58 42 59 25 60 26 61 35 62 27 63 28 64 34 65 36 66
REMARK SMILES IDX 29 67 30 68 31 69 32 70 33 71 59 72 60 73 69 74 61 75 62 76
REMARK SMILES IDX 68 77 70 78 63 79 64 80 65 81 66 82 67 83 43 84 44 85 53 86
REMARK SMILES IDX 45 87 46 88 52 89 54 90 47 91 48 92 49 93 50 94 51 95
REMARK H PARENT 82 14 75 45 41 56
REMARK Flexibility Score: inf
ROOT
ATOM      1  O   UNL A   1      38.083  22.585  25.541  1.00  0.00    -0.374 OA
ENDROOT
BRANCH   1   2
ATOM      2  C   UNL A   1      37.097  21.972  24.712  1.00  0.00     0.202 C 
BRANCH   2   3
ATOM      3  C   UNL A   1      36.190  20.933  25.376  1.00  0.00     0.261 C 
BRANCH   3   4
ATOM      4  O   UNL A   1      34.830  20.969  24.905  1.00  0.00    -0.463 OA
BRANCH   4   5
ATOM      5  C   UNL A   1      33.912  21.388  25.817  1.00  0.00     0.314 C 
ATOM      6  O   UNL A   1      34.178  21.740  26.962  1.00  0.00    -0.252 OA
BRANCH   5   7
ATOM      7  C   UNL A   1      32.477  21.245  25.341  1.00  0.00     0.154 C 
ATOM      8  C   UNL A   1      32.568  20.481  24.012  1.00  0.00     0.026 C 
BRANCH   7   9
ATOM      9  C   UNL A   1      31.630  22.562  25.261  1.00  0.00     0.195 C 
ATOM     10  C   UNL A   1      30.596  22.591  26.397  1.00  0.00     0.076 C 
BRANCH   9  11
ATOM     11  N   UNL A   1      32.457  23.789  25.162  1.00  0.00    -0.329 N 
ATOM     12  C   UNL A   1      32.819  24.202  23.788  1.00  0.00     0.284 C 
ATOM     13  C   UNL A   1      32.052  24.980  25.927  1.00  0.00     0.284 C 
ATOM     14  H   UNL A   1      33.280  23.425  25.642  1.00  0.00     0.348 HD
ATOM     15  C   UNL A   1      31.847  25.145  23.032  1.00  0.00     0.180 C 
ATOM     16  C   UNL A   1      31.026  25.927  25.269  1.00  0.00     0.180 C 
ATOM     17  N   UNL A   1      31.348  26.234  23.873  1.00  0.00    -0.337 N 
BRANCH  17  18
ATOM     18  C   UNL A   1      30.737  27.327  23.330  1.00  0.00     0.185 A 
ATOM     19  N   UNL A   1      31.402  28.315  22.761  1.00  0.00    -0.229 NA
ATOM     20  S   UNL A   1      29.019  27.591  23.377  1.00  0.00    -0.106 S 
ATOM     21  C   UNL A   1      30.543  29.289  22.294  1.00  0.00     0.125 A 
ATOM     22  C   UNL A   1      29.214  29.092  22.584  1.00  0.00     0.088 A 
ENDBRANCH  17  18
ENDBRANCH   9  11
ENDBRANCH   7   9
ENDBRANCH   5   7
ENDBRANCH   4   5
ENDBRANCH   3   4
ENDBRANCH   2   3
ENDBRANCH   1   2
BRANCH   1  23
ATOM     23  C   UNL A   1      39.033  21.714  26.155  1.00  0.00     0.202 C 
BRANCH  23  24
ATOM     24  C   UNL A   1      40.474  22.232  26.212  1.00  0.00     0.261 C 
BRANCH  24  25
ATOM     25  O   UNL A   1      40.645  23.207  27.259  1.00  0.00    -0.460 OA
BRANCH  25  26
ATOM     26  C   UNL A   1      41.411  24.271  26.925  1.00  0.00     0.338 C 
ATOM     27  O   UNL A   1      42.215  24.339  26.004  1.00  0.00    -0.246 OA
BRANCH  26  28
ATOM     28  C   UNL A   1      41.027  25.453  27.720  1.00  0.00     0.060 A 
ATOM     29  C   UNL A   1      42.000  26.444  27.904  1.00  0.00     0.016 A 
ATOM     30  C   UNL A   1      39.779  25.565  28.340  1.00  0.00     0.016 A 
ATOM     31  C   UNL A   1      41.759  27.512  28.763  1.00  0.00     0.010 A 
ATOM     32  C   UNL A   1      39.541  26.637  29.209  1.00  0.00     0.010 A 
ATOM     33  C   UNL A   1      40.545  27.591  29.458  1.00  0.00    -0.014 A 
BRANCH  33  34
ATOM     34  C   UNL A   1      40.403  28.577  30.559  1.00  0.00     0.031 A 
ATOM     35  C   UNL A   1      41.309  28.463  31.758  1.00  0.00     0.074 A 
ATOM     36  C   UNL A   1      39.522  29.590  30.472  1.00  0.00     0.049 A 
ATOM     37  N   UNL A   1      41.361  29.208  32.832  1.00  0.00    -0.248 NA
ATOM     38  C   UNL A   1      42.288  27.363  31.742  1.00  0.00     0.031 C 
ATOM     39  C   UNL A   1      38.623  29.833  29.346  1.00  0.00     0.029 A 
ATOM     40  N   UNL A   1      39.241  30.605  31.352  1.00  0.00    -0.354 N 
ATOM     41  C   UNL A   1      42.368  28.665  33.622  1.00  0.00     0.074 A 
ATOM     42  C   UNL A   1      42.883  27.511  32.916  1.00  0.00     0.031 C 
ATOM     43  C   UNL A   1      37.886  30.927  29.604  1.00  0.00     0.029 A 
ATOM     44  C   UNL A   1      38.240  31.444  30.926  1.00  0.00     0.049 A 
ATOM     45  H   UNL A   1      39.713  30.722  32.208  1.00  0.00     0.167 HD
ATOM     46  C   UNL A   1      42.828  29.093  34.821  1.00  0.00     0.037 A 
ATOM     47  C   UNL A   1      37.662  32.497  31.539  1.00  0.00     0.037 A 
ATOM     48  C   UNL A   1      42.322  30.249  35.515  1.00  0.00     0.049 A 
ATOM     49  C   UNL A   1      38.150  32.918  32.901  1.00  0.00     0.074 A 
ATOM     50  C   UNL A   1      42.741  30.778  36.723  1.00  0.00     0.029 A 
ATOM     51  N   UNL A   1      41.282  31.049  35.067  1.00  0.00    -0.354 N 
ATOM     52  N   UNL A   1      39.118  32.408  33.626  1.00  0.00    -0.248 NA
ATOM     53  C   UNL A   1      37.468  34.059  33.529  1.00  0.00     0.031 C 
ATOM     54  C   UNL A   1      41.923  31.870  37.030  1.00  0.00     0.029 A 
ATOM     55  C   UNL A   1      41.027  32.053  35.987  1.00  0.00     0.049 A 
ATOM     56  H   UNL A   1      40.796  30.923  34.220  1.00  0.00     0.167 HD
ATOM     57  C   UNL A   1      39.179  33.183  34.780  1.00  0.00     0.074 A 
ATOM     58  C   UNL A   1      38.157  34.201  34.654  1.00  0.00     0.031 C 
ATOM     59  C   UNL A   1      40.010  33.064  35.846  1.00  0.00     0.037 A 
BRANCH  46  60
ATOM     60  C   UNL A   1      43.919  28.293  35.476  1.00  0.00     0.058 A 
ATOM     61  C   UNL A   1      45.276  28.525  35.200  1.00  0.00     0.135 A 
ATOM     62  C   UNL A   1      43.604  27.304  36.421  1.00  0.00     0.135 A 
ATOM     63  F   UNL A   1      45.633  29.447  34.291  1.00  0.00    -0.206 F 
ATOM     64  C   UNL A   1      46.280  27.789  35.820  1.00  0.00     0.059 A 
ATOM     65  C   UNL A   1      44.592  26.573  37.072  1.00  0.00     0.059 A 
ATOM     66  F   UNL A   1      42.321  27.039  36.719  1.00  0.00    -0.206 F 
ATOM     67  C   UNL A   1      45.928  26.814  36.755  1.00  0.00     0.060 A 
BRANCH  67  68
ATOM     68  S   UNL A   1      47.241  25.871  37.559  1.00  0.00     0.124 S 
ATOM     69  O   UNL A   1      46.595  25.482  38.809  1.00  0.00    -0.237 OA
ATOM     70  O   UNL A   1      47.479  24.791  36.606  1.00  0.00    -0.237 OA
ATOM     71  O   UNL A   1      48.326  26.839  37.689  1.00  0.00    -0.744 OA
ENDBRANCH  67  68
ENDBRANCH  46  60
BRANCH  47  72
ATOM     72  C   UNL A   1      36.549  33.225  30.874  1.00  0.00     0.058 A 
ATOM     73  C   UNL A   1      36.788  34.099  29.803  1.00  0.00     0.135 A 
ATOM     74  C   UNL A   1      35.221  33.066  31.303  1.00  0.00     0.135 A 
ATOM     75  F   UNL A   1      38.041  34.294  29.365  1.00  0.00    -0.206 F 
ATOM     76  C   UNL A   1      35.755  34.797  29.188  1.00  0.00     0.059 A 
ATOM     77  C   UNL A   1      34.168  33.735  30.689  1.00  0.00     0.059 A 
ATOM     78  F   UNL A   1      34.938  32.235  32.319  1.00  0.00    -0.206 F 
ATOM     79  C   UNL A   1      34.446  34.607  29.637  1.00  0.00     0.060 A 
BRANCH  79  80
ATOM     80  S   UNL A   1      33.105  35.480  28.801  1.00  0.00     0.124 S 
ATOM     81  O   UNL A   1      33.840  36.469  28.021  1.00  0.00    -0.237 OA
ATOM     82  O   UNL A   1      32.469  34.410  28.040  1.00  0.00    -0.237 OA
ATOM     83  O   UNL A   1      32.311  36.010  29.906  1.00  0.00    -0.744 OA
ENDBRANCH  79  80
ENDBRANCH  47  72
BRANCH  59  84
ATOM     84  C   UNL A   1      39.875  34.079  36.948  1.00  0.00     0.058 A 
ATOM     85  C   UNL A   1      40.453  35.354  36.854  1.00  0.00     0.135 A 
ATOM     86  C   UNL A   1      39.107  33.789  38.090  1.00  0.00     0.135 A 
ATOM     87  F   UNL A   1      41.200  35.679  35.788  1.00  0.00    -0.206 F 
ATOM     88  C   UNL A   1      40.295  36.300  37.863  1.00  0.00     0.059 A 
ATOM     89  C   UNL A   1      38.914  34.728  39.097  1.00  0.00     0.059 A 
ATOM     90  F   UNL A   1      38.522  32.588  38.223  1.00  0.00    -0.206 F 
ATOM     91  C   UNL A   1      39.521  35.978  38.981  1.00  0.00     0.060 A 
BRANCH  91  92
ATOM     92  S   UNL A   1      39.296  37.224  40.267  1.00  0.00     0.124 S 
ATOM     93  O   UNL A   1      38.546  36.478  41.271  1.00  0.00    -0.237 OA
ATOM     94  O   UNL A   1      40.671  37.560  40.623  1.00  0.00    -0.237 OA
ATOM     95  O   UNL A   1      38.555  38.283  39.588  1.00  0.00    -0.744 OA
ENDBRANCH  91  92
ENDBRANCH  59  84
ENDBRANCH  33  34
ENDBRANCH  26  28
ENDBRANCH  25  26
ENDBRANCH  24  25
ENDBRANCH  23  24
ENDBRANCH   1  23
TORSDOF 20
ENDMDL
MODEL 2
REMARK VINA RESULT:     -10.4      4.936     10.718
REMARK SMILES C[C@H]([C@@H](C)C(=O)OCCOCCOC(=O)c1ccc(-c2c3nc(c(-c4c(F)cc(S(=O)(=O)[O-])cc4F)c4ccc([nH]4)c(-c4c(F)cc(S(=O)(=O)[O-])cc4F)c4nc(c(-c5c(F)cc(S(=O)(=O)[O-])cc5F)c5ccc2[nH]5)C=C4)C=C3)cc1)[NH+]1CCN(c2nccs2)CC1
REMARK SMILES IDX 10 1 9 2 8 3 7 4 5 5 6 6 3 7 4 8 2 9 1 10 82 11 83 12 92 13
REMARK SMILES IDX 84 15 91 16 85 17 86 18 87 19 90 20 88 21 89 22 11 23 12 24
REMARK SMILES IDX 13 25 14 26 15 27 16 28 17 29 81 30 18 31 80 32 19 33 20 34
REMARK SMILES IDX 21 35 74 36 22 37 79 38 73 39 75 40 23 41 78 42 72 43 71 44
REMARK SMILES IDX 24 46 58 47 37 48 57 49 38 50 41 51 56 52 76 53 39 54 40 55
REMARK SMILES IDX 55 57 77 58 42 59 25 60 26 61 35 62 27 63 28 64 34 65 36 66
REMARK SMILES IDX 29 67 30 68 31 69 32 70 33 71 59 72 60 73 69 74 61 75 62 76
REMARK SMILES IDX 68 77 70 78 63 79 64 80 65 81 66 82 67 83 43 84 44 85 53 86
REMARK SMILES IDX 45 87 46 88 52 89 54 90 47 91 48 92 49 93 50 94 51 95
REMARK H PARENT 82 14 75 45 41 56
REMARK Flexibility Score: inf
ROOT
ATOM      1  O   UNL A   1      31.789  30.137  24.777  1.00  0.00    -0.374 OA
ENDROOT
BRANCH   1   2
ATOM      2  C   UNL A   1      31.826  28.919  24.036  1.00  0.00     0.202 C 
BRANCH   2   3
ATOM      3  C   UNL A   1      31.216  28.948  22.632  1.00  0.00     0.261 C 
BRANCH   3   4
ATOM      4  O   UNL A   1      30.291  27.874  22.383  1.00  0.00    -0.463 OA
BRANCH   4   5
ATOM      5  C   UNL A   1      30.799  26.622  22.546  1.00  0.00     0.314 C 
ATOM      6  O   UNL A   1      31.703  26.143  21.867  1.00  0.00    -0.252 OA
BRANCH   5   7
ATOM      7  C   UNL A   1      30.043  25.790  23.566  1.00  0.00     0.154 C 
ATOM      8  C   UNL A   1      28.771  26.592  23.877  1.00  0.00     0.026 C 
BRANCH   7   9
ATOM      9  C   UNL A   1      30.842  25.346  24.840  1.00  0.00     0.195 C 
ATOM     10  C   UNL A   1      30.265  26.034  26.087  1.00  0.00     0.076 C 
BRANCH   9  11
ATOM     11  N   UNL A   1      30.977  23.875  24.969  1.00  0.00    -0.329 N 
ATOM     12  C   UNL A   1      31.425  23.169  23.746  1.00  0.00     0.284 C 
ATOM     13  C   UNL A   1      31.701  23.328  26.127  1.00  0.00     0.284 C 
ATOM     14  H   UNL A   1      29.993  23.673  25.143  1.00  0.00     0.348 HD
ATOM     15  C   UNL A   1      32.950  22.999  23.523  1.00  0.00     0.180 C 
ATOM     16  C   UNL A   1      33.234  23.200  26.006  1.00  0.00     0.180 C 
ATOM     17  N   UNL A   1      33.658  22.598  24.740  1.00  0.00    -0.337 N 
BRANCH  17  18
ATOM     18  C   UNL A   1      34.931  22.106  24.691  1.00  0.00     0.185 A 
ATOM     19  N   UNL A   1      35.315  21.039  25.365  1.00  0.00    -0.229 NA
ATOM     20  S   UNL A   1      36.218  22.855  23.795  1.00  0.00    -0.106 S 
ATOM     21  C   UNL A   1      36.646  20.758  25.135  1.00  0.00     0.125 A 
ATOM     22  C   UNL A   1      37.314  21.666  24.348  1.00  0.00     0.088 A 
ENDBRANCH  17  18
ENDBRANCH   9  11
ENDBRANCH   7   9
ENDBRANCH   5   7
ENDBRANCH   4   5
ENDBRANCH   3   4
ENDBRANCH   2   3
ENDBRANCH   1   2
BRANCH   1  23
ATOM     23  C   UNL A   1      31.920  30.027  26.195  1.00  0.00     0.202 C 
BRANCH  23  24
ATOM     24  C   UNL A   1      32.980  30.924  26.840  1.00  0.00     0.261 C 
BRANCH  24  25
ATOM     25  O   UNL A   1      33.717  30.224  27.861  1.00  0.00    -0.460 OA
BRANCH  25  26
ATOM     26  C   UNL A   1      34.655  30.964  28.494  1.00  0.00     0.338 C 
ATOM     27  O   UNL A   1      34.477  32.005  29.116  1.00  0.00    -0.246 OA
BRANCH  26  28
ATOM     28  C   UNL A   1      35.950  30.257  28.505  1.00  0.00     0.060 A 
ATOM     29  C   UNL A   1      36.371  29.713  29.726  1.00  0.00     0.016 A 
ATOM     30  C   UNL A   1      36.776  30.190  27.379  1.00  0.00     0.016 A 
ATOM     31  C   UNL A   1      37.645  29.164  29.846  1.00  0.00     0.010 A 
ATOM     32  C   UNL A   1      38.059  29.643  27.504  1.00  0.00     0.010 A 
ATOM     33  C   UNL A   1      38.515  29.168  28.748  1.00  0.00    -0.014 A 
BRANCH  33  34
ATOM     34  C   UNL A   1      39.944  28.828  28.956  1.00  0.00     0.031 A 
ATOM     35  C   UNL A   1      40.857  29.860  29.565  1.00  0.00     0.074 A 
ATOM     36  C   UNL A   1      40.415  27.601  28.660  1.00  0.00     0.049 A 
ATOM     37  N   UNL A   1      42.135  29.782  29.835  1.00  0.00    -0.248 NA
ATOM     38  C   UNL A   1      40.246  31.152  29.918  1.00  0.00     0.031 C 
ATOM     39  C   UNL A   1      39.622  26.504  28.109  1.00  0.00     0.029 A 
ATOM     40  N   UNL A   1      41.677  27.076  28.783  1.00  0.00    -0.354 N 
ATOM     41  C   UNL A   1      42.483  31.012  30.380  1.00  0.00     0.074 A 
ATOM     42  C   UNL A   1      41.289  31.829  30.378  1.00  0.00     0.031 C 
ATOM     43  C   UNL A   1      40.418  25.435  27.938  1.00  0.00     0.029 A 
ATOM     44  C   UNL A   1      41.781  25.780  28.339  1.00  0.00     0.049 A 
ATOM     45  H   UNL A   1      42.435  27.580  29.157  1.00  0.00     0.167 HD
ATOM     46  C   UNL A   1      43.686  31.422  30.847  1.00  0.00     0.037 A 
ATOM     47  C   UNL A   1      42.856  24.972  28.250  1.00  0.00     0.037 A 
ATOM     48  C   UNL A   1      44.870  30.603  30.860  1.00  0.00     0.049 A 
ATOM     49  C   UNL A   1      44.198  25.471  28.721  1.00  0.00     0.074 A 
ATOM     50  C   UNL A   1      46.130  30.920  31.337  1.00  0.00     0.029 A 
ATOM     51  N   UNL A   1      44.943  29.310  30.366  1.00  0.00    -0.354 N 
ATOM     52  N   UNL A   1      44.507  26.630  29.254  1.00  0.00    -0.248 NA
ATOM     53  C   UNL A   1      45.337  24.553  28.579  1.00  0.00     0.031 C 
ATOM     54  C   UNL A   1      46.977  29.835  31.089  1.00  0.00     0.029 A 
ATOM     55  C   UNL A   1      46.233  28.823  30.503  1.00  0.00     0.049 A 
ATOM     56  H   UNL A   1      44.190  28.810  29.976  1.00  0.00     0.167 HD
ATOM     57  C   UNL A   1      45.868  26.568  29.537  1.00  0.00     0.074 A 
ATOM     58  C   UNL A   1      46.322  25.257  29.124  1.00  0.00     0.031 C 
ATOM     59  C   UNL A   1      46.669  27.512  30.093  1.00  0.00     0.037 A 
BRANCH  46  60
ATOM     60  C   UNL A   1      43.791  32.830  31.363  1.00  0.00     0.058 A 
ATOM     61  C   UNL A   1      43.465  33.161  32.688  1.00  0.00     0.135 A 
ATOM     62  C   UNL A   1      44.259  33.858  30.529  1.00  0.00     0.135 A 
ATOM     63  F   UNL A   1      42.995  32.220  33.523  1.00  0.00    -0.206 F 
ATOM     64  C   UNL A   1      43.578  34.465  33.161  1.00  0.00     0.059 A 
ATOM     65  C   UNL A   1      44.405  35.164  30.987  1.00  0.00     0.059 A 
ATOM     66  F   UNL A   1      44.582  33.597  29.252  1.00  0.00    -0.206 F 
ATOM     67  C   UNL A   1      44.049  35.459  32.303  1.00  0.00     0.060 A 
BRANCH  67  68
ATOM     68  S   UNL A   1      44.198  37.145  32.930  1.00  0.00     0.124 S 
ATOM     69  O   UNL A   1      43.265  37.121  34.053  1.00  0.00    -0.237 OA
ATOM     70  O   UNL A   1      45.613  37.224  33.284  1.00  0.00    -0.237 OA
ATOM     71  O   UNL A   1      43.793  37.969  31.796  1.00  0.00    -0.744 OA
ENDBRANCH  67  68
ENDBRANCH  46  60
BRANCH  47  72
ATOM     72  C   UNL A   1      42.714  23.605  27.683  1.00  0.00     0.058 A 
ATOM     73  C   UNL A   1      42.488  22.494  28.510  1.00  0.00     0.135 A 
ATOM     74  C   UNL A   1      42.806  23.381  26.300  1.00  0.00     0.135 A 
ATOM     75  F   UNL A   1      42.404  22.654  29.839  1.00  0.00    -0.206 F 
ATOM     76  C   UNL A   1      42.372  21.210  27.989  1.00  0.00     0.059 A 
ATOM     77  C   UNL A   1      42.669  22.109  25.753  1.00  0.00     0.059 A 
ATOM     78  F   UNL A   1      43.013  24.411  25.464  1.00  0.00    -0.206 F 
ATOM     79  C   UNL A   1      42.462  21.028  26.607  1.00  0.00     0.060 A 
BRANCH  79  80
ATOM     80  S   UNL A   1      42.260  19.364  25.935  1.00  0.00     0.124 S 
ATOM     81  O   UNL A   1      40.822  19.319  25.692  1.00  0.00    -0.237 OA
ATOM     82  O   UNL A   1      43.107  19.407  24.748  1.00  0.00    -0.237 OA
ATOM     83  O   UNL A   1      42.746  18.507  27.012  1.00  0.00    -0.744 OA
ENDBRANCH  79  80
ENDBRANCH  47  72
BRANCH  59  84
ATOM     84  C   UNL A   1      48.112  27.152  30.320  1.00  0.00     0.058 A 
ATOM     85  C   UNL A   1      49.107  27.457  29.378  1.00  0.00     0.135 A 
ATOM     86  C   UNL A   1      48.512  26.545  31.523  1.00  0.00     0.135 A 
ATOM     87  F   UNL A   1      48.777  28.031  28.211  1.00  0.00    -0.206 F 
ATOM     88  C   UNL A   1      50.445  27.152  29.609  1.00  0.00     0.059 A 
ATOM     89  C   UNL A   1      49.847  26.256  31.786  1.00  0.00     0.059 A 
ATOM     90  F   UNL A   1      47.602  26.244  32.463  1.00  0.00    -0.206 F 
ATOM     91  C   UNL A   1      50.805  26.553  30.818  1.00  0.00     0.060 A 
BRANCH  91  92
ATOM     92  S   UNL A   1      52.548  26.193  31.121  1.00  0.00     0.124 S 
ATOM     93  O   UNL A   1      52.467  24.920  31.829  1.00  0.00    -0.237 OA
ATOM     94  O   UNL A   1      53.096  26.132  29.770  1.00  0.00    -0.237 OA
ATOM     95  O   UNL A   1      52.996  27.329  31.921  1.00  0.00    -0.744 OA
ENDBRANCH  91  92
ENDBRANCH  59  84
ENDBRANCH  33  34
ENDBRANCH  26  28
ENDBRANCH  25  26
ENDBRANCH  24  25
ENDBRANCH  23  24
ENDBRANCH   1  23
TORSDOF 20
ENDMDL
MODEL 3
REMARK VINA RESULT:     -10.2      4.892      6.296
REMARK SMILES C[C@H]([C@@H](C)C(=O)OCCOCCOC(=O)c1ccc(-c2c3nc(c(-c4c(F)cc(S(=O)(=O)[O-])cc4F)c4ccc([nH]4)c(-c4c(F)cc(S(=O)(=O)[O-])cc4F)c4nc(c(-c5c(F)cc(S(=O)(=O)[O-])cc5F)c5ccc2[nH]5)C=C4)C=C3)cc1)[NH+]1CCN(c2nccs2)CC1
REMARK SMILES IDX 10 1 9 2 8 3 7 4 5 5 6 6 3 7 4 8 2 9 1 10 82 11 83 12 92 13
REMARK SMILES IDX 84 15 91 16 85 17 86 18 87 19 90 20 88 21 89 22 11 23 12 24
REMARK SMILES IDX 13 25 14 26 15 27 16 28 17 29 81 30 18 31 80 32 19 33 20 34
REMARK SMILES IDX 21 35 74 36 22 37 79 38 73 39 75 40 23 41 78 42 72 43 71 44
REMARK SMILES IDX 24 46 58 47 37 48 57 49 38 50 41 51 56 52 76 53 39 54 40 55
REMARK SMILES IDX 55 57 77 58 42 59 25 60 26 61 35 62 27 63 28 64 34 65 36 66
REMARK SMILES IDX 29 67 30 68 31 69 32 70 33 71 59 72 60 73 69 74 61 75 62 76
REMARK SMILES IDX 68 77 70 78 63 79 64 80 65 81 66 82 67 83 43 84 44 85 53 86
REMARK SMILES IDX 45 87 46 88 52 89 54 90 47 91 48 92 49 93 50 94 51 95
REMARK H PARENT 82 14 75 45 41 56
REMARK Flexibility Score: inf
ROOT
ATOM      1  O   UNL A   1      35.563  21.427  26.130  1.00  0.00    -0.374 OA
ENDROOT
BRANCH   1   2
ATOM      2  C   UNL A   1      34.372  22.063  25.670  1.00  0.00     0.202 C 
BRANCH   2   3
ATOM      3  C   UNL A   1      33.193  22.101  26.646  1.00  0.00     0.261 C 
BRANCH   3   4
ATOM      4  O   UNL A   1      31.911  22.191  25.997  1.00  0.00    -0.463 OA
BRANCH   4   5
ATOM      5  C   UNL A   1      31.244  23.361  26.191  1.00  0.00     0.314 C 
ATOM      6  O   UNL A   1      30.684  23.680  27.236  1.00  0.00    -0.252 OA
BRANCH   5   7
ATOM      7  C   UNL A   1      31.120  24.202  24.933  1.00  0.00     0.154 C 
ATOM      8  C   UNL A   1      30.968  23.192  23.787  1.00  0.00     0.026 C 
BRANCH   7   9
ATOM      9  C   UNL A   1      32.238  25.274  24.692  1.00  0.00     0.195 C 
ATOM     10  C   UNL A   1      33.137  24.842  23.524  1.00  0.00     0.076 C 
BRANCH   9  11
ATOM     11  N   UNL A   1      31.713  26.657  24.574  1.00  0.00    -0.329 N 
ATOM     12  C   UNL A   1      31.080  27.202  25.796  1.00  0.00     0.284 C 
ATOM     13  C   UNL A   1      32.573  27.692  23.980  1.00  0.00     0.284 C 
ATOM     14  H   UNL A   1      30.999  26.460  23.873  1.00  0.00     0.348 HD
ATOM     15  C   UNL A   1      31.984  27.943  26.815  1.00  0.00     0.180 C 
ATOM     16  C   UNL A   1      33.556  28.421  24.920  1.00  0.00     0.180 C 
ATOM     17  N   UNL A   1      32.931  28.855  26.172  1.00  0.00    -0.337 N 
BRANCH  17  18
ATOM     18  C   UNL A   1      33.592  29.812  26.887  1.00  0.00     0.185 A 
ATOM     19  N   UNL A   1      33.065  30.985  27.179  1.00  0.00    -0.229 NA
ATOM     20  S   UNL A   1      35.230  29.635  27.444  1.00  0.00    -0.106 S 
ATOM     21  C   UNL A   1      33.944  31.757  27.910  1.00  0.00     0.125 A 
ATOM     22  C   UNL A   1      35.189  31.209  28.107  1.00  0.00     0.088 A 
ENDBRANCH  17  18
ENDBRANCH   9  11
ENDBRANCH   7   9
ENDBRANCH   5   7
ENDBRANCH   4   5
ENDBRANCH   3   4
ENDBRANCH   2   3
ENDBRANCH   1   2
BRANCH   1  23
ATOM     23  C   UNL A   1      36.419  20.874  25.129  1.00  0.00     0.202 C 
BRANCH  23  24
ATOM     24  C   UNL A   1      37.825  21.476  25.046  1.00  0.00     0.261 C 
BRANCH  24  25
ATOM     25  O   UNL A   1      38.006  22.533  26.008  1.00  0.00    -0.460 OA
BRANCH  25  26
ATOM     26  C   UNL A   1      39.271  22.677  26.465  1.00  0.00     0.338 C 
ATOM     27  O   UNL A   1      40.184  21.865  26.372  1.00  0.00    -0.246 OA
BRANCH  26  28
ATOM     28  C   UNL A   1      39.491  24.052  26.953  1.00  0.00     0.060 A 
ATOM     29  C   UNL A   1      40.004  24.980  26.038  1.00  0.00     0.016 A 
ATOM     30  C   UNL A   1      39.281  24.415  28.286  1.00  0.00     0.016 A 
ATOM     31  C   UNL A   1      40.376  26.252  26.465  1.00  0.00     0.010 A 
ATOM     32  C   UNL A   1      39.662  25.693  28.715  1.00  0.00     0.010 A 
ATOM     33  C   UNL A   1      40.251  26.601  27.817  1.00  0.00    -0.014 A 
BRANCH  33  34
ATOM     34  C   UNL A   1      40.890  27.849  28.304  1.00  0.00     0.031 A 
ATOM     35  C   UNL A   1      42.381  28.008  28.159  1.00  0.00     0.074 A 
ATOM     36  C   UNL A   1      40.151  28.850  28.818  1.00  0.00     0.049 A 
ATOM     37  N   UNL A   1      43.147  29.007  28.514  1.00  0.00    -0.248 NA
ATOM     38  C   UNL A   1      43.103  26.891  27.527  1.00  0.00     0.031 C 
ATOM     39  C   UNL A   1      38.697  28.835  28.969  1.00  0.00     0.029 A 
ATOM     40  N   UNL A   1      40.528  30.076  29.308  1.00  0.00    -0.354 N 
ATOM     41  C   UNL A   1      44.440  28.638  28.159  1.00  0.00     0.074 A 
ATOM     42  C   UNL A   1      44.358  27.313  27.584  1.00  0.00     0.031 C 
ATOM     43  C   UNL A   1      38.304  29.997  29.519  1.00  0.00     0.029 A 
ATOM     44  C   UNL A   1      39.480  30.825  29.786  1.00  0.00     0.049 A 
ATOM     45  H   UNL A   1      41.461  30.389  29.315  1.00  0.00     0.167 HD
ATOM     46  C   UNL A   1      45.589  29.343  28.290  1.00  0.00     0.037 A 
ATOM     47  C   UNL A   1      39.471  32.033  30.385  1.00  0.00     0.037 A 
ATOM     48  C   UNL A   1      45.665  30.667  28.851  1.00  0.00     0.049 A 
ATOM     49  C   UNL A   1      40.771  32.772  30.576  1.00  0.00     0.074 A 
ATOM     50  C   UNL A   1      46.779  31.473  29.003  1.00  0.00     0.029 A 
ATOM     51  N   UNL A   1      44.586  31.375  29.358  1.00  0.00    -0.354 N 
ATOM     52  N   UNL A   1      41.982  32.420  30.215  1.00  0.00    -0.248 NA
ATOM     53  C   UNL A   1      40.701  34.074  31.255  1.00  0.00     0.031 C 
ATOM     54  C   UNL A   1      46.382  32.651  29.645  1.00  0.00     0.029 A 
ATOM     55  C   UNL A   1      45.012  32.600  29.847  1.00  0.00     0.049 A 
ATOM     56  H   UNL A   1      43.655  31.056  29.368  1.00  0.00     0.167 HD
ATOM     57  C   UNL A   1      42.813  33.468  30.596  1.00  0.00     0.074 A 
ATOM     58  C   UNL A   1      41.967  34.471  31.209  1.00  0.00     0.031 C 
ATOM     59  C   UNL A   1      44.156  33.591  30.449  1.00  0.00     0.037 A 
BRANCH  46  60
ATOM     60  C   UNL A   1      46.865  28.687  27.843  1.00  0.00     0.058 A 
ATOM     61  C   UNL A   1      47.647  27.914  28.716  1.00  0.00     0.135 A 
ATOM     62  C   UNL A   1      47.293  28.803  26.511  1.00  0.00     0.135 A 
ATOM     63  F   UNL A   1      47.294  27.785  30.005  1.00  0.00    -0.206 F 
ATOM     64  C   UNL A   1      48.821  27.300  28.290  1.00  0.00     0.059 A 
ATOM     65  C   UNL A   1      48.449  28.176  26.056  1.00  0.00     0.059 A 
ATOM     66  F   UNL A   1      46.583  29.533  25.635  1.00  0.00    -0.206 F 
ATOM     67  C   UNL A   1      49.213  27.436  26.958  1.00  0.00     0.060 A 
BRANCH  67  68
ATOM     68  S   UNL A   1      50.733  26.628  26.416  1.00  0.00     0.124 S 
ATOM     69  O   UNL A   1      51.737  27.341  27.199  1.00  0.00    -0.237 OA
ATOM     70  O   UNL A   1      50.502  25.238  26.797  1.00  0.00    -0.237 OA
ATOM     71  O   UNL A   1      50.761  26.883  24.979  1.00  0.00    -0.744 OA
ENDBRANCH  67  68
ENDBRANCH  46  60
BRANCH  47  72
ATOM     72  C   UNL A   1      38.190  32.618  30.859  1.00  0.00     0.058 A 
ATOM     73  C   UNL A   1      37.400  33.417  30.019  1.00  0.00     0.135 A 
ATOM     74  C   UNL A   1      37.731  32.396  32.167  1.00  0.00     0.135 A 
ATOM     75  F   UNL A   1      37.801  33.669  28.763  1.00  0.00    -0.206 F 
ATOM     76  C   UNL A   1      36.209  33.983  30.460  1.00  0.00     0.059 A 
ATOM     77  C   UNL A   1      36.532  32.932  32.624  1.00  0.00     0.059 A 
ATOM     78  F   UNL A   1      38.446  31.632  33.009  1.00  0.00    -0.206 F 
ATOM     79  C   UNL A   1      35.782  33.733  31.765  1.00  0.00     0.060 A 
BRANCH  79  80
ATOM     80  S   UNL A   1      34.210  34.432  32.315  1.00  0.00     0.124 S 
ATOM     81  O   UNL A   1      33.546  34.697  31.043  1.00  0.00    -0.237 OA
ATOM     82  O   UNL A   1      33.652  33.344  33.112  1.00  0.00    -0.237 OA
ATOM     83  O   UNL A   1      34.615  35.611  33.074  1.00  0.00    -0.744 OA
ENDBRANCH  79  80
ENDBRANCH  47  72
BRANCH  59  84
ATOM     84  C   UNL A   1      44.794  34.867  30.927  1.00  0.00     0.058 A 
ATOM     85  C   UNL A   1      44.895  35.997  30.101  1.00  0.00     0.135 A 
ATOM     86  C   UNL A   1      45.258  34.978  32.249  1.00  0.00     0.135 A 
ATOM     87  F   UNL A   1      44.473  35.943  28.828  1.00  0.00    -0.206 F 
ATOM     88  C   UNL A   1      45.455  37.186  30.560  1.00  0.00     0.059 A 
ATOM     89  C   UNL A   1      45.797  36.163  32.737  1.00  0.00     0.059 A 
ATOM     90  F   UNL A   1      45.173  33.930  33.084  1.00  0.00    -0.206 F 
ATOM     91  C   UNL A   1      45.902  37.259  31.882  1.00  0.00     0.060 A 
BRANCH  91  92
ATOM     92  S   UNL A   1      46.596  38.816  32.476  1.00  0.00     0.124 S 
ATOM     93  O   UNL A   1      47.693  38.347  33.316  1.00  0.00    -0.237 OA
ATOM     94  O   UNL A   1      46.986  39.480  31.237  1.00  0.00    -0.237 OA
ATOM     95  O   UNL A   1      45.481  39.436  33.187  1.00  0.00    -0.744 OA
ENDBRANCH  91  92
ENDBRANCH  59  84
ENDBRANCH  33  34
ENDBRANCH  26  28
ENDBRANCH  25  26
ENDBRANCH  24  25
ENDBRANCH  23  24
ENDBRANCH   1  23
TORSDOF 20
ENDMDL
