MODEL 1
REMARK VINA RESULT:     -10.9      0.000      0.000
REMARK SMILES COc1ccc([C@H]2CC(c3ccccc3)=NN2C(=O)CCCC(=O)OCCOCCOC(=O)c2ccc(-c3c4nc(c(-c5c(F)cc(S(=O)(=O)[O-])cc5F)c5ccc([nH]5)c(-c5c(F)cc(S(=O)(=O)[O-])cc5F)c5nc(c(-c6c(F)cc(S(=O)(=O)[O-])cc6F)c6ccc3[nH]6)C=C5)C=C4)cc2)cc1
REMARK SMILES IDX 26 1 25 2 23 3 24 4 22 5 21 6 20 7 18 8 19 9 17 10 7 11 8 12
REMARK SMILES IDX 9 13 16 14 6 15 3 16 4 17 101 18 5 19 100 20 2 21 1 22 10 23
REMARK SMILES IDX 11 24 15 25 12 26 14 27 13 28 27 29 28 30 29 31 30 32 31 33
REMARK SMILES IDX 32 34 33 35 34 36 35 37 99 38 36 39 98 40 37 41 38 42 39 43
REMARK SMILES IDX 92 44 40 45 97 46 91 47 93 48 41 49 96 50 90 51 89 52 42 54
REMARK SMILES IDX 76 55 55 56 75 57 56 58 59 59 74 60 94 61 57 62 58 63 73 65
REMARK SMILES IDX 95 66 60 67 43 68 44 69 53 70 45 71 46 72 52 73 54 74 47 75
REMARK SMILES IDX 48 76 49 77 50 78 51 79 77 80 78 81 87 82 79 83 80 84 86 85
REMARK SMILES IDX 88 86 81 87 82 88 83 89 84 90 85 91 61 92 62 93 71 94 63 95
REMARK SMILES IDX 64 96 70 97 72 98 65 99 66 100 67 101 68 102 69 103
REMARK H PARENT 93 53 59 64
REMARK Flexibility Score: inf
ROOT
ATOM      1  C   UNL A   1      32.479  28.247  24.633  1.00  0.00     0.261 C 
ENDROOT
BRANCH   1   2
ATOM      2  O   UNL A   1      33.041  27.815  23.385  1.00  0.00    -0.463 OA
BRANCH   2   3
ATOM      3  C   UNL A   1      32.203  27.069  22.628  1.00  0.00     0.305 C 
ATOM      4  O   UNL A   1      31.027  27.351  22.438  1.00  0.00    -0.252 OA
BRANCH   3   5
ATOM      5  C   UNL A   1      32.907  25.923  21.936  1.00  0.00     0.123 C 
BRANCH   5   6
ATOM      6  C   UNL A   1      32.380  24.530  22.233  1.00  0.00     0.022 C 
BRANCH   6   7
ATOM      7  C   UNL A   1      33.441  23.442  22.345  1.00  0.00     0.103 C 
BRANCH   7   8
ATOM      8  C   UNL A   1      33.042  22.215  23.143  1.00  0.00     0.243 C 
ATOM      9  O   UNL A   1      32.048  21.562  22.816  1.00  0.00    -0.273 OA
BRANCH   8  10
ATOM     10  N   UNL A   1      33.917  21.816  24.140  1.00  0.00    -0.225 N 
ATOM     11  C   UNL A   1      33.658  20.972  25.316  1.00  0.00     0.147 C 
ATOM     12  C   UNL A   1      34.934  21.065  26.138  1.00  0.00     0.091 C 
ATOM     13  C   UNL A   1      35.730  21.989  25.263  1.00  0.00     0.071 C 
ATOM     14  N   UNL A   1      35.172  22.361  24.155  1.00  0.00    -0.174 NA
BRANCH  11  15
ATOM     15  C   UNL A   1      33.270  19.537  24.967  1.00  0.00    -0.023 A 
ATOM     16  C   UNL A   1      33.253  16.753  24.652  1.00  0.00     0.118 A 
ATOM     17  C   UNL A   1      33.816  17.551  23.662  1.00  0.00     0.047 A 
ATOM     18  C   UNL A   1      32.572  17.331  25.718  1.00  0.00     0.047 A 
ATOM     19  C   UNL A   1      33.789  18.943  23.801  1.00  0.00     0.010 A 
ATOM     20  C   UNL A   1      32.561  18.720  25.864  1.00  0.00     0.010 A 
BRANCH  16  21
ATOM     21  O   UNL A   1      33.557  15.421  24.710  1.00  0.00    -0.497 OA
ATOM     22  C   UNL A   1      32.560  14.684  25.405  1.00  0.00     0.278 C 
ENDBRANCH  16  21
ENDBRANCH  11  15
BRANCH  13  23
ATOM     23  C   UNL A   1      37.038  22.490  25.697  1.00  0.00    -0.002 A 
ATOM     24  C   UNL A   1      38.119  21.604  25.714  1.00  0.00     0.010 A 
ATOM     25  C   UNL A   1      37.193  23.819  26.088  1.00  0.00     0.010 A 
ATOM     26  C   UNL A   1      39.369  22.054  26.128  1.00  0.00     0.001 A 
ATOM     27  C   UNL A   1      38.444  24.259  26.521  1.00  0.00     0.001 A 
ATOM     28  C   UNL A   1      39.529  23.378  26.539  1.00  0.00     0.000 A 
ENDBRANCH  13  23
ENDBRANCH   8  10
ENDBRANCH   7   8
ENDBRANCH   6   7
ENDBRANCH   5   6
ENDBRANCH   3   5
ENDBRANCH   2   3
ENDBRANCH   1   2
BRANCH   1  29
ATOM     29  C   UNL A   1      32.912  29.666  25.036  1.00  0.00     0.202 C 
BRANCH  29  30
ATOM     30  O   UNL A   1      32.494  30.172  26.299  1.00  0.00    -0.374 OA
BRANCH  30  31
ATOM     31  C   UNL A   1      33.232  29.863  27.480  1.00  0.00     0.202 C 
BRANCH  31  32
ATOM     32  C   UNL A   1      34.649  30.427  27.676  1.00  0.00     0.261 C 
BRANCH  32  33
ATOM     33  O   UNL A   1      35.608  29.436  28.093  1.00  0.00    -0.460 OA
BRANCH  33  34
ATOM     34  C   UNL A   1      36.250  29.708  29.253  1.00  0.00     0.338 C 
ATOM     35  O   UNL A   1      35.756  29.721  30.375  1.00  0.00    -0.246 OA
BRANCH  34  36
ATOM     36  C   UNL A   1      37.708  29.781  29.046  1.00  0.00     0.060 A 
ATOM     37  C   UNL A   1      38.184  29.635  27.735  1.00  0.00     0.016 A 
ATOM     38  C   UNL A   1      38.600  29.840  30.119  1.00  0.00     0.016 A 
ATOM     39  C   UNL A   1      39.547  29.495  27.492  1.00  0.00     0.010 A 
ATOM     40  C   UNL A   1      39.970  29.672  29.875  1.00  0.00     0.010 A 
ATOM     41  C   UNL A   1      40.442  29.452  28.568  1.00  0.00    -0.014 A 
BRANCH  41  42
ATOM     42  C   UNL A   1      41.822  28.957  28.339  1.00  0.00     0.031 A 
ATOM     43  C   UNL A   1      42.952  29.954  28.364  1.00  0.00     0.074 A 
ATOM     44  C   UNL A   1      42.075  27.651  28.148  1.00  0.00     0.049 A 
ATOM     45  N   UNL A   1      44.225  29.773  28.131  1.00  0.00    -0.248 NA
ATOM     46  C   UNL A   1      42.595  31.343  28.702  1.00  0.00     0.031 C 
ATOM     47  C   UNL A   1      41.075  26.584  28.165  1.00  0.00     0.029 A 
ATOM     48  N   UNL A   1      43.256  27.001  27.889  1.00  0.00    -0.354 N 
ATOM     49  C   UNL A   1      44.818  31.021  28.280  1.00  0.00     0.074 A 
ATOM     50  C   UNL A   1      43.767  31.955  28.617  1.00  0.00     0.031 C 
ATOM     51  C   UNL A   1      41.682  25.415  27.895  1.00  0.00     0.029 A 
ATOM     52  C   UNL A   1      43.105  25.654  27.657  1.00  0.00     0.049 A 
ATOM     53  H   UNL A   1      44.130  27.456  27.872  1.00  0.00     0.167 HD
ATOM     54  C   UNL A   1      46.122  31.359  28.143  1.00  0.00     0.037 A 
ATOM     55  C   UNL A   1      44.006  24.732  27.262  1.00  0.00     0.037 A 
ATOM     56  C   UNL A   1      47.164  30.427  27.806  1.00  0.00     0.049 A 
ATOM     57  C   UNL A   1      45.441  25.143  27.047  1.00  0.00     0.074 A 
ATOM     58  C   UNL A   1      48.518  30.668  27.656  1.00  0.00     0.029 A 
ATOM     59  N   UNL A   1      46.966  29.077  27.559  1.00  0.00    -0.354 N 
ATOM     60  N   UNL A   1      45.991  26.323  27.206  1.00  0.00    -0.248 NA
ATOM     61  C   UNL A   1      46.376  24.102  26.597  1.00  0.00     0.031 C 
ATOM     62  C   UNL A   1      49.133  29.470  27.275  1.00  0.00     0.029 A 
ATOM     63  C   UNL A   1      48.168  28.476  27.233  1.00  0.00     0.049 A 
ATOM     64  H   UNL A   1      46.098  28.614  27.608  1.00  0.00     0.167 HD
ATOM     65  C   UNL A   1      47.339  26.161  26.899  1.00  0.00     0.074 A 
ATOM     66  C   UNL A   1      47.522  24.768  26.550  1.00  0.00     0.031 C 
ATOM     67  C   UNL A   1      48.333  27.082  26.906  1.00  0.00     0.037 A 
BRANCH  54  68
ATOM     68  C   UNL A   1      46.490  32.803  28.322  1.00  0.00     0.058 A 
ATOM     69  C   UNL A   1      46.876  33.319  29.569  1.00  0.00     0.135 A 
ATOM     70  C   UNL A   1      46.493  33.675  27.222  1.00  0.00     0.135 A 
ATOM     71  F   UNL A   1      46.870  32.533  30.657  1.00  0.00    -0.206 F 
ATOM     72  C   UNL A   1      47.237  34.654  29.721  1.00  0.00     0.059 A 
ATOM     73  C   UNL A   1      46.871  35.008  27.346  1.00  0.00     0.059 A 
ATOM     74  F   UNL A   1      46.126  33.231  26.009  1.00  0.00    -0.206 F 
ATOM     75  C   UNL A   1      47.231  35.491  28.603  1.00  0.00     0.060 A 
BRANCH  75  76
ATOM     76  S   UNL A   1      47.714  37.218  28.812  1.00  0.00     0.124 S 
ATOM     77  O   UNL A   1      49.145  37.091  29.069  1.00  0.00    -0.237 OA
ATOM     78  O   UNL A   1      47.350  37.804  27.526  1.00  0.00    -0.237 OA
ATOM     79  O   UNL A   1      46.910  37.661  29.948  1.00  0.00    -0.744 OA
ENDBRANCH  75  76
ENDBRANCH  54  68
BRANCH  55  80
ATOM     80  C   UNL A   1      43.572  23.332  27.002  1.00  0.00     0.058 A 
ATOM     81  C   UNL A   1      43.391  22.418  28.049  1.00  0.00     0.135 A 
ATOM     82  C   UNL A   1      43.332  22.883  25.693  1.00  0.00     0.135 A 
ATOM     83  F   UNL A   1      43.620  22.795  29.316  1.00  0.00    -0.206 F 
ATOM     84  C   UNL A   1      42.998  21.104  27.809  1.00  0.00     0.059 A 
ATOM     85  C   UNL A   1      42.916  21.582  25.430  1.00  0.00     0.059 A 
ATOM     86  F   UNL A   1      43.485  23.721  24.656  1.00  0.00    -0.206 F 
ATOM     87  C   UNL A   1      42.761  20.696  26.495  1.00  0.00     0.060 A 
BRANCH  87  88
ATOM     88  S   UNL A   1      42.200  19.005  26.196  1.00  0.00     0.124 S 
ATOM     89  O   UNL A   1      43.177  18.539  25.220  1.00  0.00    -0.237 OA
ATOM     90  O   UNL A   1      42.292  18.410  27.526  1.00  0.00    -0.237 OA
ATOM     91  O   UNL A   1      40.840  19.187  25.696  1.00  0.00    -0.744 OA
ENDBRANCH  87  88
ENDBRANCH  55  80
BRANCH  67  92
ATOM     92  C   UNL A   1      49.722  26.617  26.565  1.00  0.00     0.058 A 
ATOM     93  C   UNL A   1      50.592  26.121  27.547  1.00  0.00     0.135 A 
ATOM     94  C   UNL A   1      50.146  26.578  25.228  1.00  0.00     0.135 A 
ATOM     95  F   UNL A   1      50.234  26.144  28.841  1.00  0.00    -0.206 F 
ATOM     96  C   UNL A   1      51.839  25.604  27.214  1.00  0.00     0.059 A 
ATOM     97  C   UNL A   1      51.381  26.046  24.870  1.00  0.00     0.059 A 
ATOM     98  F   UNL A   1      49.345  27.031  24.250  1.00  0.00    -0.206 F 
ATOM     99  C   UNL A   1      52.223  25.564  25.872  1.00  0.00     0.060 A 
BRANCH  99 100
ATOM    100  S   UNL A   1      53.816  24.828  25.446  1.00  0.00     0.124 S 
ATOM    101  O   UNL A   1      54.244  25.675  24.338  1.00  0.00    -0.237 OA
ATOM    102  O   UNL A   1      54.572  24.975  26.685  1.00  0.00    -0.237 OA
ATOM    103  O   UNL A   1      53.470  23.455  25.090  1.00  0.00    -0.744 OA
ENDBRANCH  99 100
ENDBRANCH  67  92
ENDBRANCH  41  42
ENDBRANCH  34  36
ENDBRANCH  33  34
ENDBRANCH  32  33
ENDBRANCH  31  32
ENDBRANCH  30  31
ENDBRANCH  29  30
ENDBRANCH   1  29
TORSDOF 24
ENDMDL
MODEL 2
REMARK VINA RESULT:     -10.7      1.494      3.514
REMARK SMILES COc1ccc([C@H]2CC(c3ccccc3)=NN2C(=O)CCCC(=O)OCCOCCOC(=O)c2ccc(-c3c4nc(c(-c5c(F)cc(S(=O)(=O)[O-])cc5F)c5ccc([nH]5)c(-c5c(F)cc(S(=O)(=O)[O-])cc5F)c5nc(c(-c6c(F)cc(S(=O)(=O)[O-])cc6F)c6ccc3[nH]6)C=C5)C=C4)cc2)cc1
REMARK SMILES IDX 26 1 25 2 23 3 24 4 22 5 21 6 20 7 18 8 19 9 17 10 7 11 8 12
REMARK SMILES IDX 9 13 16 14 6 15 3 16 4 17 101 18 5 19 100 20 2 21 1 22 10 23
REMARK SMILES IDX 11 24 15 25 12 26 14 27 13 28 27 29 28 30 29 31 30 32 31 33
REMARK SMILES IDX 32 34 33 35 34 36 35 37 99 38 36 39 98 40 37 41 38 42 39 43
REMARK SMILES IDX 92 44 40 45 97 46 91 47 93 48 41 49 96 50 90 51 89 52 42 54
REMARK SMILES IDX 76 55 55 56 75 57 56 58 59 59 74 60 94 61 57 62 58 63 73 65
REMARK SMILES IDX 95 66 60 67 43 68 44 69 53 70 45 71 46 72 52 73 54 74 47 75
REMARK SMILES IDX 48 76 49 77 50 78 51 79 77 80 78 81 87 82 79 83 80 84 86 85
REMARK SMILES IDX 88 86 81 87 82 88 83 89 84 90 85 91 61 92 62 93 71 94 63 95
REMARK SMILES IDX 64 96 70 97 72 98 65 99 66 100 67 101 68 102 69 103
REMARK H PARENT 93 53 59 64
REMARK Flexibility Score: inf
ROOT
ATOM      1  C   UNL A   1      31.962  29.471  23.854  1.00  0.00     0.261 C 
ENDROOT
BRANCH   1   2
ATOM      2  O   UNL A   1      32.028  28.469  22.828  1.00  0.00    -0.463 OA
BRANCH   2   3
ATOM      3  C   UNL A   1      33.270  27.977  22.613  1.00  0.00     0.305 C 
ATOM      4  O   UNL A   1      34.265  28.678  22.483  1.00  0.00    -0.252 OA
BRANCH   3   5
ATOM      5  C   UNL A   1      33.318  26.467  22.681  1.00  0.00     0.123 C 
BRANCH   5   6
ATOM      6  C   UNL A   1      33.962  25.868  23.920  1.00  0.00     0.022 C 
BRANCH   6   7
ATOM      7  C   UNL A   1      34.705  24.556  23.698  1.00  0.00     0.103 C 
BRANCH   7   8
ATOM      8  C   UNL A   1      34.871  23.680  24.927  1.00  0.00     0.243 C 
ATOM      9  O   UNL A   1      35.634  24.025  25.832  1.00  0.00    -0.273 OA
BRANCH   8  10
ATOM     10  N   UNL A   1      34.033  22.581  25.018  1.00  0.00    -0.225 N 
ATOM     11  C   UNL A   1      32.858  22.382  25.879  1.00  0.00     0.147 C 
ATOM     12  C   UNL A   1      32.489  20.920  25.684  1.00  0.00     0.091 C 
ATOM     13  C   UNL A   1      33.562  20.516  24.716  1.00  0.00     0.071 C 
ATOM     14  N   UNL A   1      34.377  21.448  24.333  1.00  0.00    -0.174 NA
BRANCH  11  15
ATOM     15  C   UNL A   1      31.707  23.340  25.577  1.00  0.00    -0.023 A 
ATOM     16  C   UNL A   1      30.186  25.583  24.867  1.00  0.00     0.118 A 
ATOM     17  C   UNL A   1      30.586  25.416  26.188  1.00  0.00     0.047 A 
ATOM     18  C   UNL A   1      30.409  24.576  23.934  1.00  0.00     0.047 A 
ATOM     19  C   UNL A   1      31.311  24.276  26.551  1.00  0.00     0.010 A 
ATOM     20  C   UNL A   1      31.148  23.447  24.293  1.00  0.00     0.010 A 
BRANCH  16  21
ATOM     21  O   UNL A   1      29.783  26.813  24.424  1.00  0.00    -0.497 OA
ATOM     22  C   UNL A   1      28.520  26.752  23.779  1.00  0.00     0.278 C 
ENDBRANCH  16  21
ENDBRANCH  11  15
BRANCH  13  23
ATOM     23  C   UNL A   1      33.706  19.119  24.297  1.00  0.00    -0.002 A 
ATOM     24  C   UNL A   1      32.673  18.534  23.559  1.00  0.00     0.010 A 
ATOM     25  C   UNL A   1      34.847  18.391  24.636  1.00  0.00     0.010 A 
ATOM     26  C   UNL A   1      32.784  17.206  23.155  1.00  0.00     0.001 A 
ATOM     27  C   UNL A   1      34.943  17.056  24.246  1.00  0.00     0.001 A 
ATOM     28  C   UNL A   1      33.914  16.466  23.505  1.00  0.00     0.000 A 
ENDBRANCH  13  23
ENDBRANCH   8  10
ENDBRANCH   7   8
ENDBRANCH   6   7
ENDBRANCH   5   6
ENDBRANCH   3   5
ENDBRANCH   2   3
ENDBRANCH   1   2
BRANCH   1  29
ATOM     29  C   UNL A   1      32.600  29.028  25.180  1.00  0.00     0.202 C 
BRANCH  29  30
ATOM     30  O   UNL A   1      32.550  29.916  26.290  1.00  0.00    -0.374 OA
BRANCH  30  31
ATOM     31  C   UNL A   1      33.754  30.425  26.862  1.00  0.00     0.202 C 
BRANCH  31  32
ATOM     32  C   UNL A   1      34.253  29.889  28.214  1.00  0.00     0.261 C 
BRANCH  32  33
ATOM     33  O   UNL A   1      35.646  29.521  28.206  1.00  0.00    -0.460 OA
BRANCH  33  34
ATOM     34  C   UNL A   1      36.299  29.705  29.377  1.00  0.00     0.338 C 
ATOM     35  O   UNL A   1      35.812  29.645  30.500  1.00  0.00    -0.246 OA
BRANCH  34  36
ATOM     36  C   UNL A   1      37.756  29.778  29.166  1.00  0.00     0.060 A 
ATOM     37  C   UNL A   1      38.226  29.650  27.851  1.00  0.00     0.016 A 
ATOM     38  C   UNL A   1      38.652  29.819  30.236  1.00  0.00     0.016 A 
ATOM     39  C   UNL A   1      39.589  29.510  27.601  1.00  0.00     0.010 A 
ATOM     40  C   UNL A   1      40.021  29.652  29.985  1.00  0.00     0.010 A 
ATOM     41  C   UNL A   1      40.488  29.450  28.673  1.00  0.00    -0.014 A 
BRANCH  41  42
ATOM     42  C   UNL A   1      41.865  28.955  28.432  1.00  0.00     0.031 A 
ATOM     43  C   UNL A   1      43.000  29.945  28.490  1.00  0.00     0.074 A 
ATOM     44  C   UNL A   1      42.112  27.654  28.201  1.00  0.00     0.049 A 
ATOM     45  N   UNL A   1      44.273  29.764  28.255  1.00  0.00    -0.248 NA
ATOM     46  C   UNL A   1      42.650  31.325  28.870  1.00  0.00     0.031 C 
ATOM     47  C   UNL A   1      41.107  26.593  28.182  1.00  0.00     0.029 A 
ATOM     48  N   UNL A   1      43.291  27.006  27.925  1.00  0.00    -0.354 N 
ATOM     49  C   UNL A   1      44.872  31.004  28.442  1.00  0.00     0.074 A 
ATOM     50  C   UNL A   1      43.825  31.933  28.806  1.00  0.00     0.031 C 
ATOM     51  C   UNL A   1      41.709  25.429  27.878  1.00  0.00     0.029 A 
ATOM     52  C   UNL A   1      43.133  25.669  27.650  1.00  0.00     0.049 A 
ATOM     53  H   UNL A   1      44.167  27.457  27.924  1.00  0.00     0.167 HD
ATOM     54  C   UNL A   1      46.178  31.339  28.319  1.00  0.00     0.037 A 
ATOM     55  C   UNL A   1      44.030  24.754  27.229  1.00  0.00     0.037 A 
ATOM     56  C   UNL A   1      47.216  30.413  27.956  1.00  0.00     0.049 A 
ATOM     57  C   UNL A   1      45.468  25.164  27.030  1.00  0.00     0.074 A 
ATOM     58  C   UNL A   1      48.571  30.652  27.816  1.00  0.00     0.029 A 
ATOM     59  N   UNL A   1      47.011  29.073  27.667  1.00  0.00    -0.354 N 
ATOM     60  N   UNL A   1      46.024  26.336  27.227  1.00  0.00    -0.248 NA
ATOM     61  C   UNL A   1      46.399  24.133  26.550  1.00  0.00     0.031 C 
ATOM     62  C   UNL A   1      49.181  29.463  27.400  1.00  0.00     0.029 A 
ATOM     63  C   UNL A   1      48.212  28.476  27.325  1.00  0.00     0.049 A 
ATOM     64  H   UNL A   1      46.141  28.613  27.699  1.00  0.00     0.167 HD
ATOM     65  C   UNL A   1      47.371  26.176  26.917  1.00  0.00     0.074 A 
ATOM     66  C   UNL A   1      47.548  24.794  26.526  1.00  0.00     0.031 C 
ATOM     67  C   UNL A   1      48.370  27.092  26.955  1.00  0.00     0.037 A 
BRANCH  54  68
ATOM     68  C   UNL A   1      46.552  32.776  28.544  1.00  0.00     0.058 A 
ATOM     69  C   UNL A   1      46.497  33.725  27.511  1.00  0.00     0.135 A 
ATOM     70  C   UNL A   1      46.936  33.216  29.820  1.00  0.00     0.135 A 
ATOM     71  F   UNL A   1      46.156  33.352  26.267  1.00  0.00    -0.206 F 
ATOM     72  C   UNL A   1      46.823  35.060  27.734  1.00  0.00     0.059 A 
ATOM     73  C   UNL A   1      47.246  34.549  30.071  1.00  0.00     0.059 A 
ATOM     74  F   UNL A   1      47.010  32.346  30.840  1.00  0.00    -0.206 F 
ATOM     75  C   UNL A   1      47.198  35.461  29.018  1.00  0.00     0.060 A 
BRANCH  75  76
ATOM     76  S   UNL A   1      47.608  37.198  29.295  1.00  0.00     0.124 S 
ATOM     77  O   UNL A   1      46.967  37.834  28.148  1.00  0.00    -0.237 OA
ATOM     78  O   UNL A   1      46.992  37.462  30.592  1.00  0.00    -0.237 OA
ATOM     79  O   UNL A   1      49.068  37.209  29.285  1.00  0.00    -0.744 OA
ENDBRANCH  75  76
ENDBRANCH  54  68
BRANCH  55  80
ATOM     80  C   UNL A   1      43.590  23.365  26.925  1.00  0.00     0.058 A 
ATOM     81  C   UNL A   1      43.599  22.867  25.615  1.00  0.00     0.135 A 
ATOM     82  C   UNL A   1      43.146  22.510  27.946  1.00  0.00     0.135 A 
ATOM     83  F   UNL A   1      44.003  23.649  24.603  1.00  0.00    -0.206 F 
ATOM     84  C   UNL A   1      43.175  21.573  25.325  1.00  0.00     0.059 A 
ATOM     85  C   UNL A   1      42.739  21.206  27.685  1.00  0.00     0.059 A 
ATOM     86  F   UNL A   1      43.123  22.938  29.218  1.00  0.00    -0.206 F 
ATOM     87  C   UNL A   1      42.749  20.749  26.368  1.00  0.00     0.060 A 
BRANCH  87  88
ATOM     88  S   UNL A   1      42.251  19.054  25.991  1.00  0.00     0.124 S 
ATOM     89  O   UNL A   1      40.818  19.210  25.773  1.00  0.00    -0.237 OA
ATOM     90  O   UNL A   1      43.048  18.755  24.804  1.00  0.00    -0.237 OA
ATOM     91  O   UNL A   1      42.634  18.317  27.192  1.00  0.00    -0.744 OA
ENDBRANCH  87  88
ENDBRANCH  55  80
BRANCH  67  92
ATOM     92  C   UNL A   1      49.757  26.631  26.603  1.00  0.00     0.058 A 
ATOM     93  C   UNL A   1      50.611  26.071  27.565  1.00  0.00     0.135 A 
ATOM     94  C   UNL A   1      50.196  26.661  25.270  1.00  0.00     0.135 A 
ATOM     95  F   UNL A   1      50.240  26.026  28.854  1.00  0.00    -0.206 F 
ATOM     96  C   UNL A   1      51.857  25.559  27.216  1.00  0.00     0.059 A 
ATOM     97  C   UNL A   1      51.428  26.135  24.896  1.00  0.00     0.059 A 
ATOM     98  F   UNL A   1      49.410  27.176  24.310  1.00  0.00    -0.206 F 
ATOM     99  C   UNL A   1      52.255  25.589  25.878  1.00  0.00     0.060 A 
BRANCH  99 100
ATOM    100  S   UNL A   1      53.844  24.860  25.427  1.00  0.00     0.124 S 
ATOM    101  O   UNL A   1      54.604  25.029  26.660  1.00  0.00    -0.237 OA
ATOM    102  O   UNL A   1      53.477  23.488  25.091  1.00  0.00    -0.237 OA
ATOM    103  O   UNL A   1      54.284  25.677  24.300  1.00  0.00    -0.744 OA
ENDBRANCH  99 100
ENDBRANCH  67  92
ENDBRANCH  41  42
ENDBRANCH  34  36
ENDBRANCH  33  34
ENDBRANCH  32  33
ENDBRANCH  31  32
ENDBRANCH  30  31
ENDBRANCH  29  30
ENDBRANCH   1  29
TORSDOF 24
ENDMDL
MODEL 3
REMARK VINA RESULT:     -10.4      4.536      5.532
REMARK SMILES COc1ccc([C@H]2CC(c3ccccc3)=NN2C(=O)CCCC(=O)OCCOCCOC(=O)c2ccc(-c3c4nc(c(-c5c(F)cc(S(=O)(=O)[O-])cc5F)c5ccc([nH]5)c(-c5c(F)cc(S(=O)(=O)[O-])cc5F)c5nc(c(-c6c(F)cc(S(=O)(=O)[O-])cc6F)c6ccc3[nH]6)C=C5)C=C4)cc2)cc1
REMARK SMILES IDX 26 1 25 2 23 3 24 4 22 5 21 6 20 7 18 8 19 9 17 10 7 11 8 12
REMARK SMILES IDX 9 13 16 14 6 15 3 16 4 17 101 18 5 19 100 20 2 21 1 22 10 23
REMARK SMILES IDX 11 24 15 25 12 26 14 27 13 28 27 29 28 30 29 31 30 32 31 33
REMARK SMILES IDX 32 34 33 35 34 36 35 37 99 38 36 39 98 40 37 41 38 42 39 43
REMARK SMILES IDX 92 44 40 45 97 46 91 47 93 48 41 49 96 50 90 51 89 52 42 54
REMARK SMILES IDX 76 55 55 56 75 57 56 58 59 59 74 60 94 61 57 62 58 63 73 65
REMARK SMILES IDX 95 66 60 67 43 68 44 69 53 70 45 71 46 72 52 73 54 74 47 75
REMARK SMILES IDX 48 76 49 77 50 78 51 79 77 80 78 81 87 82 79 83 80 84 86 85
REMARK SMILES IDX 88 86 81 87 82 88 83 89 84 90 85 91 61 92 62 93 71 94 63 95
REMARK SMILES IDX 64 96 70 97 72 98 65 99 66 100 67 101 68 102 69 103
REMARK H PARENT 93 53 59 64
REMARK Flexibility Score: inf
ROOT
ATOM      1  C   UNL A   1      30.462  28.739  23.789  1.00  0.00     0.261 C 
ENDROOT
BRANCH   1   2
ATOM      2  O   UNL A   1      29.863  27.449  23.590  1.00  0.00    -0.463 OA
BRANCH   2   3
ATOM      3  C   UNL A   1      30.699  26.524  23.064  1.00  0.00     0.305 C 
ATOM      4  O   UNL A   1      31.429  26.736  22.105  1.00  0.00    -0.252 OA
BRANCH   3   5
ATOM      5  C   UNL A   1      30.732  25.244  23.869  1.00  0.00     0.123 C 
BRANCH   5   6
ATOM      6  C   UNL A   1      31.190  23.996  23.132  1.00  0.00     0.022 C 
BRANCH   6   7
ATOM      7  C   UNL A   1      32.040  23.032  23.951  1.00  0.00     0.103 C 
BRANCH   7   8
ATOM      8  C   UNL A   1      33.390  22.679  23.355  1.00  0.00     0.243 C 
ATOM      9  O   UNL A   1      33.646  22.978  22.186  1.00  0.00    -0.273 OA
BRANCH   8  10
ATOM     10  N   UNL A   1      34.327  22.144  24.223  1.00  0.00    -0.225 N 
ATOM     11  C   UNL A   1      34.164  21.063  25.208  1.00  0.00     0.147 C 
ATOM     12  C   UNL A   1      35.466  21.070  25.994  1.00  0.00     0.091 C 
ATOM     13  C   UNL A   1      36.171  22.202  25.306  1.00  0.00     0.071 C 
ATOM     14  N   UNL A   1      35.548  22.754  24.314  1.00  0.00    -0.174 NA
BRANCH  11  15
ATOM     15  C   UNL A   1      33.846  19.707  24.582  1.00  0.00    -0.023 A 
ATOM     16  C   UNL A   1      33.289  16.990  24.182  1.00  0.00     0.118 A 
ATOM     17  C   UNL A   1      34.610  17.424  24.196  1.00  0.00     0.047 A 
ATOM     18  C   UNL A   1      32.247  17.911  24.218  1.00  0.00     0.047 A 
ATOM     19  C   UNL A   1      34.887  18.787  24.356  1.00  0.00     0.010 A 
ATOM     20  C   UNL A   1      32.524  19.268  24.395  1.00  0.00     0.010 A 
BRANCH  16  21
ATOM     21  O   UNL A   1      33.004  15.665  24.365  1.00  0.00    -0.497 OA
ATOM     22  C   UNL A   1      32.990  15.315  25.741  1.00  0.00     0.278 C 
ENDBRANCH  16  21
ENDBRANCH  11  15
BRANCH  13  23
ATOM     23  C   UNL A   1      37.464  22.687  25.795  1.00  0.00    -0.002 A 
ATOM     24  C   UNL A   1      38.535  21.790  25.853  1.00  0.00     0.010 A 
ATOM     25  C   UNL A   1      37.617  24.013  26.200  1.00  0.00     0.010 A 
ATOM     26  C   UNL A   1      39.772  22.226  26.320  1.00  0.00     0.001 A 
ATOM     27  C   UNL A   1      38.853  24.438  26.686  1.00  0.00     0.001 A 
ATOM     28  C   UNL A   1      39.928  23.546  26.744  1.00  0.00     0.000 A 
ENDBRANCH  13  23
ENDBRANCH   8  10
ENDBRANCH   7   8
ENDBRANCH   6   7
ENDBRANCH   5   6
ENDBRANCH   3   5
ENDBRANCH   2   3
ENDBRANCH   1   2
BRANCH   1  29
ATOM     29  C   UNL A   1      31.499  28.759  24.923  1.00  0.00     0.202 C 
BRANCH  29  30
ATOM     30  O   UNL A   1      32.194  29.972  25.188  1.00  0.00    -0.374 OA
BRANCH  30  31
ATOM     31  C   UNL A   1      31.876  30.750  26.341  1.00  0.00     0.202 C 
BRANCH  31  32
ATOM     32  C   UNL A   1      32.961  31.065  27.384  1.00  0.00     0.261 C 
BRANCH  32  33
ATOM     33  O   UNL A   1      34.290  30.714  26.952  1.00  0.00    -0.460 OA
BRANCH  33  34
ATOM     34  C   UNL A   1      34.749  29.525  27.408  1.00  0.00     0.338 C 
ATOM     35  O   UNL A   1      34.359  28.414  27.068  1.00  0.00    -0.246 OA
BRANCH  34  36
ATOM     36  C   UNL A   1      35.959  29.705  28.230  1.00  0.00     0.060 A 
ATOM     37  C   UNL A   1      37.136  30.092  27.573  1.00  0.00     0.016 A 
ATOM     38  C   UNL A   1      35.986  29.361  29.583  1.00  0.00     0.016 A 
ATOM     39  C   UNL A   1      38.354  30.086  28.249  1.00  0.00     0.010 A 
ATOM     40  C   UNL A   1      37.216  29.331  30.254  1.00  0.00     0.010 A 
ATOM     41  C   UNL A   1      38.408  29.648  29.577  1.00  0.00    -0.014 A 
BRANCH  41  42
ATOM     42  C   UNL A   1      39.724  29.311  30.172  1.00  0.00     0.031 A 
ATOM     43  C   UNL A   1      40.218  30.141  31.329  1.00  0.00     0.074 A 
ATOM     44  C   UNL A   1      40.451  28.273  29.724  1.00  0.00     0.049 A 
ATOM     45  N   UNL A   1      41.356  30.079  31.969  1.00  0.00    -0.248 NA
ATOM     46  C   UNL A   1      39.301  31.179  31.832  1.00  0.00     0.031 C 
ATOM     47  C   UNL A   1      40.052  27.360  28.654  1.00  0.00     0.029 A 
ATOM     48  N   UNL A   1      41.689  27.821  30.107  1.00  0.00    -0.354 N 
ATOM     49  C   UNL A   1      41.299  31.074  32.939  1.00  0.00     0.074 A 
ATOM     50  C   UNL A   1      40.017  31.730  32.800  1.00  0.00     0.031 C 
ATOM     51  C   UNL A   1      41.042  26.474  28.446  1.00  0.00     0.029 A 
ATOM     52  C   UNL A   1      42.155  26.777  29.344  1.00  0.00     0.049 A 
ATOM     53  H   UNL A   1      42.196  28.208  30.858  1.00  0.00     0.167 HD
ATOM     54  C   UNL A   1      42.232  31.413  33.859  1.00  0.00     0.037 A 
ATOM     55  C   UNL A   1      43.355  26.162  29.349  1.00  0.00     0.037 A 
ATOM     56  C   UNL A   1      43.505  30.758  33.992  1.00  0.00     0.049 A 
ATOM     57  C   UNL A   1      44.408  26.601  30.336  1.00  0.00     0.074 A 
ATOM     58  C   UNL A   1      44.516  31.019  34.900  1.00  0.00     0.029 A 
ATOM     59  N   UNL A   1      43.946  29.719  33.187  1.00  0.00    -0.354 N 
ATOM     60  N   UNL A   1      44.335  27.532  31.258  1.00  0.00    -0.248 NA
ATOM     61  C   UNL A   1      45.705  25.910  30.284  1.00  0.00     0.031 C 
ATOM     62  C   UNL A   1      45.586  30.164  34.616  1.00  0.00     0.029 A 
ATOM     63  C   UNL A   1      45.224  29.343  33.561  1.00  0.00     0.049 A 
ATOM     64  H   UNL A   1      43.427  29.309  32.457  1.00  0.00     0.167 HD
ATOM     65  C   UNL A   1      45.565  27.523  31.908  1.00  0.00     0.074 A 
ATOM     66  C   UNL A   1      46.362  26.490  31.280  1.00  0.00     0.031 C 
ATOM     67  C   UNL A   1      45.994  28.298  32.934  1.00  0.00     0.037 A 
BRANCH  54  68
ATOM     68  C   UNL A   1      41.925  32.566  34.771  1.00  0.00     0.058 A 
ATOM     69  C   UNL A   1      41.238  32.388  35.982  1.00  0.00     0.135 A 
ATOM     70  C   UNL A   1      42.360  33.860  34.445  1.00  0.00     0.135 A 
ATOM     71  F   UNL A   1      40.783  31.174  36.330  1.00  0.00    -0.206 F 
ATOM     72  C   UNL A   1      40.979  33.459  36.832  1.00  0.00     0.059 A 
ATOM     73  C   UNL A   1      42.130  34.942  35.290  1.00  0.00     0.059 A 
ATOM     74  F   UNL A   1      43.017  34.083  33.296  1.00  0.00    -0.206 F 
ATOM     75  C   UNL A   1      41.429  34.733  36.476  1.00  0.00     0.060 A 
BRANCH  75  76
ATOM     76  S   UNL A   1      41.096  36.111  37.594  1.00  0.00     0.124 S 
ATOM     77  O   UNL A   1      42.318  36.898  37.458  1.00  0.00    -0.237 OA
ATOM     78  O   UNL A   1      39.894  36.701  37.015  1.00  0.00    -0.237 OA
ATOM     79  O   UNL A   1      40.909  35.461  38.888  1.00  0.00    -0.744 OA
ENDBRANCH  75  76
ENDBRANCH  54  68
BRANCH  55  80
ATOM     80  C   UNL A   1      43.646  25.090  28.359  1.00  0.00     0.058 A 
ATOM     81  C   UNL A   1      43.310  23.752  28.612  1.00  0.00     0.135 A 
ATOM     82  C   UNL A   1      44.270  25.387  27.137  1.00  0.00     0.135 A 
ATOM     83  F   UNL A   1      42.723  23.416  29.770  1.00  0.00    -0.206 F 
ATOM     84  C   UNL A   1      43.592  22.744  27.693  1.00  0.00     0.059 A 
ATOM     85  C   UNL A   1      44.541  24.400  26.194  1.00  0.00     0.059 A 
ATOM     86  F   UNL A   1      44.606  26.653  26.844  1.00  0.00    -0.206 F 
ATOM     87  C   UNL A   1      44.206  23.079  26.486  1.00  0.00     0.060 A 
BRANCH  87  88
ATOM     88  S   UNL A   1      44.520  21.774  25.277  1.00  0.00     0.124 S 
ATOM     89  O   UNL A   1      43.672  20.699  25.777  1.00  0.00    -0.237 OA
ATOM     90  O   UNL A   1      44.090  22.399  24.029  1.00  0.00    -0.237 OA
ATOM     91  O   UNL A   1      45.958  21.552  25.390  1.00  0.00    -0.744 OA
ENDBRANCH  87  88
ENDBRANCH  55  80
BRANCH  67  92
ATOM     92  C   UNL A   1      47.373  28.044  33.476  1.00  0.00     0.058 A 
ATOM     93  C   UNL A   1      48.495  28.722  32.978  1.00  0.00     0.135 A 
ATOM     94  C   UNL A   1      47.555  27.185  34.572  1.00  0.00     0.135 A 
ATOM     95  F   UNL A   1      48.373  29.550  31.928  1.00  0.00    -0.206 F 
ATOM     96  C   UNL A   1      49.754  28.555  33.546  1.00  0.00     0.059 A 
ATOM     97  C   UNL A   1      48.800  27.018  35.168  1.00  0.00     0.059 A 
ATOM     98  F   UNL A   1      46.510  26.521  35.092  1.00  0.00    -0.206 F 
ATOM     99  C   UNL A   1      49.896  27.705  34.646  1.00  0.00     0.060 A 
BRANCH  99 100
ATOM    100  S   UNL A   1      51.521  27.548  35.417  1.00  0.00     0.124 S 
ATOM    101  O   UNL A   1      51.586  26.114  35.675  1.00  0.00    -0.237 OA
ATOM    102  O   UNL A   1      52.413  28.047  34.377  1.00  0.00    -0.237 OA
ATOM    103  O   UNL A   1      51.416  28.396  36.602  1.00  0.00    -0.744 OA
ENDBRANCH  99 100
ENDBRANCH  67  92
ENDBRANCH  41  42
ENDBRANCH  34  36
ENDBRANCH  33  34
ENDBRANCH  32  33
ENDBRANCH  31  32
ENDBRANCH  30  31
ENDBRANCH  29  30
ENDBRANCH   1  29
TORSDOF 24
ENDMDL
