MODEL 1
REMARK VINA RESULT:     -11.0      0.000      0.000
REMARK SMILES CC(C)CSc1cc2c(cc1Cl)C=C(C(=O)OCCOCCOC(=O)c1ccc(-c3c4nc(c(-c5c(F)cc(S(=O)(=O)[O-])cc5F)c5ccc([nH]5)c(-c5c(F)cc(S(=O)(=O)[O-])cc5F)c5nc(c(-c6c(F)cc(S(=O)(=O)[O-])cc6F)c6ccc3[nH]6)C=C5)C=C4)cc1)[C@H](C(F)(F)F)O2
REMARK SMILES IDX 20 1 19 2 18 3 17 4 15 5 16 6 14 7 6 8 7 9 11 10 8 11 10 12
REMARK SMILES IDX 12 13 9 14 97 15 13 16 92 17 5 18 4 19 2 20 1 21 3 22 93 23
REMARK SMILES IDX 94 24 95 25 96 26 21 27 22 28 23 29 24 30 25 31 26 32 27 33
REMARK SMILES IDX 91 34 28 35 90 36 29 37 30 38 31 39 84 40 32 41 89 42 83 43
REMARK SMILES IDX 85 44 33 45 88 46 82 47 81 48 34 50 68 51 47 52 67 53 48 54
REMARK SMILES IDX 51 55 66 56 86 57 49 58 50 59 65 61 87 62 52 63 35 64 36 65
REMARK SMILES IDX 45 66 37 67 38 68 44 69 46 70 39 71 40 72 41 73 42 74 43 75
REMARK SMILES IDX 69 76 70 77 79 78 71 79 72 80 78 81 80 82 73 83 74 84 75 85
REMARK SMILES IDX 76 86 77 87 53 88 54 89 63 90 55 91 56 92 62 93 64 94 57 95
REMARK SMILES IDX 58 96 59 97 60 98 61 99
REMARK H PARENT 85 49 51 60
REMARK Flexibility Score: inf
ROOT
ATOM      1  O   UNL A   1      37.976  21.867  25.322  1.00  0.00    -0.374 OA
ENDROOT
BRANCH   1   2
ATOM      2  C   UNL A   1      37.175  20.796  24.815  1.00  0.00     0.202 C 
BRANCH   2   3
ATOM      3  C   UNL A   1      35.676  20.913  25.102  1.00  0.00     0.261 C 
BRANCH   3   4
ATOM      4  O   UNL A   1      35.440  21.970  26.048  1.00  0.00    -0.460 OA
BRANCH   4   5
ATOM      5  C   UNL A   1      34.245  21.920  26.666  1.00  0.00     0.338 C 
ATOM      6  O   UNL A   1      33.872  21.064  27.455  1.00  0.00    -0.246 OA
BRANCH   5   7
ATOM      7  C   UNL A   1      33.471  23.142  26.378  1.00  0.00     0.087 C 
ATOM      8  C   UNL A   1      32.422  27.964  25.437  1.00  0.00     0.030 A 
ATOM      9  C   UNL A   1      31.847  26.966  26.254  1.00  0.00     0.063 A 
ATOM     10  C   UNL A   1      33.449  27.586  24.555  1.00  0.00     0.055 A 
ATOM     11  C   UNL A   1      32.351  25.665  26.269  1.00  0.00     0.129 A 
ATOM     12  C   UNL A   1      33.997  26.300  24.622  1.00  0.00     0.033 A 
ATOM     13  Cl  UNL A   1      34.096  28.601  23.316  1.00  0.00    -0.083 Cl
ATOM     14  C   UNL A   1      33.471  25.356  25.501  1.00  0.00     0.019 A 
ATOM     15  O   UNL A   1      31.758  24.754  27.109  1.00  0.00    -0.475 OA
ATOM     16  C   UNL A   1      34.137  24.085  25.700  1.00  0.00     0.027 C 
ATOM     17  C   UNL A   1      32.053  23.340  26.847  1.00  0.00     0.316 C 
BRANCH   8  18
ATOM     18  S   UNL A   1      31.726  29.603  25.662  1.00  0.00    -0.124 SA
BRANCH  18  19
ATOM     19  C   UNL A   1      30.513  29.839  24.303  1.00  0.00     0.078 C 
BRANCH  19  20
ATOM     20  C   UNL A   1      30.352  28.754  23.219  1.00  0.00    -0.007 C 
ATOM     21  C   UNL A   1      29.058  27.946  23.272  1.00  0.00     0.008 C 
ATOM     22  C   UNL A   1      30.443  29.433  21.842  1.00  0.00     0.008 C 
ENDBRANCH  19  20
ENDBRANCH  18  19
ENDBRANCH   8  18
BRANCH  17  23
ATOM     23  C   UNL A   1      30.981  22.756  25.898  1.00  0.00     0.430 C 
ATOM     24  F   UNL A   1      31.381  21.591  25.333  1.00  0.00    -0.167 F 
ATOM     25  F   UNL A   1      29.809  22.502  26.522  1.00  0.00    -0.167 F 
ATOM     26  F   UNL A   1      30.702  23.617  24.890  1.00  0.00    -0.167 F 
ENDBRANCH  17  23
ENDBRANCH   5   7
ENDBRANCH   4   5
ENDBRANCH   3   4
ENDBRANCH   2   3
ENDBRANCH   1   2
BRANCH   1  27
ATOM     27  C   UNL A   1      39.137  21.494  26.070  1.00  0.00     0.202 C 
BRANCH  27  28
ATOM     28  C   UNL A   1      39.633  20.055  25.880  1.00  0.00     0.261 C 
BRANCH  28  29
ATOM     29  O   UNL A   1      40.677  19.738  26.817  1.00  0.00    -0.460 OA
BRANCH  29  30
ATOM     30  C   UNL A   1      41.924  19.653  26.292  1.00  0.00     0.338 C 
ATOM     31  O   UNL A   1      42.361  18.756  25.590  1.00  0.00    -0.246 OA
BRANCH  30  32
ATOM     32  C   UNL A   1      42.630  20.937  26.504  1.00  0.00     0.060 A 
ATOM     33  C   UNL A   1      43.290  21.605  25.469  1.00  0.00     0.016 A 
ATOM     34  C   UNL A   1      42.626  21.474  27.798  1.00  0.00     0.016 A 
ATOM     35  C   UNL A   1      43.907  22.833  25.727  1.00  0.00     0.010 A 
ATOM     36  C   UNL A   1      43.241  22.700  28.053  1.00  0.00     0.010 A 
ATOM     37  C   UNL A   1      43.862  23.404  27.013  1.00  0.00    -0.014 A 
BRANCH  37  38
ATOM     38  C   UNL A   1      44.315  24.801  27.235  1.00  0.00     0.031 A 
ATOM     39  C   UNL A   1      45.755  25.201  27.103  1.00  0.00     0.074 A 
ATOM     40  C   UNL A   1      43.394  25.711  27.609  1.00  0.00     0.049 A 
ATOM     41  N   UNL A   1      46.294  26.383  27.254  1.00  0.00    -0.248 NA
ATOM     42  C   UNL A   1      46.714  24.139  26.765  1.00  0.00     0.031 C 
ATOM     43  C   UNL A   1      41.971  25.429  27.807  1.00  0.00     0.029 A 
ATOM     44  N   UNL A   1      43.510  27.048  27.888  1.00  0.00    -0.354 N 
ATOM     45  C   UNL A   1      47.653  26.220  27.010  1.00  0.00     0.074 A 
ATOM     46  C   UNL A   1      47.861  24.810  26.748  1.00  0.00     0.031 C 
ATOM     47  C   UNL A   1      41.341  26.564  28.146  1.00  0.00     0.029 A 
ATOM     48  C   UNL A   1      42.319  27.645  28.226  1.00  0.00     0.049 A 
ATOM     49  H   UNL A   1      44.364  27.535  27.850  1.00  0.00     0.167 HD
ATOM     50  C   UNL A   1      48.626  27.164  26.988  1.00  0.00     0.037 A 
ATOM     51  C   UNL A   1      42.040  28.918  28.567  1.00  0.00     0.037 A 
ATOM     52  C   UNL A   1      48.409  28.563  27.272  1.00  0.00     0.049 A 
ATOM     53  C   UNL A   1      43.148  29.933  28.586  1.00  0.00     0.074 A 
ATOM     54  C   UNL A   1      49.332  29.596  27.250  1.00  0.00     0.029 A 
ATOM     55  N   UNL A   1      47.195  29.126  27.639  1.00  0.00    -0.354 N 
ATOM     56  N   UNL A   1      44.417  29.773  28.296  1.00  0.00    -0.248 NA
ATOM     57  C   UNL A   1      42.786  31.304  28.973  1.00  0.00     0.031 C 
ATOM     58  C   UNL A   1      48.689  30.770  27.655  1.00  0.00     0.029 A 
ATOM     59  C   UNL A   1      47.352  30.484  27.871  1.00  0.00     0.049 A 
ATOM     60  H   UNL A   1      46.348  28.633  27.723  1.00  0.00     0.167 HD
ATOM     61  C   UNL A   1      45.000  31.026  28.439  1.00  0.00     0.074 A 
ATOM     62  C   UNL A   1      43.943  31.937  28.829  1.00  0.00     0.031 C 
ATOM     63  C   UNL A   1      46.296  31.387  28.261  1.00  0.00     0.037 A 
BRANCH  50  64
ATOM     64  C   UNL A   1      50.023  26.726  26.638  1.00  0.00     0.058 A 
ATOM     65  C   UNL A   1      50.928  26.311  27.627  1.00  0.00     0.135 A 
ATOM     66  C   UNL A   1      50.436  26.640  25.298  1.00  0.00     0.135 A 
ATOM     67  F   UNL A   1      50.591  26.381  28.924  1.00  0.00    -0.206 F 
ATOM     68  C   UNL A   1      52.199  25.844  27.303  1.00  0.00     0.059 A 
ATOM     69  C   UNL A   1      51.693  26.150  24.948  1.00  0.00     0.059 A 
ATOM     70  F   UNL A   1      49.611  27.019  24.310  1.00  0.00    -0.206 F 
ATOM     71  C   UNL A   1      52.570  25.764  25.960  1.00  0.00     0.060 A 
BRANCH  71  72
ATOM     72  S   UNL A   1      54.220  25.146  25.563  1.00  0.00     0.124 S 
ATOM     73  O   UNL A   1      53.903  23.960  24.773  1.00  0.00    -0.237 OA
ATOM     74  O   UNL A   1      54.800  26.262  24.824  1.00  0.00    -0.237 OA
ATOM     75  O   UNL A   1      54.812  24.886  26.872  1.00  0.00    -0.744 OA
ENDBRANCH  71  72
ENDBRANCH  50  64
BRANCH  51  76
ATOM     76  C   UNL A   1      40.639  29.303  28.884  1.00  0.00     0.058 A 
ATOM     77  C   UNL A   1      39.694  29.477  27.863  1.00  0.00     0.135 A 
ATOM     78  C   UNL A   1      40.210  29.470  30.210  1.00  0.00     0.135 A 
ATOM     79  F   UNL A   1      40.058  29.335  26.579  1.00  0.00    -0.206 F 
ATOM     80  C   UNL A   1      38.374  29.811  28.144  1.00  0.00     0.059 A 
ATOM     81  C   UNL A   1      38.889  29.776  30.517  1.00  0.00     0.059 A 
ATOM     82  F   UNL A   1      41.074  29.298  31.223  1.00  0.00    -0.206 F 
ATOM     83  C   UNL A   1      37.979  29.952  29.475  1.00  0.00     0.060 A 
BRANCH  83  84
ATOM     84  S   UNL A   1      36.248  30.329  29.825  1.00  0.00     0.124 S 
ATOM     85  O   UNL A   1      35.577  29.714  28.686  1.00  0.00    -0.237 OA
ATOM     86  O   UNL A   1      36.050  29.675  31.114  1.00  0.00    -0.237 OA
ATOM     87  O   UNL A   1      36.223  31.789  29.859  1.00  0.00    -0.744 OA
ENDBRANCH  83  84
ENDBRANCH  51  76
BRANCH  63  88
ATOM     88  C   UNL A   1      46.648  32.838  28.461  1.00  0.00     0.058 A 
ATOM     89  C   UNL A   1      47.054  33.336  29.708  1.00  0.00     0.135 A 
ATOM     90  C   UNL A   1      46.633  33.731  27.375  1.00  0.00     0.135 A 
ATOM     91  F   UNL A   1      47.080  32.530  30.782  1.00  0.00    -0.206 F 
ATOM     92  C   UNL A   1      47.410  34.671  29.879  1.00  0.00     0.059 A 
ATOM     93  C   UNL A   1      47.015  35.061  27.515  1.00  0.00     0.059 A 
ATOM     94  F   UNL A   1      46.261  33.307  26.156  1.00  0.00    -0.206 F 
ATOM     95  C   UNL A   1      47.392  35.525  28.774  1.00  0.00     0.060 A 
BRANCH  95  96
ATOM     96  S   UNL A   1      47.892  37.244  29.006  1.00  0.00     0.124 S 
ATOM     97  O   UNL A   1      46.718  37.961  28.519  1.00  0.00    -0.237 OA
ATOM     98  O   UNL A   1      48.122  37.309  30.446  1.00  0.00    -0.237 OA
ATOM     99  O   UNL A   1      49.089  37.367  28.179  1.00  0.00    -0.744 OA
ENDBRANCH  95  96
ENDBRANCH  63  88
ENDBRANCH  37  38
ENDBRANCH  30  32
ENDBRANCH  29  30
ENDBRANCH  28  29
ENDBRANCH  27  28
ENDBRANCH   1  27
TORSDOF 21
ENDMDL
MODEL 2
REMARK VINA RESULT:     -10.9      0.669      8.044
REMARK SMILES CC(C)CSc1cc2c(cc1Cl)C=C(C(=O)OCCOCCOC(=O)c1ccc(-c3c4nc(c(-c5c(F)cc(S(=O)(=O)[O-])cc5F)c5ccc([nH]5)c(-c5c(F)cc(S(=O)(=O)[O-])cc5F)c5nc(c(-c6c(F)cc(S(=O)(=O)[O-])cc6F)c6ccc3[nH]6)C=C5)C=C4)cc1)[C@H](C(F)(F)F)O2
REMARK SMILES IDX 20 1 19 2 18 3 17 4 15 5 16 6 14 7 6 8 7 9 11 10 8 11 10 12
REMARK SMILES IDX 12 13 9 14 97 15 13 16 92 17 5 18 4 19 2 20 1 21 3 22 93 23
REMARK SMILES IDX 94 24 95 25 96 26 21 27 22 28 23 29 24 30 25 31 26 32 27 33
REMARK SMILES IDX 91 34 28 35 90 36 29 37 30 38 31 39 84 40 32 41 89 42 83 43
REMARK SMILES IDX 85 44 33 45 88 46 82 47 81 48 34 50 68 51 47 52 67 53 48 54
REMARK SMILES IDX 51 55 66 56 86 57 49 58 50 59 65 61 87 62 52 63 35 64 36 65
REMARK SMILES IDX 45 66 37 67 38 68 44 69 46 70 39 71 40 72 41 73 42 74 43 75
REMARK SMILES IDX 69 76 70 77 79 78 71 79 72 80 78 81 80 82 73 83 74 84 75 85
REMARK SMILES IDX 76 86 77 87 53 88 54 89 63 90 55 91 56 92 62 93 64 94 57 95
REMARK SMILES IDX 58 96 59 97 60 98 61 99
REMARK H PARENT 85 49 51 60
REMARK Flexibility Score: inf
ROOT
ATOM      1  O   UNL A   1      37.567  21.454  24.893  1.00  0.00    -0.374 OA
ENDROOT
BRANCH   1   2
ATOM      2  C   UNL A   1      36.513  20.492  25.002  1.00  0.00     0.202 C 
BRANCH   2   3
ATOM      3  C   UNL A   1      35.146  21.066  25.385  1.00  0.00     0.261 C 
BRANCH   3   4
ATOM      4  O   UNL A   1      35.317  22.316  26.076  1.00  0.00    -0.460 OA
BRANCH   4   5
ATOM      5  C   UNL A   1      34.351  22.604  26.970  1.00  0.00     0.338 C 
ATOM      6  O   UNL A   1      34.278  22.189  28.117  1.00  0.00    -0.246 OA
BRANCH   5   7
ATOM      7  C   UNL A   1      33.444  23.631  26.425  1.00  0.00     0.087 C 
ATOM      8  C   UNL A   1      31.791  28.056  24.713  1.00  0.00     0.030 A 
ATOM      9  C   UNL A   1      31.269  27.070  25.580  1.00  0.00     0.063 A 
ATOM     10  C   UNL A   1      32.982  27.767  24.026  1.00  0.00     0.055 A 
ATOM     11  C   UNL A   1      31.965  25.889  25.834  1.00  0.00     0.129 A 
ATOM     12  C   UNL A   1      33.712  26.613  24.335  1.00  0.00     0.033 A 
ATOM     13  Cl  UNL A   1      33.634  28.734  22.751  1.00  0.00    -0.083 Cl
ATOM     14  C   UNL A   1      33.220  25.697  25.261  1.00  0.00     0.019 A 
ATOM     15  O   UNL A   1      31.409  24.989  26.710  1.00  0.00    -0.475 OA
ATOM     16  C   UNL A   1      34.043  24.593  25.713  1.00  0.00     0.027 C 
ATOM     17  C   UNL A   1      31.959  23.628  26.681  1.00  0.00     0.316 C 
BRANCH   8  18
ATOM     18  S   UNL A   1      30.819  29.562  24.625  1.00  0.00    -0.124 SA
BRANCH  18  19
ATOM     19  C   UNL A   1      30.184  29.666  22.905  1.00  0.00     0.078 C 
BRANCH  19  20
ATOM     20  C   UNL A   1      28.793  30.276  22.634  1.00  0.00    -0.007 C 
ATOM     21  C   UNL A   1      28.522  30.699  21.193  1.00  0.00     0.008 C 
ATOM     22  C   UNL A   1      27.728  29.246  23.045  1.00  0.00     0.008 C 
ENDBRANCH  19  20
ENDBRANCH  18  19
ENDBRANCH   8  18
BRANCH  17  23
ATOM     23  C   UNL A   1      31.143  22.762  25.695  1.00  0.00     0.430 C 
ATOM     24  F   UNL A   1      29.915  22.456  26.182  1.00  0.00    -0.167 F 
ATOM     25  F   UNL A   1      30.947  23.366  24.501  1.00  0.00    -0.167 F 
ATOM     26  F   UNL A   1      31.775  21.592  25.435  1.00  0.00    -0.167 F 
ENDBRANCH  17  23
ENDBRANCH   5   7
ENDBRANCH   4   5
ENDBRANCH   3   4
ENDBRANCH   2   3
ENDBRANCH   1   2
BRANCH   1  27
ATOM     27  C   UNL A   1      38.714  21.236  25.718  1.00  0.00     0.202 C 
BRANCH  27  28
ATOM     28  C   UNL A   1      39.548  19.987  25.404  1.00  0.00     0.261 C 
BRANCH  28  29
ATOM     29  O   UNL A   1      40.382  19.625  26.519  1.00  0.00    -0.460 OA
BRANCH  29  30
ATOM     30  C   UNL A   1      41.698  19.467  26.233  1.00  0.00     0.338 C 
ATOM     31  O   UNL A   1      42.222  18.489  25.727  1.00  0.00    -0.246 OA
BRANCH  30  32
ATOM     32  C   UNL A   1      42.395  20.760  26.416  1.00  0.00     0.060 A 
ATOM     33  C   UNL A   1      42.986  21.445  25.351  1.00  0.00     0.016 A 
ATOM     34  C   UNL A   1      42.454  21.287  27.713  1.00  0.00     0.016 A 
ATOM     35  C   UNL A   1      43.597  22.682  25.584  1.00  0.00     0.010 A 
ATOM     36  C   UNL A   1      43.064  22.522  27.943  1.00  0.00     0.010 A 
ATOM     37  C   UNL A   1      43.615  23.243  26.876  1.00  0.00    -0.014 A 
BRANCH  37  38
ATOM     38  C   UNL A   1      44.059  24.645  27.084  1.00  0.00     0.031 A 
ATOM     39  C   UNL A   1      43.105  25.729  27.486  1.00  0.00     0.074 A 
ATOM     40  C   UNL A   1      45.355  24.936  26.856  1.00  0.00     0.049 A 
ATOM     41  N   UNL A   1      43.351  26.994  27.716  1.00  0.00    -0.248 NA
ATOM     42  C   UNL A   1      41.692  25.352  27.644  1.00  0.00     0.031 C 
ATOM     43  C   UNL A   1      46.367  23.970  26.425  1.00  0.00     0.029 A 
ATOM     44  N   UNL A   1      46.043  26.118  26.955  1.00  0.00    -0.354 N 
ATOM     45  C   UNL A   1      42.134  27.565  28.068  1.00  0.00     0.074 A 
ATOM     46  C   UNL A   1      41.139  26.515  27.972  1.00  0.00     0.031 C 
ATOM     47  C   UNL A   1      47.552  24.591  26.324  1.00  0.00     0.029 A 
ATOM     48  C   UNL A   1      47.379  26.004  26.647  1.00  0.00     0.049 A 
ATOM     49  H   UNL A   1      45.623  26.967  27.221  1.00  0.00     0.167 HD
ATOM     50  C   UNL A   1      41.879  28.840  28.452  1.00  0.00     0.037 A 
ATOM     51  C   UNL A   1      48.356  26.930  26.622  1.00  0.00     0.037 A 
ATOM     52  C   UNL A   1      42.875  29.883  28.523  1.00  0.00     0.049 A 
ATOM     53  C   UNL A   1      48.034  28.348  27.003  1.00  0.00     0.074 A 
ATOM     54  C   UNL A   1      42.713  31.199  28.925  1.00  0.00     0.029 A 
ATOM     55  N   UNL A   1      44.211  29.738  28.176  1.00  0.00    -0.354 N 
ATOM     56  N   UNL A   1      46.889  28.858  27.388  1.00  0.00    -0.248 NA
ATOM     57  C   UNL A   1      49.138  29.316  26.950  1.00  0.00     0.031 C 
ATOM     58  C   UNL A   1      43.934  31.861  28.770  1.00  0.00     0.029 A 
ATOM     59  C   UNL A   1      44.876  30.946  28.330  1.00  0.00     0.049 A 
ATOM     60  H   UNL A   1      44.625  28.901  27.866  1.00  0.00     0.167 HD
ATOM     61  C   UNL A   1      47.140  30.200  27.650  1.00  0.00     0.074 A 
ATOM     62  C   UNL A   1      48.548  30.419  27.391  1.00  0.00     0.031 C 
ATOM     63  C   UNL A   1      46.279  31.160  28.069  1.00  0.00     0.037 A 
BRANCH  50  64
ATOM     64  C   UNL A   1      40.466  29.190  28.838  1.00  0.00     0.058 A 
ATOM     65  C   UNL A   1      40.093  29.342  30.183  1.00  0.00     0.135 A 
ATOM     66  C   UNL A   1      39.497  29.459  27.857  1.00  0.00     0.135 A 
ATOM     67  F   UNL A   1      40.975  29.089  31.162  1.00  0.00    -0.206 F 
ATOM     68  C   UNL A   1      38.805  29.728  30.543  1.00  0.00     0.059 A 
ATOM     69  C   UNL A   1      38.210  29.874  28.193  1.00  0.00     0.059 A 
ATOM     70  F   UNL A   1      39.799  29.335  26.555  1.00  0.00    -0.206 F 
ATOM     71  C   UNL A   1      37.872  29.996  29.540  1.00  0.00     0.060 A 
BRANCH  71  72
ATOM     72  S   UNL A   1      36.211  30.506  30.030  1.00  0.00     0.124 S 
ATOM     73  O   UNL A   1      36.351  31.959  30.063  1.00  0.00    -0.237 OA
ATOM     74  O   UNL A   1      35.391  29.974  28.947  1.00  0.00    -0.237 OA
ATOM     75  O   UNL A   1      36.025  29.865  31.329  1.00  0.00    -0.744 OA
ENDBRANCH  71  72
ENDBRANCH  50  64
BRANCH  51  76
ATOM     76  C   UNL A   1      49.740  26.528  26.255  1.00  0.00     0.058 A 
ATOM     77  C   UNL A   1      50.583  25.918  27.194  1.00  0.00     0.135 A 
ATOM     78  C   UNL A   1      50.231  26.711  24.953  1.00  0.00     0.135 A 
ATOM     79  F   UNL A   1      50.160  25.727  28.453  1.00  0.00    -0.206 F 
ATOM     80  C   UNL A   1      51.870  25.512  26.859  1.00  0.00     0.059 A 
ATOM     81  C   UNL A   1      51.505  26.288  24.587  1.00  0.00     0.059 A 
ATOM     82  F   UNL A   1      49.455  27.275  24.014  1.00  0.00    -0.206 F 
ATOM     83  C   UNL A   1      52.320  25.695  25.550  1.00  0.00     0.060 A 
BRANCH  83  84
ATOM     84  S   UNL A   1      53.972  25.110  25.118  1.00  0.00     0.124 S 
ATOM     85  O   UNL A   1      54.227  25.836  23.880  1.00  0.00    -0.237 OA
ATOM     86  O   UNL A   1      54.754  25.526  26.277  1.00  0.00    -0.237 OA
ATOM     87  O   UNL A   1      53.791  23.667  24.976  1.00  0.00    -0.744 OA
ENDBRANCH  83  84
ENDBRANCH  51  76
BRANCH  63  88
ATOM     88  C   UNL A   1      46.835  32.541  28.301  1.00  0.00     0.058 A 
ATOM     89  C   UNL A   1      47.395  32.915  29.533  1.00  0.00     0.135 A 
ATOM     90  C   UNL A   1      46.859  33.484  27.260  1.00  0.00     0.135 A 
ATOM     91  F   UNL A   1      47.392  32.057  30.565  1.00  0.00    -0.206 F 
ATOM     92  C   UNL A   1      47.938  34.181  29.731  1.00  0.00     0.059 A 
ATOM     93  C   UNL A   1      47.425  34.745  27.426  1.00  0.00     0.059 A 
ATOM     94  F   UNL A   1      46.346  33.177  26.057  1.00  0.00    -0.206 F 
ATOM     95  C   UNL A   1      47.952  35.088  28.668  1.00  0.00     0.060 A 
BRANCH  95  96
ATOM     96  S   UNL A   1      48.692  36.714  28.933  1.00  0.00     0.124 S 
ATOM     97  O   UNL A   1      50.106  36.437  28.697  1.00  0.00    -0.237 OA
ATOM     98  O   UNL A   1      48.027  37.526  27.919  1.00  0.00    -0.237 OA
ATOM     99  O   UNL A   1      48.337  37.029  30.314  1.00  0.00    -0.744 OA
ENDBRANCH  95  96
ENDBRANCH  63  88
ENDBRANCH  37  38
ENDBRANCH  30  32
ENDBRANCH  29  30
ENDBRANCH  28  29
ENDBRANCH  27  28
ENDBRANCH   1  27
TORSDOF 21
ENDMDL
MODEL 3
REMARK VINA RESULT:     -10.9      6.068     10.727
REMARK SMILES CC(C)CSc1cc2c(cc1Cl)C=C(C(=O)OCCOCCOC(=O)c1ccc(-c3c4nc(c(-c5c(F)cc(S(=O)(=O)[O-])cc5F)c5ccc([nH]5)c(-c5c(F)cc(S(=O)(=O)[O-])cc5F)c5nc(c(-c6c(F)cc(S(=O)(=O)[O-])cc6F)c6ccc3[nH]6)C=C5)C=C4)cc1)[C@H](C(F)(F)F)O2
REMARK SMILES IDX 20 1 19 2 18 3 17 4 15 5 16 6 14 7 6 8 7 9 11 10 8 11 10 12
REMARK SMILES IDX 12 13 9 14 97 15 13 16 92 17 5 18 4 19 2 20 1 21 3 22 93 23
REMARK SMILES IDX 94 24 95 25 96 26 21 27 22 28 23 29 24 30 25 31 26 32 27 33
REMARK SMILES IDX 91 34 28 35 90 36 29 37 30 38 31 39 84 40 32 41 89 42 83 43
REMARK SMILES IDX 85 44 33 45 88 46 82 47 81 48 34 50 68 51 47 52 67 53 48 54
REMARK SMILES IDX 51 55 66 56 86 57 49 58 50 59 65 61 87 62 52 63 35 64 36 65
REMARK SMILES IDX 45 66 37 67 38 68 44 69 46 70 39 71 40 72 41 73 42 74 43 75
REMARK SMILES IDX 69 76 70 77 79 78 71 79 72 80 78 81 80 82 73 83 74 84 75 85
REMARK SMILES IDX 76 86 77 87 53 88 54 89 63 90 55 91 56 92 62 93 64 94 57 95
REMARK SMILES IDX 58 96 59 97 60 98 61 99
REMARK H PARENT 85 49 51 60
REMARK Flexibility Score: inf
ROOT
ATOM      1  O   UNL A   1      41.394  22.754  26.737  1.00  0.00    -0.374 OA
ENDROOT
BRANCH   1   2
ATOM      2  C   UNL A   1      40.574  21.672  27.186  1.00  0.00     0.202 C 
BRANCH   2   3
ATOM      3  C   UNL A   1      39.734  20.998  26.097  1.00  0.00     0.261 C 
BRANCH   3   4
ATOM      4  O   UNL A   1      38.530  21.752  25.872  1.00  0.00    -0.460 OA
BRANCH   4   5
ATOM      5  C   UNL A   1      37.563  21.087  25.211  1.00  0.00     0.338 C 
ATOM      6  O   UNL A   1      37.669  19.993  24.678  1.00  0.00    -0.246 OA
BRANCH   5   7
ATOM      7  C   UNL A   1      36.277  21.798  25.340  1.00  0.00     0.087 C 
ATOM      8  C   UNL A   1      32.971  25.561  25.735  1.00  0.00     0.030 A 
ATOM      9  C   UNL A   1      33.128  24.309  26.370  1.00  0.00     0.063 A 
ATOM     10  C   UNL A   1      33.806  25.858  24.645  1.00  0.00     0.055 A 
ATOM     11  C   UNL A   1      34.151  23.435  26.000  1.00  0.00     0.129 A 
ATOM     12  C   UNL A   1      34.873  25.012  24.323  1.00  0.00     0.033 A 
ATOM     13  Cl  UNL A   1      33.599  27.218  23.599  1.00  0.00    -0.083 Cl
ATOM     14  C   UNL A   1      35.063  23.823  25.022  1.00  0.00     0.019 A 
ATOM     15  O   UNL A   1      34.259  22.247  26.681  1.00  0.00    -0.475 OA
ATOM     16  C   UNL A   1      36.257  23.029  24.812  1.00  0.00     0.027 C 
ATOM     17  C   UNL A   1      35.086  21.209  26.050  1.00  0.00     0.316 C 
BRANCH   8  18
ATOM     18  S   UNL A   1      31.690  26.600  26.444  1.00  0.00    -0.124 SA
BRANCH  18  19
ATOM     19  C   UNL A   1      30.110  26.066  25.675  1.00  0.00     0.078 C 
BRANCH  19  20
ATOM     20  C   UNL A   1      29.931  26.154  24.145  1.00  0.00    -0.007 C 
ATOM     21  C   UNL A   1      30.200  24.867  23.369  1.00  0.00     0.008 C 
ATOM     22  C   UNL A   1      28.489  26.602  23.855  1.00  0.00     0.008 C 
ENDBRANCH  19  20
ENDBRANCH  18  19
ENDBRANCH   8  18
BRANCH  17  23
ATOM     23  C   UNL A   1      34.196  20.309  25.163  1.00  0.00     0.430 C 
ATOM     24  F   UNL A   1      33.796  20.943  24.033  1.00  0.00    -0.167 F 
ATOM     25  F   UNL A   1      34.819  19.175  24.771  1.00  0.00    -0.167 F 
ATOM     26  F   UNL A   1      33.078  19.925  25.825  1.00  0.00    -0.167 F 
ENDBRANCH  17  23
ENDBRANCH   5   7
ENDBRANCH   4   5
ENDBRANCH   3   4
ENDBRANCH   2   3
ENDBRANCH   1   2
BRANCH   1  27
ATOM     27  C   UNL A   1      42.434  22.423  25.812  1.00  0.00     0.202 C 
BRANCH  27  28
ATOM     28  C   UNL A   1      43.169  23.605  25.166  1.00  0.00     0.261 C 
BRANCH  28  29
ATOM     29  O   UNL A   1      43.319  24.694  26.093  1.00  0.00    -0.460 OA
BRANCH  29  30
ATOM     30  C   UNL A   1      42.467  25.733  25.912  1.00  0.00     0.338 C 
ATOM     31  O   UNL A   1      41.743  25.924  24.949  1.00  0.00    -0.246 OA
BRANCH  30  32
ATOM     32  C   UNL A   1      42.367  26.505  27.170  1.00  0.00     0.060 A 
ATOM     33  C   UNL A   1      43.135  27.648  27.408  1.00  0.00     0.016 A 
ATOM     34  C   UNL A   1      41.466  26.048  28.142  1.00  0.00     0.016 A 
ATOM     35  C   UNL A   1      42.965  28.354  28.603  1.00  0.00     0.010 A 
ATOM     36  C   UNL A   1      41.297  26.755  29.334  1.00  0.00     0.010 A 
ATOM     37  C   UNL A   1      42.025  27.930  29.561  1.00  0.00    -0.014 A 
BRANCH  37  38
ATOM     38  C   UNL A   1      41.684  28.796  30.719  1.00  0.00     0.031 A 
ATOM     39  C   UNL A   1      40.548  29.775  30.673  1.00  0.00     0.074 A 
ATOM     40  C   UNL A   1      42.458  28.713  31.819  1.00  0.00     0.049 A 
ATOM     41  N   UNL A   1      40.127  30.586  31.610  1.00  0.00    -0.248 NA
ATOM     42  C   UNL A   1      39.794  29.864  29.414  1.00  0.00     0.031 C 
ATOM     43  C   UNL A   1      43.613  27.824  31.964  1.00  0.00     0.029 A 
ATOM     44  N   UNL A   1      42.397  29.377  33.017  1.00  0.00    -0.354 N 
ATOM     45  C   UNL A   1      39.043  31.268  31.069  1.00  0.00     0.074 A 
ATOM     46  C   UNL A   1      38.905  30.809  29.701  1.00  0.00     0.031 C 
ATOM     47  C   UNL A   1      44.133  27.976  33.191  1.00  0.00     0.029 A 
ATOM     48  C   UNL A   1      43.374  28.998  33.907  1.00  0.00     0.049 A 
ATOM     49  H   UNL A   1      41.718  30.059  33.221  1.00  0.00     0.167 HD
ATOM     50  C   UNL A   1      38.233  32.176  31.667  1.00  0.00     0.037 A 
ATOM     51  C   UNL A   1      43.636  29.424  35.157  1.00  0.00     0.037 A 
ATOM     52  C   UNL A   1      38.394  32.641  33.024  1.00  0.00     0.049 A 
ATOM     53  C   UNL A   1      42.752  30.470  35.777  1.00  0.00     0.074 A 
ATOM     54  C   UNL A   1      37.606  33.541  33.721  1.00  0.00     0.029 A 
ATOM     55  N   UNL A   1      39.412  32.257  33.885  1.00  0.00    -0.354 N 
ATOM     56  N   UNL A   1      41.697  31.062  35.271  1.00  0.00    -0.248 NA
ATOM     57  C   UNL A   1      43.090  30.902  37.140  1.00  0.00     0.031 C 
ATOM     58  C   UNL A   1      38.177  33.742  34.982  1.00  0.00     0.029 A 
ATOM     59  C   UNL A   1      39.286  32.921  35.096  1.00  0.00     0.049 A 
ATOM     60  H   UNL A   1      40.120  31.608  33.668  1.00  0.00     0.167 HD
ATOM     61  C   UNL A   1      41.230  31.917  36.262  1.00  0.00     0.074 A 
ATOM     62  C   UNL A   1      42.109  31.755  37.402  1.00  0.00     0.031 C 
ATOM     63  C   UNL A   1      40.166  32.758  36.229  1.00  0.00     0.037 A 
BRANCH  50  64
ATOM     64  C   UNL A   1      37.085  32.729  30.866  1.00  0.00     0.058 A 
ATOM     65  C   UNL A   1      35.787  32.209  30.994  1.00  0.00     0.135 A 
ATOM     66  C   UNL A   1      37.261  33.842  30.026  1.00  0.00     0.135 A 
ATOM     67  F   UNL A   1      35.561  31.141  31.775  1.00  0.00    -0.206 F 
ATOM     68  C   UNL A   1      34.710  32.759  30.305  1.00  0.00     0.059 A 
ATOM     69  C   UNL A   1      36.194  34.426  29.348  1.00  0.00     0.059 A 
ATOM     70  F   UNL A   1      38.479  34.383  29.869  1.00  0.00    -0.206 F 
ATOM     71  C   UNL A   1      34.923  33.870  29.488  1.00  0.00     0.060 A 
BRANCH  71  72
ATOM     72  S   UNL A   1      33.509  34.572  28.612  1.00  0.00     0.124 S 
ATOM     73  O   UNL A   1      33.136  33.470  27.729  1.00  0.00    -0.237 OA
ATOM     74  O   UNL A   1      32.579  34.854  29.700  1.00  0.00    -0.237 OA
ATOM     75  O   UNL A   1      34.067  35.746  27.946  1.00  0.00    -0.744 OA
ENDBRANCH  71  72
ENDBRANCH  50  64
BRANCH  51  76
ATOM     76  C   UNL A   1      44.770  28.829  35.913  1.00  0.00     0.058 A 
ATOM     77  C   UNL A   1      44.571  27.723  36.752  1.00  0.00     0.135 A 
ATOM     78  C   UNL A   1      46.074  29.330  35.786  1.00  0.00     0.135 A 
ATOM     79  F   UNL A   1      43.340  27.213  36.911  1.00  0.00    -0.206 F 
ATOM     80  C   UNL A   1      45.625  27.138  37.445  1.00  0.00     0.059 A 
ATOM     81  C   UNL A   1      47.149  28.745  36.447  1.00  0.00     0.059 A 
ATOM     82  F   UNL A   1      46.318  30.377  34.982  1.00  0.00    -0.206 F 
ATOM     83  C   UNL A   1      46.913  27.652  37.281  1.00  0.00     0.060 A 
BRANCH  83  84
ATOM     84  S   UNL A   1      48.278  26.846  38.143  1.00  0.00     0.124 S 
ATOM     85  O   UNL A   1      47.654  25.608  38.592  1.00  0.00    -0.237 OA
ATOM     86  O   UNL A   1      49.271  26.714  37.081  1.00  0.00    -0.237 OA
ATOM     87  O   UNL A   1      48.620  27.798  39.196  1.00  0.00    -0.744 OA
ENDBRANCH  83  84
ENDBRANCH  51  76
BRANCH  63  88
ATOM     88  C   UNL A   1      39.870  33.557  37.471  1.00  0.00     0.058 A 
ATOM     89  C   UNL A   1      40.528  34.766  37.746  1.00  0.00     0.135 A 
ATOM     90  C   UNL A   1      38.876  33.135  38.370  1.00  0.00     0.135 A 
ATOM     91  F   UNL A   1      41.492  35.214  36.927  1.00  0.00    -0.206 F 
ATOM     92  C   UNL A   1      40.226  35.517  38.879  1.00  0.00     0.059 A 
ATOM     93  C   UNL A   1      38.536  33.885  39.491  1.00  0.00     0.059 A 
ATOM     94  F   UNL A   1      38.209  31.990  38.151  1.00  0.00    -0.206 F 
ATOM     95  C   UNL A   1      39.224  35.070  39.743  1.00  0.00     0.060 A 
BRANCH  95  96
ATOM     96  S   UNL A   1      38.821  36.074  41.189  1.00  0.00     0.124 S 
ATOM     97  O   UNL A   1      38.544  37.371  40.580  1.00  0.00    -0.237 OA
ATOM     98  O   UNL A   1      37.666  35.373  41.742  1.00  0.00    -0.237 OA
ATOM     99  O   UNL A   1      40.034  36.008  41.999  1.00  0.00    -0.744 OA
ENDBRANCH  95  96
ENDBRANCH  63  88
ENDBRANCH  37  38
ENDBRANCH  30  32
ENDBRANCH  29  30
ENDBRANCH  28  29
ENDBRANCH  27  28
ENDBRANCH   1  27
TORSDOF 21
ENDMDL
