MODEL 1
REMARK VINA RESULT:     -13.2      0.000      0.000
REMARK SMILES Cc1ccc(-c2nc(C)cc(N3CCCC[C@H]3C(=O)OCCOCCOC(=O)c3ccc(-c4c5nc(c(-c6c(F)cc(S(=O)(=O)[O-])cc6F)c6ccc([nH]6)c(-c6c(F)cc(S(=O)(=O)[O-])cc6F)c6nc(c(-c7c(F)cc(S(=O)(=O)[O-])cc7F)c7ccc4[nH]7)C=C6)C=C5)cc3)n2)cc1
REMARK SMILES IDX 24 1 23 2 22 3 21 4 20 5 18 6 19 7 17 8 12 9 13 10 14 11
REMARK SMILES IDX 16 12 15 13 11 14 6 15 7 16 95 17 8 18 9 19 10 20 5 21 1 22
REMARK SMILES IDX 2 23 3 24 97 25 4 26 96 27 25 28 26 29 27 30 28 31 29 32
REMARK SMILES IDX 30 33 94 34 31 35 93 36 32 37 33 38 34 39 87 40 35 41 92 42
REMARK SMILES IDX 86 43 88 44 36 45 91 46 85 47 84 48 37 50 71 51 50 52 70 53
REMARK SMILES IDX 51 54 54 55 69 56 89 57 52 58 53 59 68 61 90 62 55 63 38 64
REMARK SMILES IDX 39 65 48 66 40 67 41 68 47 69 49 70 42 71 43 72 44 73 45 74
REMARK SMILES IDX 46 75 72 76 73 77 82 78 74 79 75 80 81 81 83 82 76 83 77 84
REMARK SMILES IDX 78 85 79 86 80 87 56 88 57 89 66 90 58 91 59 92 65 93 67 94
REMARK SMILES IDX 60 95 61 96 62 97 63 98 64 99
REMARK H PARENT 88 49 54 60
REMARK Flexibility Score: inf
ROOT
ATOM      1  C   UNL A   1      32.152  29.391  24.969  1.00  0.00     0.202 C 
ENDROOT
BRANCH   1   2
ATOM      2  O   UNL A   1      30.912  29.385  24.297  1.00  0.00    -0.374 OA
BRANCH   2   3
ATOM      3  C   UNL A   1      30.904  28.999  22.929  1.00  0.00     0.202 C 
BRANCH   3   4
ATOM      4  C   UNL A   1      32.110  28.128  22.737  1.00  0.00     0.261 C 
BRANCH   4   5
ATOM      5  O   UNL A   1      31.810  26.787  22.329  1.00  0.00    -0.462 OA
BRANCH   5   6
ATOM      6  C   UNL A   1      32.771  25.828  22.327  1.00  0.00     0.328 C 
ATOM      7  O   UNL A   1      33.864  25.901  21.793  1.00  0.00    -0.250 OA
BRANCH   6   8
ATOM      8  C   UNL A   1      32.297  24.649  23.180  1.00  0.00     0.193 C 
ATOM      9  N   UNL A   1      32.838  24.755  24.533  1.00  0.00    -0.343 N 
ATOM     10  C   UNL A   1      32.263  25.677  25.503  1.00  0.00     0.119 C 
ATOM     11  C   UNL A   1      30.738  25.679  25.510  1.00  0.00     0.022 C 
ATOM     12  C   UNL A   1      30.762  24.511  23.275  1.00  0.00     0.037 C 
ATOM     13  C   UNL A   1      30.102  25.598  24.132  1.00  0.00     0.005 C 
BRANCH   9  14
ATOM     14  C   UNL A   1      33.887  23.976  24.935  1.00  0.00     0.133 A 
ATOM     15  C   UNL A   1      34.609  21.833  25.274  1.00  0.00     0.161 A 
ATOM     16  N   UNL A   1      35.835  22.186  25.682  1.00  0.00    -0.233 NA
ATOM     17  N   UNL A   1      33.627  22.673  24.938  1.00  0.00    -0.211 NA
ATOM     18  C   UNL A   1      36.082  23.514  25.685  1.00  0.00     0.043 A 
ATOM     19  C   UNL A   1      37.457  23.938  26.113  1.00  0.00     0.067 C 
ATOM     20  C   UNL A   1      35.133  24.450  25.291  1.00  0.00     0.070 A 
BRANCH  15  21
ATOM     21  C   UNL A   1      34.258  20.434  25.083  1.00  0.00     0.019 A 
ATOM     22  C   UNL A   1      33.342  16.374  23.963  1.00  0.00     0.044 C 
ATOM     23  C   UNL A   1      33.667  17.774  24.380  1.00  0.00    -0.051 A 
ATOM     24  C   UNL A   1      32.638  18.683  24.669  1.00  0.00     0.004 A 
ATOM     25  C   UNL A   1      34.995  18.195  24.458  1.00  0.00     0.004 A 
ATOM     26  C   UNL A   1      32.932  20.002  25.028  1.00  0.00     0.012 A 
ATOM     27  C   UNL A   1      35.284  19.510  24.804  1.00  0.00     0.012 A 
ENDBRANCH  15  21
ENDBRANCH   9  14
ENDBRANCH   6   8
ENDBRANCH   5   6
ENDBRANCH   4   5
ENDBRANCH   3   4
ENDBRANCH   2   3
ENDBRANCH   1   2
BRANCH   1  28
ATOM     28  C   UNL A   1      32.254  30.381  26.136  1.00  0.00     0.261 C 
BRANCH  28  29
ATOM     29  O   UNL A   1      33.188  29.959  27.161  1.00  0.00    -0.460 OA
BRANCH  29  30
ATOM     30  C   UNL A   1      34.155  30.838  27.558  1.00  0.00     0.338 C 
ATOM     31  O   UNL A   1      33.987  32.052  27.599  1.00  0.00    -0.246 OA
BRANCH  30  32
ATOM     32  C   UNL A   1      35.348  30.134  28.103  1.00  0.00     0.060 A 
ATOM     33  C   UNL A   1      35.456  29.748  29.453  1.00  0.00     0.016 A 
ATOM     34  C   UNL A   1      36.444  29.996  27.264  1.00  0.00     0.016 A 
ATOM     35  C   UNL A   1      36.701  29.354  29.983  1.00  0.00     0.010 A 
ATOM     36  C   UNL A   1      37.681  29.781  27.822  1.00  0.00     0.010 A 
ATOM     37  C   UNL A   1      37.833  29.436  29.174  1.00  0.00    -0.014 A 
BRANCH  37  38
ATOM     38  C   UNL A   1      39.236  29.249  29.564  1.00  0.00     0.031 A 
ATOM     39  C   UNL A   1      39.912  28.023  29.065  1.00  0.00     0.074 A 
ATOM     40  C   UNL A   1      39.985  30.254  30.089  1.00  0.00     0.049 A 
ATOM     41  N   UNL A   1      41.037  27.592  29.513  1.00  0.00    -0.248 NA
ATOM     42  C   UNL A   1      39.366  27.154  28.020  1.00  0.00     0.031 C 
ATOM     43  C   UNL A   1      41.438  30.425  30.006  1.00  0.00     0.029 A 
ATOM     44  N   UNL A   1      39.590  31.373  30.828  1.00  0.00    -0.354 N 
ATOM     45  C   UNL A   1      41.508  26.646  28.630  1.00  0.00     0.074 A 
ATOM     46  C   UNL A   1      40.400  26.354  27.760  1.00  0.00     0.031 C 
ATOM     47  C   UNL A   1      41.831  31.397  30.850  1.00  0.00     0.029 A 
ATOM     48  C   UNL A   1      40.664  31.815  31.608  1.00  0.00     0.049 A 
ATOM     49  H   UNL A   1      38.697  31.787  30.802  1.00  0.00     0.167 HD
ATOM     50  C   UNL A   1      42.832  26.332  28.650  1.00  0.00     0.037 A 
ATOM     51  C   UNL A   1      40.531  31.924  32.958  1.00  0.00     0.037 A 
ATOM     52  C   UNL A   1      43.519  27.122  29.680  1.00  0.00     0.049 A 
ATOM     53  C   UNL A   1      41.419  30.898  33.601  1.00  0.00     0.074 A 
ATOM     54  C   UNL A   1      44.291  28.272  29.616  1.00  0.00     0.029 A 
ATOM     55  N   UNL A   1      43.142  26.984  31.015  1.00  0.00    -0.354 N 
ATOM     56  N   UNL A   1      41.891  29.878  32.936  1.00  0.00    -0.248 NA
ATOM     57  C   UNL A   1      41.927  30.952  34.965  1.00  0.00     0.031 C 
ATOM     58  C   UNL A   1      44.342  28.841  30.917  1.00  0.00     0.029 A 
ATOM     59  C   UNL A   1      43.615  28.035  31.780  1.00  0.00     0.049 A 
ATOM     60  H   UNL A   1      42.609  26.235  31.367  1.00  0.00     0.167 HD
ATOM     61  C   UNL A   1      42.756  29.173  33.710  1.00  0.00     0.074 A 
ATOM     62  C   UNL A   1      42.736  29.875  34.982  1.00  0.00     0.031 C 
ATOM     63  C   UNL A   1      43.401  28.073  33.226  1.00  0.00     0.037 A 
BRANCH  50  64
ATOM     64  C   UNL A   1      43.531  25.536  27.565  1.00  0.00     0.058 A 
ATOM     65  C   UNL A   1      43.681  24.138  27.677  1.00  0.00     0.135 A 
ATOM     66  C   UNL A   1      44.087  26.087  26.388  1.00  0.00     0.135 A 
ATOM     67  F   UNL A   1      43.148  23.455  28.698  1.00  0.00    -0.206 F 
ATOM     68  C   UNL A   1      44.381  23.365  26.746  1.00  0.00     0.059 A 
ATOM     69  C   UNL A   1      44.845  25.346  25.474  1.00  0.00     0.059 A 
ATOM     70  F   UNL A   1      43.859  27.359  26.035  1.00  0.00    -0.206 F 
ATOM     71  C   UNL A   1      44.979  23.980  25.656  1.00  0.00     0.060 A 
BRANCH  71  72
ATOM     72  S   UNL A   1      45.869  22.964  24.463  1.00  0.00     0.124 S 
ATOM     73  O   UNL A   1      46.404  21.896  25.302  1.00  0.00    -0.237 OA
ATOM     74  O   UNL A   1      44.805  22.577  23.544  1.00  0.00    -0.237 OA
ATOM     75  O   UNL A   1      46.869  23.879  23.915  1.00  0.00    -0.744 OA
ENDBRANCH  71  72
ENDBRANCH  50  64
BRANCH  51  76
ATOM     76  C   UNL A   1      39.165  32.406  33.352  1.00  0.00     0.058 A 
ATOM     77  C   UNL A   1      38.846  33.742  33.016  1.00  0.00     0.135 A 
ATOM     78  C   UNL A   1      38.083  31.519  33.491  1.00  0.00     0.135 A 
ATOM     79  F   UNL A   1      39.830  34.642  32.859  1.00  0.00    -0.206 F 
ATOM     80  C   UNL A   1      37.550  34.141  32.675  1.00  0.00     0.059 A 
ATOM     81  C   UNL A   1      36.779  31.893  33.132  1.00  0.00     0.059 A 
ATOM     82  F   UNL A   1      38.306  30.233  33.799  1.00  0.00    -0.206 F 
ATOM     83  C   UNL A   1      36.530  33.191  32.674  1.00  0.00     0.060 A 
BRANCH  83  84
ATOM     84  S   UNL A   1      34.987  33.568  31.773  1.00  0.00     0.124 S 
ATOM     85  O   UNL A   1      34.801  34.983  32.057  1.00  0.00    -0.237 OA
ATOM     86  O   UNL A   1      35.328  33.240  30.387  1.00  0.00    -0.237 OA
ATOM     87  O   UNL A   1      34.028  32.653  32.381  1.00  0.00    -0.744 OA
ENDBRANCH  83  84
ENDBRANCH  51  76
BRANCH  63  88
ATOM     88  C   UNL A   1      43.972  26.979  34.087  1.00  0.00     0.058 A 
ATOM     89  C   UNL A   1      43.178  26.037  34.764  1.00  0.00     0.135 A 
ATOM     90  C   UNL A   1      45.368  26.743  34.125  1.00  0.00     0.135 A 
ATOM     91  F   UNL A   1      41.841  26.053  34.692  1.00  0.00    -0.206 F 
ATOM     92  C   UNL A   1      43.729  25.004  35.512  1.00  0.00     0.059 A 
ATOM     93  C   UNL A   1      45.932  25.667  34.795  1.00  0.00     0.059 A 
ATOM     94  F   UNL A   1      46.242  27.540  33.492  1.00  0.00    -0.206 F 
ATOM     95  C   UNL A   1      45.107  24.829  35.524  1.00  0.00     0.060 A 
BRANCH  95  96
ATOM     96  S   UNL A   1      45.805  23.488  36.490  1.00  0.00     0.124 S 
ATOM     97  O   UNL A   1      44.995  22.362  36.039  1.00  0.00    -0.237 OA
ATOM     98  O   UNL A   1      47.199  23.478  36.057  1.00  0.00    -0.237 OA
ATOM     99  O   UNL A   1      45.587  23.913  37.870  1.00  0.00    -0.744 OA
ENDBRANCH  95  96
ENDBRANCH  63  88
ENDBRANCH  37  38
ENDBRANCH  30  32
ENDBRANCH  29  30
ENDBRANCH  28  29
ENDBRANCH   1  28
TORSDOF 19
ENDMDL
MODEL 2
REMARK VINA RESULT:     -12.9      1.013      2.538
REMARK SMILES Cc1ccc(-c2nc(C)cc(N3CCCC[C@H]3C(=O)OCCOCCOC(=O)c3ccc(-c4c5nc(c(-c6c(F)cc(S(=O)(=O)[O-])cc6F)c6ccc([nH]6)c(-c6c(F)cc(S(=O)(=O)[O-])cc6F)c6nc(c(-c7c(F)cc(S(=O)(=O)[O-])cc7F)c7ccc4[nH]7)C=C6)C=C5)cc3)n2)cc1
REMARK SMILES IDX 24 1 23 2 22 3 21 4 20 5 18 6 19 7 17 8 12 9 13 10 14 11
REMARK SMILES IDX 16 12 15 13 11 14 6 15 7 16 95 17 8 18 9 19 10 20 5 21 1 22
REMARK SMILES IDX 2 23 3 24 97 25 4 26 96 27 25 28 26 29 27 30 28 31 29 32
REMARK SMILES IDX 30 33 94 34 31 35 93 36 32 37 33 38 34 39 87 40 35 41 92 42
REMARK SMILES IDX 86 43 88 44 36 45 91 46 85 47 84 48 37 50 71 51 50 52 70 53
REMARK SMILES IDX 51 54 54 55 69 56 89 57 52 58 53 59 68 61 90 62 55 63 38 64
REMARK SMILES IDX 39 65 48 66 40 67 41 68 47 69 49 70 42 71 43 72 44 73 45 74
REMARK SMILES IDX 46 75 72 76 73 77 82 78 74 79 75 80 81 81 83 82 76 83 77 84
REMARK SMILES IDX 78 85 79 86 80 87 56 88 57 89 66 90 58 91 59 92 65 93 67 94
REMARK SMILES IDX 60 95 61 96 62 97 63 98 64 99
REMARK H PARENT 88 49 54 60
REMARK Flexibility Score: inf
ROOT
ATOM      1  C   UNL A   1      33.357  29.092  25.150  1.00  0.00     0.202 C 
ENDROOT
BRANCH   1   2
ATOM      2  O   UNL A   1      32.761  28.965  23.879  1.00  0.00    -0.374 OA
BRANCH   2   3
ATOM      3  C   UNL A   1      33.622  28.815  22.757  1.00  0.00     0.202 C 
BRANCH   3   4
ATOM      4  C   UNL A   1      33.277  27.491  22.144  1.00  0.00     0.261 C 
BRANCH   4   5
ATOM      5  O   UNL A   1      32.587  26.595  23.025  1.00  0.00    -0.462 OA
BRANCH   5   6
ATOM      6  C   UNL A   1      33.265  25.651  23.728  1.00  0.00     0.328 C 
ATOM      7  O   UNL A   1      34.319  25.807  24.319  1.00  0.00    -0.250 OA
BRANCH   6   8
ATOM      8  C   UNL A   1      32.448  24.356  23.733  1.00  0.00     0.193 C 
ATOM      9  N   UNL A   1      32.724  23.591  24.947  1.00  0.00    -0.343 N 
ATOM     10  C   UNL A   1      32.126  23.962  26.222  1.00  0.00     0.119 C 
ATOM     11  C   UNL A   1      30.650  24.331  26.118  1.00  0.00     0.022 C 
ATOM     12  C   UNL A   1      30.923  24.567  23.622  1.00  0.00     0.037 C 
ATOM     13  C   UNL A   1      30.292  25.153  24.891  1.00  0.00     0.005 C 
BRANCH   9  14
ATOM     14  C   UNL A   1      33.533  22.490  24.917  1.00  0.00     0.133 A 
ATOM     15  C   UNL A   1      35.682  21.736  25.123  1.00  0.00     0.161 A 
ATOM     16  N   UNL A   1      35.375  20.448  24.919  1.00  0.00    -0.233 NA
ATOM     17  N   UNL A   1      34.823  22.757  25.093  1.00  0.00    -0.211 NA
ATOM     18  C   UNL A   1      34.062  20.193  24.728  1.00  0.00     0.043 A 
ATOM     19  C   UNL A   1      33.684  18.754  24.524  1.00  0.00     0.067 C 
ATOM     20  C   UNL A   1      33.097  21.192  24.745  1.00  0.00     0.070 A 
BRANCH  15  21
ATOM     21  C   UNL A   1      37.034  22.134  25.485  1.00  0.00     0.019 A 
ATOM     22  C   UNL A   1      40.961  23.000  27.035  1.00  0.00     0.044 C 
ATOM     23  C   UNL A   1      39.608  22.703  26.469  1.00  0.00    -0.051 A 
ATOM     24  C   UNL A   1      38.600  23.678  26.496  1.00  0.00     0.004 A 
ATOM     25  C   UNL A   1      39.330  21.445  25.934  1.00  0.00     0.004 A 
ATOM     26  C   UNL A   1      37.324  23.399  25.998  1.00  0.00     0.012 A 
ATOM     27  C   UNL A   1      38.057  21.166  25.449  1.00  0.00     0.012 A 
ENDBRANCH  15  21
ENDBRANCH   9  14
ENDBRANCH   6   8
ENDBRANCH   5   6
ENDBRANCH   4   5
ENDBRANCH   3   4
ENDBRANCH   2   3
ENDBRANCH   1   2
BRANCH   1  28
ATOM     28  C   UNL A   1      32.633  30.038  26.115  1.00  0.00     0.261 C 
BRANCH  28  29
ATOM     29  O   UNL A   1      33.229  30.071  27.436  1.00  0.00    -0.460 OA
BRANCH  29  30
ATOM     30  C   UNL A   1      34.268  30.930  27.658  1.00  0.00     0.338 C 
ATOM     31  O   UNL A   1      34.160  32.150  27.589  1.00  0.00    -0.246 OA
BRANCH  30  32
ATOM     32  C   UNL A   1      35.471  30.218  28.169  1.00  0.00     0.060 A 
ATOM     33  C   UNL A   1      35.559  29.712  29.480  1.00  0.00     0.016 A 
ATOM     34  C   UNL A   1      36.592  30.196  27.353  1.00  0.00     0.016 A 
ATOM     35  C   UNL A   1      36.804  29.312  30.007  1.00  0.00     0.010 A 
ATOM     36  C   UNL A   1      37.822  29.971  27.923  1.00  0.00     0.010 A 
ATOM     37  C   UNL A   1      37.952  29.507  29.242  1.00  0.00    -0.014 A 
BRANCH  37  38
ATOM     38  C   UNL A   1      39.350  29.331  29.652  1.00  0.00     0.031 A 
ATOM     39  C   UNL A   1      40.020  28.074  29.227  1.00  0.00     0.074 A 
ATOM     40  C   UNL A   1      40.103  30.358  30.126  1.00  0.00     0.049 A 
ATOM     41  N   UNL A   1      41.138  27.661  29.708  1.00  0.00    -0.248 NA
ATOM     42  C   UNL A   1      39.475  27.152  28.229  1.00  0.00     0.031 C 
ATOM     43  C   UNL A   1      41.558  30.513  30.045  1.00  0.00     0.029 A 
ATOM     44  N   UNL A   1      39.712  31.520  30.798  1.00  0.00    -0.354 N 
ATOM     45  C   UNL A   1      41.608  26.663  28.883  1.00  0.00     0.074 A 
ATOM     46  C   UNL A   1      40.504  26.331  28.021  1.00  0.00     0.031 C 
ATOM     47  C   UNL A   1      41.953  31.527  30.837  1.00  0.00     0.029 A 
ATOM     48  C   UNL A   1      40.784  31.996  31.561  1.00  0.00     0.049 A 
ATOM     49  H   UNL A   1      38.822  31.938  30.742  1.00  0.00     0.167 HD
ATOM     50  C   UNL A   1      42.929  26.341  28.930  1.00  0.00     0.037 A 
ATOM     51  C   UNL A   1      40.641  32.182  32.902  1.00  0.00     0.037 A 
ATOM     52  C   UNL A   1      43.615  27.181  29.920  1.00  0.00     0.049 A 
ATOM     53  C   UNL A   1      41.516  31.186  33.608  1.00  0.00     0.074 A 
ATOM     54  C   UNL A   1      44.397  28.320  29.798  1.00  0.00     0.029 A 
ATOM     55  N   UNL A   1      43.227  27.121  31.258  1.00  0.00    -0.354 N 
ATOM     56  N   UNL A   1      41.985  30.127  33.005  1.00  0.00    -0.248 NA
ATOM     57  C   UNL A   1      42.015  31.313  34.971  1.00  0.00     0.031 C 
ATOM     58  C   UNL A   1      44.443  28.960  31.066  1.00  0.00     0.029 A 
ATOM     59  C   UNL A   1      43.703  28.210  31.967  1.00  0.00     0.049 A 
ATOM     60  H   UNL A   1      42.685  26.397  31.647  1.00  0.00     0.167 HD
ATOM     61  C   UNL A   1      42.839  29.460  33.823  1.00  0.00     0.074 A 
ATOM     62  C   UNL A   1      42.816  30.232  35.054  1.00  0.00     0.031 C 
ATOM     63  C   UNL A   1      43.479  28.329  33.406  1.00  0.00     0.037 A 
BRANCH  50  64
ATOM     64  C   UNL A   1      43.630  25.480  27.897  1.00  0.00     0.058 A 
ATOM     65  C   UNL A   1      43.669  25.867  26.540  1.00  0.00     0.135 A 
ATOM     66  C   UNL A   1      44.277  24.254  28.170  1.00  0.00     0.135 A 
ATOM     67  F   UNL A   1      43.165  27.037  26.130  1.00  0.00    -0.206 F 
ATOM     68  C   UNL A   1      44.235  25.078  25.535  1.00  0.00     0.059 A 
ATOM     69  C   UNL A   1      44.794  23.417  27.175  1.00  0.00     0.059 A 
ATOM     70  F   UNL A   1      44.501  23.845  29.426  1.00  0.00    -0.206 F 
ATOM     71  C   UNL A   1      44.778  23.842  25.857  1.00  0.00     0.060 A 
BRANCH  71  72
ATOM     72  S   UNL A   1      45.509  22.845  24.546  1.00  0.00     0.124 S 
ATOM     73  O   UNL A   1      46.083  21.727  25.289  1.00  0.00    -0.237 OA
ATOM     74  O   UNL A   1      44.346  22.530  23.724  1.00  0.00    -0.237 OA
ATOM     75  O   UNL A   1      46.483  23.745  23.935  1.00  0.00    -0.744 OA
ENDBRANCH  71  72
ENDBRANCH  50  64
BRANCH  51  76
ATOM     76  C   UNL A   1      39.277  32.695  33.258  1.00  0.00     0.058 A 
ATOM     77  C   UNL A   1      38.964  34.006  32.828  1.00  0.00     0.135 A 
ATOM     78  C   UNL A   1      38.191  31.824  33.456  1.00  0.00     0.135 A 
ATOM     79  F   UNL A   1      39.952  34.889  32.611  1.00  0.00    -0.206 F 
ATOM     80  C   UNL A   1      37.670  34.384  32.456  1.00  0.00     0.059 A 
ATOM     81  C   UNL A   1      36.889  32.178  33.068  1.00  0.00     0.059 A 
ATOM     82  F   UNL A   1      38.408  30.562  33.854  1.00  0.00    -0.206 F 
ATOM     83  C   UNL A   1      36.647  33.441  32.519  1.00  0.00     0.060 A 
BRANCH  83  84
ATOM     84  S   UNL A   1      35.107  33.759  31.590  1.00  0.00     0.124 S 
ATOM     85  O   UNL A   1      34.387  32.505  31.746  1.00  0.00    -0.237 OA
ATOM     86  O   UNL A   1      34.534  34.910  32.291  1.00  0.00    -0.237 OA
ATOM     87  O   UNL A   1      35.598  34.063  30.251  1.00  0.00    -0.744 OA
ENDBRANCH  83  84
ENDBRANCH  51  76
BRANCH  63  88
ATOM     88  C   UNL A   1      44.034  27.282  34.331  1.00  0.00     0.058 A 
ATOM     89  C   UNL A   1      45.359  27.291  34.802  1.00  0.00     0.135 A 
ATOM     90  C   UNL A   1      43.186  26.309  34.913  1.00  0.00     0.135 A 
ATOM     91  F   UNL A   1      46.230  28.245  34.448  1.00  0.00    -0.206 F 
ATOM     92  C   UNL A   1      45.835  26.342  35.697  1.00  0.00     0.059 A 
ATOM     93  C   UNL A   1      43.621  25.406  35.874  1.00  0.00     0.059 A 
ATOM     94  F   UNL A   1      41.889  26.208  34.586  1.00  0.00    -0.206 F 
ATOM     95  C   UNL A   1      44.960  25.401  36.225  1.00  0.00     0.060 A 
BRANCH  95  96
ATOM     96  S   UNL A   1      45.586  24.183  37.384  1.00  0.00     0.124 S 
ATOM     97  O   UNL A   1      44.848  24.536  38.592  1.00  0.00    -0.237 OA
ATOM     98  O   UNL A   1      45.205  22.922  36.756  1.00  0.00    -0.237 OA
ATOM     99  O   UNL A   1      47.020  24.451  37.417  1.00  0.00    -0.744 OA
ENDBRANCH  95  96
ENDBRANCH  63  88
ENDBRANCH  37  38
ENDBRANCH  30  32
ENDBRANCH  29  30
ENDBRANCH  28  29
ENDBRANCH   1  28
TORSDOF 19
ENDMDL
MODEL 3
REMARK VINA RESULT:     -12.7      1.862      3.017
REMARK SMILES Cc1ccc(-c2nc(C)cc(N3CCCC[C@H]3C(=O)OCCOCCOC(=O)c3ccc(-c4c5nc(c(-c6c(F)cc(S(=O)(=O)[O-])cc6F)c6ccc([nH]6)c(-c6c(F)cc(S(=O)(=O)[O-])cc6F)c6nc(c(-c7c(F)cc(S(=O)(=O)[O-])cc7F)c7ccc4[nH]7)C=C6)C=C5)cc3)n2)cc1
REMARK SMILES IDX 24 1 23 2 22 3 21 4 20 5 18 6 19 7 17 8 12 9 13 10 14 11
REMARK SMILES IDX 16 12 15 13 11 14 6 15 7 16 95 17 8 18 9 19 10 20 5 21 1 22
REMARK SMILES IDX 2 23 3 24 97 25 4 26 96 27 25 28 26 29 27 30 28 31 29 32
REMARK SMILES IDX 30 33 94 34 31 35 93 36 32 37 33 38 34 39 87 40 35 41 92 42
REMARK SMILES IDX 86 43 88 44 36 45 91 46 85 47 84 48 37 50 71 51 50 52 70 53
REMARK SMILES IDX 51 54 54 55 69 56 89 57 52 58 53 59 68 61 90 62 55 63 38 64
REMARK SMILES IDX 39 65 48 66 40 67 41 68 47 69 49 70 42 71 43 72 44 73 45 74
REMARK SMILES IDX 46 75 72 76 73 77 82 78 74 79 75 80 81 81 83 82 76 83 77 84
REMARK SMILES IDX 78 85 79 86 80 87 56 88 57 89 66 90 58 91 59 92 65 93 67 94
REMARK SMILES IDX 60 95 61 96 62 97 63 98 64 99
REMARK H PARENT 88 49 54 60
REMARK Flexibility Score: inf
ROOT
ATOM      1  C   UNL A   1      33.426  28.949  26.063  1.00  0.00     0.202 C 
ENDROOT
BRANCH   1   2
ATOM      2  O   UNL A   1      32.883  29.181  24.783  1.00  0.00    -0.374 OA
BRANCH   2   3
ATOM      3  C   UNL A   1      33.672  28.822  23.656  1.00  0.00     0.202 C 
BRANCH   3   4
ATOM      4  C   UNL A   1      32.705  28.411  22.587  1.00  0.00     0.261 C 
BRANCH   4   5
ATOM      5  O   UNL A   1      31.988  27.203  22.873  1.00  0.00    -0.462 OA
BRANCH   5   6
ATOM      6  C   UNL A   1      32.572  25.989  22.703  1.00  0.00     0.328 C 
ATOM      7  O   UNL A   1      33.652  25.774  22.180  1.00  0.00    -0.250 OA
BRANCH   6   8
ATOM      8  C   UNL A   1      31.689  24.918  23.349  1.00  0.00     0.193 C 
ATOM      9  N   UNL A   1      32.346  24.370  24.533  1.00  0.00    -0.343 N 
ATOM     10  C   UNL A   1      32.362  25.103  25.791  1.00  0.00     0.119 C 
ATOM     11  C   UNL A   1      31.022  25.741  26.141  1.00  0.00     0.022 C 
ATOM     12  C   UNL A   1      30.283  25.414  23.752  1.00  0.00     0.037 C 
ATOM     13  C   UNL A   1      30.291  26.358  24.960  1.00  0.00     0.005 C 
BRANCH   9  14
ATOM     14  C   UNL A   1      32.945  23.143  24.500  1.00  0.00     0.133 A 
ATOM     15  C   UNL A   1      34.922  22.014  24.712  1.00  0.00     0.161 A 
ATOM     16  N   UNL A   1      34.390  20.803  24.501  1.00  0.00    -0.233 NA
ATOM     17  N   UNL A   1      34.260  23.173  24.684  1.00  0.00    -0.211 NA
ATOM     18  C   UNL A   1      33.054  20.788  24.302  1.00  0.00     0.043 A 
ATOM     19  C   UNL A   1      32.425  19.442  24.088  1.00  0.00     0.067 C 
ATOM     20  C   UNL A   1      32.284  21.944  24.319  1.00  0.00     0.070 A 
BRANCH  15  21
ATOM     21  C   UNL A   1      36.322  22.161  25.083  1.00  0.00     0.019 A 
ATOM     22  C   UNL A   1      40.337  22.283  26.646  1.00  0.00     0.044 C 
ATOM     23  C   UNL A   1      38.954  22.243  26.075  1.00  0.00    -0.051 A 
ATOM     24  C   UNL A   1      38.125  23.373  26.150  1.00  0.00     0.004 A 
ATOM     25  C   UNL A   1      38.467  21.075  25.488  1.00  0.00     0.004 A 
ATOM     26  C   UNL A   1      36.821  23.336  25.648  1.00  0.00     0.012 A 
ATOM     27  C   UNL A   1      37.166  21.037  25.000  1.00  0.00     0.012 A 
ENDBRANCH  15  21
ENDBRANCH   9  14
ENDBRANCH   6   8
ENDBRANCH   5   6
ENDBRANCH   4   5
ENDBRANCH   3   4
ENDBRANCH   2   3
ENDBRANCH   1   2
BRANCH   1  28
ATOM     28  C   UNL A   1      33.220  30.086  27.072  1.00  0.00     0.261 C 
BRANCH  28  29
ATOM     29  O   UNL A   1      34.354  30.985  27.156  1.00  0.00    -0.460 OA
BRANCH  29  30
ATOM     30  C   UNL A   1      34.885  31.245  28.387  1.00  0.00     0.338 C 
ATOM     31  O   UNL A   1      34.385  32.033  29.184  1.00  0.00    -0.246 OA
BRANCH  30  32
ATOM     32  C   UNL A   1      36.014  30.329  28.704  1.00  0.00     0.060 A 
ATOM     33  C   UNL A   1      36.139  29.670  29.942  1.00  0.00     0.016 A 
ATOM     34  C   UNL A   1      37.049  30.253  27.784  1.00  0.00     0.016 A 
ATOM     35  C   UNL A   1      37.354  29.053  30.302  1.00  0.00     0.010 A 
ATOM     36  C   UNL A   1      38.279  29.806  28.206  1.00  0.00     0.010 A 
ATOM     37  C   UNL A   1      38.451  29.182  29.451  1.00  0.00    -0.014 A 
BRANCH  37  38
ATOM     38  C   UNL A   1      39.840  28.780  29.704  1.00  0.00     0.031 A 
ATOM     39  C   UNL A   1      40.263  27.460  29.166  1.00  0.00     0.074 A 
ATOM     40  C   UNL A   1      40.785  29.658  30.130  1.00  0.00     0.049 A 
ATOM     41  N   UNL A   1      41.347  26.861  29.509  1.00  0.00    -0.248 NA
ATOM     42  C   UNL A   1      39.485  26.682  28.200  1.00  0.00     0.031 C 
ATOM     43  C   UNL A   1      42.232  29.598  29.898  1.00  0.00     0.029 A 
ATOM     44  N   UNL A   1      40.647  30.829  30.879  1.00  0.00    -0.354 N 
ATOM     45  C   UNL A   1      41.573  25.847  28.605  1.00  0.00     0.074 A 
ATOM     46  C   UNL A   1      40.350  25.727  27.855  1.00  0.00     0.031 C 
ATOM     47  C   UNL A   1      42.854  30.501  30.678  1.00  0.00     0.029 A 
ATOM     48  C   UNL A   1      41.850  31.101  31.540  1.00  0.00     0.049 A 
ATOM     49  H   UNL A   1      39.831  31.378  30.934  1.00  0.00     0.167 HD
ATOM     50  C   UNL A   1      42.827  25.330  28.499  1.00  0.00     0.037 A 
ATOM     51  C   UNL A   1      41.873  31.238  32.893  1.00  0.00     0.037 A 
ATOM     52  C   UNL A   1      43.730  26.008  29.438  1.00  0.00     0.049 A 
ATOM     53  C   UNL A   1      42.652  30.089  33.467  1.00  0.00     0.074 A 
ATOM     54  C   UNL A   1      44.660  27.022  29.273  1.00  0.00     0.029 A 
ATOM     55  N   UNL A   1      43.474  25.938  30.806  1.00  0.00    -0.354 N 
ATOM     56  N   UNL A   1      42.890  29.004  32.780  1.00  0.00    -0.248 NA
ATOM     57  C   UNL A   1      43.299  30.070  34.772  1.00  0.00     0.031 C 
ATOM     58  C   UNL A   1      44.931  27.583  30.550  1.00  0.00     0.029 A 
ATOM     59  C   UNL A   1      44.180  26.907  31.498  1.00  0.00     0.049 A 
ATOM     60  H   UNL A   1      42.869  25.284  31.226  1.00  0.00     0.167 HD
ATOM     61  C   UNL A   1      43.709  28.176  33.479  1.00  0.00     0.074 A 
ATOM     62  C   UNL A   1      43.928  28.880  34.731  1.00  0.00     0.031 C 
ATOM     63  C   UNL A   1      44.123  26.985  32.957  1.00  0.00     0.037 A 
BRANCH  50  64
ATOM     64  C   UNL A   1      43.280  24.428  27.367  1.00  0.00     0.058 A 
ATOM     65  C   UNL A   1      43.575  23.068  27.601  1.00  0.00     0.135 A 
ATOM     66  C   UNL A   1      43.455  24.838  26.026  1.00  0.00     0.135 A 
ATOM     67  F   UNL A   1      43.391  22.506  28.802  1.00  0.00    -0.206 F 
ATOM     68  C   UNL A   1      44.066  22.210  26.613  1.00  0.00     0.059 A 
ATOM     69  C   UNL A   1      44.004  24.017  25.035  1.00  0.00     0.059 A 
ATOM     70  F   UNL A   1      43.032  26.036  25.600  1.00  0.00    -0.206 F 
ATOM     71  C   UNL A   1      44.299  22.698  25.335  1.00  0.00     0.060 A 
BRANCH  71  72
ATOM     72  S   UNL A   1      44.926  21.573  24.074  1.00  0.00     0.124 S 
ATOM     73  O   UNL A   1      44.457  22.196  22.840  1.00  0.00    -0.237 OA
ATOM     74  O   UNL A   1      46.364  21.632  24.308  1.00  0.00    -0.237 OA
ATOM     75  O   UNL A   1      44.289  20.300  24.405  1.00  0.00    -0.744 OA
ENDBRANCH  71  72
ENDBRANCH  50  64
BRANCH  51  76
ATOM     76  C   UNL A   1      40.647  31.930  33.411  1.00  0.00     0.058 A 
ATOM     77  C   UNL A   1      39.641  31.103  33.962  1.00  0.00     0.135 A 
ATOM     78  C   UNL A   1      40.690  33.257  33.874  1.00  0.00     0.135 A 
ATOM     79  F   UNL A   1      39.545  29.821  33.572  1.00  0.00    -0.206 F 
ATOM     80  C   UNL A   1      38.832  31.513  35.027  1.00  0.00     0.059 A 
ATOM     81  C   UNL A   1      39.903  33.681  34.956  1.00  0.00     0.059 A 
ATOM     82  F   UNL A   1      41.622  34.100  33.406  1.00  0.00    -0.206 F 
ATOM     83  C   UNL A   1      39.015  32.786  35.561  1.00  0.00     0.060 A 
BRANCH  83  84
ATOM     84  S   UNL A   1      38.340  33.141  37.220  1.00  0.00     0.124 S 
ATOM     85  O   UNL A   1      38.899  32.061  38.019  1.00  0.00    -0.237 OA
ATOM     86  O   UNL A   1      38.864  34.477  37.508  1.00  0.00    -0.237 OA
ATOM     87  O   UNL A   1      36.899  33.103  36.996  1.00  0.00    -0.744 OA
ENDBRANCH  83  84
ENDBRANCH  51  76
BRANCH  63  88
ATOM     88  C   UNL A   1      44.601  25.821  33.780  1.00  0.00     0.058 A 
ATOM     89  C   UNL A   1      45.956  25.467  33.903  1.00  0.00     0.135 A 
ATOM     90  C   UNL A   1      43.705  25.112  34.618  1.00  0.00     0.135 A 
ATOM     91  F   UNL A   1      46.926  26.150  33.282  1.00  0.00    -0.206 F 
ATOM     92  C   UNL A   1      46.379  24.420  34.711  1.00  0.00     0.059 A 
ATOM     93  C   UNL A   1      44.120  24.120  35.495  1.00  0.00     0.059 A 
ATOM     94  F   UNL A   1      42.389  25.370  34.632  1.00  0.00    -0.206 F 
ATOM     95  C   UNL A   1      45.453  23.749  35.500  1.00  0.00     0.060 A 
BRANCH  95  96
ATOM     96  S   UNL A   1      46.012  22.401  36.544  1.00  0.00     0.124 S 
ATOM     97  O   UNL A   1      45.583  22.863  37.859  1.00  0.00    -0.237 OA
ATOM     98  O   UNL A   1      45.281  21.258  36.004  1.00  0.00    -0.237 OA
ATOM     99  O   UNL A   1      47.455  22.375  36.321  1.00  0.00    -0.744 OA
ENDBRANCH  95  96
ENDBRANCH  63  88
ENDBRANCH  37  38
ENDBRANCH  30  32
ENDBRANCH  29  30
ENDBRANCH  28  29
ENDBRANCH   1  28
TORSDOF 19
ENDMDL
