MODEL 1
REMARK VINA RESULT:     -10.7      0.000      0.000
REMARK SMILES CC(C)(Oc1ccc(Cl)cc1)C(=O)N1CCC[C@H](C(=O)OCCOCCOC(=O)c2ccc(-c3c4nc(c(-c5c(F)cc(S(=O)(=O)[O-])cc5F)c5ccc([nH]5)c(-c5c(F)cc(S(=O)(=O)[O-])cc5F)c5nc(c(-c6c(F)cc(S(=O)(=O)[O-])cc6F)c6ccc3[nH]6)C=C5)C=C4)cc2)C1
REMARK SMILES IDX 23 1 22 2 21 3 19 4 20 5 18 6 14 7 15 8 96 9 16 10 17 11
REMARK SMILES IDX 12 12 13 13 2 14 1 15 3 16 4 17 5 18 6 19 11 20 7 21 10 22
REMARK SMILES IDX 8 23 9 24 24 25 25 26 26 27 27 28 28 29 29 30 30 31 31 32
REMARK SMILES IDX 95 33 32 34 94 35 33 36 34 37 35 38 88 39 36 40 93 41 87 42
REMARK SMILES IDX 89 43 37 44 92 45 86 46 85 47 38 49 72 50 51 51 71 52 52 53
REMARK SMILES IDX 55 54 70 55 90 56 53 57 54 58 69 60 91 61 56 62 39 63 40 64
REMARK SMILES IDX 49 65 41 66 42 67 48 68 50 69 43 70 44 71 45 72 46 73 47 74
REMARK SMILES IDX 73 75 74 76 83 77 75 78 76 79 82 80 84 81 77 82 78 83 79 84
REMARK SMILES IDX 80 85 81 86 57 87 58 88 67 89 59 90 60 91 66 92 68 93 61 94
REMARK SMILES IDX 62 95 63 96 64 97 65 98
REMARK H PARENT 89 48 55 59
REMARK Flexibility Score: inf
ROOT
ATOM      1  C   UNL A   1      34.620  29.674  27.420  1.00  0.00     0.202 C 
ENDROOT
BRANCH   1   2
ATOM      2  C   UNL A   1      34.094  28.489  26.603  1.00  0.00     0.261 C 
BRANCH   2   3
ATOM      3  O   UNL A   1      32.684  28.627  26.350  1.00  0.00    -0.463 OA
BRANCH   3   4
ATOM      4  C   UNL A   1      32.292  28.727  25.057  1.00  0.00     0.310 C 
ATOM      5  O   UNL A   1      32.886  29.345  24.181  1.00  0.00    -0.252 OA
BRANCH   4   6
ATOM      6  C   UNL A   1      30.988  27.997  24.781  1.00  0.00     0.119 C 
ATOM      7  N   UNL A   1      31.782  25.741  24.203  1.00  0.00    -0.338 N 
ATOM      8  C   UNL A   1      31.146  25.763  22.891  1.00  0.00     0.119 C 
ATOM      9  C   UNL A   1      31.119  26.540  25.226  1.00  0.00     0.135 C 
ATOM     10  C   UNL A   1      31.078  27.179  22.340  1.00  0.00     0.022 C 
ATOM     11  C   UNL A   1      30.427  28.124  23.352  1.00  0.00     0.019 C 
BRANCH   7  12
ATOM     12  C   UNL A   1      33.098  25.292  24.293  1.00  0.00     0.266 C 
ATOM     13  O   UNL A   1      34.011  25.994  23.842  1.00  0.00    -0.270 OA
BRANCH  12  14
ATOM     14  C   UNL A   1      33.376  23.855  24.864  1.00  0.00     0.181 C 
ATOM     15  C   UNL A   1      33.834  24.059  26.325  1.00  0.00     0.067 C 
ATOM     16  C   UNL A   1      34.536  23.240  24.054  1.00  0.00     0.067 C 
BRANCH  14  17
ATOM     17  O   UNL A   1      32.154  23.083  24.808  1.00  0.00    -0.478 OA
BRANCH  17  18
ATOM     18  C   UNL A   1      32.245  21.819  24.287  1.00  0.00     0.121 A 
ATOM     19  C   UNL A   1      32.482  20.698  25.083  1.00  0.00     0.048 A 
ATOM     20  C   UNL A   1      32.004  21.655  22.922  1.00  0.00     0.048 A 
ATOM     21  C   UNL A   1      32.590  19.432  24.501  1.00  0.00     0.024 A 
ATOM     22  C   UNL A   1      32.095  20.388  22.339  1.00  0.00     0.024 A 
ATOM     23  C   UNL A   1      32.406  19.282  23.129  1.00  0.00     0.041 A 
ATOM     24  Cl  UNL A   1      32.545  17.726  22.408  1.00  0.00    -0.084 Cl
ENDBRANCH  17  18
ENDBRANCH  14  17
ENDBRANCH  12  14
ENDBRANCH   7  12
ENDBRANCH   4   6
ENDBRANCH   3   4
ENDBRANCH   2   3
ENDBRANCH   1   2
BRANCH   1  25
ATOM     25  O   UNL A   1      33.696  30.746  27.627  1.00  0.00    -0.374 OA
BRANCH  25  26
ATOM     26  C   UNL A   1      34.252  32.032  27.889  1.00  0.00     0.202 C 
BRANCH  26  27
ATOM     27  C   UNL A   1      34.747  32.281  29.320  1.00  0.00     0.261 C 
BRANCH  27  28
ATOM     28  O   UNL A   1      36.178  32.182  29.442  1.00  0.00    -0.460 OA
BRANCH  28  29
ATOM     29  C   UNL A   1      36.600  31.331  30.408  1.00  0.00     0.338 C 
ATOM     30  O   UNL A   1      36.061  31.123  31.490  1.00  0.00    -0.246 OA
BRANCH  29  31
ATOM     31  C   UNL A   1      37.748  30.534  29.942  1.00  0.00     0.060 A 
ATOM     32  C   UNL A   1      38.695  30.151  30.901  1.00  0.00     0.016 A 
ATOM     33  C   UNL A   1      37.957  30.251  28.590  1.00  0.00     0.016 A 
ATOM     34  C   UNL A   1      39.879  29.531  30.507  1.00  0.00     0.010 A 
ATOM     35  C   UNL A   1      39.153  29.634  28.196  1.00  0.00     0.010 A 
ATOM     36  C   UNL A   1      40.135  29.306  29.147  1.00  0.00    -0.014 A 
BRANCH  36  37
ATOM     37  C   UNL A   1      41.488  28.862  28.727  1.00  0.00     0.031 A 
ATOM     38  C   UNL A   1      42.609  29.868  28.688  1.00  0.00     0.074 A 
ATOM     39  C   UNL A   1      41.731  27.571  28.436  1.00  0.00     0.049 A 
ATOM     40  N   UNL A   1      43.859  29.705  28.337  1.00  0.00    -0.248 NA
ATOM     41  C   UNL A   1      42.277  31.242  29.101  1.00  0.00     0.031 C 
ATOM     42  C   UNL A   1      40.740  26.496  28.474  1.00  0.00     0.029 A 
ATOM     43  N   UNL A   1      42.890  26.946  28.047  1.00  0.00    -0.354 N 
ATOM     44  C   UNL A   1      44.462  30.948  28.487  1.00  0.00     0.074 A 
ATOM     45  C   UNL A   1      43.434  31.866  28.930  1.00  0.00     0.031 C 
ATOM     46  C   UNL A   1      41.331  25.343  28.115  1.00  0.00     0.029 A 
ATOM     47  C   UNL A   1      42.734  25.604  27.792  1.00  0.00     0.049 A 
ATOM     48  H   UNL A   1      43.751  27.414  27.960  1.00  0.00     0.167 HD
ATOM     49  C   UNL A   1      45.756  31.293  28.284  1.00  0.00     0.037 A 
ATOM     50  C   UNL A   1      43.616  24.695  27.330  1.00  0.00     0.037 A 
ATOM     51  C   UNL A   1      46.779  30.378  27.848  1.00  0.00     0.049 A 
ATOM     52  C   UNL A   1      45.037  25.118  27.050  1.00  0.00     0.074 A 
ATOM     53  C   UNL A   1      48.120  30.633  27.617  1.00  0.00     0.029 A 
ATOM     54  N   UNL A   1      46.576  29.034  27.577  1.00  0.00    -0.354 N 
ATOM     55  N   UNL A   1      45.594  26.296  27.206  1.00  0.00    -0.248 NA
ATOM     56  C   UNL A   1      45.950  24.088  26.533  1.00  0.00     0.031 C 
ATOM     57  C   UNL A   1      48.720  29.451  27.169  1.00  0.00     0.029 A 
ATOM     58  C   UNL A   1      47.763  28.450  27.165  1.00  0.00     0.049 A 
ATOM     59  H   UNL A   1      45.715  28.562  27.664  1.00  0.00     0.167 HD
ATOM     60  C   UNL A   1      46.925  26.141  26.834  1.00  0.00     0.074 A 
ATOM     61  C   UNL A   1      47.094  24.753  26.456  1.00  0.00     0.031 C 
ATOM     62  C   UNL A   1      47.919  27.062  26.806  1.00  0.00     0.037 A 
BRANCH  49  63
ATOM     63  C   UNL A   1      46.145  32.725  28.520  1.00  0.00     0.058 A 
ATOM     64  C   UNL A   1      46.796  33.125  29.697  1.00  0.00     0.135 A 
ATOM     65  C   UNL A   1      45.919  33.699  27.533  1.00  0.00     0.135 A 
ATOM     66  F   UNL A   1      47.020  32.239  30.681  1.00  0.00    -0.206 F 
ATOM     67  C   UNL A   1      47.201  34.442  29.893  1.00  0.00     0.059 A 
ATOM     68  C   UNL A   1      46.335  35.016  27.697  1.00  0.00     0.059 A 
ATOM     69  F   UNL A   1      45.298  33.369  26.389  1.00  0.00    -0.206 F 
ATOM     70  C   UNL A   1      46.968  35.381  28.885  1.00  0.00     0.060 A 
BRANCH  70  71
ATOM     71  S   UNL A   1      47.523  37.079  29.142  1.00  0.00     0.124 S 
ATOM     72  O   UNL A   1      47.075  37.328  30.508  1.00  0.00    -0.237 OA
ATOM     73  O   UNL A   1      48.966  36.968  28.959  1.00  0.00    -0.237 OA
ATOM     74  O   UNL A   1      46.820  37.828  28.106  1.00  0.00    -0.744 OA
ENDBRANCH  70  71
ENDBRANCH  49  63
BRANCH  50  75
ATOM     75  C   UNL A   1      43.184  23.295  27.072  1.00  0.00     0.058 A 
ATOM     76  C   UNL A   1      43.056  22.367  28.116  1.00  0.00     0.135 A 
ATOM     77  C   UNL A   1      42.920  22.849  25.767  1.00  0.00     0.135 A 
ATOM     78  F   UNL A   1      43.309  22.741  29.380  1.00  0.00    -0.206 F 
ATOM     79  C   UNL A   1      42.708  21.041  27.874  1.00  0.00     0.059 A 
ATOM     80  C   UNL A   1      42.545  21.536  25.502  1.00  0.00     0.059 A 
ATOM     81  F   UNL A   1      43.022  23.699  24.733  1.00  0.00    -0.206 F 
ATOM     82  C   UNL A   1      42.457  20.636  26.562  1.00  0.00     0.060 A 
BRANCH  82  83
ATOM     83  S   UNL A   1      41.986  18.919  26.256  1.00  0.00     0.124 S 
ATOM     84  O   UNL A   1      42.960  18.522  25.247  1.00  0.00    -0.237 OA
ATOM     85  O   UNL A   1      42.149  18.313  27.575  1.00  0.00    -0.237 OA
ATOM     86  O   UNL A   1      40.606  19.028  25.794  1.00  0.00    -0.744 OA
ENDBRANCH  82  83
ENDBRANCH  50  75
BRANCH  62  87
ATOM     87  C   UNL A   1      49.289  26.599  26.392  1.00  0.00     0.058 A 
ATOM     88  C   UNL A   1      49.773  26.798  25.091  1.00  0.00     0.135 A 
ATOM     89  C   UNL A   1      50.147  25.994  27.326  1.00  0.00     0.135 A 
ATOM     90  F   UNL A   1      48.992  27.367  24.159  1.00  0.00    -0.206 F 
ATOM     91  C   UNL A   1      51.052  26.394  24.722  1.00  0.00     0.059 A 
ATOM     92  C   UNL A   1      51.439  25.607  26.986  1.00  0.00     0.059 A 
ATOM     93  F   UNL A   1      49.737  25.791  28.588  1.00  0.00    -0.206 F 
ATOM     94  C   UNL A   1      51.879  25.799  25.677  1.00  0.00     0.060 A 
BRANCH  94  95
ATOM     95  S   UNL A   1      53.549  25.310  25.197  1.00  0.00     0.124 S 
ATOM     96  O   UNL A   1      53.479  23.858  25.326  1.00  0.00    -0.237 OA
ATOM     97  O   UNL A   1      53.645  25.822  23.833  1.00  0.00    -0.237 OA
ATOM     98  O   UNL A   1      54.397  25.987  26.174  1.00  0.00    -0.744 OA
ENDBRANCH  94  95
ENDBRANCH  62  87
ENDBRANCH  36  37
ENDBRANCH  29  31
ENDBRANCH  28  29
ENDBRANCH  27  28
ENDBRANCH  26  27
ENDBRANCH  25  26
ENDBRANCH   1  25
TORSDOF 21
ENDMDL
MODEL 2
REMARK VINA RESULT:     -10.7      1.603      2.501
REMARK SMILES CC(C)(Oc1ccc(Cl)cc1)C(=O)N1CCC[C@H](C(=O)OCCOCCOC(=O)c2ccc(-c3c4nc(c(-c5c(F)cc(S(=O)(=O)[O-])cc5F)c5ccc([nH]5)c(-c5c(F)cc(S(=O)(=O)[O-])cc5F)c5nc(c(-c6c(F)cc(S(=O)(=O)[O-])cc6F)c6ccc3[nH]6)C=C5)C=C4)cc2)C1
REMARK SMILES IDX 23 1 22 2 21 3 19 4 20 5 18 6 14 7 15 8 96 9 16 10 17 11
REMARK SMILES IDX 12 12 13 13 2 14 1 15 3 16 4 17 5 18 6 19 11 20 7 21 10 22
REMARK SMILES IDX 8 23 9 24 24 25 25 26 26 27 27 28 28 29 29 30 30 31 31 32
REMARK SMILES IDX 95 33 32 34 94 35 33 36 34 37 35 38 88 39 36 40 93 41 87 42
REMARK SMILES IDX 89 43 37 44 92 45 86 46 85 47 38 49 72 50 51 51 71 52 52 53
REMARK SMILES IDX 55 54 70 55 90 56 53 57 54 58 69 60 91 61 56 62 39 63 40 64
REMARK SMILES IDX 49 65 41 66 42 67 48 68 50 69 43 70 44 71 45 72 46 73 47 74
REMARK SMILES IDX 73 75 74 76 83 77 75 78 76 79 82 80 84 81 77 82 78 83 79 84
REMARK SMILES IDX 80 85 81 86 57 87 58 88 67 89 59 90 60 91 66 92 68 93 61 94
REMARK SMILES IDX 62 95 63 96 64 97 65 98
REMARK H PARENT 89 48 55 59
REMARK Flexibility Score: inf
ROOT
ATOM      1  C   UNL A   1      31.810  29.148  26.761  1.00  0.00     0.202 C 
ENDROOT
BRANCH   1   2
ATOM      2  C   UNL A   1      31.735  27.664  26.387  1.00  0.00     0.261 C 
BRANCH   2   3
ATOM      3  O   UNL A   1      31.049  27.485  25.134  1.00  0.00    -0.463 OA
BRANCH   3   4
ATOM      4  C   UNL A   1      30.368  26.328  24.959  1.00  0.00     0.310 C 
ATOM      5  O   UNL A   1      29.848  25.668  25.852  1.00  0.00    -0.252 OA
BRANCH   4   6
ATOM      6  C   UNL A   1      30.322  25.887  23.506  1.00  0.00     0.119 C 
ATOM      7  N   UNL A   1      32.028  24.114  23.461  1.00  0.00    -0.338 N 
ATOM      8  C   UNL A   1      32.811  24.778  22.425  1.00  0.00     0.119 C 
ATOM      9  C   UNL A   1      30.596  24.384  23.424  1.00  0.00     0.135 C 
ATOM     10  C   UNL A   1      32.666  26.289  22.515  1.00  0.00     0.022 C 
ATOM     11  C   UNL A   1      31.190  26.693  22.522  1.00  0.00     0.019 C 
BRANCH   7  12
ATOM     12  C   UNL A   1      32.698  23.599  24.569  1.00  0.00     0.266 C 
ATOM     13  O   UNL A   1      32.783  24.280  25.597  1.00  0.00    -0.270 OA
BRANCH  12  14
ATOM     14  C   UNL A   1      33.423  22.211  24.444  1.00  0.00     0.181 C 
ATOM     15  C   UNL A   1      32.443  21.284  23.694  1.00  0.00     0.067 C 
ATOM     16  C   UNL A   1      33.647  21.664  25.869  1.00  0.00     0.067 C 
BRANCH  14  17
ATOM     17  O   UNL A   1      34.646  22.387  23.691  1.00  0.00    -0.478 OA
BRANCH  17  18
ATOM     18  C   UNL A   1      35.809  22.473  24.412  1.00  0.00     0.121 A 
ATOM     19  C   UNL A   1      36.192  23.639  25.075  1.00  0.00     0.048 A 
ATOM     20  C   UNL A   1      36.583  21.319  24.547  1.00  0.00     0.048 A 
ATOM     21  C   UNL A   1      37.399  23.685  25.778  1.00  0.00     0.024 A 
ATOM     22  C   UNL A   1      37.783  21.357  25.263  1.00  0.00     0.024 A 
ATOM     23  C   UNL A   1      38.196  22.546  25.861  1.00  0.00     0.041 A 
ATOM     24  Cl  UNL A   1      39.685  22.601  26.720  1.00  0.00    -0.084 Cl
ENDBRANCH  17  18
ENDBRANCH  14  17
ENDBRANCH  12  14
ENDBRANCH   7  12
ENDBRANCH   4   6
ENDBRANCH   3   4
ENDBRANCH   2   3
ENDBRANCH   1   2
BRANCH   1  25
ATOM     25  O   UNL A   1      32.863  29.892  26.141  1.00  0.00    -0.374 OA
BRANCH  25  26
ATOM     26  C   UNL A   1      34.194  29.577  26.543  1.00  0.00     0.202 C 
BRANCH  26  27
ATOM     27  C   UNL A   1      34.622  30.068  27.932  1.00  0.00     0.261 C 
BRANCH  27  28
ATOM     28  O   UNL A   1      35.709  29.304  28.485  1.00  0.00    -0.460 OA
BRANCH  28  29
ATOM     29  C   UNL A   1      36.419  29.950  29.440  1.00  0.00     0.338 C 
ATOM     30  O   UNL A   1      35.983  30.433  30.479  1.00  0.00    -0.246 OA
BRANCH  29  31
ATOM     31  C   UNL A   1      37.864  29.882  29.157  1.00  0.00     0.060 A 
ATOM     32  C   UNL A   1      38.249  29.690  27.824  1.00  0.00     0.016 A 
ATOM     33  C   UNL A   1      38.821  29.899  30.174  1.00  0.00     0.016 A 
ATOM     34  C   UNL A   1      39.586  29.464  27.508  1.00  0.00     0.010 A 
ATOM     35  C   UNL A   1      40.166  29.664  29.854  1.00  0.00     0.010 A 
ATOM     36  C   UNL A   1      40.549  29.406  28.525  1.00  0.00    -0.014 A 
BRANCH  36  37
ATOM     37  C   UNL A   1      41.920  28.936  28.203  1.00  0.00     0.031 A 
ATOM     38  C   UNL A   1      43.050  29.932  28.185  1.00  0.00     0.074 A 
ATOM     39  C   UNL A   1      42.167  27.631  27.982  1.00  0.00     0.049 A 
ATOM     40  N   UNL A   1      44.316  29.745  27.914  1.00  0.00    -0.248 NA
ATOM     41  C   UNL A   1      42.707  31.324  28.520  1.00  0.00     0.031 C 
ATOM     42  C   UNL A   1      41.166  26.566  28.008  1.00  0.00     0.029 A 
ATOM     43  N   UNL A   1      43.340  26.983  27.687  1.00  0.00    -0.354 N 
ATOM     44  C   UNL A   1      44.921  30.990  28.045  1.00  0.00     0.074 A 
ATOM     45  C   UNL A   1      43.878  31.932  28.389  1.00  0.00     0.031 C 
ATOM     46  C   UNL A   1      41.767  25.395  27.733  1.00  0.00     0.029 A 
ATOM     47  C   UNL A   1      43.188  25.632  27.480  1.00  0.00     0.049 A 
ATOM     48  H   UNL A   1      44.210  27.441  27.629  1.00  0.00     0.167 HD
ATOM     49  C   UNL A   1      46.227  31.317  27.902  1.00  0.00     0.037 A 
ATOM     50  C   UNL A   1      44.086  24.699  27.109  1.00  0.00     0.037 A 
ATOM     51  C   UNL A   1      47.265  30.377  27.565  1.00  0.00     0.049 A 
ATOM     52  C   UNL A   1      45.524  25.100  26.893  1.00  0.00     0.074 A 
ATOM     53  C   UNL A   1      48.620  30.614  27.401  1.00  0.00     0.029 A 
ATOM     54  N   UNL A   1      47.066  29.024  27.340  1.00  0.00    -0.354 N 
ATOM     55  N   UNL A   1      46.082  26.280  27.030  1.00  0.00    -0.248 NA
ATOM     56  C   UNL A   1      46.456  24.042  26.474  1.00  0.00     0.031 C 
ATOM     57  C   UNL A   1      49.233  29.410  27.039  1.00  0.00     0.029 A 
ATOM     58  C   UNL A   1      48.269  28.415  27.022  1.00  0.00     0.049 A 
ATOM     59  H   UNL A   1      46.197  28.563  27.398  1.00  0.00     0.167 HD
ATOM     60  C   UNL A   1      47.431  26.100  26.742  1.00  0.00     0.074 A 
ATOM     61  C   UNL A   1      47.609  24.696  26.434  1.00  0.00     0.031 C 
ATOM     62  C   UNL A   1      48.433  27.013  26.732  1.00  0.00     0.037 A 
BRANCH  49  63
ATOM     63  C   UNL A   1      46.615  32.756  28.099  1.00  0.00     0.058 A 
ATOM     64  C   UNL A   1      47.071  33.231  29.339  1.00  0.00     0.135 A 
ATOM     65  C   UNL A   1      46.589  33.656  27.022  1.00  0.00     0.135 A 
ATOM     66  F   UNL A   1      47.098  32.417  30.406  1.00  0.00    -0.206 F 
ATOM     67  C   UNL A   1      47.477  34.551  29.506  1.00  0.00     0.059 A 
ATOM     68  C   UNL A   1      47.012  34.974  27.160  1.00  0.00     0.059 A 
ATOM     69  F   UNL A   1      46.159  33.253  25.815  1.00  0.00    -0.206 F 
ATOM     70  C   UNL A   1      47.447  35.415  28.410  1.00  0.00     0.060 A 
BRANCH  70  71
ATOM     71  S   UNL A   1      48.003  37.117  28.637  1.00  0.00     0.124 S 
ATOM     72  O   UNL A   1      47.311  37.489  29.867  1.00  0.00    -0.237 OA
ATOM     73  O   UNL A   1      49.449  36.963  28.746  1.00  0.00    -0.237 OA
ATOM     74  O   UNL A   1      47.538  37.792  27.429  1.00  0.00    -0.744 OA
ENDBRANCH  70  71
ENDBRANCH  49  63
BRANCH  50  75
ATOM     75  C   UNL A   1      43.657  23.292  26.886  1.00  0.00     0.058 A 
ATOM     76  C   UNL A   1      43.529  22.764  25.592  1.00  0.00     0.135 A 
ATOM     77  C   UNL A   1      43.335  22.455  27.966  1.00  0.00     0.135 A 
ATOM     78  F   UNL A   1      43.812  23.528  24.526  1.00  0.00    -0.206 F 
ATOM     79  C   UNL A   1      43.071  21.467  25.375  1.00  0.00     0.059 A 
ATOM     80  C   UNL A   1      42.902  21.147  27.777  1.00  0.00     0.059 A 
ATOM     81  F   UNL A   1      43.447  22.908  29.224  1.00  0.00    -0.206 F 
ATOM     82  C   UNL A   1      42.759  20.667  26.475  1.00  0.00     0.060 A 
BRANCH  82  83
ATOM     83  S   UNL A   1      42.186  18.978  26.190  1.00  0.00     0.124 S 
ATOM     84  O   UNL A   1      40.789  19.198  25.835  1.00  0.00    -0.237 OA
ATOM     85  O   UNL A   1      43.058  18.535  25.106  1.00  0.00    -0.237 OA
ATOM     86  O   UNL A   1      42.417  18.325  27.474  1.00  0.00    -0.744 OA
ENDBRANCH  82  83
ENDBRANCH  50  75
BRANCH  62  87
ATOM     87  C   UNL A   1      49.820  26.523  26.418  1.00  0.00     0.058 A 
ATOM     88  C   UNL A   1      50.340  26.566  25.116  1.00  0.00     0.135 A 
ATOM     89  C   UNL A   1      50.657  26.053  27.444  1.00  0.00     0.135 A 
ATOM     90  F   UNL A   1      49.580  27.002  24.099  1.00  0.00    -0.206 F 
ATOM     91  C   UNL A   1      51.635  26.140  24.836  1.00  0.00     0.059 A 
ATOM     92  C   UNL A   1      51.964  25.647  27.191  1.00  0.00     0.059 A 
ATOM     93  F   UNL A   1      50.213  26.002  28.709  1.00  0.00    -0.206 F 
ATOM     94  C   UNL A   1      52.440  25.682  25.881  1.00  0.00     0.060 A 
BRANCH  94  95
ATOM     95  S   UNL A   1      54.129  25.163  25.512  1.00  0.00     0.124 S 
ATOM     96  O   UNL A   1      54.823  25.516  26.746  1.00  0.00    -0.237 OA
ATOM     97  O   UNL A   1      53.971  23.733  25.260  1.00  0.00    -0.237 OA
ATOM     98  O   UNL A   1      54.483  25.962  24.342  1.00  0.00    -0.744 OA
ENDBRANCH  94  95
ENDBRANCH  62  87
ENDBRANCH  36  37
ENDBRANCH  29  31
ENDBRANCH  28  29
ENDBRANCH  27  28
ENDBRANCH  26  27
ENDBRANCH  25  26
ENDBRANCH   1  25
TORSDOF 21
ENDMDL
MODEL 3
REMARK VINA RESULT:     -10.4      6.160     10.679
REMARK SMILES CC(C)(Oc1ccc(Cl)cc1)C(=O)N1CCC[C@H](C(=O)OCCOCCOC(=O)c2ccc(-c3c4nc(c(-c5c(F)cc(S(=O)(=O)[O-])cc5F)c5ccc([nH]5)c(-c5c(F)cc(S(=O)(=O)[O-])cc5F)c5nc(c(-c6c(F)cc(S(=O)(=O)[O-])cc6F)c6ccc3[nH]6)C=C5)C=C4)cc2)C1
REMARK SMILES IDX 23 1 22 2 21 3 19 4 20 5 18 6 14 7 15 8 96 9 16 10 17 11
REMARK SMILES IDX 12 12 13 13 2 14 1 15 3 16 4 17 5 18 6 19 11 20 7 21 10 22
REMARK SMILES IDX 8 23 9 24 24 25 25 26 26 27 27 28 28 29 29 30 30 31 31 32
REMARK SMILES IDX 95 33 32 34 94 35 33 36 34 37 35 38 88 39 36 40 93 41 87 42
REMARK SMILES IDX 89 43 37 44 92 45 86 46 85 47 38 49 72 50 51 51 71 52 52 53
REMARK SMILES IDX 55 54 70 55 90 56 53 57 54 58 69 60 91 61 56 62 39 63 40 64
REMARK SMILES IDX 49 65 41 66 42 67 48 68 50 69 43 70 44 71 45 72 46 73 47 74
REMARK SMILES IDX 73 75 74 76 83 77 75 78 76 79 82 80 84 81 77 82 78 83 79 84
REMARK SMILES IDX 80 85 81 86 57 87 58 88 67 89 59 90 60 91 66 92 68 93 61 94
REMARK SMILES IDX 62 95 63 96 64 97 65 98
REMARK H PARENT 89 48 55 59
REMARK Flexibility Score: inf
ROOT
ATOM      1  C   UNL A   1      33.081  29.732  26.579  1.00  0.00     0.202 C 
ENDROOT
BRANCH   1   2
ATOM      2  C   UNL A   1      33.599  28.902  25.400  1.00  0.00     0.261 C 
BRANCH   2   3
ATOM      3  O   UNL A   1      32.920  27.635  25.327  1.00  0.00    -0.463 OA
BRANCH   3   4
ATOM      4  C   UNL A   1      31.657  27.635  24.840  1.00  0.00     0.310 C 
ATOM      5  O   UNL A   1      31.213  28.428  24.017  1.00  0.00    -0.252 OA
BRANCH   4   6
ATOM      6  C   UNL A   1      30.794  26.539  25.444  1.00  0.00     0.119 C 
ATOM      7  N   UNL A   1      31.968  24.507  24.704  1.00  0.00    -0.338 N 
ATOM      8  C   UNL A   1      30.795  23.978  24.018  1.00  0.00     0.119 C 
ATOM      9  C   UNL A   1      31.683  25.362  25.849  1.00  0.00     0.135 C 
ATOM     10  C   UNL A   1      29.915  25.103  23.494  1.00  0.00     0.022 C 
ATOM     11  C   UNL A   1      29.578  26.094  24.611  1.00  0.00     0.019 C 
BRANCH   7  12
ATOM     12  C   UNL A   1      33.194  24.468  24.043  1.00  0.00     0.266 C 
ATOM     13  O   UNL A   1      33.388  25.220  23.081  1.00  0.00    -0.270 OA
BRANCH  12  14
ATOM     14  C   UNL A   1      34.256  23.391  24.468  1.00  0.00     0.181 C 
ATOM     15  C   UNL A   1      35.341  24.152  25.260  1.00  0.00     0.067 C 
ATOM     16  C   UNL A   1      34.881  22.810  23.183  1.00  0.00     0.067 C 
BRANCH  14  17
ATOM     17  O   UNL A   1      33.610  22.398  25.300  1.00  0.00    -0.478 OA
BRANCH  17  18
ATOM     18  C   UNL A   1      33.652  21.101  24.859  1.00  0.00     0.121 A 
ATOM     19  C   UNL A   1      34.736  20.261  25.113  1.00  0.00     0.048 A 
ATOM     20  C   UNL A   1      32.526  20.594  24.209  1.00  0.00     0.048 A 
ATOM     21  C   UNL A   1      34.743  18.952  24.622  1.00  0.00     0.024 A 
ATOM     22  C   UNL A   1      32.522  19.280  23.731  1.00  0.00     0.024 A 
ATOM     23  C   UNL A   1      33.639  18.469  23.923  1.00  0.00     0.041 A 
ATOM     24  Cl  UNL A   1      33.647  16.861  23.311  1.00  0.00    -0.084 Cl
ENDBRANCH  17  18
ENDBRANCH  14  17
ENDBRANCH  12  14
ENDBRANCH   7  12
ENDBRANCH   4   6
ENDBRANCH   3   4
ENDBRANCH   2   3
ENDBRANCH   1   2
BRANCH   1  25
ATOM     25  O   UNL A   1      34.054  30.086  27.566  1.00  0.00    -0.374 OA
BRANCH  25  26
ATOM     26  C   UNL A   1      34.395  31.466  27.665  1.00  0.00     0.202 C 
BRANCH  26  27
ATOM     27  C   UNL A   1      33.227  32.460  27.658  1.00  0.00     0.261 C 
BRANCH  27  28
ATOM     28  O   UNL A   1      33.659  33.831  27.575  1.00  0.00    -0.460 OA
BRANCH  28  29
ATOM     29  C   UNL A   1      33.480  34.544  28.713  1.00  0.00     0.338 C 
ATOM     30  O   UNL A   1      32.526  35.265  28.985  1.00  0.00    -0.246 OA
BRANCH  29  31
ATOM     31  C   UNL A   1      34.530  34.234  29.699  1.00  0.00     0.060 A 
ATOM     32  C   UNL A   1      35.861  34.390  29.290  1.00  0.00     0.016 A 
ATOM     33  C   UNL A   1      34.236  33.705  30.957  1.00  0.00     0.016 A 
ATOM     34  C   UNL A   1      36.901  33.970  30.115  1.00  0.00     0.010 A 
ATOM     35  C   UNL A   1      35.284  33.276  31.784  1.00  0.00     0.010 A 
ATOM     36  C   UNL A   1      36.618  33.371  31.351  1.00  0.00    -0.014 A 
BRANCH  36  37
ATOM     37  C   UNL A   1      37.716  32.721  32.111  1.00  0.00     0.031 A 
ATOM     38  C   UNL A   1      38.397  31.512  31.524  1.00  0.00     0.074 A 
ATOM     39  C   UNL A   1      38.140  33.232  33.282  1.00  0.00     0.049 A 
ATOM     40  N   UNL A   1      39.361  30.780  32.020  1.00  0.00    -0.248 NA
ATOM     41  C   UNL A   1      37.927  31.069  30.201  1.00  0.00     0.031 C 
ATOM     42  C   UNL A   1      37.589  34.418  33.935  1.00  0.00     0.029 A 
ATOM     43  N   UNL A   1      39.132  32.810  34.133  1.00  0.00    -0.354 N 
ATOM     44  C   UNL A   1      39.616  29.794  31.074  1.00  0.00     0.074 A 
ATOM     45  C   UNL A   1      38.683  30.000  29.987  1.00  0.00     0.031 C 
ATOM     46  C   UNL A   1      38.246  34.626  35.090  1.00  0.00     0.029 A 
ATOM     47  C   UNL A   1      39.242  33.571  35.273  1.00  0.00     0.049 A 
ATOM     48  H   UNL A   1      39.711  32.036  33.944  1.00  0.00     0.167 HD
ATOM     49  C   UNL A   1      40.549  28.813  31.102  1.00  0.00     0.037 A 
ATOM     50  C   UNL A   1      40.040  33.421  36.349  1.00  0.00     0.037 A 
ATOM     51  C   UNL A   1      41.480  28.612  32.182  1.00  0.00     0.049 A 
ATOM     52  C   UNL A   1      41.027  32.281  36.385  1.00  0.00     0.074 A 
ATOM     53  C   UNL A   1      42.465  27.646  32.300  1.00  0.00     0.029 A 
ATOM     54  N   UNL A   1      41.543  29.388  33.329  1.00  0.00    -0.354 N 
ATOM     55  N   UNL A   1      41.262  31.362  35.478  1.00  0.00    -0.248 NA
ATOM     56  C   UNL A   1      41.859  32.158  37.591  1.00  0.00     0.031 C 
ATOM     57  C   UNL A   1      43.098  27.815  33.536  1.00  0.00     0.029 A 
ATOM     58  C   UNL A   1      42.539  28.914  34.167  1.00  0.00     0.049 A 
ATOM     59  H   UNL A   1      40.966  30.164  33.520  1.00  0.00     0.167 HD
ATOM     60  C   UNL A   1      42.285  30.572  35.991  1.00  0.00     0.074 A 
ATOM     61  C   UNL A   1      42.633  31.127  37.283  1.00  0.00     0.031 C 
ATOM     62  C   UNL A   1      42.884  29.485  35.445  1.00  0.00     0.037 A 
BRANCH  49  63
ATOM     63  C   UNL A   1      40.607  27.868  29.935  1.00  0.00     0.058 A 
ATOM     64  C   UNL A   1      39.638  26.870  29.748  1.00  0.00     0.135 A 
ATOM     65  C   UNL A   1      41.608  27.999  28.959  1.00  0.00     0.135 A 
ATOM     66  F   UNL A   1      38.669  26.689  30.661  1.00  0.00    -0.206 F 
ATOM     67  C   UNL A   1      39.665  26.028  28.641  1.00  0.00     0.059 A 
ATOM     68  C   UNL A   1      41.642  27.184  27.833  1.00  0.00     0.059 A 
ATOM     69  F   UNL A   1      42.561  28.936  29.092  1.00  0.00    -0.206 F 
ATOM     70  C   UNL A   1      40.670  26.195  27.686  1.00  0.00     0.060 A 
BRANCH  70  71
ATOM     71  S   UNL A   1      40.676  25.113  26.241  1.00  0.00     0.124 S 
ATOM     72  O   UNL A   1      39.271  24.727  26.160  1.00  0.00    -0.237 OA
ATOM     73  O   UNL A   1      41.151  26.001  25.186  1.00  0.00    -0.237 OA
ATOM     74  O   UNL A   1      41.598  24.046  26.618  1.00  0.00    -0.744 OA
ENDBRANCH  70  71
ENDBRANCH  49  63
BRANCH  50  75
ATOM     75  C   UNL A   1      39.926  34.354  37.502  1.00  0.00     0.058 A 
ATOM     76  C   UNL A   1      40.601  35.584  37.514  1.00  0.00     0.135 A 
ATOM     77  C   UNL A   1      39.162  34.018  38.631  1.00  0.00     0.135 A 
ATOM     78  F   UNL A   1      41.354  35.946  36.464  1.00  0.00    -0.206 F 
ATOM     79  C   UNL A   1      40.545  36.435  38.614  1.00  0.00     0.059 A 
ATOM     80  C   UNL A   1      39.069  34.863  39.731  1.00  0.00     0.059 A 
ATOM     81  F   UNL A   1      38.491  32.856  38.668  1.00  0.00    -0.206 F 
ATOM     82  C   UNL A   1      39.777  36.064  39.719  1.00  0.00     0.060 A 
BRANCH  82  83
ATOM     83  S   UNL A   1      39.691  37.182  41.135  1.00  0.00     0.124 S 
ATOM     84  O   UNL A   1      41.100  37.329  41.480  1.00  0.00    -0.237 OA
ATOM     85  O   UNL A   1      39.048  38.360  40.561  1.00  0.00    -0.237 OA
ATOM     86  O   UNL A   1      38.880  36.442  42.096  1.00  0.00    -0.744 OA
ENDBRANCH  82  83
ENDBRANCH  50  75
BRANCH  62  87
ATOM     87  C   UNL A   1      44.004  28.844  36.217  1.00  0.00     0.058 A 
ATOM     88  C   UNL A   1      43.800  27.692  36.991  1.00  0.00     0.135 A 
ATOM     89  C   UNL A   1      45.308  29.359  36.137  1.00  0.00     0.135 A 
ATOM     90  F   UNL A   1      42.572  27.162  37.105  1.00  0.00    -0.206 F 
ATOM     91  C   UNL A   1      44.846  27.085  37.679  1.00  0.00     0.059 A 
ATOM     92  C   UNL A   1      46.374  28.753  36.795  1.00  0.00     0.059 A 
ATOM     93  F   UNL A   1      45.560  30.452  35.400  1.00  0.00    -0.206 F 
ATOM     94  C   UNL A   1      46.131  27.623  37.574  1.00  0.00     0.060 A 
BRANCH  94  95
ATOM     95  S   UNL A   1      47.487  26.807  38.444  1.00  0.00     0.124 S 
ATOM     96  O   UNL A   1      47.269  25.410  38.084  1.00  0.00    -0.237 OA
ATOM     97  O   UNL A   1      48.663  27.438  37.854  1.00  0.00    -0.237 OA
ATOM     98  O   UNL A   1      47.242  27.140  39.845  1.00  0.00    -0.744 OA
ENDBRANCH  94  95
ENDBRANCH  62  87
ENDBRANCH  36  37
ENDBRANCH  29  31
ENDBRANCH  28  29
ENDBRANCH  27  28
ENDBRANCH  26  27
ENDBRANCH  25  26
ENDBRANCH   1  25
TORSDOF 21
ENDMDL
