MODEL 1
REMARK VINA RESULT:      -9.4      0.000      0.000
REMARK SMILES CCOc1ccc2c(c1)=N[C@H](SCC(=O)OCCOCCOC(=O)c1ccc(-c3c4nc(c(-c5c(F)cc(S(=O)(=O)[O-])cc5F)c5ccc([nH]5)c(-c5c(F)cc(S(=O)(=O)[O-])cc5F)c5nc(c(-c6c(F)cc(S(=O)(=O)[O-])cc6F)c6ccc3[nH]6)C=C5)C=C4)cc1)N=2
REMARK SMILES IDX 18 1 17 2 16 3 14 4 15 5 13 6 12 7 11 8 4 9 5 10 9 11 6 12
REMARK SMILES IDX 8 13 7 14 10 15 91 16 3 17 2 18 1 19 19 20 20 21 21 22 22 23
REMARK SMILES IDX 23 24 24 25 25 26 26 27 90 28 27 29 89 30 28 31 29 32 30 33
REMARK SMILES IDX 83 34 31 35 88 36 82 37 84 38 32 39 87 40 81 41 80 42 33 44
REMARK SMILES IDX 67 45 46 46 66 47 47 48 50 49 65 50 85 51 48 52 49 53 64 55
REMARK SMILES IDX 86 56 51 57 34 58 35 59 44 60 36 61 37 62 43 63 45 64 38 65
REMARK SMILES IDX 39 66 40 67 41 68 42 69 68 70 69 71 78 72 70 73 71 74 77 75
REMARK SMILES IDX 79 76 72 77 73 78 74 79 75 80 76 81 52 82 53 83 62 84 54 85
REMARK SMILES IDX 55 86 61 87 63 88 56 89 57 90 58 91 59 92 60 93
REMARK H PARENT 84 43 50 54
REMARK Flexibility Score: inf
ROOT
ATOM      1  C   UNL A   1      33.406  36.184  28.698  1.00  0.00     0.202 C 
ENDROOT
BRANCH   1   2
ATOM      2  C   UNL A   1      33.242  37.248  29.790  1.00  0.00     0.261 C 
BRANCH   2   3
ATOM      3  O   UNL A   1      32.600  36.719  30.968  1.00  0.00    -0.463 OA
BRANCH   3   4
ATOM      4  C   UNL A   1      33.301  36.838  32.131  1.00  0.00     0.316 C 
ATOM      5  O   UNL A   1      33.493  37.903  32.714  1.00  0.00    -0.251 OA
BRANCH   4   6
ATOM      6  C   UNL A   1      33.677  35.516  32.763  1.00  0.00     0.196 C 
BRANCH   6   7
ATOM      7  S   UNL A   1      35.043  34.628  31.963  1.00  0.00    -0.100 SA
BRANCH   7   8
ATOM      8  C   UNL A   1      35.202  33.228  33.128  1.00  0.00     0.282 C 
ATOM      9  C   UNL A   1      38.533  30.445  34.380  1.00  0.00     0.121 A 
ATOM     10  C   UNL A   1      38.539  31.353  35.514  1.00  0.00     0.049 A 
ATOM     11  C   UNL A   1      37.696  30.587  33.341  1.00  0.00     0.076 A 
ATOM     12  C   UNL A   1      37.709  32.401  35.625  1.00  0.00     0.034 A 
ATOM     13  C   UNL A   1      36.735  31.696  33.388  1.00  0.00     0.090 A 
ATOM     14  C   UNL A   1      36.753  32.626  34.535  1.00  0.00     0.087 A 
ATOM     15  N   UNL A   1      35.832  32.016  32.531  1.00  0.00    -0.246 NA
ATOM     16  N   UNL A   1      35.876  33.560  34.419  1.00  0.00    -0.246 NA
BRANCH   9  17
ATOM     17  O   UNL A   1      39.573  29.545  34.333  1.00  0.00    -0.494 OA
BRANCH  17  18
ATOM     18  C   UNL A   1      40.203  29.411  33.055  1.00  0.00     0.226 C 
ATOM     19  C   UNL A   1      41.570  28.764  33.206  1.00  0.00     0.049 C 
ENDBRANCH  17  18
ENDBRANCH   9  17
ENDBRANCH   7   8
ENDBRANCH   6   7
ENDBRANCH   4   6
ENDBRANCH   3   4
ENDBRANCH   2   3
ENDBRANCH   1   2
BRANCH   1  20
ATOM     20  O   UNL A   1      32.918  34.876  29.004  1.00  0.00    -0.374 OA
BRANCH  20  21
ATOM     21  C   UNL A   1      33.311  33.807  28.146  1.00  0.00     0.202 C 
BRANCH  21  22
ATOM     22  C   UNL A   1      34.647  33.123  28.464  1.00  0.00     0.261 C 
BRANCH  22  23
ATOM     23  O   UNL A   1      34.484  31.869  29.154  1.00  0.00    -0.460 OA
BRANCH  23  24
ATOM     24  C   UNL A   1      34.573  30.773  28.362  1.00  0.00     0.338 C 
ATOM     25  O   UNL A   1      33.729  30.378  27.565  1.00  0.00    -0.246 OA
BRANCH  24  26
ATOM     26  C   UNL A   1      35.922  30.178  28.423  1.00  0.00     0.060 A 
ATOM     27  C   UNL A   1      36.758  30.118  27.308  1.00  0.00     0.016 A 
ATOM     28  C   UNL A   1      36.390  29.774  29.681  1.00  0.00     0.016 A 
ATOM     29  C   UNL A   1      38.088  29.695  27.470  1.00  0.00     0.010 A 
ATOM     30  C   UNL A   1      37.710  29.346  29.836  1.00  0.00     0.010 A 
ATOM     31  C   UNL A   1      38.581  29.328  28.737  1.00  0.00    -0.014 A 
BRANCH  31  32
ATOM     32  C   UNL A   1      40.027  29.052  28.956  1.00  0.00     0.031 A 
ATOM     33  C   UNL A   1      40.630  27.714  28.640  1.00  0.00     0.074 A 
ATOM     34  C   UNL A   1      40.791  30.004  29.529  1.00  0.00     0.049 A 
ATOM     35  N   UNL A   1      41.874  27.323  28.760  1.00  0.00    -0.248 NA
ATOM     36  C   UNL A   1      39.717  26.676  28.143  1.00  0.00     0.031 C 
ATOM     37  C   UNL A   1      40.312  31.320  29.951  1.00  0.00     0.029 A 
ATOM     38  N   UNL A   1      42.122  30.008  29.868  1.00  0.00    -0.354 N 
ATOM     39  C   UNL A   1      41.901  25.998  28.341  1.00  0.00     0.074 A 
ATOM     40  C   UNL A   1      40.536  25.639  28.010  1.00  0.00     0.031 C 
ATOM     41  C   UNL A   1      41.335  32.009  30.480  1.00  0.00     0.029 A 
ATOM     42  C   UNL A   1      42.537  31.180  30.454  1.00  0.00     0.049 A 
ATOM     43  H   UNL A   1      42.721  29.244  29.708  1.00  0.00     0.167 HD
ATOM     44  C   UNL A   1      42.965  25.165  28.230  1.00  0.00     0.037 A 
ATOM     45  C   UNL A   1      43.748  31.554  30.917  1.00  0.00     0.037 A 
ATOM     46  C   UNL A   1      44.320  25.523  28.574  1.00  0.00     0.049 A 
ATOM     47  C   UNL A   1      44.914  30.613  30.794  1.00  0.00     0.074 A 
ATOM     48  C   UNL A   1      45.473  24.772  28.418  1.00  0.00     0.029 A 
ATOM     49  N   UNL A   1      44.703  26.719  29.163  1.00  0.00    -0.354 N 
ATOM     50  N   UNL A   1      44.944  29.402  30.292  1.00  0.00    -0.248 NA
ATOM     51  C   UNL A   1      46.212  31.089  31.293  1.00  0.00     0.031 C 
ATOM     52  C   UNL A   1      46.543  25.489  28.965  1.00  0.00     0.029 A 
ATOM     53  C   UNL A   1      46.068  26.711  29.413  1.00  0.00     0.049 A 
ATOM     54  H   UNL A   1      44.096  27.465  29.374  1.00  0.00     0.167 HD
ATOM     55  C   UNL A   1      46.263  28.975  30.402  1.00  0.00     0.074 A 
ATOM     56  C   UNL A   1      47.004  30.063  31.006  1.00  0.00     0.031 C 
ATOM     57  C   UNL A   1      46.805  27.788  30.032  1.00  0.00     0.037 A 
BRANCH  44  58
ATOM     58  C   UNL A   1      42.712  23.776  27.709  1.00  0.00     0.058 A 
ATOM     59  C   UNL A   1      42.530  22.687  28.576  1.00  0.00     0.135 A 
ATOM     60  C   UNL A   1      42.603  23.536  26.328  1.00  0.00     0.135 A 
ATOM     61  F   UNL A   1      42.628  22.858  29.904  1.00  0.00    -0.206 F 
ATOM     62  C   UNL A   1      42.284  21.405  28.095  1.00  0.00     0.059 A 
ATOM     63  C   UNL A   1      42.330  22.266  25.826  1.00  0.00     0.059 A 
ATOM     64  F   UNL A   1      42.759  24.540  25.452  1.00  0.00    -0.206 F 
ATOM     65  C   UNL A   1      42.189  21.204  26.718  1.00  0.00     0.060 A 
BRANCH  65  66
ATOM     66  S   UNL A   1      41.884  19.530  26.112  1.00  0.00     0.124 S 
ATOM     67  O   UNL A   1      42.291  18.726  27.261  1.00  0.00    -0.237 OA
ATOM     68  O   UNL A   1      40.452  19.555  25.834  1.00  0.00    -0.237 OA
ATOM     69  O   UNL A   1      42.747  19.427  24.940  1.00  0.00    -0.744 OA
ENDBRANCH  65  66
ENDBRANCH  44  58
BRANCH  45  70
ATOM     70  C   UNL A   1      43.910  32.912  31.498  1.00  0.00     0.058 A 
ATOM     71  C   UNL A   1      44.047  34.034  30.670  1.00  0.00     0.135 A 
ATOM     72  C   UNL A   1      43.843  33.123  32.884  1.00  0.00     0.135 A 
ATOM     73  F   UNL A   1      44.127  33.881  29.339  1.00  0.00    -0.206 F 
ATOM     74  C   UNL A   1      44.096  35.322  31.192  1.00  0.00     0.059 A 
ATOM     75  C   UNL A   1      43.868  34.403  33.429  1.00  0.00     0.059 A 
ATOM     76  F   UNL A   1      43.700  32.080  33.716  1.00  0.00    -0.206 F 
ATOM     77  C   UNL A   1      43.990  35.498  32.574  1.00  0.00     0.060 A 
BRANCH  77  78
ATOM     78  S   UNL A   1      43.941  37.181  33.227  1.00  0.00     0.124 S 
ATOM     79  O   UNL A   1      45.166  37.228  34.015  1.00  0.00    -0.237 OA
ATOM     80  O   UNL A   1      43.937  37.981  32.005  1.00  0.00    -0.237 OA
ATOM     81  O   UNL A   1      42.697  37.211  33.989  1.00  0.00    -0.744 OA
ENDBRANCH  77  78
ENDBRANCH  45  70
BRANCH  57  82
ATOM     82  C   UNL A   1      48.277  27.585  30.269  1.00  0.00     0.058 A 
ATOM     83  C   UNL A   1      49.233  27.962  29.314  1.00  0.00     0.135 A 
ATOM     84  C   UNL A   1      48.742  27.082  31.496  1.00  0.00     0.135 A 
ATOM     85  F   UNL A   1      48.844  28.439  28.121  1.00  0.00    -0.206 F 
ATOM     86  C   UNL A   1      50.598  27.843  29.562  1.00  0.00     0.059 A 
ATOM     87  C   UNL A   1      50.102  26.978  31.776  1.00  0.00     0.059 A 
ATOM     88  F   UNL A   1      47.872  26.712  32.449  1.00  0.00    -0.206 F 
ATOM     89  C   UNL A   1      51.023  27.356  30.800  1.00  0.00     0.060 A 
BRANCH  89  90
ATOM     90  S   UNL A   1      52.797  27.260  31.127  1.00  0.00     0.124 S 
ATOM     91  O   UNL A   1      53.339  28.105  30.068  1.00  0.00    -0.237 OA
ATOM     92  O   UNL A   1      52.894  27.798  32.480  1.00  0.00    -0.237 OA
ATOM     93  O   UNL A   1      53.090  25.835  31.002  1.00  0.00    -0.744 OA
ENDBRANCH  89  90
ENDBRANCH  57  82
ENDBRANCH  31  32
ENDBRANCH  24  26
ENDBRANCH  23  24
ENDBRANCH  22  23
ENDBRANCH  21  22
ENDBRANCH  20  21
ENDBRANCH   1  20
TORSDOF 21
ENDMDL
MODEL 2
REMARK VINA RESULT:      -9.1      4.842     11.122
REMARK SMILES CCOc1ccc2c(c1)=N[C@H](SCC(=O)OCCOCCOC(=O)c1ccc(-c3c4nc(c(-c5c(F)cc(S(=O)(=O)[O-])cc5F)c5ccc([nH]5)c(-c5c(F)cc(S(=O)(=O)[O-])cc5F)c5nc(c(-c6c(F)cc(S(=O)(=O)[O-])cc6F)c6ccc3[nH]6)C=C5)C=C4)cc1)N=2
REMARK SMILES IDX 18 1 17 2 16 3 14 4 15 5 13 6 12 7 11 8 4 9 5 10 9 11 6 12
REMARK SMILES IDX 8 13 7 14 10 15 91 16 3 17 2 18 1 19 19 20 20 21 21 22 22 23
REMARK SMILES IDX 23 24 24 25 25 26 26 27 90 28 27 29 89 30 28 31 29 32 30 33
REMARK SMILES IDX 83 34 31 35 88 36 82 37 84 38 32 39 87 40 81 41 80 42 33 44
REMARK SMILES IDX 67 45 46 46 66 47 47 48 50 49 65 50 85 51 48 52 49 53 64 55
REMARK SMILES IDX 86 56 51 57 34 58 35 59 44 60 36 61 37 62 43 63 45 64 38 65
REMARK SMILES IDX 39 66 40 67 41 68 42 69 68 70 69 71 78 72 70 73 71 74 77 75
REMARK SMILES IDX 79 76 72 77 73 78 74 79 75 80 76 81 52 82 53 83 62 84 54 85
REMARK SMILES IDX 55 86 61 87 63 88 56 89 57 90 58 91 59 92 60 93
REMARK H PARENT 84 43 50 54
REMARK Flexibility Score: inf
ROOT
ATOM      1  C   UNL A   1      31.768  27.578  26.801  1.00  0.00     0.202 C 
ENDROOT
BRANCH   1   2
ATOM      2  C   UNL A   1      31.563  26.399  25.841  1.00  0.00     0.261 C 
BRANCH   2   3
ATOM      3  O   UNL A   1      30.877  25.300  26.473  1.00  0.00    -0.463 OA
BRANCH   3   4
ATOM      4  C   UNL A   1      31.654  24.236  26.822  1.00  0.00     0.316 C 
ATOM      5  O   UNL A   1      31.282  23.322  27.555  1.00  0.00    -0.251 OA
BRANCH   4   6
ATOM      6  C   UNL A   1      32.971  24.164  26.080  1.00  0.00     0.196 C 
BRANCH   6   7
ATOM      7  S   UNL A   1      34.126  22.891  26.663  1.00  0.00    -0.100 SA
BRANCH   7   8
ATOM      8  C   UNL A   1      34.314  21.939  25.114  1.00  0.00     0.282 C 
ATOM      9  C   UNL A   1      33.869  17.602  23.928  1.00  0.00     0.121 A 
ATOM     10  C   UNL A   1      32.610  18.119  23.424  1.00  0.00     0.049 A 
ATOM     11  C   UNL A   1      34.770  18.371  24.560  1.00  0.00     0.076 A 
ATOM     12  C   UNL A   1      32.241  19.404  23.538  1.00  0.00     0.034 A 
ATOM     13  C   UNL A   1      34.459  19.798  24.710  1.00  0.00     0.090 A 
ATOM     14  C   UNL A   1      33.171  20.318  24.210  1.00  0.00     0.087 A 
ATOM     15  N   UNL A   1      35.167  20.724  25.253  1.00  0.00    -0.246 NA
ATOM     16  N   UNL A   1      33.031  21.576  24.440  1.00  0.00    -0.246 NA
BRANCH   9  17
ATOM     17  O   UNL A   1      34.003  16.232  23.902  1.00  0.00    -0.494 OA
BRANCH  17  18
ATOM     18  C   UNL A   1      34.014  15.598  25.185  1.00  0.00     0.226 C 
ATOM     19  C   UNL A   1      32.662  14.968  25.473  1.00  0.00     0.049 C 
ENDBRANCH  17  18
ENDBRANCH   9  17
ENDBRANCH   7   8
ENDBRANCH   6   7
ENDBRANCH   4   6
ENDBRANCH   3   4
ENDBRANCH   2   3
ENDBRANCH   1   2
BRANCH   1  20
ATOM     20  O   UNL A   1      32.955  28.351  26.613  1.00  0.00    -0.374 OA
BRANCH  20  21
ATOM     21  C   UNL A   1      33.264  29.336  27.598  1.00  0.00     0.202 C 
BRANCH  21  22
ATOM     22  C   UNL A   1      34.672  29.944  27.548  1.00  0.00     0.261 C 
BRANCH  22  23
ATOM     23  O   UNL A   1      35.619  29.231  28.366  1.00  0.00    -0.460 OA
BRANCH  23  24
ATOM     24  C   UNL A   1      36.293  30.004  29.252  1.00  0.00     0.338 C 
ATOM     25  O   UNL A   1      35.818  30.595  30.215  1.00  0.00    -0.246 OA
BRANCH  24  26
ATOM     26  C   UNL A   1      37.752  29.913  29.039  1.00  0.00     0.060 A 
ATOM     27  C   UNL A   1      38.653  29.841  30.101  1.00  0.00     0.016 A 
ATOM     28  C   UNL A   1      38.202  29.780  27.719  1.00  0.00     0.016 A 
ATOM     29  C   UNL A   1      40.009  29.587  29.835  1.00  0.00     0.010 A 
ATOM     30  C   UNL A   1      39.551  29.535  27.458  1.00  0.00     0.010 A 
ATOM     31  C   UNL A   1      40.464  29.409  28.514  1.00  0.00    -0.014 A 
BRANCH  31  32
ATOM     32  C   UNL A   1      41.855  28.962  28.228  1.00  0.00     0.031 A 
ATOM     33  C   UNL A   1      42.998  29.934  28.170  1.00  0.00     0.074 A 
ATOM     34  C   UNL A   1      42.074  27.665  27.933  1.00  0.00     0.049 A 
ATOM     35  N   UNL A   1      44.267  29.700  27.947  1.00  0.00    -0.248 NA
ATOM     36  C   UNL A   1      42.672  31.353  28.368  1.00  0.00     0.031 C 
ATOM     37  C   UNL A   1      41.039  26.632  27.883  1.00  0.00     0.029 A 
ATOM     38  N   UNL A   1      43.229  26.997  27.607  1.00  0.00    -0.354 N 
ATOM     39  C   UNL A   1      44.898  30.937  27.992  1.00  0.00     0.074 A 
ATOM     40  C   UNL A   1      43.861  31.924  28.214  1.00  0.00     0.031 C 
ATOM     41  C   UNL A   1      41.606  25.459  27.560  1.00  0.00     0.029 A 
ATOM     42  C   UNL A   1      43.039  25.658  27.361  1.00  0.00     0.049 A 
ATOM     43  H   UNL A   1      44.108  27.436  27.554  1.00  0.00     0.167 HD
ATOM     44  C   UNL A   1      46.219  31.220  27.873  1.00  0.00     0.037 A 
ATOM     45  C   UNL A   1      43.916  24.693  27.015  1.00  0.00     0.037 A 
ATOM     46  C   UNL A   1      47.247  30.234  27.638  1.00  0.00     0.049 A 
ATOM     47  C   UNL A   1      45.376  25.027  26.878  1.00  0.00     0.074 A 
ATOM     48  C   UNL A   1      48.618  30.418  27.585  1.00  0.00     0.029 A 
ATOM     49  N   UNL A   1      47.018  28.887  27.394  1.00  0.00    -0.354 N 
ATOM     50  N   UNL A   1      45.971  26.184  27.034  1.00  0.00    -0.248 NA
ATOM     51  C   UNL A   1      46.283  23.926  26.526  1.00  0.00     0.031 C 
ATOM     52  C   UNL A   1      49.214  29.196  27.251  1.00  0.00     0.029 A 
ATOM     53  C   UNL A   1      48.219  28.237  27.151  1.00  0.00     0.049 A 
ATOM     54  H   UNL A   1      46.133  28.456  27.394  1.00  0.00     0.167 HD
ATOM     55  C   UNL A   1      47.324  25.951  26.812  1.00  0.00     0.074 A 
ATOM     56  C   UNL A   1      47.461  24.538  26.524  1.00  0.00     0.031 C 
ATOM     57  C   UNL A   1      48.355  26.832  26.846  1.00  0.00     0.037 A 
BRANCH  44  58
ATOM     58  C   UNL A   1      46.639  32.660  27.999  1.00  0.00     0.058 A 
ATOM     59  C   UNL A   1      47.183  33.165  29.190  1.00  0.00     0.135 A 
ATOM     60  C   UNL A   1      46.542  33.535  26.903  1.00  0.00     0.135 A 
ATOM     61  F   UNL A   1      47.295  32.375  30.270  1.00  0.00    -0.206 F 
ATOM     62  C   UNL A   1      47.582  34.493  29.303  1.00  0.00     0.059 A 
ATOM     63  C   UNL A   1      46.961  34.860  26.986  1.00  0.00     0.059 A 
ATOM     64  F   UNL A   1      46.038  33.104  25.736  1.00  0.00    -0.206 F 
ATOM     65  C   UNL A   1      47.464  35.334  28.197  1.00  0.00     0.060 A 
BRANCH  65  66
ATOM     66  S   UNL A   1      47.975  37.058  28.367  1.00  0.00     0.124 S 
ATOM     67  O   UNL A   1      46.726  37.691  28.782  1.00  0.00    -0.237 OA
ATOM     68  O   UNL A   1      49.013  36.976  29.389  1.00  0.00    -0.237 OA
ATOM     69  O   UNL A   1      48.440  37.411  27.030  1.00  0.00    -0.744 OA
ENDBRANCH  65  66
ENDBRANCH  44  58
BRANCH  45  70
ATOM     70  C   UNL A   1      43.421  23.305  26.823  1.00  0.00     0.058 A 
ATOM     71  C   UNL A   1      43.208  22.792  25.536  1.00  0.00     0.135 A 
ATOM     72  C   UNL A   1      43.238  22.440  27.913  1.00  0.00     0.135 A 
ATOM     73  F   UNL A   1      43.360  23.584  24.464  1.00  0.00    -0.206 F 
ATOM     74  C   UNL A   1      42.844  21.464  25.333  1.00  0.00     0.059 A 
ATOM     75  C   UNL A   1      42.895  21.103  27.735  1.00  0.00     0.059 A 
ATOM     76  F   UNL A   1      43.441  22.883  29.164  1.00  0.00    -0.206 F 
ATOM     77  C   UNL A   1      42.705  20.623  26.439  1.00  0.00     0.060 A 
BRANCH  77  78
ATOM     78  S   UNL A   1      42.345  18.877  26.153  1.00  0.00     0.124 S 
ATOM     79  O   UNL A   1      42.459  18.326  27.498  1.00  0.00    -0.237 OA
ATOM     80  O   UNL A   1      40.995  18.932  25.598  1.00  0.00    -0.237 OA
ATOM     81  O   UNL A   1      43.383  18.468  25.211  1.00  0.00    -0.744 OA
ENDBRANCH  77  78
ENDBRANCH  45  70
BRANCH  57  82
ATOM     82  C   UNL A   1      49.736  26.307  26.562  1.00  0.00     0.058 A 
ATOM     83  C   UNL A   1      50.299  26.380  25.278  1.00  0.00     0.135 A 
ATOM     84  C   UNL A   1      50.538  25.799  27.598  1.00  0.00     0.135 A 
ATOM     85  F   UNL A   1      49.574  26.848  24.249  1.00  0.00    -0.206 F 
ATOM     86  C   UNL A   1      51.603  25.962  25.029  1.00  0.00     0.059 A 
ATOM     87  C   UNL A   1      51.853  25.399  27.377  1.00  0.00     0.059 A 
ATOM     88  F   UNL A   1      50.053  25.712  28.847  1.00  0.00    -0.206 F 
ATOM     89  C   UNL A   1      52.375  25.480  26.087  1.00  0.00     0.060 A 
BRANCH  89  90
ATOM     90  S   UNL A   1      54.084  24.994  25.757  1.00  0.00     0.124 S 
ATOM     91  O   UNL A   1      54.314  25.591  24.447  1.00  0.00    -0.237 OA
ATOM     92  O   UNL A   1      54.802  25.609  26.869  1.00  0.00    -0.237 OA
ATOM     93  O   UNL A   1      54.034  23.535  25.781  1.00  0.00    -0.744 OA
ENDBRANCH  89  90
ENDBRANCH  57  82
ENDBRANCH  31  32
ENDBRANCH  24  26
ENDBRANCH  23  24
ENDBRANCH  22  23
ENDBRANCH  21  22
ENDBRANCH  20  21
ENDBRANCH   1  20
TORSDOF 21
ENDMDL
MODEL 3
REMARK VINA RESULT:      -9.0      4.991     11.771
REMARK SMILES CCOc1ccc2c(c1)=N[C@H](SCC(=O)OCCOCCOC(=O)c1ccc(-c3c4nc(c(-c5c(F)cc(S(=O)(=O)[O-])cc5F)c5ccc([nH]5)c(-c5c(F)cc(S(=O)(=O)[O-])cc5F)c5nc(c(-c6c(F)cc(S(=O)(=O)[O-])cc6F)c6ccc3[nH]6)C=C5)C=C4)cc1)N=2
REMARK SMILES IDX 18 1 17 2 16 3 14 4 15 5 13 6 12 7 11 8 4 9 5 10 9 11 6 12
REMARK SMILES IDX 8 13 7 14 10 15 91 16 3 17 2 18 1 19 19 20 20 21 21 22 22 23
REMARK SMILES IDX 23 24 24 25 25 26 26 27 90 28 27 29 89 30 28 31 29 32 30 33
REMARK SMILES IDX 83 34 31 35 88 36 82 37 84 38 32 39 87 40 81 41 80 42 33 44
REMARK SMILES IDX 67 45 46 46 66 47 47 48 50 49 65 50 85 51 48 52 49 53 64 55
REMARK SMILES IDX 86 56 51 57 34 58 35 59 44 60 36 61 37 62 43 63 45 64 38 65
REMARK SMILES IDX 39 66 40 67 41 68 42 69 68 70 69 71 78 72 70 73 71 74 77 75
REMARK SMILES IDX 79 76 72 77 73 78 74 79 75 80 76 81 52 82 53 83 62 84 54 85
REMARK SMILES IDX 55 86 61 87 63 88 56 89 57 90 58 91 59 92 60 93
REMARK H PARENT 84 43 50 54
REMARK Flexibility Score: inf
ROOT
ATOM      1  C   UNL A   1      37.921  22.007  25.598  1.00  0.00     0.202 C 
ENDROOT
BRANCH   1   2
ATOM      2  C   UNL A   1      36.963  21.001  24.949  1.00  0.00     0.261 C 
BRANCH   2   3
ATOM      3  O   UNL A   1      35.822  21.647  24.352  1.00  0.00    -0.463 OA
BRANCH   3   4
ATOM      4  C   UNL A   1      34.745  21.824  25.168  1.00  0.00     0.316 C 
ATOM      5  O   UNL A   1      34.470  21.091  26.115  1.00  0.00    -0.251 OA
BRANCH   4   6
ATOM      6  C   UNL A   1      33.999  23.120  24.933  1.00  0.00     0.196 C 
BRANCH   6   7
ATOM      7  S   UNL A   1      34.983  24.633  25.129  1.00  0.00    -0.100 SA
BRANCH   7   8
ATOM      8  C   UNL A   1      33.632  25.816  25.468  1.00  0.00     0.282 C 
ATOM      9  C   UNL A   1      30.394  27.793  23.014  1.00  0.00     0.121 A 
ATOM     10  C   UNL A   1      29.608  26.755  23.657  1.00  0.00     0.049 A 
ATOM     11  C   UNL A   1      31.712  27.938  23.219  1.00  0.00     0.076 A 
ATOM     12  C   UNL A   1      30.126  25.860  24.512  1.00  0.00     0.034 A 
ATOM     13  C   UNL A   1      32.360  27.014  24.159  1.00  0.00     0.090 A 
ATOM     14  C   UNL A   1      31.562  25.950  24.799  1.00  0.00     0.087 A 
ATOM     15  N   UNL A   1      33.591  26.971  24.526  1.00  0.00    -0.246 NA
ATOM     16  N   UNL A   1      32.272  25.204  25.570  1.00  0.00    -0.246 NA
BRANCH   9  17
ATOM     17  O   UNL A   1      29.750  28.500  22.024  1.00  0.00    -0.494 OA
BRANCH  17  18
ATOM     18  C   UNL A   1      29.835  29.924  22.141  1.00  0.00     0.226 C 
ATOM     19  C   UNL A   1      29.023  30.403  23.333  1.00  0.00     0.049 C 
ENDBRANCH  17  18
ENDBRANCH   9  17
ENDBRANCH   7   8
ENDBRANCH   6   7
ENDBRANCH   4   6
ENDBRANCH   3   4
ENDBRANCH   2   3
ENDBRANCH   1   2
BRANCH   1  20
ATOM     20  O   UNL A   1      39.272  21.576  25.777  1.00  0.00    -0.374 OA
BRANCH  20  21
ATOM     21  C   UNL A   1      39.990  22.098  26.893  1.00  0.00     0.202 C 
BRANCH  21  22
ATOM     22  C   UNL A   1      41.507  22.251  26.727  1.00  0.00     0.261 C 
BRANCH  22  23
ATOM     23  O   UNL A   1      42.040  23.375  27.452  1.00  0.00    -0.460 OA
BRANCH  23  24
ATOM     24  C   UNL A   1      42.029  24.545  26.766  1.00  0.00     0.338 C 
ATOM     25  O   UNL A   1      42.180  24.684  25.558  1.00  0.00    -0.246 OA
BRANCH  24  26
ATOM     26  C   UNL A   1      41.620  25.668  27.633  1.00  0.00     0.060 A 
ATOM     27  C   UNL A   1      40.439  25.640  28.375  1.00  0.00     0.016 A 
ATOM     28  C   UNL A   1      42.523  26.729  27.781  1.00  0.00     0.016 A 
ATOM     29  C   UNL A   1      40.190  26.662  29.307  1.00  0.00     0.010 A 
ATOM     30  C   UNL A   1      42.268  27.747  28.701  1.00  0.00     0.010 A 
ATOM     31  C   UNL A   1      41.112  27.710  29.494  1.00  0.00    -0.014 A 
BRANCH  31  32
ATOM     32  C   UNL A   1      40.951  28.696  30.597  1.00  0.00     0.031 A 
ATOM     33  C   UNL A   1      41.791  28.633  31.840  1.00  0.00     0.074 A 
ATOM     34  C   UNL A   1      39.968  29.615  30.509  1.00  0.00     0.049 A 
ATOM     35  N   UNL A   1      41.781  29.426  32.881  1.00  0.00    -0.248 NA
ATOM     36  C   UNL A   1      42.753  27.526  31.933  1.00  0.00     0.031 C 
ATOM     37  C   UNL A   1      39.034  29.738  29.388  1.00  0.00     0.029 A 
ATOM     38  N   UNL A   1      39.581  30.607  31.376  1.00  0.00    -0.354 N 
ATOM     39  C   UNL A   1      42.743  28.927  33.751  1.00  0.00     0.074 A 
ATOM     40  C   UNL A   1      43.282  27.733  33.133  1.00  0.00     0.031 C 
ATOM     41  C   UNL A   1      38.192  30.754  29.630  1.00  0.00     0.029 A 
ATOM     42  C   UNL A   1      38.510  31.344  30.928  1.00  0.00     0.049 A 
ATOM     43  H   UNL A   1      40.027  30.774  32.237  1.00  0.00     0.167 HD
ATOM     44  C   UNL A   1      43.147  29.427  34.945  1.00  0.00     0.037 A 
ATOM     45  C   UNL A   1      37.856  32.380  31.491  1.00  0.00     0.037 A 
ATOM     46  C   UNL A   1      42.597  30.610  35.562  1.00  0.00     0.049 A 
ATOM     47  C   UNL A   1      38.312  32.915  32.820  1.00  0.00     0.074 A 
ATOM     48  C   UNL A   1      42.999  31.236  36.730  1.00  0.00     0.029 A 
ATOM     49  N   UNL A   1      41.515  31.331  35.079  1.00  0.00    -0.354 N 
ATOM     50  N   UNL A   1      39.297  32.499  33.578  1.00  0.00    -0.248 NA
ATOM     51  C   UNL A   1      37.575  34.061  33.367  1.00  0.00     0.031 C 
ATOM     52  C   UNL A   1      42.126  32.300  36.983  1.00  0.00     0.029 A 
ATOM     53  C   UNL A   1      41.211  32.372  35.946  1.00  0.00     0.049 A 
ATOM     54  H   UNL A   1      41.032  31.134  34.244  1.00  0.00     0.167 HD
ATOM     55  C   UNL A   1      39.308  33.339  34.686  1.00  0.00     0.074 A 
ATOM     56  C   UNL A   1      38.239  34.297  34.493  1.00  0.00     0.031 C 
ATOM     57  C   UNL A   1      40.134  33.316  35.762  1.00  0.00     0.037 A 
BRANCH  44  58
ATOM     58  C   UNL A   1      44.246  28.699  35.671  1.00  0.00     0.058 A 
ATOM     59  C   UNL A   1      43.968  27.677  36.591  1.00  0.00     0.135 A 
ATOM     60  C   UNL A   1      45.596  28.990  35.408  1.00  0.00     0.135 A 
ATOM     61  F   UNL A   1      42.696  27.359  36.884  1.00  0.00    -0.206 F 
ATOM     62  C   UNL A   1      44.984  26.995  37.253  1.00  0.00     0.059 A 
ATOM     63  C   UNL A   1      46.629  28.301  36.038  1.00  0.00     0.059 A 
ATOM     64  F   UNL A   1      45.922  29.951  34.530  1.00  0.00    -0.206 F 
ATOM     65  C   UNL A   1      46.312  27.316  36.972  1.00  0.00     0.060 A 
BRANCH  65  66
ATOM     66  S   UNL A   1      47.616  26.430  37.851  1.00  0.00     0.124 S 
ATOM     67  O   UNL A   1      47.206  25.042  37.657  1.00  0.00    -0.237 OA
ATOM     68  O   UNL A   1      48.815  26.842  37.129  1.00  0.00    -0.237 OA
ATOM     69  O   UNL A   1      47.508  26.928  39.218  1.00  0.00    -0.744 OA
ENDBRANCH  65  66
ENDBRANCH  44  58
BRANCH  45  70
ATOM     70  C   UNL A   1      36.723  33.001  30.758  1.00  0.00     0.058 A 
ATOM     71  C   UNL A   1      35.398  32.753  31.143  1.00  0.00     0.135 A 
ATOM     72  C   UNL A   1      36.943  33.919  29.719  1.00  0.00     0.135 A 
ATOM     73  F   UNL A   1      35.137  31.875  32.123  1.00  0.00    -0.206 F 
ATOM     74  C   UNL A   1      34.329  33.404  30.535  1.00  0.00     0.059 A 
ATOM     75  C   UNL A   1      35.893  34.599  29.111  1.00  0.00     0.059 A 
ATOM     76  F   UNL A   1      38.195  34.198  29.323  1.00  0.00    -0.206 F 
ATOM     77  C   UNL A   1      34.588  34.338  29.530  1.00  0.00     0.060 A 
BRANCH  77  78
ATOM     78  S   UNL A   1      33.200  35.258  28.831  1.00  0.00     0.124 S 
ATOM     79  O   UNL A   1      32.477  35.660  30.031  1.00  0.00    -0.237 OA
ATOM     80  O   UNL A   1      33.879  36.329  28.107  1.00  0.00    -0.237 OA
ATOM     81  O   UNL A   1      32.531  34.271  27.989  1.00  0.00    -0.744 OA
ENDBRANCH  77  78
ENDBRANCH  45  70
BRANCH  57  82
ATOM     82  C   UNL A   1      39.921  34.353  36.832  1.00  0.00     0.058 A 
ATOM     83  C   UNL A   1      39.182  34.070  37.992  1.00  0.00     0.135 A 
ATOM     84  C   UNL A   1      40.528  35.616  36.737  1.00  0.00     0.135 A 
ATOM     85  F   UNL A   1      38.573  32.881  38.131  1.00  0.00    -0.206 F 
ATOM     86  C   UNL A   1      39.047  35.003  39.015  1.00  0.00     0.059 A 
ATOM     87  C   UNL A   1      40.427  36.556  37.759  1.00  0.00     0.059 A 
ATOM     88  F   UNL A   1      41.252  35.938  35.653  1.00  0.00    -0.206 F 
ATOM     89  C   UNL A   1      39.680  36.242  38.893  1.00  0.00     0.060 A 
BRANCH  89  90
ATOM     90  S   UNL A   1      39.540  37.421  40.255  1.00  0.00     0.124 S 
ATOM     91  O   UNL A   1      39.594  36.539  41.416  1.00  0.00    -0.237 OA
ATOM     92  O   UNL A   1      40.708  38.272  40.051  1.00  0.00    -0.237 OA
ATOM     93  O   UNL A   1      38.252  38.065  40.017  1.00  0.00    -0.744 OA
ENDBRANCH  89  90
ENDBRANCH  57  82
ENDBRANCH  31  32
ENDBRANCH  24  26
ENDBRANCH  23  24
ENDBRANCH  22  23
ENDBRANCH  21  22
ENDBRANCH  20  21
ENDBRANCH   1  20
TORSDOF 21
ENDMDL
