MODEL 1
REMARK VINA RESULT:     -13.1      0.000      0.000
REMARK SMILES O=C(OCCOCCOC(=O)c1nnn(-c2cccc(C(F)(F)F)c2)c1[C@@H]1COc2ccccc2O1)c1ccc(-c2c3nc(c(-c4c(F)cc(S(=O)(=O)[O-])cc4F)c4ccc([nH]4)c(-c4c(F)cc(S(=O)(=O)[O-])cc4F)c4nc(c(-c5c(F)cc(S(=O)(=O)[O-])cc5F)c5ccc2[nH]5)C=C4)C=C3)cc1
REMARK SMILES IDX 5 1 4 2 3 3 2 4 1 5 37 6 38 7 102 8 39 9 101 10 40 11 41 12
REMARK SMILES IDX 42 13 95 14 43 15 100 16 94 17 96 18 44 19 99 20 93 21 92 22
REMARK SMILES IDX 45 24 79 25 58 26 78 27 59 28 62 29 77 30 97 31 60 32 61 33
REMARK SMILES IDX 76 35 98 36 63 37 46 38 47 39 56 40 48 41 49 42 55 43 57 44
REMARK SMILES IDX 50 45 51 46 52 47 53 48 54 49 80 50 81 51 90 52 82 53 83 54
REMARK SMILES IDX 89 55 91 56 84 57 85 58 86 59 87 60 88 61 64 62 65 63 74 64
REMARK SMILES IDX 66 65 67 66 73 67 75 68 68 69 69 70 70 71 71 72 72 73 6 74
REMARK SMILES IDX 7 75 8 76 9 77 10 78 11 79 12 80 13 81 26 82 14 83 15 84
REMARK SMILES IDX 27 85 28 86 36 87 29 88 35 89 30 90 34 91 31 92 33 93 32 94
REMARK SMILES IDX 16 95 17 96 25 97 18 98 20 99 19 100 21 101 22 102 23 103
REMARK SMILES IDX 24 104
REMARK H PARENT 96 23 62 34
REMARK Flexibility Score: inf
ROOT
ATOM      1  C   UNL A   1      37.190  22.003  25.629  1.00  0.00     0.202 C 
ENDROOT
BRANCH   1   2
ATOM      2  C   UNL A   1      38.521  21.280  25.449  1.00  0.00     0.261 C 
BRANCH   2   3
ATOM      3  O   UNL A   1      39.704  22.044  25.768  1.00  0.00    -0.460 OA
BRANCH   3   4
ATOM      4  C   UNL A   1      40.096  22.264  27.045  1.00  0.00     0.338 C 
ATOM      5  O   UNL A   1      40.469  21.351  27.774  1.00  0.00    -0.246 OA
BRANCH   4   6
ATOM      6  C   UNL A   1      40.351  23.689  27.387  1.00  0.00     0.060 A 
ATOM      7  C   UNL A   1      41.527  24.121  27.995  1.00  0.00     0.016 A 
ATOM      8  C   UNL A   1      39.327  24.619  27.140  1.00  0.00     0.016 A 
ATOM      9  C   UNL A   1      41.637  25.418  28.466  1.00  0.00     0.010 A 
ATOM     10  C   UNL A   1      39.444  25.933  27.594  1.00  0.00     0.010 A 
ATOM     11  C   UNL A   1      40.577  26.313  28.312  1.00  0.00    -0.014 A 
BRANCH  11  12
ATOM     12  C   UNL A   1      40.742  27.614  28.958  1.00  0.00     0.031 A 
ATOM     13  C   UNL A   1      41.871  28.465  28.481  1.00  0.00     0.074 A 
ATOM     14  C   UNL A   1      39.937  28.065  29.937  1.00  0.00     0.049 A 
ATOM     15  N   UNL A   1      42.912  28.872  29.135  1.00  0.00    -0.248 NA
ATOM     16  C   UNL A   1      41.857  28.859  27.066  1.00  0.00     0.031 C 
ATOM     17  C   UNL A   1      38.640  27.538  30.368  1.00  0.00     0.029 A 
ATOM     18  N   UNL A   1      40.096  29.179  30.709  1.00  0.00    -0.354 N 
ATOM     19  C   UNL A   1      43.603  29.719  28.270  1.00  0.00     0.074 A 
ATOM     20  C   UNL A   1      42.965  29.596  26.983  1.00  0.00     0.031 C 
ATOM     21  C   UNL A   1      38.037  28.450  31.162  1.00  0.00     0.029 A 
ATOM     22  C   UNL A   1      38.960  29.545  31.408  1.00  0.00     0.049 A 
ATOM     23  H   UNL A   1      40.944  29.676  30.763  1.00  0.00     0.167 HD
ATOM     24  C   UNL A   1      44.560  30.593  28.691  1.00  0.00     0.037 A 
ATOM     25  C   UNL A   1      38.765  30.705  32.077  1.00  0.00     0.037 A 
ATOM     26  C   UNL A   1      45.079  30.260  29.987  1.00  0.00     0.049 A 
ATOM     27  C   UNL A   1      40.097  31.277  32.402  1.00  0.00     0.074 A 
ATOM     28  C   UNL A   1      45.749  29.175  30.518  1.00  0.00     0.029 A 
ATOM     29  N   UNL A   1      44.682  31.008  31.067  1.00  0.00    -0.354 N 
ATOM     30  N   UNL A   1      40.941  30.753  33.248  1.00  0.00    -0.248 NA
ATOM     31  C   UNL A   1      40.658  32.270  31.500  1.00  0.00     0.031 C 
ATOM     32  C   UNL A   1      45.303  29.081  31.869  1.00  0.00     0.029 A 
ATOM     33  C   UNL A   1      44.398  30.122  32.076  1.00  0.00     0.049 A 
ATOM     34  H   UNL A   1      44.613  31.989  31.109  1.00  0.00     0.167 HD
ATOM     35  C   UNL A   1      42.195  31.049  32.736  1.00  0.00     0.074 A 
ATOM     36  C   UNL A   1      41.958  32.078  31.729  1.00  0.00     0.031 C 
ATOM     37  C   UNL A   1      43.276  30.252  32.982  1.00  0.00     0.037 A 
BRANCH  24  38
ATOM     38  C   UNL A   1      44.840  31.915  28.022  1.00  0.00     0.058 A 
ATOM     39  C   UNL A   1      46.019  32.104  27.273  1.00  0.00     0.135 A 
ATOM     40  C   UNL A   1      44.105  33.085  28.313  1.00  0.00     0.135 A 
ATOM     41  F   UNL A   1      46.808  31.061  26.965  1.00  0.00    -0.206 F 
ATOM     42  C   UNL A   1      46.457  33.369  26.878  1.00  0.00     0.059 A 
ATOM     43  C   UNL A   1      44.495  34.349  27.885  1.00  0.00     0.059 A 
ATOM     44  F   UNL A   1      43.026  33.058  29.107  1.00  0.00    -0.206 F 
ATOM     45  C   UNL A   1      45.694  34.488  27.204  1.00  0.00     0.060 A 
BRANCH  45  46
ATOM     46  S   UNL A   1      46.307  36.134  26.796  1.00  0.00     0.124 S 
ATOM     47  O   UNL A   1      47.220  35.837  25.698  1.00  0.00    -0.237 OA
ATOM     48  O   UNL A   1      45.081  36.839  26.436  1.00  0.00    -0.237 OA
ATOM     49  O   UNL A   1      46.933  36.575  28.039  1.00  0.00    -0.744 OA
ENDBRANCH  45  46
ENDBRANCH  24  38
BRANCH  25  50
ATOM     50  C   UNL A   1      37.509  31.491  32.139  1.00  0.00     0.058 A 
ATOM     51  C   UNL A   1      36.973  31.915  33.365  1.00  0.00     0.135 A 
ATOM     52  C   UNL A   1      36.951  32.068  30.979  1.00  0.00     0.135 A 
ATOM     53  F   UNL A   1      37.469  31.440  34.518  1.00  0.00    -0.206 F 
ATOM     54  C   UNL A   1      35.966  32.881  33.440  1.00  0.00     0.059 A 
ATOM     55  C   UNL A   1      35.937  33.020  31.028  1.00  0.00     0.059 A 
ATOM     56  F   UNL A   1      37.439  31.792  29.760  1.00  0.00    -0.206 F 
ATOM     57  C   UNL A   1      35.466  33.441  32.264  1.00  0.00     0.060 A 
BRANCH  57  58
ATOM     58  S   UNL A   1      34.289  34.807  32.360  1.00  0.00     0.124 S 
ATOM     59  O   UNL A   1      33.112  34.151  32.917  1.00  0.00    -0.237 OA
ATOM     60  O   UNL A   1      34.977  35.744  33.243  1.00  0.00    -0.237 OA
ATOM     61  O   UNL A   1      34.162  35.244  30.972  1.00  0.00    -0.744 OA
ENDBRANCH  57  58
ENDBRANCH  25  50
BRANCH  37  62
ATOM     62  C   UNL A   1      43.178  29.229  34.084  1.00  0.00     0.058 A 
ATOM     63  C   UNL A   1      43.438  29.511  35.436  1.00  0.00     0.135 A 
ATOM     64  C   UNL A   1      42.632  27.971  33.784  1.00  0.00     0.135 A 
ATOM     65  F   UNL A   1      43.862  30.725  35.817  1.00  0.00    -0.206 F 
ATOM     66  C   UNL A   1      43.193  28.575  36.442  1.00  0.00     0.059 A 
ATOM     67  C   UNL A   1      42.350  27.032  34.775  1.00  0.00     0.059 A 
ATOM     68  F   UNL A   1      42.303  27.664  32.518  1.00  0.00    -0.206 F 
ATOM     69  C   UNL A   1      42.642  27.339  36.103  1.00  0.00     0.060 A 
BRANCH  69  70
ATOM     70  S   UNL A   1      42.210  26.179  37.421  1.00  0.00     0.124 S 
ATOM     71  O   UNL A   1      40.816  26.520  37.685  1.00  0.00    -0.237 OA
ATOM     72  O   UNL A   1      42.437  24.881  36.792  1.00  0.00    -0.237 OA
ATOM     73  O   UNL A   1      43.149  26.514  38.489  1.00  0.00    -0.744 OA
ENDBRANCH  69  70
ENDBRANCH  37  62
ENDBRANCH  11  12
ENDBRANCH   4   6
ENDBRANCH   3   4
ENDBRANCH   2   3
ENDBRANCH   1   2
BRANCH   1  74
ATOM     74  O   UNL A   1      37.148  23.273  24.977  1.00  0.00    -0.374 OA
BRANCH  74  75
ATOM     75  C   UNL A   1      36.719  23.247  23.613  1.00  0.00     0.202 C 
BRANCH  75  76
ATOM     76  C   UNL A   1      35.253  22.870  23.389  1.00  0.00     0.261 C 
BRANCH  76  77
ATOM     77  O   UNL A   1      34.537  23.979  22.815  1.00  0.00    -0.458 OA
BRANCH  77  78
ATOM     78  C   UNL A   1      33.328  23.675  22.252  1.00  0.00     0.361 C 
ATOM     79  O   UNL A   1      32.990  22.557  21.926  1.00  0.00    -0.244 OA
BRANCH  78  80
ATOM     80  C   UNL A   1      32.441  24.837  22.161  1.00  0.00     0.198 A 
ATOM     81  N   UNL A   1      32.394  25.551  20.987  1.00  0.00    -0.122 NA
ATOM     82  C   UNL A   1      31.493  25.360  23.038  1.00  0.00     0.123 A 
ATOM     83  N   UNL A   1      31.475  26.491  21.104  1.00  0.00    -0.061 NA
ATOM     84  N   UNL A   1      31.079  26.518  22.395  1.00  0.00    -0.213 N 
BRANCH  82  85
ATOM     85  C   UNL A   1      30.864  24.818  24.295  1.00  0.00     0.262 C 
ATOM     86  C   UNL A   1      31.362  25.514  25.572  1.00  0.00     0.281 C 
ATOM     87  O   UNL A   1      30.970  23.389  24.340  1.00  0.00    -0.477 OA
ATOM     88  O   UNL A   1      32.681  25.093  25.932  1.00  0.00    -0.485 OA
ATOM     89  C   UNL A   1      31.869  22.909  25.261  1.00  0.00     0.162 A 
ATOM     90  C   UNL A   1      32.727  23.726  26.000  1.00  0.00     0.161 A 
ATOM     91  C   UNL A   1      31.968  21.523  25.372  1.00  0.00     0.050 A 
ATOM     92  C   UNL A   1      33.726  23.163  26.794  1.00  0.00     0.050 A 
ATOM     93  C   UNL A   1      32.950  20.955  26.187  1.00  0.00     0.004 A 
ATOM     94  C   UNL A   1      33.838  21.775  26.886  1.00  0.00     0.004 A 
ENDBRANCH  82  85
BRANCH  84  95
ATOM     95  C   UNL A   1      30.744  27.772  22.937  1.00  0.00     0.067 A 
ATOM     96  C   UNL A   1      31.639  28.413  23.796  1.00  0.00     0.028 A 
ATOM     97  C   UNL A   1      29.473  28.303  22.685  1.00  0.00     0.041 A 
ATOM     98  C   UNL A   1      31.287  29.648  24.338  1.00  0.00     0.003 A 
ATOM     99  C   UNL A   1      29.095  29.513  23.279  1.00  0.00     0.058 A 
ATOM    100  C   UNL A   1      30.026  30.194  24.080  1.00  0.00     0.013 A 
BRANCH  99 101
ATOM    101  C   UNL A   1      27.715  30.077  23.060  1.00  0.00     0.416 C 
ATOM    102  F   UNL A   1      26.739  29.131  23.159  1.00  0.00    -0.166 F 
ATOM    103  F   UNL A   1      27.391  31.040  23.967  1.00  0.00    -0.166 F 
ATOM    104  F   UNL A   1      27.547  30.650  21.835  1.00  0.00    -0.166 F 
ENDBRANCH  99 101
ENDBRANCH  84  95
ENDBRANCH  78  80
ENDBRANCH  77  78
ENDBRANCH  76  77
ENDBRANCH  75  76
ENDBRANCH  74  75
ENDBRANCH   1  74
TORSDOF 20
ENDMDL
MODEL 2
REMARK VINA RESULT:     -12.9      1.856      3.019
REMARK SMILES O=C(OCCOCCOC(=O)c1nnn(-c2cccc(C(F)(F)F)c2)c1[C@@H]1COc2ccccc2O1)c1ccc(-c2c3nc(c(-c4c(F)cc(S(=O)(=O)[O-])cc4F)c4ccc([nH]4)c(-c4c(F)cc(S(=O)(=O)[O-])cc4F)c4nc(c(-c5c(F)cc(S(=O)(=O)[O-])cc5F)c5ccc2[nH]5)C=C4)C=C3)cc1
REMARK SMILES IDX 5 1 4 2 3 3 2 4 1 5 37 6 38 7 102 8 39 9 101 10 40 11 41 12
REMARK SMILES IDX 42 13 95 14 43 15 100 16 94 17 96 18 44 19 99 20 93 21 92 22
REMARK SMILES IDX 45 24 79 25 58 26 78 27 59 28 62 29 77 30 97 31 60 32 61 33
REMARK SMILES IDX 76 35 98 36 63 37 46 38 47 39 56 40 48 41 49 42 55 43 57 44
REMARK SMILES IDX 50 45 51 46 52 47 53 48 54 49 80 50 81 51 90 52 82 53 83 54
REMARK SMILES IDX 89 55 91 56 84 57 85 58 86 59 87 60 88 61 64 62 65 63 74 64
REMARK SMILES IDX 66 65 67 66 73 67 75 68 68 69 69 70 70 71 71 72 72 73 6 74
REMARK SMILES IDX 7 75 8 76 9 77 10 78 11 79 12 80 13 81 26 82 14 83 15 84
REMARK SMILES IDX 27 85 28 86 36 87 29 88 35 89 30 90 34 91 31 92 33 93 32 94
REMARK SMILES IDX 16 95 17 96 25 97 18 98 20 99 19 100 21 101 22 102 23 103
REMARK SMILES IDX 24 104
REMARK H PARENT 96 23 62 34
REMARK Flexibility Score: inf
ROOT
ATOM      1  C   UNL A   1      37.434  21.092  24.552  1.00  0.00     0.202 C 
ENDROOT
BRANCH   1   2
ATOM      2  C   UNL A   1      37.809  22.368  25.298  1.00  0.00     0.261 C 
BRANCH   2   3
ATOM      3  O   UNL A   1      38.546  22.190  26.527  1.00  0.00    -0.460 OA
BRANCH   3   4
ATOM      4  C   UNL A   1      39.876  22.427  26.609  1.00  0.00     0.338 C 
ATOM      5  O   UNL A   1      40.701  21.660  26.122  1.00  0.00    -0.246 OA
BRANCH   4   6
ATOM      6  C   UNL A   1      40.243  23.807  27.024  1.00  0.00     0.060 A 
ATOM      7  C   UNL A   1      41.231  24.074  27.969  1.00  0.00     0.016 A 
ATOM      8  C   UNL A   1      39.508  24.875  26.483  1.00  0.00     0.016 A 
ATOM      9  C   UNL A   1      41.400  25.357  28.462  1.00  0.00     0.010 A 
ATOM     10  C   UNL A   1      39.692  26.172  26.962  1.00  0.00     0.010 A 
ATOM     11  C   UNL A   1      40.598  26.400  27.997  1.00  0.00    -0.014 A 
BRANCH  11  12
ATOM     12  C   UNL A   1      40.767  27.684  28.674  1.00  0.00     0.031 A 
ATOM     13  C   UNL A   1      41.926  28.522  28.252  1.00  0.00     0.074 A 
ATOM     14  C   UNL A   1      39.938  28.133  29.635  1.00  0.00     0.049 A 
ATOM     15  N   UNL A   1      42.953  28.896  28.946  1.00  0.00    -0.248 NA
ATOM     16  C   UNL A   1      41.967  28.943  26.844  1.00  0.00     0.031 C 
ATOM     17  C   UNL A   1      38.618  27.623  30.013  1.00  0.00     0.029 A 
ATOM     18  N   UNL A   1      40.093  29.228  30.433  1.00  0.00    -0.354 N 
ATOM     19  C   UNL A   1      43.689  29.745  28.121  1.00  0.00     0.074 A 
ATOM     20  C   UNL A   1      43.091  29.659  26.812  1.00  0.00     0.031 C 
ATOM     21  C   UNL A   1      38.006  28.531  30.804  1.00  0.00     0.029 A 
ATOM     22  C   UNL A   1      38.942  29.603  31.102  1.00  0.00     0.049 A 
ATOM     23  H   UNL A   1      40.948  29.707  30.525  1.00  0.00     0.167 HD
ATOM     24  C   UNL A   1      44.648  30.591  28.591  1.00  0.00     0.037 A 
ATOM     25  C   UNL A   1      38.747  30.753  31.787  1.00  0.00     0.037 A 
ATOM     26  C   UNL A   1      45.117  30.223  29.896  1.00  0.00     0.049 A 
ATOM     27  C   UNL A   1      40.078  31.292  32.167  1.00  0.00     0.074 A 
ATOM     28  C   UNL A   1      45.749  29.115  30.427  1.00  0.00     0.029 A 
ATOM     29  N   UNL A   1      44.699  30.958  30.977  1.00  0.00    -0.354 N 
ATOM     30  N   UNL A   1      40.884  30.735  33.029  1.00  0.00    -0.248 NA
ATOM     31  C   UNL A   1      40.688  32.291  31.303  1.00  0.00     0.031 C 
ATOM     32  C   UNL A   1      45.256  29.004  31.761  1.00  0.00     0.029 A 
ATOM     33  C   UNL A   1      44.365  30.059  31.959  1.00  0.00     0.049 A 
ATOM     34  H   UNL A   1      44.648  31.939  31.037  1.00  0.00     0.167 HD
ATOM     35  C   UNL A   1      42.160  31.017  32.564  1.00  0.00     0.074 A 
ATOM     36  C   UNL A   1      41.976  32.069  31.571  1.00  0.00     0.031 C 
ATOM     37  C   UNL A   1      43.217  30.194  32.830  1.00  0.00     0.037 A 
BRANCH  24  38
ATOM     38  C   UNL A   1      44.975  31.920  27.957  1.00  0.00     0.058 A 
ATOM     39  C   UNL A   1      46.244  32.150  27.389  1.00  0.00     0.135 A 
ATOM     40  C   UNL A   1      44.163  33.063  28.126  1.00  0.00     0.135 A 
ATOM     41  F   UNL A   1      47.107  31.137  27.211  1.00  0.00    -0.206 F 
ATOM     42  C   UNL A   1      46.689  33.430  27.051  1.00  0.00     0.059 A 
ATOM     43  C   UNL A   1      44.565  34.339  27.748  1.00  0.00     0.059 A 
ATOM     44  F   UNL A   1      42.980  32.999  28.752  1.00  0.00    -0.206 F 
ATOM     45  C   UNL A   1      45.846  34.520  27.249  1.00  0.00     0.060 A 
BRANCH  45  46
ATOM     46  S   UNL A   1      46.452  36.186  26.921  1.00  0.00     0.124 S 
ATOM     47  O   UNL A   1      45.201  36.926  26.790  1.00  0.00    -0.237 OA
ATOM     48  O   UNL A   1      47.241  36.469  28.115  1.00  0.00    -0.237 OA
ATOM     49  O   UNL A   1      47.224  36.025  25.692  1.00  0.00    -0.744 OA
ENDBRANCH  45  46
ENDBRANCH  24  38
BRANCH  25  50
ATOM     50  C   UNL A   1      37.505  31.562  31.824  1.00  0.00     0.058 A 
ATOM     51  C   UNL A   1      36.841  31.826  33.032  1.00  0.00     0.135 A 
ATOM     52  C   UNL A   1      37.092  32.316  30.705  1.00  0.00     0.135 A 
ATOM     53  F   UNL A   1      37.195  31.176  34.151  1.00  0.00    -0.206 F 
ATOM     54  C   UNL A   1      35.848  32.804  33.135  1.00  0.00     0.059 A 
ATOM     55  C   UNL A   1      36.094  33.284  30.779  1.00  0.00     0.059 A 
ATOM     56  F   UNL A   1      37.710  32.200  29.520  1.00  0.00    -0.206 F 
ATOM     57  C   UNL A   1      35.493  33.541  32.004  1.00  0.00     0.060 A 
BRANCH  57  58
ATOM     58  S   UNL A   1      34.336  34.917  32.166  1.00  0.00     0.124 S 
ATOM     59  O   UNL A   1      33.231  34.296  32.889  1.00  0.00    -0.237 OA
ATOM     60  O   UNL A   1      35.121  35.893  32.916  1.00  0.00    -0.237 OA
ATOM     61  O   UNL A   1      34.048  35.284  30.782  1.00  0.00    -0.744 OA
ENDBRANCH  57  58
ENDBRANCH  25  50
BRANCH  37  62
ATOM     62  C   UNL A   1      43.063  29.152  33.908  1.00  0.00     0.058 A 
ATOM     63  C   UNL A   1      43.379  29.374  35.259  1.00  0.00     0.135 A 
ATOM     64  C   UNL A   1      42.407  27.951  33.591  1.00  0.00     0.135 A 
ATOM     65  F   UNL A   1      43.911  30.538  35.659  1.00  0.00    -0.206 F 
ATOM     66  C   UNL A   1      43.083  28.433  36.247  1.00  0.00     0.059 A 
ATOM     67  C   UNL A   1      42.074  27.012  34.565  1.00  0.00     0.059 A 
ATOM     68  F   UNL A   1      42.022  27.708  32.327  1.00  0.00    -0.206 F 
ATOM     69  C   UNL A   1      42.424  27.257  35.892  1.00  0.00     0.060 A 
BRANCH  69  70
ATOM     70  S   UNL A   1      41.932  26.100  37.191  1.00  0.00     0.124 S 
ATOM     71  O   UNL A   1      42.991  26.278  38.178  1.00  0.00    -0.237 OA
ATOM     72  O   UNL A   1      40.614  26.595  37.579  1.00  0.00    -0.237 OA
ATOM     73  O   UNL A   1      41.923  24.807  36.509  1.00  0.00    -0.744 OA
ENDBRANCH  69  70
ENDBRANCH  37  62
ENDBRANCH  11  12
ENDBRANCH   4   6
ENDBRANCH   3   4
ENDBRANCH   2   3
ENDBRANCH   1   2
BRANCH   1  74
ATOM     74  O   UNL A   1      36.520  20.266  25.275  1.00  0.00    -0.374 OA
BRANCH  74  75
ATOM     75  C   UNL A   1      36.339  18.948  24.749  1.00  0.00     0.202 C 
BRANCH  75  76
ATOM     76  C   UNL A   1      34.892  18.452  24.697  1.00  0.00     0.261 C 
BRANCH  76  77
ATOM     77  O   UNL A   1      34.032  19.483  24.180  1.00  0.00    -0.458 OA
BRANCH  77  78
ATOM     78  C   UNL A   1      33.023  19.884  25.012  1.00  0.00     0.361 C 
ATOM     79  O   UNL A   1      32.145  19.152  25.420  1.00  0.00    -0.244 OA
BRANCH  78  80
ATOM     80  C   UNL A   1      33.160  21.279  25.432  1.00  0.00     0.198 A 
ATOM     81  N   UNL A   1      33.694  21.556  26.669  1.00  0.00    -0.122 NA
ATOM     82  C   UNL A   1      32.939  22.483  24.764  1.00  0.00     0.123 A 
ATOM     83  N   UNL A   1      33.800  22.866  26.797  1.00  0.00    -0.061 NA
ATOM     84  N   UNL A   1      33.161  23.432  25.752  1.00  0.00    -0.213 N 
BRANCH  82  85
ATOM     85  C   UNL A   1      32.697  22.809  23.314  1.00  0.00     0.262 C 
ATOM     86  C   UNL A   1      33.976  23.208  22.559  1.00  0.00     0.281 C 
ATOM     87  O   UNL A   1      31.629  23.757  23.179  1.00  0.00    -0.477 OA
ATOM     88  O   UNL A   1      34.401  24.533  22.890  1.00  0.00    -0.485 OA
ATOM     89  C   UNL A   1      32.026  25.018  22.809  1.00  0.00     0.162 A 
ATOM     90  C   UNL A   1      33.363  25.409  22.710  1.00  0.00     0.161 A 
ATOM     91  C   UNL A   1      31.015  25.959  22.618  1.00  0.00     0.050 A 
ATOM     92  C   UNL A   1      33.692  26.746  22.490  1.00  0.00     0.050 A 
ATOM     93  C   UNL A   1      31.341  27.295  22.371  1.00  0.00     0.004 A 
ATOM     94  C   UNL A   1      32.678  27.691  22.322  1.00  0.00     0.004 A 
ENDBRANCH  82  85
BRANCH  84  95
ATOM     95  C   UNL A   1      32.493  24.647  25.991  1.00  0.00     0.067 A 
ATOM     96  C   UNL A   1      31.098  24.669  26.042  1.00  0.00     0.028 A 
ATOM     97  C   UNL A   1      33.241  25.828  26.069  1.00  0.00     0.041 A 
ATOM     98  C   UNL A   1      30.449  25.882  26.264  1.00  0.00     0.003 A 
ATOM     99  C   UNL A   1      32.587  27.056  26.230  1.00  0.00     0.058 A 
ATOM    100  C   UNL A   1      31.187  27.066  26.359  1.00  0.00     0.013 A 
BRANCH  99 101
ATOM    101  C   UNL A   1      33.368  28.343  26.267  1.00  0.00     0.416 C 
ATOM    102  F   UNL A   1      32.811  29.271  27.098  1.00  0.00    -0.166 F 
ATOM    103  F   UNL A   1      34.645  28.171  26.708  1.00  0.00    -0.166 F 
ATOM    104  F   UNL A   1      33.472  28.955  25.054  1.00  0.00    -0.166 F 
ENDBRANCH  99 101
ENDBRANCH  84  95
ENDBRANCH  78  80
ENDBRANCH  77  78
ENDBRANCH  76  77
ENDBRANCH  75  76
ENDBRANCH  74  75
ENDBRANCH   1  74
TORSDOF 20
ENDMDL
MODEL 3
REMARK VINA RESULT:     -12.9      2.787      4.081
REMARK SMILES O=C(OCCOCCOC(=O)c1nnn(-c2cccc(C(F)(F)F)c2)c1[C@@H]1COc2ccccc2O1)c1ccc(-c2c3nc(c(-c4c(F)cc(S(=O)(=O)[O-])cc4F)c4ccc([nH]4)c(-c4c(F)cc(S(=O)(=O)[O-])cc4F)c4nc(c(-c5c(F)cc(S(=O)(=O)[O-])cc5F)c5ccc2[nH]5)C=C4)C=C3)cc1
REMARK SMILES IDX 5 1 4 2 3 3 2 4 1 5 37 6 38 7 102 8 39 9 101 10 40 11 41 12
REMARK SMILES IDX 42 13 95 14 43 15 100 16 94 17 96 18 44 19 99 20 93 21 92 22
REMARK SMILES IDX 45 24 79 25 58 26 78 27 59 28 62 29 77 30 97 31 60 32 61 33
REMARK SMILES IDX 76 35 98 36 63 37 46 38 47 39 56 40 48 41 49 42 55 43 57 44
REMARK SMILES IDX 50 45 51 46 52 47 53 48 54 49 80 50 81 51 90 52 82 53 83 54
REMARK SMILES IDX 89 55 91 56 84 57 85 58 86 59 87 60 88 61 64 62 65 63 74 64
REMARK SMILES IDX 66 65 67 66 73 67 75 68 68 69 69 70 70 71 71 72 72 73 6 74
REMARK SMILES IDX 7 75 8 76 9 77 10 78 11 79 12 80 13 81 26 82 14 83 15 84
REMARK SMILES IDX 27 85 28 86 36 87 29 88 35 89 30 90 34 91 31 92 33 93 32 94
REMARK SMILES IDX 16 95 17 96 25 97 18 98 20 99 19 100 21 101 22 102 23 103
REMARK SMILES IDX 24 104
REMARK H PARENT 96 23 62 34
REMARK Flexibility Score: inf
ROOT
ATOM      1  C   UNL A   1      40.887  19.875  26.367  1.00  0.00     0.202 C 
ENDROOT
BRANCH   1   2
ATOM      2  C   UNL A   1      42.362  19.486  26.328  1.00  0.00     0.261 C 
BRANCH   2   3
ATOM      3  O   UNL A   1      43.053  19.748  25.087  1.00  0.00    -0.460 OA
BRANCH   3   4
ATOM      4  C   UNL A   1      44.251  20.376  25.050  1.00  0.00     0.338 C 
ATOM      5  O   UNL A   1      45.213  19.900  24.457  1.00  0.00    -0.246 OA
BRANCH   4   6
ATOM      6  C   UNL A   1      44.226  21.799  25.481  1.00  0.00     0.060 A 
ATOM      7  C   UNL A   1      44.869  22.252  26.631  1.00  0.00     0.016 A 
ATOM      8  C   UNL A   1      43.462  22.704  24.724  1.00  0.00     0.016 A 
ATOM      9  C   UNL A   1      44.656  23.539  27.092  1.00  0.00     0.010 A 
ATOM     10  C   UNL A   1      43.264  24.009  25.176  1.00  0.00     0.010 A 
ATOM     11  C   UNL A   1      43.814  24.405  26.394  1.00  0.00    -0.014 A 
BRANCH  11  12
ATOM     12  C   UNL A   1      43.553  25.694  27.032  1.00  0.00     0.031 A 
ATOM     13  C   UNL A   1      44.586  26.756  26.855  1.00  0.00     0.074 A 
ATOM     14  C   UNL A   1      42.446  25.957  27.752  1.00  0.00     0.049 A 
ATOM     15  N   UNL A   1      45.320  27.332  27.753  1.00  0.00    -0.248 NA
ATOM     16  C   UNL A   1      44.874  27.182  25.478  1.00  0.00     0.031 C 
ATOM     17  C   UNL A   1      41.206  25.183  27.833  1.00  0.00     0.029 A 
ATOM     18  N   UNL A   1      42.182  27.057  28.514  1.00  0.00    -0.354 N 
ATOM     19  C   UNL A   1      46.043  28.318  27.085  1.00  0.00     0.074 A 
ATOM     20  C   UNL A   1      45.804  28.116  25.677  1.00  0.00     0.031 C 
ATOM     21  C   UNL A   1      40.252  25.941  28.418  1.00  0.00     0.029 A 
ATOM     22  C   UNL A   1      40.853  27.182  28.877  1.00  0.00     0.049 A 
ATOM     23  H   UNL A   1      42.876  27.703  28.781  1.00  0.00     0.167 HD
ATOM     24  C   UNL A   1      46.672  29.343  27.727  1.00  0.00     0.037 A 
ATOM     25  C   UNL A   1      40.273  28.264  29.445  1.00  0.00     0.037 A 
ATOM     26  C   UNL A   1      46.881  29.075  29.121  1.00  0.00     0.049 A 
ATOM     27  C   UNL A   1      41.337  29.066  30.101  1.00  0.00     0.074 A 
ATOM     28  C   UNL A   1      47.579  28.119  29.834  1.00  0.00     0.029 A 
ATOM     29  N   UNL A   1      46.078  29.702  30.040  1.00  0.00    -0.354 N 
ATOM     30  N   UNL A   1      42.010  28.685  31.152  1.00  0.00    -0.248 NA
ATOM     31  C   UNL A   1      41.920  30.174  29.359  1.00  0.00     0.031 C 
ATOM     32  C   UNL A   1      46.816  27.903  31.019  1.00  0.00     0.029 A 
ATOM     33  C   UNL A   1      45.709  28.749  30.957  1.00  0.00     0.049 A 
ATOM     34  H   UNL A   1      45.817  30.651  30.041  1.00  0.00     0.167 HD
ATOM     35  C   UNL A   1      43.276  29.226  30.986  1.00  0.00     0.074 A 
ATOM     36  C   UNL A   1      43.125  30.222  29.930  1.00  0.00     0.031 C 
ATOM     37  C   UNL A   1      44.383  28.640  31.528  1.00  0.00     0.037 A 
BRANCH  24  38
ATOM     38  C   UNL A   1      46.864  30.714  27.128  1.00  0.00     0.058 A 
ATOM     39  C   UNL A   1      48.136  31.321  27.122  1.00  0.00     0.135 A 
ATOM     40  C   UNL A   1      45.781  31.557  26.794  1.00  0.00     0.135 A 
ATOM     41  F   UNL A   1      49.231  30.617  27.453  1.00  0.00    -0.206 F 
ATOM     42  C   UNL A   1      48.313  32.678  26.844  1.00  0.00     0.059 A 
ATOM     43  C   UNL A   1      45.940  32.897  26.462  1.00  0.00     0.059 A 
ATOM     44  F   UNL A   1      44.512  31.132  26.867  1.00  0.00    -0.206 F 
ATOM     45  C   UNL A   1      47.205  33.460  26.530  1.00  0.00     0.060 A 
BRANCH  45  46
ATOM     46  S   UNL A   1      47.410  35.234  26.280  1.00  0.00     0.124 S 
ATOM     47  O   UNL A   1      48.236  35.593  27.427  1.00  0.00    -0.237 OA
ATOM     48  O   UNL A   1      48.065  35.289  24.978  1.00  0.00    -0.237 OA
ATOM     49  O   UNL A   1      46.038  35.736  26.305  1.00  0.00    -0.744 OA
ENDBRANCH  45  46
ENDBRANCH  24  38
BRANCH  25  50
ATOM     50  C   UNL A   1      38.920  28.798  29.154  1.00  0.00     0.058 A 
ATOM     51  C   UNL A   1      37.982  29.008  30.177  1.00  0.00     0.135 A 
ATOM     52  C   UNL A   1      38.613  29.364  27.898  1.00  0.00     0.135 A 
ATOM     53  F   UNL A   1      38.213  28.532  31.410  1.00  0.00    -0.206 F 
ATOM     54  C   UNL A   1      36.823  29.763  29.978  1.00  0.00     0.059 A 
ATOM     55  C   UNL A   1      37.458  30.105  27.672  1.00  0.00     0.059 A 
ATOM     56  F   UNL A   1      39.475  29.289  26.873  1.00  0.00    -0.206 F 
ATOM     57  C   UNL A   1      36.579  30.323  28.724  1.00  0.00     0.060 A 
BRANCH  57  58
ATOM     58  S   UNL A   1      35.174  31.437  28.505  1.00  0.00     0.124 S 
ATOM     59  O   UNL A   1      34.150  30.532  27.995  1.00  0.00    -0.237 OA
ATOM     60  O   UNL A   1      34.966  31.939  29.860  1.00  0.00    -0.237 OA
ATOM     61  O   UNL A   1      35.669  32.424  27.548  1.00  0.00    -0.744 OA
ENDBRANCH  57  58
ENDBRANCH  25  50
BRANCH  37  62
ATOM     62  C   UNL A   1      44.192  27.583  32.586  1.00  0.00     0.058 A 
ATOM     63  C   UNL A   1      43.974  27.870  33.945  1.00  0.00     0.135 A 
ATOM     64  C   UNL A   1      44.046  26.247  32.181  1.00  0.00     0.135 A 
ATOM     65  F   UNL A   1      43.991  29.134  34.393  1.00  0.00    -0.206 F 
ATOM     66  C   UNL A   1      43.654  26.870  34.864  1.00  0.00     0.059 A 
ATOM     67  C   UNL A   1      43.698  25.237  33.076  1.00  0.00     0.059 A 
ATOM     68  F   UNL A   1      44.180  25.918  30.885  1.00  0.00    -0.206 F 
ATOM     69  C   UNL A   1      43.511  25.556  34.420  1.00  0.00     0.060 A 
BRANCH  69  70
ATOM     70  S   UNL A   1      42.976  24.287  35.590  1.00  0.00     0.124 S 
ATOM     71  O   UNL A   1      43.602  24.730  36.831  1.00  0.00    -0.237 OA
ATOM     72  O   UNL A   1      41.520  24.398  35.540  1.00  0.00    -0.237 OA
ATOM     73  O   UNL A   1      43.515  23.052  35.023  1.00  0.00    -0.744 OA
ENDBRANCH  69  70
ENDBRANCH  37  62
ENDBRANCH  11  12
ENDBRANCH   4   6
ENDBRANCH   3   4
ENDBRANCH   2   3
ENDBRANCH   1   2
BRANCH   1  74
ATOM     74  O   UNL A   1      40.645  21.089  27.078  1.00  0.00    -0.374 OA
BRANCH  74  75
ATOM     75  C   UNL A   1      39.637  21.937  26.517  1.00  0.00     0.202 C 
BRANCH  75  76
ATOM     76  C   UNL A   1      38.645  21.248  25.578  1.00  0.00     0.261 C 
BRANCH  76  77
ATOM     77  O   UNL A   1      37.296  21.592  25.943  1.00  0.00    -0.458 OA
BRANCH  77  78
ATOM     78  C   UNL A   1      36.320  21.126  25.105  1.00  0.00     0.361 C 
ATOM     79  O   UNL A   1      35.925  19.980  25.090  1.00  0.00    -0.244 OA
BRANCH  78  80
ATOM     80  C   UNL A   1      35.736  22.184  24.278  1.00  0.00     0.198 A 
ATOM     81  N   UNL A   1      36.487  22.730  23.263  1.00  0.00    -0.122 NA
ATOM     82  C   UNL A   1      34.457  22.735  24.230  1.00  0.00     0.123 A 
ATOM     83  N   UNL A   1      35.737  23.595  22.605  1.00  0.00    -0.061 NA
ATOM     84  N   UNL A   1      34.592  23.757  23.302  1.00  0.00    -0.213 N 
BRANCH  82  85
ATOM     85  C   UNL A   1      33.146  22.310  24.839  1.00  0.00     0.262 C 
ATOM     86  C   UNL A   1      32.089  21.918  23.793  1.00  0.00     0.281 C 
ATOM     87  O   UNL A   1      32.686  23.285  25.784  1.00  0.00    -0.477 OA
ATOM     88  O   UNL A   1      31.530  23.063  23.142  1.00  0.00    -0.485 OA
ATOM     89  C   UNL A   1      31.604  24.022  25.368  1.00  0.00     0.162 A 
ATOM     90  C   UNL A   1      31.070  23.949  24.079  1.00  0.00     0.161 A 
ATOM     91  C   UNL A   1      31.093  24.948  26.276  1.00  0.00     0.050 A 
ATOM     92  C   UNL A   1      30.078  24.843  23.676  1.00  0.00     0.050 A 
ATOM     93  C   UNL A   1      30.081  25.827  25.883  1.00  0.00     0.004 A 
ATOM     94  C   UNL A   1      29.585  25.784  24.580  1.00  0.00     0.004 A 
ENDBRANCH  82  85
BRANCH  84  95
ATOM     95  C   UNL A   1      34.010  25.038  23.290  1.00  0.00     0.067 A 
ATOM     96  C   UNL A   1      33.481  25.543  22.101  1.00  0.00     0.028 A 
ATOM     97  C   UNL A   1      34.067  25.820  24.449  1.00  0.00     0.041 A 
ATOM     98  C   UNL A   1      32.920  26.819  22.100  1.00  0.00     0.003 A 
ATOM     99  C   UNL A   1      33.561  27.125  24.433  1.00  0.00     0.058 A 
ATOM    100  C   UNL A   1      32.958  27.604  23.257  1.00  0.00     0.013 A 
BRANCH  99 101
ATOM    101  C   UNL A   1      33.655  28.001  25.655  1.00  0.00     0.416 C 
ATOM    102  F   UNL A   1      32.645  28.914  25.726  1.00  0.00    -0.166 F 
ATOM    103  F   UNL A   1      33.597  27.292  26.816  1.00  0.00    -0.166 F 
ATOM    104  F   UNL A   1      34.808  28.726  25.720  1.00  0.00    -0.166 F 
ENDBRANCH  99 101
ENDBRANCH  84  95
ENDBRANCH  78  80
ENDBRANCH  77  78
ENDBRANCH  76  77
ENDBRANCH  75  76
ENDBRANCH  74  75
ENDBRANCH   1  74
TORSDOF 20
ENDMDL
