MODEL 1
REMARK VINA RESULT:     -10.7      0.000      0.000
REMARK SMILES O=C(OCCOCCOC(=O)c1cccc(Nc2ccc([N+](=O)[O-])cc2)c1)c1ccc(-c2c3nc(c(-c4c(F)cc(S(=O)(=O)[O-])cc4F)c4ccc([nH]4)c(-c4c(F)cc(S(=O)(=O)[O-])cc4F)c4nc(c(-c5c(F)cc(S(=O)(=O)[O-])cc5F)c5ccc2[nH]5)C=C4)C=C3)cc1
REMARK SMILES IDX 6 1 5 2 4 3 3 4 2 5 1 6 28 7 29 8 93 9 30 10 92 11 31 12
REMARK SMILES IDX 32 13 33 14 86 15 34 16 91 17 85 18 87 19 35 20 90 21 84 22
REMARK SMILES IDX 83 23 36 25 70 26 49 27 69 28 50 29 53 30 68 31 88 32 51 33
REMARK SMILES IDX 52 34 67 36 89 37 54 38 37 39 38 40 47 41 39 42 40 43 46 44
REMARK SMILES IDX 48 45 41 46 42 47 43 48 44 49 45 50 71 51 72 52 81 53 73 54
REMARK SMILES IDX 74 55 80 56 82 57 75 58 76 59 77 60 78 61 79 62 55 63 56 64
REMARK SMILES IDX 65 65 57 66 58 67 64 68 66 69 59 70 60 71 61 72 62 73 63 74
REMARK SMILES IDX 7 75 8 76 9 77 10 78 11 79 12 80 13 81 27 82 14 83 16 84
REMARK SMILES IDX 15 85 17 86 18 88 19 89 26 90 20 91 25 92 21 93 22 94 23 95
REMARK SMILES IDX 24 96
REMARK H PARENT 87 24 53 35 17 87
REMARK Flexibility Score: inf
ROOT
ATOM      1  O   UNL A   1      43.692  22.697  25.879  1.00  0.00    -0.374 OA
ENDROOT
BRANCH   1   2
ATOM      2  C   UNL A   1      44.147  23.635  24.902  1.00  0.00     0.202 C 
BRANCH   2   3
ATOM      3  C   UNL A   1      44.520  25.009  25.466  1.00  0.00     0.261 C 
BRANCH   3   4
ATOM      4  O   UNL A   1      43.547  25.991  25.075  1.00  0.00    -0.460 OA
BRANCH   4   5
ATOM      5  C   UNL A   1      42.358  26.272  25.660  1.00  0.00     0.338 C 
ATOM      6  O   UNL A   1      41.329  25.913  25.091  1.00  0.00    -0.246 OA
BRANCH   5   7
ATOM      7  C   UNL A   1      42.224  26.981  26.969  1.00  0.00     0.060 A 
ATOM      8  C   UNL A   1      41.533  26.490  28.077  1.00  0.00     0.016 A 
ATOM      9  C   UNL A   1      42.913  28.198  27.112  1.00  0.00     0.016 A 
ATOM     10  C   UNL A   1      41.448  27.205  29.258  1.00  0.00     0.010 A 
ATOM     11  C   UNL A   1      42.868  28.910  28.313  1.00  0.00     0.010 A 
ATOM     12  C   UNL A   1      42.107  28.423  29.380  1.00  0.00    -0.014 A 
BRANCH  12  13
ATOM     13  C   UNL A   1      41.833  29.210  30.593  1.00  0.00     0.031 A 
ATOM     14  C   UNL A   1      40.594  30.050  30.616  1.00  0.00     0.074 A 
ATOM     15  C   UNL A   1      42.588  29.016  31.689  1.00  0.00     0.049 A 
ATOM     16  N   UNL A   1      40.124  30.804  31.569  1.00  0.00    -0.248 NA
ATOM     17  C   UNL A   1      39.758  30.020  29.402  1.00  0.00     0.031 C 
ATOM     18  C   UNL A   1      43.726  28.096  31.776  1.00  0.00     0.029 A 
ATOM     19  N   UNL A   1      42.485  29.536  32.950  1.00  0.00    -0.354 N 
ATOM     20  C   UNL A   1      38.959  31.367  31.060  1.00  0.00     0.074 A 
ATOM     21  C   UNL A   1      38.790  30.867  29.715  1.00  0.00     0.031 C 
ATOM     22  C   UNL A   1      44.193  28.091  33.035  1.00  0.00     0.029 A 
ATOM     23  C   UNL A   1      43.432  29.054  33.823  1.00  0.00     0.049 A 
ATOM     24  H   UNL A   1      41.797  30.192  33.209  1.00  0.00     0.167 HD
ATOM     25  C   UNL A   1      38.120  32.236  31.667  1.00  0.00     0.037 A 
ATOM     26  C   UNL A   1      43.662  29.382  35.108  1.00  0.00     0.037 A 
ATOM     27  C   UNL A   1      38.324  32.705  33.011  1.00  0.00     0.049 A 
ATOM     28  C   UNL A   1      42.762  30.412  35.734  1.00  0.00     0.074 A 
ATOM     29  C   UNL A   1      37.594  33.634  33.726  1.00  0.00     0.029 A 
ATOM     30  N   UNL A   1      39.346  32.265  33.845  1.00  0.00    -0.354 N 
ATOM     31  N   UNL A   1      41.711  31.010  35.219  1.00  0.00    -0.248 NA
ATOM     32  C   UNL A   1      43.080  30.827  37.105  1.00  0.00     0.031 C 
ATOM     33  C   UNL A   1      38.202  33.789  34.977  1.00  0.00     0.029 A 
ATOM     34  C   UNL A   1      39.278  32.915  35.063  1.00  0.00     0.049 A 
ATOM     35  H   UNL A   1      40.021  31.590  33.604  1.00  0.00     0.167 HD
ATOM     36  C   UNL A   1      41.225  31.852  36.212  1.00  0.00     0.074 A 
ATOM     37  C   UNL A   1      42.095  31.676  37.360  1.00  0.00     0.031 C 
ATOM     38  C   UNL A   1      40.161  32.692  36.183  1.00  0.00     0.037 A 
BRANCH  25  39
ATOM     39  C   UNL A   1      36.990  32.787  30.844  1.00  0.00     0.058 A 
ATOM     40  C   UNL A   1      37.160  33.855  29.949  1.00  0.00     0.135 A 
ATOM     41  C   UNL A   1      35.694  32.270  31.003  1.00  0.00     0.135 A 
ATOM     42  F   UNL A   1      38.371  34.413  29.782  1.00  0.00    -0.206 F 
ATOM     43  C   UNL A   1      36.080  34.417  29.272  1.00  0.00     0.059 A 
ATOM     44  C   UNL A   1      34.604  32.798  30.318  1.00  0.00     0.059 A 
ATOM     45  F   UNL A   1      35.471  31.258  31.857  1.00  0.00    -0.206 F 
ATOM     46  C   UNL A   1      34.805  33.886  29.471  1.00  0.00     0.060 A 
BRANCH  46  47
ATOM     47  S   UNL A   1      33.404  34.648  28.623  1.00  0.00     0.124 S 
ATOM     48  O   UNL A   1      34.049  35.773  27.950  1.00  0.00    -0.237 OA
ATOM     49  O   UNL A   1      32.943  33.572  27.752  1.00  0.00    -0.237 OA
ATOM     50  O   UNL A   1      32.499  35.004  29.710  1.00  0.00    -0.744 OA
ENDBRANCH  46  47
ENDBRANCH  25  39
BRANCH  26  51
ATOM     51  C   UNL A   1      44.793  28.765  35.856  1.00  0.00     0.058 A 
ATOM     52  C   UNL A   1      46.093  29.286  35.778  1.00  0.00     0.135 A 
ATOM     53  C   UNL A   1      44.594  27.640  36.674  1.00  0.00     0.135 A 
ATOM     54  F   UNL A   1      46.342  30.355  35.007  1.00  0.00    -0.206 F 
ATOM     55  C   UNL A   1      47.155  28.707  36.470  1.00  0.00     0.059 A 
ATOM     56  C   UNL A   1      45.633  27.062  37.397  1.00  0.00     0.059 A 
ATOM     57  F   UNL A   1      43.369  27.104  36.796  1.00  0.00    -0.206 F 
ATOM     58  C   UNL A   1      46.914  27.595  37.278  1.00  0.00     0.060 A 
BRANCH  58  59
ATOM     59  S   UNL A   1      48.291  26.870  38.196  1.00  0.00     0.124 S 
ATOM     60  O   UNL A   1      49.177  26.451  37.116  1.00  0.00    -0.237 OA
ATOM     61  O   UNL A   1      48.752  27.997  39.001  1.00  0.00    -0.237 OA
ATOM     62  O   UNL A   1      47.661  25.789  38.950  1.00  0.00    -0.744 OA
ENDBRANCH  58  59
ENDBRANCH  26  51
BRANCH  38  63
ATOM     63  C   UNL A   1      39.853  33.437  37.448  1.00  0.00     0.058 A 
ATOM     64  C   UNL A   1      40.513  34.629  37.785  1.00  0.00     0.135 A 
ATOM     65  C   UNL A   1      38.844  32.973  38.307  1.00  0.00     0.135 A 
ATOM     66  F   UNL A   1      41.489  35.109  36.997  1.00  0.00    -0.206 F 
ATOM     67  C   UNL A   1      40.199  35.322  38.947  1.00  0.00     0.059 A 
ATOM     68  C   UNL A   1      38.494  33.666  39.459  1.00  0.00     0.059 A 
ATOM     69  F   UNL A   1      38.176  31.844  38.018  1.00  0.00    -0.206 F 
ATOM     70  C   UNL A   1      39.188  34.833  39.777  1.00  0.00     0.060 A 
BRANCH  70  71
ATOM     71  S   UNL A   1      38.768  35.758  41.268  1.00  0.00     0.124 S 
ATOM     72  O   UNL A   1      39.927  35.493  42.113  1.00  0.00    -0.237 OA
ATOM     73  O   UNL A   1      38.645  37.122  40.766  1.00  0.00    -0.237 OA
ATOM     74  O   UNL A   1      37.517  35.144  41.706  1.00  0.00    -0.744 OA
ENDBRANCH  70  71
ENDBRANCH  38  63
ENDBRANCH  12  13
ENDBRANCH   5   7
ENDBRANCH   4   5
ENDBRANCH   3   4
ENDBRANCH   2   3
ENDBRANCH   1   2
BRANCH   1  75
ATOM     75  C   UNL A   1      44.106  21.339  25.690  1.00  0.00     0.202 C 
BRANCH  75  76
ATOM     76  C   UNL A   1      42.898  20.411  25.843  1.00  0.00     0.261 C 
BRANCH  76  77
ATOM     77  O   UNL A   1      41.706  21.202  25.727  1.00  0.00    -0.460 OA
BRANCH  77  78
ATOM     78  C   UNL A   1      40.768  20.948  26.676  1.00  0.00     0.338 C 
ATOM     79  O   UNL A   1      40.872  20.232  27.656  1.00  0.00    -0.246 OA
BRANCH  78  80
ATOM     80  C   UNL A   1      39.644  21.875  26.445  1.00  0.00     0.062 A 
ATOM     81  C   UNL A   1      39.748  23.186  26.918  1.00  0.00     0.016 A 
ATOM     82  C   UNL A   1      38.529  21.473  25.704  1.00  0.00     0.041 A 
ATOM     83  C   UNL A   1      38.757  24.109  26.602  1.00  0.00     0.003 A 
ATOM     84  C   UNL A   1      37.492  22.373  25.449  1.00  0.00     0.039 A 
ATOM     85  C   UNL A   1      37.638  23.702  25.872  1.00  0.00     0.026 A 
BRANCH  84  86
ATOM     86  N   UNL A   1      36.342  21.906  24.776  1.00  0.00    -0.355 N 
ATOM     87  H   UNL A   1      36.479  21.386  23.953  1.00  0.00     0.167 HD
BRANCH  86  88
ATOM     88  C   UNL A   1      35.018  22.125  25.189  1.00  0.00     0.039 A 
ATOM     89  C   UNL A   1      34.654  21.827  26.507  1.00  0.00     0.033 A 
ATOM     90  C   UNL A   1      34.090  22.725  24.333  1.00  0.00     0.033 A 
ATOM     91  C   UNL A   1      33.376  22.133  26.977  1.00  0.00     0.088 A 
ATOM     92  C   UNL A   1      32.805  23.031  24.787  1.00  0.00     0.088 A 
ATOM     93  C   UNL A   1      32.456  22.738  26.113  1.00  0.00     0.269 A 
BRANCH  93  94
ATOM     94  N   UNL A   1      31.118  23.082  26.605  1.00  0.00     0.062 N 
ATOM     95  O   UNL A   1      30.174  22.351  26.269  1.00  0.00    -0.258 OA
ATOM     96  O   UNL A   1      31.006  24.085  27.324  1.00  0.00    -0.258 OA
ENDBRANCH  93  94
ENDBRANCH  86  88
ENDBRANCH  84  86
ENDBRANCH  78  80
ENDBRANCH  77  78
ENDBRANCH  76  77
ENDBRANCH  75  76
ENDBRANCH   1  75
TORSDOF 20
ENDMDL
MODEL 2
REMARK VINA RESULT:     -10.5      6.644     12.430
REMARK SMILES O=C(OCCOCCOC(=O)c1cccc(Nc2ccc([N+](=O)[O-])cc2)c1)c1ccc(-c2c3nc(c(-c4c(F)cc(S(=O)(=O)[O-])cc4F)c4ccc([nH]4)c(-c4c(F)cc(S(=O)(=O)[O-])cc4F)c4nc(c(-c5c(F)cc(S(=O)(=O)[O-])cc5F)c5ccc2[nH]5)C=C4)C=C3)cc1
REMARK SMILES IDX 6 1 5 2 4 3 3 4 2 5 1 6 28 7 29 8 93 9 30 10 92 11 31 12
REMARK SMILES IDX 32 13 33 14 86 15 34 16 91 17 85 18 87 19 35 20 90 21 84 22
REMARK SMILES IDX 83 23 36 25 70 26 49 27 69 28 50 29 53 30 68 31 88 32 51 33
REMARK SMILES IDX 52 34 67 36 89 37 54 38 37 39 38 40 47 41 39 42 40 43 46 44
REMARK SMILES IDX 48 45 41 46 42 47 43 48 44 49 45 50 71 51 72 52 81 53 73 54
REMARK SMILES IDX 74 55 80 56 82 57 75 58 76 59 77 60 78 61 79 62 55 63 56 64
REMARK SMILES IDX 65 65 57 66 58 67 64 68 66 69 59 70 60 71 61 72 62 73 63 74
REMARK SMILES IDX 7 75 8 76 9 77 10 78 11 79 12 80 13 81 27 82 14 83 16 84
REMARK SMILES IDX 15 85 17 86 18 88 19 89 26 90 20 91 25 92 21 93 22 94 23 95
REMARK SMILES IDX 24 96
REMARK H PARENT 87 24 53 35 17 87
REMARK Flexibility Score: inf
ROOT
ATOM      1  O   UNL A   1      35.303  31.356  27.667  1.00  0.00    -0.374 OA
ENDROOT
BRANCH   1   2
ATOM      2  C   UNL A   1      34.297  31.919  28.511  1.00  0.00     0.202 C 
BRANCH   2   3
ATOM      3  C   UNL A   1      34.721  32.100  29.971  1.00  0.00     0.261 C 
BRANCH   3   4
ATOM      4  O   UNL A   1      36.136  31.897  30.110  1.00  0.00    -0.460 OA
BRANCH   4   5
ATOM      5  C   UNL A   1      36.794  30.749  30.402  1.00  0.00     0.338 C 
ATOM      6  O   UNL A   1      36.229  29.917  31.109  1.00  0.00    -0.246 OA
BRANCH   5   7
ATOM      7  C   UNL A   1      38.164  30.427  29.899  1.00  0.00     0.060 A 
ATOM      8  C   UNL A   1      38.502  30.252  28.556  1.00  0.00     0.016 A 
ATOM      9  C   UNL A   1      39.199  30.374  30.848  1.00  0.00     0.016 A 
ATOM     10  C   UNL A   1      39.794  29.951  28.164  1.00  0.00     0.010 A 
ATOM     11  C   UNL A   1      40.516  30.111  30.459  1.00  0.00     0.010 A 
ATOM     12  C   UNL A   1      40.806  29.869  29.113  1.00  0.00    -0.014 A 
BRANCH  12  13
ATOM     13  C   UNL A   1      42.114  29.377  28.653  1.00  0.00     0.031 A 
ATOM     14  C   UNL A   1      43.289  30.297  28.774  1.00  0.00     0.074 A 
ATOM     15  C   UNL A   1      42.249  28.082  28.315  1.00  0.00     0.049 A 
ATOM     16  N   UNL A   1      44.538  30.087  28.466  1.00  0.00    -0.248 NA
ATOM     17  C   UNL A   1      43.022  31.632  29.339  1.00  0.00     0.031 C 
ATOM     18  C   UNL A   1      41.166  27.093  28.317  1.00  0.00     0.029 A 
ATOM     19  N   UNL A   1      43.355  27.361  27.955  1.00  0.00    -0.354 N 
ATOM     20  C   UNL A   1      45.200  31.273  28.764  1.00  0.00     0.074 A 
ATOM     21  C   UNL A   1      44.217  32.198  29.281  1.00  0.00     0.031 C 
ATOM     22  C   UNL A   1      41.671  25.888  28.010  1.00  0.00     0.029 A 
ATOM     23  C   UNL A   1      43.093  26.032  27.724  1.00  0.00     0.049 A 
ATOM     24  H   UNL A   1      44.252  27.758  27.870  1.00  0.00     0.167 HD
ATOM     25  C   UNL A   1      46.512  31.557  28.603  1.00  0.00     0.037 A 
ATOM     26  C   UNL A   1      43.918  25.054  27.305  1.00  0.00     0.037 A 
ATOM     27  C   UNL A   1      47.457  30.603  28.090  1.00  0.00     0.049 A 
ATOM     28  C   UNL A   1      45.357  25.418  27.056  1.00  0.00     0.074 A 
ATOM     29  C   UNL A   1      48.799  30.776  27.813  1.00  0.00     0.029 A 
ATOM     30  N   UNL A   1      47.146  29.284  27.780  1.00  0.00    -0.354 N 
ATOM     31  N   UNL A   1      45.963  26.568  27.256  1.00  0.00    -0.248 NA
ATOM     32  C   UNL A   1      46.224  24.366  26.513  1.00  0.00     0.031 C 
ATOM     33  C   UNL A   1      49.289  29.572  27.291  1.00  0.00     0.029 A 
ATOM     34  C   UNL A   1      48.266  28.633  27.297  1.00  0.00     0.049 A 
ATOM     35  H   UNL A   1      46.258  28.873  27.887  1.00  0.00     0.167 HD
ATOM     36  C   UNL A   1      47.288  26.371  26.890  1.00  0.00     0.074 A 
ATOM     37  C   UNL A   1      47.394  24.987  26.464  1.00  0.00     0.031 C 
ATOM     38  C   UNL A   1      48.324  27.246  26.901  1.00  0.00     0.037 A 
BRANCH  25  39
ATOM     39  C   UNL A   1      46.948  32.965  28.894  1.00  0.00     0.058 A 
ATOM     40  C   UNL A   1      47.410  33.365  30.159  1.00  0.00     0.135 A 
ATOM     41  C   UNL A   1      46.841  33.949  27.898  1.00  0.00     0.135 A 
ATOM     42  F   UNL A   1      47.499  32.474  31.160  1.00  0.00    -0.206 F 
ATOM     43  C   UNL A   1      47.712  34.696  30.435  1.00  0.00     0.059 A 
ATOM     44  C   UNL A   1      47.163  35.280  28.144  1.00  0.00     0.059 A 
ATOM     45  F   UNL A   1      46.392  33.625  26.675  1.00  0.00    -0.206 F 
ATOM     46  C   UNL A   1      47.577  35.648  29.423  1.00  0.00     0.060 A 
BRANCH  46  47
ATOM     47  S   UNL A   1      47.930  37.378  29.803  1.00  0.00     0.124 S 
ATOM     48  O   UNL A   1      48.292  37.896  28.486  1.00  0.00    -0.237 OA
ATOM     49  O   UNL A   1      46.656  37.847  30.337  1.00  0.00    -0.237 OA
ATOM     50  O   UNL A   1      49.022  37.299  30.767  1.00  0.00    -0.744 OA
ENDBRANCH  46  47
ENDBRANCH  25  39
BRANCH  26  51
ATOM     51  C   UNL A   1      43.402  23.678  27.066  1.00  0.00     0.058 A 
ATOM     52  C   UNL A   1      43.018  23.251  25.785  1.00  0.00     0.135 A 
ATOM     53  C   UNL A   1      43.287  22.753  28.118  1.00  0.00     0.135 A 
ATOM     54  F   UNL A   1      43.100  24.094  24.745  1.00  0.00    -0.206 F 
ATOM     55  C   UNL A   1      42.527  21.967  25.559  1.00  0.00     0.059 A 
ATOM     56  C   UNL A   1      42.826  21.456  27.912  1.00  0.00     0.059 A 
ATOM     57  F   UNL A   1      43.648  23.101  29.363  1.00  0.00    -0.206 F 
ATOM     58  C   UNL A   1      42.436  21.076  26.630  1.00  0.00     0.060 A 
BRANCH  58  59
ATOM     59  S   UNL A   1      41.827  19.403  26.322  1.00  0.00     0.124 S 
ATOM     60  O   UNL A   1      40.404  19.642  26.111  1.00  0.00    -0.237 OA
ATOM     61  O   UNL A   1      42.590  19.010  25.141  1.00  0.00    -0.237 OA
ATOM     62  O   UNL A   1      42.173  18.689  27.547  1.00  0.00    -0.744 OA
ENDBRANCH  58  59
ENDBRANCH  26  51
BRANCH  38  63
ATOM     63  C   UNL A   1      49.665  26.712  26.494  1.00  0.00     0.058 A 
ATOM     64  C   UNL A   1      50.117  26.779  25.168  1.00  0.00     0.135 A 
ATOM     65  C   UNL A   1      50.528  26.175  27.463  1.00  0.00     0.135 A 
ATOM     66  F   UNL A   1      49.324  27.279  24.206  1.00  0.00    -0.206 F 
ATOM     67  C   UNL A   1      51.373  26.303  24.810  1.00  0.00     0.059 A 
ATOM     68  C   UNL A   1      51.799  25.721  27.131  1.00  0.00     0.059 A 
ATOM     69  F   UNL A   1      50.144  26.104  28.747  1.00  0.00    -0.206 F 
ATOM     70  C   UNL A   1      52.206  25.777  25.799  1.00  0.00     0.060 A 
BRANCH  70  71
ATOM     71  S   UNL A   1      53.846  25.192  25.328  1.00  0.00     0.124 S 
ATOM     72  O   UNL A   1      54.293  26.258  24.439  1.00  0.00    -0.237 OA
ATOM     73  O   UNL A   1      54.530  25.109  26.614  1.00  0.00    -0.237 OA
ATOM     74  O   UNL A   1      53.576  23.909  24.686  1.00  0.00    -0.744 OA
ENDBRANCH  70  71
ENDBRANCH  38  63
ENDBRANCH  12  13
ENDBRANCH   5   7
ENDBRANCH   4   5
ENDBRANCH   3   4
ENDBRANCH   2   3
ENDBRANCH   1   2
BRANCH   1  75
ATOM     75  C   UNL A   1      35.096  29.999  27.258  1.00  0.00     0.202 C 
BRANCH  75  76
ATOM     76  C   UNL A   1      33.599  29.681  27.279  1.00  0.00     0.261 C 
BRANCH  76  77
ATOM     77  O   UNL A   1      33.443  28.255  27.312  1.00  0.00    -0.460 OA
BRANCH  77  78
ATOM     78  C   UNL A   1      32.157  27.828  27.213  1.00  0.00     0.338 C 
ATOM     79  O   UNL A   1      31.263  27.952  28.031  1.00  0.00    -0.246 OA
BRANCH  78  80
ATOM     80  C   UNL A   1      31.950  27.369  25.826  1.00  0.00     0.062 A 
ATOM     81  C   UNL A   1      32.942  26.591  25.223  1.00  0.00     0.016 A 
ATOM     82  C   UNL A   1      30.755  27.642  25.155  1.00  0.00     0.041 A 
ATOM     83  C   UNL A   1      32.713  26.042  23.966  1.00  0.00     0.003 A 
ATOM     84  C   UNL A   1      30.548  27.161  23.861  1.00  0.00     0.039 A 
ATOM     85  C   UNL A   1      31.522  26.327  23.292  1.00  0.00     0.026 A 
BRANCH  84  86
ATOM     86  N   UNL A   1      29.369  27.533  23.181  1.00  0.00    -0.355 N 
ATOM     87  H   UNL A   1      28.727  26.820  22.964  1.00  0.00     0.167 HD
BRANCH  86  88
ATOM     88  C   UNL A   1      29.038  28.840  22.790  1.00  0.00     0.039 A 
ATOM     89  C   UNL A   1      27.856  29.419  23.267  1.00  0.00     0.033 A 
ATOM     90  C   UNL A   1      29.918  29.602  22.015  1.00  0.00     0.033 A 
ATOM     91  C   UNL A   1      27.554  30.752  22.983  1.00  0.00     0.088 A 
ATOM     92  C   UNL A   1      29.625  30.934  21.717  1.00  0.00     0.088 A 
ATOM     93  C   UNL A   1      28.444  31.506  22.210  1.00  0.00     0.269 A 
BRANCH  93  94
ATOM     94  N   UNL A   1      28.144  32.913  21.925  1.00  0.00     0.062 N 
ATOM     95  O   UNL A   1      27.601  33.179  20.842  1.00  0.00    -0.258 OA
ATOM     96  O   UNL A   1      28.452  33.755  22.780  1.00  0.00    -0.258 OA
ENDBRANCH  93  94
ENDBRANCH  86  88
ENDBRANCH  84  86
ENDBRANCH  78  80
ENDBRANCH  77  78
ENDBRANCH  76  77
ENDBRANCH  75  76
ENDBRANCH   1  75
TORSDOF 20
ENDMDL
MODEL 3
REMARK VINA RESULT:     -10.5      6.730     12.517
REMARK SMILES O=C(OCCOCCOC(=O)c1cccc(Nc2ccc([N+](=O)[O-])cc2)c1)c1ccc(-c2c3nc(c(-c4c(F)cc(S(=O)(=O)[O-])cc4F)c4ccc([nH]4)c(-c4c(F)cc(S(=O)(=O)[O-])cc4F)c4nc(c(-c5c(F)cc(S(=O)(=O)[O-])cc5F)c5ccc2[nH]5)C=C4)C=C3)cc1
REMARK SMILES IDX 6 1 5 2 4 3 3 4 2 5 1 6 28 7 29 8 93 9 30 10 92 11 31 12
REMARK SMILES IDX 32 13 33 14 86 15 34 16 91 17 85 18 87 19 35 20 90 21 84 22
REMARK SMILES IDX 83 23 36 25 70 26 49 27 69 28 50 29 53 30 68 31 88 32 51 33
REMARK SMILES IDX 52 34 67 36 89 37 54 38 37 39 38 40 47 41 39 42 40 43 46 44
REMARK SMILES IDX 48 45 41 46 42 47 43 48 44 49 45 50 71 51 72 52 81 53 73 54
REMARK SMILES IDX 74 55 80 56 82 57 75 58 76 59 77 60 78 61 79 62 55 63 56 64
REMARK SMILES IDX 65 65 57 66 58 67 64 68 66 69 59 70 60 71 61 72 62 73 63 74
REMARK SMILES IDX 7 75 8 76 9 77 10 78 11 79 12 80 13 81 27 82 14 83 16 84
REMARK SMILES IDX 15 85 17 86 18 88 19 89 26 90 20 91 25 92 21 93 22 94 23 95
REMARK SMILES IDX 24 96
REMARK H PARENT 87 24 53 35 17 87
REMARK Flexibility Score: inf
ROOT
ATOM      1  O   UNL A   1      35.403  31.180  27.600  1.00  0.00    -0.374 OA
ENDROOT
BRANCH   1   2
ATOM      2  C   UNL A   1      34.417  31.783  28.439  1.00  0.00     0.202 C 
BRANCH   2   3
ATOM      3  C   UNL A   1      34.840  31.947  29.900  1.00  0.00     0.261 C 
BRANCH   3   4
ATOM      4  O   UNL A   1      36.255  31.737  30.039  1.00  0.00    -0.460 OA
BRANCH   4   5
ATOM      5  C   UNL A   1      36.907  30.582  30.312  1.00  0.00     0.338 C 
ATOM      6  O   UNL A   1      36.302  29.699  30.918  1.00  0.00    -0.246 OA
BRANCH   5   7
ATOM      7  C   UNL A   1      38.320  30.311  29.906  1.00  0.00     0.060 A 
ATOM      8  C   UNL A   1      38.754  30.132  28.591  1.00  0.00     0.016 A 
ATOM      9  C   UNL A   1      39.291  30.313  30.922  1.00  0.00     0.016 A 
ATOM     10  C   UNL A   1      40.080  29.880  28.290  1.00  0.00     0.010 A 
ATOM     11  C   UNL A   1      40.640  30.101  30.626  1.00  0.00     0.010 A 
ATOM     12  C   UNL A   1      41.029  29.853  29.305  1.00  0.00    -0.014 A 
BRANCH  12  13
ATOM     13  C   UNL A   1      42.383  29.410  28.940  1.00  0.00     0.031 A 
ATOM     14  C   UNL A   1      42.547  28.010  28.432  1.00  0.00     0.074 A 
ATOM     15  C   UNL A   1      43.383  30.308  28.899  1.00  0.00     0.049 A 
ATOM     16  N   UNL A   1      43.623  27.399  28.024  1.00  0.00    -0.248 NA
ATOM     17  C   UNL A   1      41.323  27.193  28.356  1.00  0.00     0.031 C 
ATOM     18  C   UNL A   1      43.254  31.728  29.243  1.00  0.00     0.029 A 
ATOM     19  N   UNL A   1      44.687  30.180  28.505  1.00  0.00    -0.354 N 
ATOM     20  C   UNL A   1      43.216  26.116  27.678  1.00  0.00     0.074 A 
ATOM     21  C   UNL A   1      41.794  26.035  27.919  1.00  0.00     0.031 C 
ATOM     22  C   UNL A   1      44.424  32.345  29.009  1.00  0.00     0.029 A 
ATOM     23  C   UNL A   1      45.398  31.355  28.566  1.00  0.00     0.049 A 
ATOM     24  H   UNL A   1      45.078  29.327  28.206  1.00  0.00     0.167 HD
ATOM     25  C   UNL A   1      43.975  25.099  27.212  1.00  0.00     0.037 A 
ATOM     26  C   UNL A   1      46.700  31.585  28.312  1.00  0.00     0.037 A 
ATOM     27  C   UNL A   1      45.389  25.226  26.981  1.00  0.00     0.049 A 
ATOM     28  C   UNL A   1      47.540  30.417  27.873  1.00  0.00     0.074 A 
ATOM     29  C   UNL A   1      46.291  24.261  26.577  1.00  0.00     0.029 A 
ATOM     30  N   UNL A   1      46.103  26.409  27.136  1.00  0.00    -0.354 N 
ATOM     31  N   UNL A   1      47.167  29.179  27.629  1.00  0.00    -0.248 NA
ATOM     32  C   UNL A   1      48.974  30.662  27.687  1.00  0.00     0.031 C 
ATOM     33  C   UNL A   1      47.560  24.852  26.531  1.00  0.00     0.029 A 
ATOM     34  C   UNL A   1      47.439  26.197  26.852  1.00  0.00     0.049 A 
ATOM     35  H   UNL A   1      45.715  27.271  27.409  1.00  0.00     0.167 HD
ATOM     36  C   UNL A   1      48.316  28.505  27.235  1.00  0.00     0.074 A 
ATOM     37  C   UNL A   1      49.393  29.477  27.265  1.00  0.00     0.031 C 
ATOM     38  C   UNL A   1      48.472  27.205  26.881  1.00  0.00     0.037 A 
BRANCH  25  39
ATOM     39  C   UNL A   1      43.300  23.769  27.028  1.00  0.00     0.058 A 
ATOM     40  C   UNL A   1      42.863  23.313  25.775  1.00  0.00     0.135 A 
ATOM     41  C   UNL A   1      43.030  22.963  28.147  1.00  0.00     0.135 A 
ATOM     42  F   UNL A   1      43.062  24.058  24.675  1.00  0.00    -0.206 F 
ATOM     43  C   UNL A   1      42.149  22.124  25.642  1.00  0.00     0.059 A 
ATOM     44  C   UNL A   1      42.342  21.760  28.034  1.00  0.00     0.059 A 
ATOM     45  F   UNL A   1      43.413  23.358  29.371  1.00  0.00    -0.206 F 
ATOM     46  C   UNL A   1      41.886  21.359  26.779  1.00  0.00     0.060 A 
BRANCH  46  47
ATOM     47  S   UNL A   1      40.922  19.842  26.603  1.00  0.00     0.124 S 
ATOM     48  O   UNL A   1      40.823  19.398  27.991  1.00  0.00    -0.237 OA
ATOM     49  O   UNL A   1      39.683  20.326  26.005  1.00  0.00    -0.237 OA
ATOM     50  O   UNL A   1      41.751  19.010  25.737  1.00  0.00    -0.744 OA
ENDBRANCH  46  47
ENDBRANCH  25  39
BRANCH  26  51
ATOM     51  C   UNL A   1      47.279  32.945  28.498  1.00  0.00     0.058 A 
ATOM     52  C   UNL A   1      47.802  33.356  29.733  1.00  0.00     0.135 A 
ATOM     53  C   UNL A   1      47.327  33.865  27.436  1.00  0.00     0.135 A 
ATOM     54  F   UNL A   1      47.776  32.521  30.783  1.00  0.00    -0.206 F 
ATOM     55  C   UNL A   1      48.337  34.629  29.913  1.00  0.00     0.059 A 
ATOM     56  C   UNL A   1      47.882  35.132  27.584  1.00  0.00     0.059 A 
ATOM     57  F   UNL A   1      46.850  33.525  26.229  1.00  0.00    -0.206 F 
ATOM     58  C   UNL A   1      48.374  35.510  28.832  1.00  0.00     0.060 A 
BRANCH  58  59
ATOM     59  S   UNL A   1      49.097  37.149  29.066  1.00  0.00     0.124 S 
ATOM     60  O   UNL A   1      50.153  37.151  28.060  1.00  0.00    -0.237 OA
ATOM     61  O   UNL A   1      47.962  38.028  28.801  1.00  0.00    -0.237 OA
ATOM     62  O   UNL A   1      49.548  37.123  30.454  1.00  0.00    -0.744 OA
ENDBRANCH  58  59
ENDBRANCH  26  51
BRANCH  38  63
ATOM     63  C   UNL A   1      49.844  26.783  26.445  1.00  0.00     0.058 A 
ATOM     64  C   UNL A   1      50.780  26.260  27.350  1.00  0.00     0.135 A 
ATOM     65  C   UNL A   1      50.202  26.857  25.090  1.00  0.00     0.135 A 
ATOM     66  F   UNL A   1      50.484  26.175  28.657  1.00  0.00    -0.206 F 
ATOM     67  C   UNL A   1      52.038  25.848  26.929  1.00  0.00     0.059 A 
ATOM     68  C   UNL A   1      51.444  26.424  24.642  1.00  0.00     0.059 A 
ATOM     69  F   UNL A   1      49.334  27.338  24.185  1.00  0.00    -0.206 F 
ATOM     70  C   UNL A   1      52.360  25.934  25.573  1.00  0.00     0.060 A 
BRANCH  70  71
ATOM     71  S   UNL A   1      53.985  25.368  25.031  1.00  0.00     0.124 S 
ATOM     72  O   UNL A   1      53.742  23.947  24.812  1.00  0.00    -0.237 OA
ATOM     73  O   UNL A   1      54.212  26.167  23.831  1.00  0.00    -0.237 OA
ATOM     74  O   UNL A   1      54.850  25.691  26.163  1.00  0.00    -0.744 OA
ENDBRANCH  70  71
ENDBRANCH  38  63
ENDBRANCH  12  13
ENDBRANCH   5   7
ENDBRANCH   4   5
ENDBRANCH   3   4
ENDBRANCH   2   3
ENDBRANCH   1   2
BRANCH   1  75
ATOM     75  C   UNL A   1      35.126  29.847  27.157  1.00  0.00     0.202 C 
BRANCH  75  76
ATOM     76  C   UNL A   1      33.613  29.610  27.165  1.00  0.00     0.261 C 
BRANCH  76  77
ATOM     77  O   UNL A   1      33.379  28.201  27.306  1.00  0.00    -0.460 OA
BRANCH  77  78
ATOM     78  C   UNL A   1      32.078  27.833  27.185  1.00  0.00     0.338 C 
ATOM     79  O   UNL A   1      31.169  28.030  27.972  1.00  0.00    -0.246 OA
BRANCH  78  80
ATOM     80  C   UNL A   1      31.886  27.332  25.810  1.00  0.00     0.062 A 
ATOM     81  C   UNL A   1      32.857  26.489  25.263  1.00  0.00     0.016 A 
ATOM     82  C   UNL A   1      30.723  27.634  25.097  1.00  0.00     0.041 A 
ATOM     83  C   UNL A   1      32.636  25.905  24.020  1.00  0.00     0.003 A 
ATOM     84  C   UNL A   1      30.528  27.115  23.815  1.00  0.00     0.039 A 
ATOM     85  C   UNL A   1      31.478  26.218  23.305  1.00  0.00     0.026 A 
BRANCH  84  86
ATOM     86  N   UNL A   1      29.385  27.514  23.090  1.00  0.00    -0.355 N 
ATOM     87  H   UNL A   1      28.766  26.808  22.796  1.00  0.00     0.167 HD
BRANCH  86  88
ATOM     88  C   UNL A   1      29.061  28.838  22.755  1.00  0.00     0.039 A 
ATOM     89  C   UNL A   1      27.917  29.425  23.309  1.00  0.00     0.033 A 
ATOM     90  C   UNL A   1      29.915  29.605  21.956  1.00  0.00     0.033 A 
ATOM     91  C   UNL A   1      27.628  30.771  23.080  1.00  0.00     0.088 A 
ATOM     92  C   UNL A   1      29.634  30.951  21.712  1.00  0.00     0.088 A 
ATOM     93  C   UNL A   1      28.492  31.530  22.282  1.00  0.00     0.269 A 
BRANCH  93  94
ATOM     94  N   UNL A   1      28.206  32.950  22.054  1.00  0.00     0.062 N 
ATOM     95  O   UNL A   1      27.568  33.254  21.034  1.00  0.00    -0.258 OA
ATOM     96  O   UNL A   1      28.621  33.766  22.889  1.00  0.00    -0.258 OA
ENDBRANCH  93  94
ENDBRANCH  86  88
ENDBRANCH  84  86
ENDBRANCH  78  80
ENDBRANCH  77  78
ENDBRANCH  76  77
ENDBRANCH  75  76
ENDBRANCH   1  75
TORSDOF 20
ENDMDL
