MODEL 1
REMARK VINA RESULT:     -12.1      0.000      0.000
REMARK SMILES O=C(OCCOCCOC(=O)c1ccc(-c2c3nc(c(-c4c(F)cc(S(=O)(=O)[O-])cc4F)c4ccc([nH]4)c(-c4c(F)cc(S(=O)(=O)[O-])cc4F)c4nc(c(-c5c(F)cc(S(=O)(=O)[O-])cc5F)c5ccc2[nH]5)C=C4)C=C3)cc1)C1=Cc2cc(Cl)cc(-c3ccc(CO)cc3)c2O[C@@H]1C(F)(F)F
REMARK SMILES IDX 6 1 5 2 4 3 3 4 2 5 1 6 78 7 79 8 96 9 80 10 95 11 81 12
REMARK SMILES IDX 94 13 82 14 85 15 83 16 84 17 97 18 98 19 99 20 100 21 86 22
REMARK SMILES IDX 87 23 93 24 88 25 92 26 89 27 90 28 91 29 7 31 8 32 9 33
REMARK SMILES IDX 10 34 11 35 12 36 13 37 77 38 14 39 76 40 15 41 16 42 17 43
REMARK SMILES IDX 70 44 18 45 75 46 69 47 71 48 19 49 74 50 68 51 67 52 20 54
REMARK SMILES IDX 54 55 33 56 53 57 34 58 37 59 52 60 72 61 35 62 36 63 51 65
REMARK SMILES IDX 73 66 38 67 21 68 22 69 31 70 23 71 24 72 30 73 32 74 25 75
REMARK SMILES IDX 26 76 27 77 28 78 29 79 55 80 56 81 65 82 57 83 58 84 64 85
REMARK SMILES IDX 66 86 59 87 60 88 61 89 62 90 63 91 39 92 40 93 49 94 41 95
REMARK SMILES IDX 42 96 48 97 50 98 43 99 44 100 45 101 46 102 47 103
REMARK H PARENT 91 30 71 53 37 64
REMARK Flexibility Score: inf
ROOT
ATOM      1  O   UNL A   1      46.919  25.988  27.002  1.00  0.00    -0.374 OA
ENDROOT
BRANCH   1   2
ATOM      2  C   UNL A   1      46.305  24.505  27.269  1.00  0.00     0.202 C 
BRANCH   2   3
ATOM      3  C   UNL A   1      45.964  22.855  25.891  1.00  0.00     0.261 C 
BRANCH   3   4
ATOM      4  O   UNL A   1      44.979  21.647  26.150  1.00  0.00    -0.460 OA
BRANCH   4   5
ATOM      5  C   UNL A   1      43.809  21.760  25.512  1.00  0.00     0.338 C 
ATOM      6  O   UNL A   1      43.526  22.207  24.430  1.00  0.00    -0.246 OA
BRANCH   5   7
ATOM      7  C   UNL A   1      43.020  21.454  26.672  1.00  0.00     0.087 C 
ATOM      8  C   UNL A   1      42.581  22.692  27.332  1.00  0.00     0.027 C 
ATOM      9  C   UNL A   1      41.834  20.152  25.860  1.00  0.00     0.316 C 
ATOM     10  C   UNL A   1      40.871  23.279  27.303  1.00  0.00     0.019 A 
ATOM     11  O   UNL A   1      39.986  20.777  25.830  1.00  0.00    -0.475 OA
ATOM     12  C   UNL A   1      40.704  24.574  27.718  1.00  0.00     0.032 A 
ATOM     13  C   UNL A   1      39.559  22.420  26.522  1.00  0.00     0.135 A 
ATOM     14  C   UNL A   1      39.481  25.144  27.376  1.00  0.00     0.042 A 
ATOM     15  C   UNL A   1      38.300  23.073  26.339  1.00  0.00     0.026 A 
ATOM     16  Cl  UNL A   1      39.234  26.799  27.827  1.00  0.00    -0.084 Cl
ATOM     17  C   UNL A   1      38.400  24.464  26.693  1.00  0.00     0.033 A 
BRANCH   9  18
ATOM     18  C   UNL A   1      42.563  18.863  26.472  1.00  0.00     0.430 C 
ATOM     19  F   UNL A   1      42.414  18.702  27.804  1.00  0.00    -0.167 F 
ATOM     20  F   UNL A   1      41.975  17.751  25.935  1.00  0.00    -0.167 F 
ATOM     21  F   UNL A   1      43.871  18.734  26.154  1.00  0.00    -0.167 F 
ENDBRANCH   9  18
BRANCH  15  22
ATOM     22  C   UNL A   1      36.834  22.543  25.899  1.00  0.00    -0.015 A 
ATOM     23  C   UNL A   1      35.948  24.007  25.299  1.00  0.00     0.009 A 
ATOM     24  C   UNL A   1      35.980  20.745  25.442  1.00  0.00     0.009 A 
ATOM     25  C   UNL A   1      34.458  23.793  24.367  1.00  0.00     0.007 A 
ATOM     26  C   UNL A   1      34.480  20.689  24.469  1.00  0.00     0.007 A 
ATOM     27  C   UNL A   1      33.761  22.201  23.977  1.00  0.00    -0.023 A 
BRANCH  27  28
ATOM     28  C   UNL A   1      32.364  22.090  23.432  1.00  0.00     0.191 C 
BRANCH  28  29
ATOM     29  O   UNL A   1      32.358  22.419  22.050  1.00  0.00    -0.392 OA
ATOM     30  H   UNL A   1      32.198  23.371  21.946  1.00  0.00     0.211 HD
ENDBRANCH  28  29
ENDBRANCH  27  28
ENDBRANCH  15  22
ENDBRANCH   5   7
ENDBRANCH   4   5
ENDBRANCH   3   4
ENDBRANCH   2   3
ENDBRANCH   1   2
BRANCH   1  31
ATOM     31  C   UNL A   1      46.848  26.922  25.897  1.00  0.00     0.202 C 
BRANCH  31  32
ATOM     32  C   UNL A   1      45.642  26.790  24.969  1.00  0.00     0.261 C 
BRANCH  32  33
ATOM     33  O   UNL A   1      45.022  28.043  24.839  1.00  0.00    -0.460 OA
BRANCH  33  34
ATOM     34  C   UNL A   1      43.713  27.996  25.145  1.00  0.00     0.338 C 
ATOM     35  O   UNL A   1      42.751  27.773  24.436  1.00  0.00    -0.246 OA
BRANCH  34  36
ATOM     36  C   UNL A   1      43.675  28.190  26.570  1.00  0.00     0.060 A 
ATOM     37  C   UNL A   1      43.278  26.829  27.650  1.00  0.00     0.016 A 
ATOM     38  C   UNL A   1      43.779  29.860  27.274  1.00  0.00     0.016 A 
ATOM     39  C   UNL A   1      42.927  27.050  29.395  1.00  0.00     0.010 A 
ATOM     40  C   UNL A   1      43.400  30.026  29.257  1.00  0.00     0.010 A 
ATOM     41  C   UNL A   1      42.964  28.601  30.216  1.00  0.00    -0.014 A 
BRANCH  41  42
ATOM     42  C   UNL A   1      42.284  29.009  31.500  1.00  0.00     0.031 A 
ATOM     43  C   UNL A   1      40.982  29.807  31.459  1.00  0.00     0.074 A 
ATOM     44  C   UNL A   1      43.040  29.123  32.610  1.00  0.00     0.049 A 
ATOM     45  N   UNL A   1      40.454  30.615  32.351  1.00  0.00    -0.248 NA
ATOM     46  C   UNL A   1      40.229  29.767  30.203  1.00  0.00     0.031 C 
ATOM     47  C   UNL A   1      44.404  28.620  32.748  1.00  0.00     0.029 A 
ATOM     48  N   UNL A   1      42.802  29.775  33.800  1.00  0.00    -0.354 N 
ATOM     49  C   UNL A   1      39.355  31.220  31.735  1.00  0.00     0.074 A 
ATOM     50  C   UNL A   1      39.349  30.746  30.369  1.00  0.00     0.031 C 
ATOM     51  C   UNL A   1      44.891  28.994  33.943  1.00  0.00     0.029 A 
ATOM     52  C   UNL A   1      43.877  29.770  34.659  1.00  0.00     0.049 A 
ATOM     53  H   UNL A   1      41.942  30.205  34.016  1.00  0.00     0.167 HD
ATOM     54  C   UNL A   1      38.411  32.054  32.251  1.00  0.00     0.037 A 
ATOM     55  C   UNL A   1      44.036  30.318  35.883  1.00  0.00     0.037 A 
ATOM     56  C   UNL A   1      38.376  32.469  33.633  1.00  0.00     0.049 A 
ATOM     57  C   UNL A   1      42.911  31.095  36.519  1.00  0.00     0.074 A 
ATOM     58  C   UNL A   1      37.372  33.144  34.309  1.00  0.00     0.029 A 
ATOM     59  N   UNL A   1      39.393  32.253  34.551  1.00  0.00    -0.354 N 
ATOM     60  N   UNL A   1      41.782  31.498  35.988  1.00  0.00    -0.248 NA
ATOM     61  C   UNL A   1      43.067  31.464  37.935  1.00  0.00     0.031 C 
ATOM     62  C   UNL A   1      37.799  33.373  35.621  1.00  0.00     0.029 A 
ATOM     63  C   UNL A   1      39.040  32.778  35.784  1.00  0.00     0.049 A 
ATOM     64  H   UNL A   1      40.242  31.794  34.354  1.00  0.00     0.167 HD
ATOM     65  C   UNL A   1      41.076  32.118  37.016  1.00  0.00     0.074 A 
ATOM     66  C   UNL A   1      41.904  32.043  38.199  1.00  0.00     0.031 C 
ATOM     67  C   UNL A   1      39.844  32.684  36.977  1.00  0.00     0.037 A 
BRANCH  54  68
ATOM     68  C   UNL A   1      37.289  32.535  31.347  1.00  0.00     0.058 A 
ATOM     69  C   UNL A   1      36.000  31.978  31.407  1.00  0.00     0.135 A 
ATOM     70  C   UNL A   1      37.476  33.612  30.458  1.00  0.00     0.135 A 
ATOM     71  F   UNL A   1      35.738  30.965  32.247  1.00  0.00    -0.206 F 
ATOM     72  C   UNL A   1      34.968  32.415  30.580  1.00  0.00     0.059 A 
ATOM     73  C   UNL A   1      36.444  34.098  29.654  1.00  0.00     0.059 A 
ATOM     74  F   UNL A   1      38.671  34.216  30.367  1.00  0.00    -0.206 F 
ATOM     75  C   UNL A   1      35.200  33.472  29.703  1.00  0.00     0.060 A 
BRANCH  75  76
ATOM     76  S   UNL A   1      33.846  34.014  28.637  1.00  0.00     0.124 S 
ATOM     77  O   UNL A   1      32.880  34.498  29.619  1.00  0.00    -0.237 OA
ATOM     78  O   UNL A   1      34.483  35.041  27.820  1.00  0.00    -0.237 OA
ATOM     79  O   UNL A   1      33.462  32.799  27.925  1.00  0.00    -0.744 OA
ENDBRANCH  75  76
ENDBRANCH  54  68
BRANCH  55  80
ATOM     80  C   UNL A   1      45.273  30.025  36.655  1.00  0.00     0.058 A 
ATOM     81  C   UNL A   1      45.361  28.841  37.404  1.00  0.00     0.135 A 
ATOM     82  C   UNL A   1      46.392  30.871  36.636  1.00  0.00     0.135 A 
ATOM     83  F   UNL A   1      44.312  28.004  37.457  1.00  0.00    -0.206 F 
ATOM     84  C   UNL A   1      46.504  28.509  38.118  1.00  0.00     0.059 A 
ATOM     85  C   UNL A   1      47.560  30.547  37.324  1.00  0.00     0.059 A 
ATOM     86  F   UNL A   1      46.368  32.002  35.917  1.00  0.00    -0.206 F 
ATOM     87  C   UNL A   1      47.604  29.365  38.064  1.00  0.00     0.060 A 
BRANCH  87  88
ATOM     88  S   UNL A   1      49.109  28.873  38.935  1.00  0.00     0.124 S 
ATOM     89  O   UNL A   1      50.056  29.887  38.487  1.00  0.00    -0.237 OA
ATOM     90  O   UNL A   1      48.691  28.961  40.331  1.00  0.00    -0.237 OA
ATOM     91  O   UNL A   1      49.354  27.520  38.444  1.00  0.00    -0.744 OA
ENDBRANCH  87  88
ENDBRANCH  55  80
BRANCH  67  92
ATOM     92  C   UNL A   1      39.249  33.201  38.263  1.00  0.00     0.058 A 
ATOM     93  C   UNL A   1      38.262  32.503  38.974  1.00  0.00     0.135 A 
ATOM     94  C   UNL A   1      39.741  34.390  38.830  1.00  0.00     0.135 A 
ATOM     95  F   UNL A   1      37.749  31.365  38.479  1.00  0.00    -0.206 F 
ATOM     96  C   UNL A   1      37.773  32.970  40.193  1.00  0.00     0.059 A 
ATOM     97  C   UNL A   1      39.289  34.859  40.060  1.00  0.00     0.059 A 
ATOM     98  F   UNL A   1      40.691  35.099  38.199  1.00  0.00    -0.206 F 
ATOM     99  C   UNL A   1      38.300  34.146  40.732  1.00  0.00     0.060 A 
BRANCH  99 100
ATOM    100  S   UNL A   1      37.696  34.711  42.339  1.00  0.00     0.124 S 
ATOM    101  O   UNL A   1      38.211  36.075  42.385  1.00  0.00    -0.237 OA
ATOM    102  O   UNL A   1      36.250  34.583  42.189  1.00  0.00    -0.237 OA
ATOM    103  O   UNL A   1      38.308  33.777  43.281  1.00  0.00    -0.744 OA
ENDBRANCH  99 100
ENDBRANCH  67  92
ENDBRANCH  41  42
ENDBRANCH  34  36
ENDBRANCH  33  34
ENDBRANCH  32  33
ENDBRANCH  31  32
ENDBRANCH   1  31
TORSDOF 21
ENDMDL
MODEL 2
REMARK VINA RESULT:     -11.3      3.721     10.552
REMARK SMILES O=C(OCCOCCOC(=O)c1ccc(-c2c3nc(c(-c4c(F)cc(S(=O)(=O)[O-])cc4F)c4ccc([nH]4)c(-c4c(F)cc(S(=O)(=O)[O-])cc4F)c4nc(c(-c5c(F)cc(S(=O)(=O)[O-])cc5F)c5ccc2[nH]5)C=C4)C=C3)cc1)C1=Cc2cc(Cl)cc(-c3ccc(CO)cc3)c2O[C@@H]1C(F)(F)F
REMARK SMILES IDX 6 1 5 2 4 3 3 4 2 5 1 6 78 7 79 8 96 9 80 10 95 11 81 12
REMARK SMILES IDX 94 13 82 14 85 15 83 16 84 17 97 18 98 19 99 20 100 21 86 22
REMARK SMILES IDX 87 23 93 24 88 25 92 26 89 27 90 28 91 29 7 31 8 32 9 33
REMARK SMILES IDX 10 34 11 35 12 36 13 37 77 38 14 39 76 40 15 41 16 42 17 43
REMARK SMILES IDX 70 44 18 45 75 46 69 47 71 48 19 49 74 50 68 51 67 52 20 54
REMARK SMILES IDX 54 55 33 56 53 57 34 58 37 59 52 60 72 61 35 62 36 63 51 65
REMARK SMILES IDX 73 66 38 67 21 68 22 69 31 70 23 71 24 72 30 73 32 74 25 75
REMARK SMILES IDX 26 76 27 77 28 78 29 79 55 80 56 81 65 82 57 83 58 84 64 85
REMARK SMILES IDX 66 86 59 87 60 88 61 89 62 90 63 91 39 92 40 93 49 94 41 95
REMARK SMILES IDX 42 96 48 97 50 98 43 99 44 100 45 101 46 102 47 103
REMARK H PARENT 91 30 71 53 37 64
REMARK Flexibility Score: inf
ROOT
ATOM      1  O   UNL A   1      46.366  21.314  24.648  1.00  0.00    -0.374 OA
ENDROOT
BRANCH   1   2
ATOM      2  C   UNL A   1      46.778  22.834  24.236  1.00  0.00     0.202 C 
BRANCH   2   3
ATOM      3  C   UNL A   1      47.318  24.533  25.485  1.00  0.00     0.261 C 
BRANCH   3   4
ATOM      4  O   UNL A   1      47.885  24.432  26.957  1.00  0.00    -0.460 OA
BRANCH   4   5
ATOM      5  C   UNL A   1      47.117  25.033  27.872  1.00  0.00     0.338 C 
ATOM      6  O   UNL A   1      46.048  24.734  28.341  1.00  0.00    -0.246 OA
BRANCH   5   7
ATOM      7  C   UNL A   1      47.859  26.262  27.852  1.00  0.00     0.087 C 
ATOM      8  C   UNL A   1      47.032  27.349  27.311  1.00  0.00     0.027 C 
ATOM      9  C   UNL A   1      48.550  26.192  29.662  1.00  0.00     0.316 C 
ATOM     10  C   UNL A   1      46.368  28.690  28.326  1.00  0.00     0.019 A 
ATOM     11  O   UNL A   1      47.843  27.640  30.762  1.00  0.00    -0.475 OA
ATOM     12  C   UNL A   1      45.399  29.443  27.717  1.00  0.00     0.032 A 
ATOM     13  C   UNL A   1      46.673  28.854  30.043  1.00  0.00     0.135 A 
ATOM     14  C   UNL A   1      44.645  30.234  28.580  1.00  0.00     0.042 A 
ATOM     15  C   UNL A   1      45.915  29.797  30.806  1.00  0.00     0.026 A 
ATOM     16  Cl  UNL A   1      43.367  31.166  27.872  1.00  0.00    -0.084 Cl
ATOM     17  C   UNL A   1      44.852  30.349  30.008  1.00  0.00     0.033 A 
BRANCH   9  18
ATOM     18  C   UNL A   1      50.028  25.724  29.255  1.00  0.00     0.430 C 
ATOM     19  F   UNL A   1      50.975  25.945  30.191  1.00  0.00    -0.167 F 
ATOM     20  F   UNL A   1      50.015  24.363  29.111  1.00  0.00    -0.167 F 
ATOM     21  F   UNL A   1      50.470  26.181  28.062  1.00  0.00    -0.167 F 
ENDBRANCH   9  18
BRANCH  15  22
ATOM     22  C   UNL A   1      46.072  30.385  32.307  1.00  0.00    -0.015 A 
ATOM     23  C   UNL A   1      47.740  31.091  32.380  1.00  0.00     0.009 A 
ATOM     24  C   UNL A   1      44.823  30.912  33.834  1.00  0.00     0.009 A 
ATOM     25  C   UNL A   1      48.163  32.174  33.716  1.00  0.00     0.007 A 
ATOM     26  C   UNL A   1      45.388  32.038  35.104  1.00  0.00     0.007 A 
ATOM     27  C   UNL A   1      47.030  32.620  35.017  1.00  0.00    -0.023 A 
BRANCH  27  28
ATOM     28  C   UNL A   1      47.525  33.309  36.258  1.00  0.00     0.191 C 
BRANCH  28  29
ATOM     29  O   UNL A   1      47.454  34.717  36.088  1.00  0.00    -0.392 OA
ATOM     30  H   UNL A   1      47.001  35.112  36.850  1.00  0.00     0.211 HD
ENDBRANCH  28  29
ENDBRANCH  27  28
ENDBRANCH  15  22
ENDBRANCH   5   7
ENDBRANCH   4   5
ENDBRANCH   3   4
ENDBRANCH   2   3
ENDBRANCH   1   2
BRANCH   1  31
ATOM     31  C   UNL A   1      45.607  20.740  25.740  1.00  0.00     0.202 C 
BRANCH  31  32
ATOM     32  C   UNL A   1      44.096  20.639  25.542  1.00  0.00     0.261 C 
BRANCH  32  33
ATOM     33  O   UNL A   1      43.492  21.823  25.996  1.00  0.00    -0.460 OA
BRANCH  33  34
ATOM     34  C   UNL A   1      43.303  22.710  25.003  1.00  0.00     0.338 C 
ATOM     35  O   UNL A   1      43.423  22.577  23.802  1.00  0.00    -0.246 OA
BRANCH  34  36
ATOM     36  C   UNL A   1      42.823  23.891  25.670  1.00  0.00     0.060 A 
ATOM     37  C   UNL A   1      43.642  25.455  25.425  1.00  0.00     0.016 A 
ATOM     38  C   UNL A   1      41.547  23.767  26.955  1.00  0.00     0.016 A 
ATOM     39  C   UNL A   1      43.293  26.898  26.432  1.00  0.00     0.010 A 
ATOM     40  C   UNL A   1      41.186  25.446  28.030  1.00  0.00     0.010 A 
ATOM     41  C   UNL A   1      42.107  26.930  27.725  1.00  0.00    -0.014 A 
BRANCH  41  42
ATOM     42  C   UNL A   1      42.018  27.864  28.906  1.00  0.00     0.031 A 
ATOM     43  C   UNL A   1      42.689  27.497  30.228  1.00  0.00     0.074 A 
ATOM     44  C   UNL A   1      40.978  28.721  28.961  1.00  0.00     0.049 A 
ATOM     45  N   UNL A   1      42.416  27.884  31.454  1.00  0.00    -0.248 NA
ATOM     46  C   UNL A   1      43.740  26.478  30.169  1.00  0.00     0.031 C 
ATOM     47  C   UNL A   1      40.081  29.019  27.849  1.00  0.00     0.029 A 
ATOM     48  N   UNL A   1      40.447  29.427  30.018  1.00  0.00    -0.354 N 
ATOM     49  C   UNL A   1      43.213  27.108  32.301  1.00  0.00     0.074 A 
ATOM     50  C   UNL A   1      43.913  26.174  31.448  1.00  0.00     0.031 C 
ATOM     51  C   UNL A   1      39.101  29.830  28.281  1.00  0.00     0.029 A 
ATOM     52  C   UNL A   1      39.294  30.110  29.704  1.00  0.00     0.049 A 
ATOM     53  H   UNL A   1      40.855  29.443  30.915  1.00  0.00     0.167 HD
ATOM     54  C   UNL A   1      43.388  27.182  33.649  1.00  0.00     0.037 A 
ATOM     55  C   UNL A   1      38.484  30.876  30.465  1.00  0.00     0.037 A 
ATOM     56  C   UNL A   1      42.745  28.162  34.490  1.00  0.00     0.049 A 
ATOM     57  C   UNL A   1      38.792  31.092  31.925  1.00  0.00     0.074 A 
ATOM     58  C   UNL A   1      42.993  28.457  35.821  1.00  0.00     0.029 A 
ATOM     59  N   UNL A   1      41.722  29.005  34.083  1.00  0.00    -0.354 N 
ATOM     60  N   UNL A   1      39.683  30.493  32.679  1.00  0.00    -0.248 NA
ATOM     61  C   UNL A   1      38.006  32.115  32.633  1.00  0.00     0.031 C 
ATOM     62  C   UNL A   1      42.092  29.447  36.230  1.00  0.00     0.029 A 
ATOM     63  C   UNL A   1      41.331  29.819  35.134  1.00  0.00     0.049 A 
ATOM     64  H   UNL A   1      41.331  29.022  33.180  1.00  0.00     0.167 HD
ATOM     65  C   UNL A   1      39.599  31.102  33.928  1.00  0.00     0.074 A 
ATOM     66  C   UNL A   1      38.569  32.113  33.834  1.00  0.00     0.031 C 
ATOM     67  C   UNL A   1      40.326  30.850  35.045  1.00  0.00     0.037 A 
BRANCH  54  68
ATOM     68  C   UNL A   1      44.362  26.222  34.311  1.00  0.00     0.058 A 
ATOM     69  C   UNL A   1      43.944  24.981  34.825  1.00  0.00     0.135 A 
ATOM     70  C   UNL A   1      45.741  26.505  34.373  1.00  0.00     0.135 A 
ATOM     71  F   UNL A   1      42.650  24.631  34.780  1.00  0.00    -0.206 F 
ATOM     72  C   UNL A   1      44.832  24.098  35.434  1.00  0.00     0.059 A 
ATOM     73  C   UNL A   1      46.656  25.614  34.937  1.00  0.00     0.059 A 
ATOM     74  F   UNL A   1      46.220  27.655  33.875  1.00  0.00    -0.206 F 
ATOM     75  C   UNL A   1      46.186  24.424  35.489  1.00  0.00     0.060 A 
BRANCH  75  76
ATOM     76  S   UNL A   1      47.315  23.264  36.291  1.00  0.00     0.124 S 
ATOM     77  O   UNL A   1      48.436  24.137  36.626  1.00  0.00    -0.237 OA
ATOM     78  O   UNL A   1      46.524  22.790  37.422  1.00  0.00    -0.237 OA
ATOM     79  O   UNL A   1      47.580  22.271  35.255  1.00  0.00    -0.744 OA
ENDBRANCH  75  76
ENDBRANCH  54  68
BRANCH  55  80
ATOM     80  C   UNL A   1      37.370  31.620  29.818  1.00  0.00     0.058 A 
ATOM     81  C   UNL A   1      36.094  31.040  29.750  1.00  0.00     0.135 A 
ATOM     82  C   UNL A   1      37.528  32.914  29.300  1.00  0.00     0.135 A 
ATOM     83  F   UNL A   1      35.897  29.800  30.227  1.00  0.00    -0.206 F 
ATOM     84  C   UNL A   1      35.015  31.705  29.182  1.00  0.00     0.059 A 
ATOM     85  C   UNL A   1      36.455  33.612  28.747  1.00  0.00     0.059 A 
ATOM     86  F   UNL A   1      38.722  33.523  29.361  1.00  0.00    -0.206 F 
ATOM     87  C   UNL A   1      35.204  32.998  28.691  1.00  0.00     0.060 A 
BRANCH  87  88
ATOM     88  S   UNL A   1      33.770  33.875  28.030  1.00  0.00     0.124 S 
ATOM     89  O   UNL A   1      34.401  34.883  27.188  1.00  0.00    -0.237 OA
ATOM     90  O   UNL A   1      33.062  32.808  27.330  1.00  0.00    -0.237 OA
ATOM     91  O   UNL A   1      33.104  34.379  29.228  1.00  0.00    -0.744 OA
ENDBRANCH  87  88
ENDBRANCH  55  80
BRANCH  67  92
ATOM     92  C   UNL A   1      40.115  31.727  36.253  1.00  0.00     0.058 A 
ATOM     93  C   UNL A   1      41.024  32.726  36.630  1.00  0.00     0.135 A 
ATOM     94  C   UNL A   1      38.931  31.608  37.004  1.00  0.00     0.135 A 
ATOM     95  F   UNL A   1      42.174  32.884  35.956  1.00  0.00    -0.206 F 
ATOM     96  C   UNL A   1      40.777  33.567  37.714  1.00  0.00     0.059 A 
ATOM     97  C   UNL A   1      38.650  32.456  38.071  1.00  0.00     0.059 A 
ATOM     98  F   UNL A   1      38.020  30.674  36.687  1.00  0.00    -0.206 F 
ATOM     99  C   UNL A   1      39.582  33.429  38.424  1.00  0.00     0.060 A 
BRANCH  99 100
ATOM    100  S   UNL A   1      39.248  34.560  39.793  1.00  0.00     0.124 S 
ATOM    101  O   UNL A   1      38.146  33.887  40.471  1.00  0.00    -0.237 OA
ATOM    102  O   UNL A   1      40.522  34.568  40.506  1.00  0.00    -0.237 OA
ATOM    103  O   UNL A   1      38.902  35.812  39.124  1.00  0.00    -0.744 OA
ENDBRANCH  99 100
ENDBRANCH  67  92
ENDBRANCH  41  42
ENDBRANCH  34  36
ENDBRANCH  33  34
ENDBRANCH  32  33
ENDBRANCH  31  32
ENDBRANCH   1  31
TORSDOF 21
ENDMDL
MODEL 3
REMARK VINA RESULT:     -11.2      4.944      6.627
REMARK SMILES O=C(OCCOCCOC(=O)c1ccc(-c2c3nc(c(-c4c(F)cc(S(=O)(=O)[O-])cc4F)c4ccc([nH]4)c(-c4c(F)cc(S(=O)(=O)[O-])cc4F)c4nc(c(-c5c(F)cc(S(=O)(=O)[O-])cc5F)c5ccc2[nH]5)C=C4)C=C3)cc1)C1=Cc2cc(Cl)cc(-c3ccc(CO)cc3)c2O[C@@H]1C(F)(F)F
REMARK SMILES IDX 6 1 5 2 4 3 3 4 2 5 1 6 78 7 79 8 96 9 80 10 95 11 81 12
REMARK SMILES IDX 94 13 82 14 85 15 83 16 84 17 97 18 98 19 99 20 100 21 86 22
REMARK SMILES IDX 87 23 93 24 88 25 92 26 89 27 90 28 91 29 7 31 8 32 9 33
REMARK SMILES IDX 10 34 11 35 12 36 13 37 77 38 14 39 76 40 15 41 16 42 17 43
REMARK SMILES IDX 70 44 18 45 75 46 69 47 71 48 19 49 74 50 68 51 67 52 20 54
REMARK SMILES IDX 54 55 33 56 53 57 34 58 37 59 52 60 72 61 35 62 36 63 51 65
REMARK SMILES IDX 73 66 38 67 21 68 22 69 31 70 23 71 24 72 30 73 32 74 25 75
REMARK SMILES IDX 26 76 27 77 28 78 29 79 55 80 56 81 65 82 57 83 58 84 64 85
REMARK SMILES IDX 66 86 59 87 60 88 61 89 62 90 63 91 39 92 40 93 49 94 41 95
REMARK SMILES IDX 42 96 48 97 50 98 43 99 44 100 45 101 46 102 47 103
REMARK H PARENT 91 30 71 53 37 64
REMARK Flexibility Score: inf
ROOT
ATOM      1  O   UNL A   1      44.537  18.370  25.570  1.00  0.00    -0.374 OA
ENDROOT
BRANCH   1   2
ATOM      2  C   UNL A   1      42.964  18.711  25.812  1.00  0.00     0.202 C 
BRANCH   2   3
ATOM      3  C   UNL A   1      41.985  19.745  27.459  1.00  0.00     0.261 C 
BRANCH   3   4
ATOM      4  O   UNL A   1      40.634  20.555  27.345  1.00  0.00    -0.460 OA
BRANCH   4   5
ATOM      5  C   UNL A   1      40.753  21.849  27.661  1.00  0.00     0.338 C 
ATOM      6  O   UNL A   1      40.882  22.405  28.721  1.00  0.00    -0.246 OA
BRANCH   5   7
ATOM      7  C   UNL A   1      40.372  22.317  26.358  1.00  0.00     0.087 C 
ATOM      8  C   UNL A   1      39.595  21.287  25.653  1.00  0.00     0.027 C 
ATOM      9  C   UNL A   1      39.689  24.055  26.882  1.00  0.00     0.316 C 
ATOM     10  C   UNL A   1      37.818  21.421  25.349  1.00  0.00     0.019 A 
ATOM     11  O   UNL A   1      37.773  24.207  26.551  1.00  0.00    -0.475 OA
ATOM     12  C   UNL A   1      37.219  20.259  24.939  1.00  0.00     0.032 A 
ATOM     13  C   UNL A   1      36.849  22.799  25.826  1.00  0.00     0.135 A 
ATOM     14  C   UNL A   1      35.830  20.250  25.039  1.00  0.00     0.042 A 
ATOM     15  C   UNL A   1      35.422  22.713  25.766  1.00  0.00     0.026 A 
ATOM     16  Cl  UNL A   1      35.021  18.786  24.587  1.00  0.00    -0.084 Cl
ATOM     17  C   UNL A   1      35.014  21.365  25.473  1.00  0.00     0.033 A 
BRANCH   9  18
ATOM     18  C   UNL A   1      40.971  24.886  26.400  1.00  0.00     0.430 C 
ATOM     19  F   UNL A   1      41.797  24.226  25.560  1.00  0.00    -0.167 F 
ATOM     20  F   UNL A   1      40.531  25.951  25.663  1.00  0.00    -0.167 F 
ATOM     21  F   UNL A   1      41.702  25.445  27.390  1.00  0.00    -0.167 F 
ENDBRANCH   9  18
BRANCH  15  22
ATOM     22  C   UNL A   1      34.243  23.815  25.886  1.00  0.00    -0.015 A 
ATOM     23  C   UNL A   1      34.559  25.013  24.563  1.00  0.00     0.009 A 
ATOM     24  C   UNL A   1      32.398  23.928  26.755  1.00  0.00     0.009 A 
ATOM     25  C   UNL A   1      33.285  26.155  24.106  1.00  0.00     0.007 A 
ATOM     26  C   UNL A   1      31.204  25.123  26.168  1.00  0.00     0.007 A 
ATOM     27  C   UNL A   1      31.682  26.202  24.882  1.00  0.00    -0.023 A 
BRANCH  27  28
ATOM     28  C   UNL A   1      30.753  27.361  24.649  1.00  0.00     0.191 C 
BRANCH  28  29
ATOM     29  O   UNL A   1      30.381  27.411  23.279  1.00  0.00    -0.392 OA
ATOM     30  H   UNL A   1      29.963  28.266  23.089  1.00  0.00     0.211 HD
ENDBRANCH  28  29
ENDBRANCH  27  28
ENDBRANCH  15  22
ENDBRANCH   5   7
ENDBRANCH   4   5
ENDBRANCH   3   4
ENDBRANCH   2   3
ENDBRANCH   1   2
BRANCH   1  31
ATOM     31  C   UNL A   1      45.692  19.161  25.201  1.00  0.00     0.202 C 
BRANCH  31  32
ATOM     32  C   UNL A   1      45.412  20.526  24.575  1.00  0.00     0.261 C 
BRANCH  32  33
ATOM     33  O   UNL A   1      46.377  21.443  25.020  1.00  0.00    -0.460 OA
BRANCH  33  34
ATOM     34  C   UNL A   1      45.959  22.717  24.903  1.00  0.00     0.338 C 
ATOM     35  O   UNL A   1      45.678  23.360  23.911  1.00  0.00    -0.246 OA
BRANCH  34  36
ATOM     36  C   UNL A   1      45.823  23.171  26.261  1.00  0.00     0.060 A 
ATOM     37  C   UNL A   1      44.291  22.927  27.140  1.00  0.00     0.016 A 
ATOM     38  C   UNL A   1      47.104  24.214  27.015  1.00  0.00     0.016 A 
ATOM     39  C   UNL A   1      43.944  23.713  28.715  1.00  0.00     0.010 A 
ATOM     40  C   UNL A   1      46.651  25.042  28.808  1.00  0.00     0.010 A 
ATOM     41  C   UNL A   1      45.069  24.765  29.557  1.00  0.00    -0.014 A 
BRANCH  41  42
ATOM     42  C   UNL A   1      44.781  25.816  30.600  1.00  0.00     0.031 A 
ATOM     43  C   UNL A   1      44.809  27.297  30.227  1.00  0.00     0.074 A 
ATOM     44  C   UNL A   1      45.003  25.504  31.893  1.00  0.00     0.049 A 
ATOM     45  N   UNL A   1      45.020  28.357  30.975  1.00  0.00    -0.248 NA
ATOM     46  C   UNL A   1      44.684  27.615  28.802  1.00  0.00     0.031 C 
ATOM     47  C   UNL A   1      45.230  24.154  32.400  1.00  0.00     0.029 A 
ATOM     48  N   UNL A   1      45.160  26.309  33.000  1.00  0.00    -0.354 N 
ATOM     49  C   UNL A   1      45.118  29.444  30.102  1.00  0.00     0.074 A 
ATOM     50  C   UNL A   1      45.026  28.896  28.767  1.00  0.00     0.031 C 
ATOM     51  C   UNL A   1      45.516  24.220  33.711  1.00  0.00     0.029 A 
ATOM     52  C   UNL A   1      45.498  25.618  34.142  1.00  0.00     0.049 A 
ATOM     53  H   UNL A   1      45.043  27.286  32.977  1.00  0.00     0.167 HD
ATOM     54  C   UNL A   1      45.229  30.774  30.369  1.00  0.00     0.037 A 
ATOM     55  C   UNL A   1      45.759  26.051  35.394  1.00  0.00     0.037 A 
ATOM     56  C   UNL A   1      45.246  31.326  31.702  1.00  0.00     0.049 A 
ATOM     57  C   UNL A   1      45.705  27.523  35.716  1.00  0.00     0.074 A 
ATOM     58  C   UNL A   1      45.158  32.654  32.090  1.00  0.00     0.029 A 
ATOM     59  N   UNL A   1      45.365  30.582  32.866  1.00  0.00    -0.354 N 
ATOM     60  N   UNL A   1      45.600  28.544  34.899  1.00  0.00    -0.248 NA
ATOM     61  C   UNL A   1      45.771  27.903  37.136  1.00  0.00     0.031 C 
ATOM     62  C   UNL A   1      45.266  32.715  33.484  1.00  0.00     0.029 A 
ATOM     63  C   UNL A   1      45.350  31.420  33.969  1.00  0.00     0.049 A 
ATOM     64  H   UNL A   1      45.448  29.602  32.902  1.00  0.00     0.167 HD
ATOM     65  C   UNL A   1      45.534  29.676  35.708  1.00  0.00     0.074 A 
ATOM     66  C   UNL A   1      45.616  29.219  37.078  1.00  0.00     0.031 C 
ATOM     67  C   UNL A   1      45.402  30.974  35.340  1.00  0.00     0.037 A 
BRANCH  54  68
ATOM     68  C   UNL A   1      45.276  31.750  29.205  1.00  0.00     0.058 A 
ATOM     69  C   UNL A   1      44.109  32.327  28.675  1.00  0.00     0.135 A 
ATOM     70  C   UNL A   1      46.502  32.175  28.656  1.00  0.00     0.135 A 
ATOM     71  F   UNL A   1      42.904  31.990  29.163  1.00  0.00    -0.206 F 
ATOM     72  C   UNL A   1      44.146  33.221  27.608  1.00  0.00     0.059 A 
ATOM     73  C   UNL A   1      46.566  33.106  27.619  1.00  0.00     0.059 A 
ATOM     74  F   UNL A   1      47.661  31.694  29.132  1.00  0.00    -0.206 F 
ATOM     75  C   UNL A   1      45.379  33.603  27.084  1.00  0.00     0.060 A 
BRANCH  75  76
ATOM     76  S   UNL A   1      45.399  34.759  25.695  1.00  0.00     0.124 S 
ATOM     77  O   UNL A   1      46.688  34.453  25.083  1.00  0.00    -0.237 OA
ATOM     78  O   UNL A   1      44.225  34.350  24.932  1.00  0.00    -0.237 OA
ATOM     79  O   UNL A   1      45.303  36.066  26.337  1.00  0.00    -0.744 OA
ENDBRANCH  75  76
ENDBRANCH  54  68
BRANCH  55  80
ATOM     80  C   UNL A   1      45.957  25.055  36.481  1.00  0.00     0.058 A 
ATOM     81  C   UNL A   1      44.843  24.542  37.164  1.00  0.00     0.135 A 
ATOM     82  C   UNL A   1      47.223  24.564  36.834  1.00  0.00     0.135 A 
ATOM     83  F   UNL A   1      43.612  24.987  36.865  1.00  0.00    -0.206 F 
ATOM     84  C   UNL A   1      44.972  23.589  38.166  1.00  0.00     0.059 A 
ATOM     85  C   UNL A   1      47.376  23.590  37.818  1.00  0.00     0.059 A 
ATOM     86  F   UNL A   1      48.317  25.004  36.195  1.00  0.00    -0.206 F 
ATOM     87  C   UNL A   1      46.245  23.111  38.480  1.00  0.00     0.060 A 
BRANCH  87  88
ATOM     88  S   UNL A   1      46.382  21.814  39.730  1.00  0.00     0.124 S 
ATOM     89  O   UNL A   1      47.795  21.888  40.080  1.00  0.00    -0.237 OA
ATOM     90  O   UNL A   1      45.446  22.278  40.749  1.00  0.00    -0.237 OA
ATOM     91  O   UNL A   1      45.971  20.611  39.012  1.00  0.00    -0.744 OA
ENDBRANCH  87  88
ENDBRANCH  55  80
BRANCH  67  92
ATOM     92  C   UNL A   1      45.247  32.016  36.420  1.00  0.00     0.058 A 
ATOM     93  C   UNL A   1      43.998  32.388  36.938  1.00  0.00     0.135 A 
ATOM     94  C   UNL A   1      46.391  32.596  36.998  1.00  0.00     0.135 A 
ATOM     95  F   UNL A   1      42.871  31.872  36.423  1.00  0.00    -0.206 F 
ATOM     96  C   UNL A   1      43.885  33.307  37.981  1.00  0.00     0.059 A 
ATOM     97  C   UNL A   1      46.303  33.493  38.059  1.00  0.00     0.059 A 
ATOM     98  F   UNL A   1      47.614  32.274  36.547  1.00  0.00    -0.206 F 
ATOM     99  C   UNL A   1      45.045  33.848  38.540  1.00  0.00     0.060 A 
BRANCH  99 100
ATOM    100  S   UNL A   1      44.887  34.995  39.927  1.00  0.00     0.124 S 
ATOM    101  O   UNL A   1      46.284  35.287  40.230  1.00  0.00    -0.237 OA
ATOM    102  O   UNL A   1      44.124  36.091  39.337  1.00  0.00    -0.237 OA
ATOM    103  O   UNL A   1      44.176  34.216  40.936  1.00  0.00    -0.744 OA
ENDBRANCH  99 100
ENDBRANCH  67  92
ENDBRANCH  41  42
ENDBRANCH  34  36
ENDBRANCH  33  34
ENDBRANCH  32  33
ENDBRANCH  31  32
ENDBRANCH   1  31
TORSDOF 21
ENDMDL
