MODEL 1
REMARK VINA RESULT:     -11.1      0.000      0.000
REMARK SMILES CC(=O)NS(=O)(=O)c1cc(-c2ccn(C(F)F)c(=O)c2)ccc1C(=O)OCCOCCOC(=O)c1ccc(-c2c3nc(c(-c4c(F)cc(S(=O)(=O)[O-])cc4F)c4ccc([nH]4)c(-c4c(F)cc(S(=O)(=O)[O-])cc4F)c4nc(c(-c5c(F)cc(S(=O)(=O)[O-])cc5F)c5ccc2[nH]5)C=C4)C=C3)cc1
REMARK SMILES IDX 30 1 29 2 28 3 27 4 26 5 24 6 25 7 23 8 8 9 9 10 10 11 22 12
REMARK SMILES IDX 21 13 5 14 6 15 7 16 4 17 1 18 2 19 3 20 11 22 12 23 20 24
REMARK SMILES IDX 13 25 18 26 14 27 19 28 15 29 16 30 17 31 31 32 32 33 33 34
REMARK SMILES IDX 34 35 35 36 36 37 100 38 37 39 99 40 38 41 39 42 40 43 93 44
REMARK SMILES IDX 41 45 98 46 92 47 94 48 42 49 97 50 91 51 90 52 43 54 77 55
REMARK SMILES IDX 56 56 76 57 57 58 60 59 75 60 95 61 58 62 59 63 74 65 96 66
REMARK SMILES IDX 61 67 44 68 45 69 54 70 46 71 47 72 53 73 55 74 48 75 49 76
REMARK SMILES IDX 50 77 51 78 52 79 78 80 79 81 88 82 80 83 81 84 87 85 89 86
REMARK SMILES IDX 82 87 83 88 84 89 85 90 86 91 62 92 63 93 72 94 64 95 65 96
REMARK SMILES IDX 71 97 73 98 66 99 67 100 68 101 69 102 70 103
REMARK H PARENT 4 21 94 53 60 64
REMARK Flexibility Score: inf
ROOT
ATOM      1  C   UNL A   1      41.547  21.499  26.420  1.00  0.00     0.202 C 
ENDROOT
BRANCH   1   2
ATOM      2  O   UNL A   1      40.247  21.983  26.741  1.00  0.00    -0.374 OA
BRANCH   2   3
ATOM      3  C   UNL A   1      39.120  21.391  26.107  1.00  0.00     0.202 C 
BRANCH   3   4
ATOM      4  C   UNL A   1      38.096  22.308  25.425  1.00  0.00     0.261 C 
BRANCH   4   5
ATOM      5  O   UNL A   1      36.740  22.133  25.871  1.00  0.00    -0.460 OA
BRANCH   5   6
ATOM      6  C   UNL A   1      35.949  21.483  24.988  1.00  0.00     0.339 C 
ATOM      7  O   UNL A   1      36.005  20.311  24.658  1.00  0.00    -0.246 OA
BRANCH   6   8
ATOM      8  C   UNL A   1      34.881  22.350  24.466  1.00  0.00     0.080 A 
ATOM      9  C   UNL A   1      33.532  22.248  24.797  1.00  0.00     0.103 A 
ATOM     10  C   UNL A   1      32.630  23.249  24.372  1.00  0.00     0.032 A 
ATOM     11  C   UNL A   1      33.075  24.362  23.645  1.00  0.00    -0.017 A 
ATOM     12  C   UNL A   1      35.324  23.454  23.719  1.00  0.00     0.018 A 
ATOM     13  C   UNL A   1      34.431  24.446  23.313  1.00  0.00     0.010 A 
BRANCH   9  14
ATOM     14  S   UNL A   1      32.867  20.988  25.848  1.00  0.00     0.264 S 
ATOM     15  O   UNL A   1      31.433  21.153  25.799  1.00  0.00    -0.201 OA
ATOM     16  O   UNL A   1      33.592  21.068  27.096  1.00  0.00    -0.201 OA
BRANCH  14  17
ATOM     17  N   UNL A   1      33.207  19.524  25.179  1.00  0.00    -0.249 N 
ATOM     18  C   UNL A   1      32.154  19.818  22.927  1.00  0.00     0.115 C 
ATOM     19  C   UNL A   1      33.007  19.036  23.883  1.00  0.00     0.230 C 
ATOM     20  O   UNL A   1      33.465  17.938  23.599  1.00  0.00    -0.274 OA
ATOM     21  H   UNL A   1      33.622  18.881  25.797  1.00  0.00     0.183 HD
ENDBRANCH  14  17
ENDBRANCH   9  14
BRANCH  11  22
ATOM     22  C   UNL A   1      32.180  25.481  23.277  1.00  0.00    -0.011 A 
ATOM     23  C   UNL A   1      32.659  26.678  22.610  1.00  0.00     0.027 A 
ATOM     24  C   UNL A   1      30.894  25.431  23.668  1.00  0.00     0.080 A 
ATOM     25  C   UNL A   1      31.855  27.735  22.438  1.00  0.00     0.095 A 
ATOM     26  C   UNL A   1      29.978  26.591  23.464  1.00  0.00     0.255 A 
ATOM     27  N   UNL A   1      30.542  27.707  22.866  1.00  0.00    -0.258 N 
ATOM     28  O   UNL A   1      28.819  26.501  23.853  1.00  0.00    -0.269 OA
BRANCH  27  29
ATOM     29  C   UNL A   1      29.701  28.868  22.724  1.00  0.00     0.451 C 
ATOM     30  F   UNL A   1      29.781  29.675  23.809  1.00  0.00    -0.185 F 
ATOM     31  F   UNL A   1      30.057  29.593  21.634  1.00  0.00    -0.185 F 
ENDBRANCH  27  29
ENDBRANCH  11  22
ENDBRANCH   6   8
ENDBRANCH   5   6
ENDBRANCH   4   5
ENDBRANCH   3   4
ENDBRANCH   2   3
ENDBRANCH   1   2
BRANCH   1  32
ATOM     32  C   UNL A   1      42.601  22.466  25.864  1.00  0.00     0.261 C 
BRANCH  32  33
ATOM     33  O   UNL A   1      42.892  23.576  26.733  1.00  0.00    -0.460 OA
BRANCH  33  34
ATOM     34  C   UNL A   1      42.859  24.782  26.110  1.00  0.00     0.338 C 
ATOM     35  O   UNL A   1      43.268  25.038  24.990  1.00  0.00    -0.246 OA
BRANCH  34  36
ATOM     36  C   UNL A   1      42.099  25.773  26.892  1.00  0.00     0.060 A 
ATOM     37  C   UNL A   1      42.632  27.066  26.975  1.00  0.00     0.016 A 
ATOM     38  C   UNL A   1      41.019  25.394  27.690  1.00  0.00     0.016 A 
ATOM     39  C   UNL A   1      42.139  27.961  27.920  1.00  0.00     0.010 A 
ATOM     40  C   UNL A   1      40.532  26.293  28.648  1.00  0.00     0.010 A 
ATOM     41  C   UNL A   1      41.131  27.555  28.805  1.00  0.00    -0.014 A 
BRANCH  41  42
ATOM     42  C   UNL A   1      40.877  28.383  30.009  1.00  0.00     0.031 A 
ATOM     43  C   UNL A   1      41.772  28.208  31.209  1.00  0.00     0.074 A 
ATOM     44  C   UNL A   1      39.928  29.335  30.004  1.00  0.00     0.049 A 
ATOM     45  N   UNL A   1      41.788  28.871  32.337  1.00  0.00    -0.248 NA
ATOM     46  C   UNL A   1      42.790  27.147  31.123  1.00  0.00     0.031 C 
ATOM     47  C   UNL A   1      39.024  29.620  28.893  1.00  0.00     0.029 A 
ATOM     48  N   UNL A   1      39.575  30.243  30.970  1.00  0.00    -0.354 N 
ATOM     49  C   UNL A   1      42.815  28.313  33.090  1.00  0.00     0.074 A 
ATOM     50  C   UNL A   1      43.378  27.235  32.307  1.00  0.00     0.031 C 
ATOM     51  C   UNL A   1      38.215  30.636  29.239  1.00  0.00     0.029 A 
ATOM     52  C   UNL A   1      38.535  31.062  30.601  1.00  0.00     0.049 A 
ATOM     53  H   UNL A   1      40.024  30.303  31.844  1.00  0.00     0.167 HD
ATOM     54  C   UNL A   1      43.257  28.672  34.320  1.00  0.00     0.037 A 
ATOM     55  C   UNL A   1      37.912  32.040  31.286  1.00  0.00     0.037 A 
ATOM     56  C   UNL A   1      42.695  29.742  35.100  1.00  0.00     0.049 A 
ATOM     57  C   UNL A   1      38.396  32.397  32.668  1.00  0.00     0.074 A 
ATOM     58  C   UNL A   1      43.075  30.191  36.353  1.00  0.00     0.029 A 
ATOM     59  N   UNL A   1      41.624  30.531  34.702  1.00  0.00    -0.354 N 
ATOM     60  N   UNL A   1      39.384  31.876  33.357  1.00  0.00    -0.248 NA
ATOM     61  C   UNL A   1      37.685  33.481  33.360  1.00  0.00     0.031 C 
ATOM     62  C   UNL A   1      42.211  31.226  36.728  1.00  0.00     0.029 A 
ATOM     63  C   UNL A   1      41.319  31.450  35.691  1.00  0.00     0.049 A 
ATOM     64  H   UNL A   1      41.150  30.447  33.843  1.00  0.00     0.167 HD
ATOM     65  C   UNL A   1      39.429  32.586  34.553  1.00  0.00     0.074 A 
ATOM     66  C   UNL A   1      38.377  33.579  34.488  1.00  0.00     0.031 C 
ATOM     67  C   UNL A   1      40.267  32.433  35.608  1.00  0.00     0.037 A 
BRANCH  54  68
ATOM     68  C   UNL A   1      44.394  27.880  34.904  1.00  0.00     0.058 A 
ATOM     69  C   UNL A   1      44.171  26.736  35.687  1.00  0.00     0.135 A 
ATOM     70  C   UNL A   1      45.723  28.261  34.667  1.00  0.00     0.135 A 
ATOM     71  F   UNL A   1      42.918  26.338  35.960  1.00  0.00    -0.206 F 
ATOM     72  C   UNL A   1      45.225  26.014  36.237  1.00  0.00     0.059 A 
ATOM     73  C   UNL A   1      46.795  27.541  35.188  1.00  0.00     0.059 A 
ATOM     74  F   UNL A   1      45.993  29.349  33.927  1.00  0.00    -0.206 F 
ATOM     75  C   UNL A   1      46.535  26.427  35.985  1.00  0.00     0.060 A 
BRANCH  75  76
ATOM     76  S   UNL A   1      47.895  25.487  36.711  1.00  0.00     0.124 S 
ATOM     77  O   UNL A   1      47.195  24.317  37.231  1.00  0.00    -0.237 OA
ATOM     78  O   UNL A   1      48.760  25.248  35.560  1.00  0.00    -0.237 OA
ATOM     79  O   UNL A   1      48.435  26.395  37.718  1.00  0.00    -0.744 OA
ENDBRANCH  75  76
ENDBRANCH  54  68
BRANCH  55  80
ATOM     80  C   UNL A   1      36.765  32.757  30.672  1.00  0.00     0.058 A 
ATOM     81  C   UNL A   1      35.443  32.468  31.040  1.00  0.00     0.135 A 
ATOM     82  C   UNL A   1      36.973  33.754  29.706  1.00  0.00     0.135 A 
ATOM     83  F   UNL A   1      35.194  31.517  31.952  1.00  0.00    -0.206 F 
ATOM     84  C   UNL A   1      34.366  33.135  30.465  1.00  0.00     0.059 A 
ATOM     85  C   UNL A   1      35.914  34.450  29.133  1.00  0.00     0.059 A 
ATOM     86  F   UNL A   1      38.221  34.073  29.327  1.00  0.00    -0.206 F 
ATOM     87  C   UNL A   1      34.612  34.126  29.513  1.00  0.00     0.060 A 
BRANCH  87  88
ATOM     88  S   UNL A   1      33.211  35.025  28.812  1.00  0.00     0.124 S 
ATOM     89  O   UNL A   1      32.460  35.378  30.012  1.00  0.00    -0.237 OA
ATOM     90  O   UNL A   1      33.868  36.130  28.123  1.00  0.00    -0.237 OA
ATOM     91  O   UNL A   1      32.582  34.038  27.940  1.00  0.00    -0.744 OA
ENDBRANCH  87  88
ENDBRANCH  55  80
BRANCH  67  92
ATOM     92  C   UNL A   1      40.097  33.378  36.765  1.00  0.00     0.058 A 
ATOM     93  C   UNL A   1      40.837  34.566  36.862  1.00  0.00     0.135 A 
ATOM     94  C   UNL A   1      39.162  33.102  37.776  1.00  0.00     0.135 A 
ATOM     95  F   UNL A   1      41.746  34.874  35.923  1.00  0.00    -0.206 F 
ATOM     96  C   UNL A   1      40.679  35.435  37.936  1.00  0.00     0.059 A 
ATOM     97  C   UNL A   1      38.969  33.969  38.847  1.00  0.00     0.059 A 
ATOM     98  F   UNL A   1      38.419  31.986  37.724  1.00  0.00    -0.206 F 
ATOM     99  C   UNL A   1      39.745  35.125  38.928  1.00  0.00     0.060 A 
BRANCH  99 100
ATOM    100  S   UNL A   1      39.539  36.261  40.316  1.00  0.00     0.124 S 
ATOM    101  O   UNL A   1      38.674  35.488  41.201  1.00  0.00    -0.237 OA
ATOM    102  O   UNL A   1      40.912  36.448  40.777  1.00  0.00    -0.237 OA
ATOM    103  O   UNL A   1      38.925  37.435  39.704  1.00  0.00    -0.744 OA
ENDBRANCH  99 100
ENDBRANCH  67  92
ENDBRANCH  41  42
ENDBRANCH  34  36
ENDBRANCH  33  34
ENDBRANCH  32  33
ENDBRANCH   1  32
TORSDOF 21
ENDMDL
MODEL 2
REMARK VINA RESULT:     -11.1      5.456     12.587
REMARK SMILES CC(=O)NS(=O)(=O)c1cc(-c2ccn(C(F)F)c(=O)c2)ccc1C(=O)OCCOCCOC(=O)c1ccc(-c2c3nc(c(-c4c(F)cc(S(=O)(=O)[O-])cc4F)c4ccc([nH]4)c(-c4c(F)cc(S(=O)(=O)[O-])cc4F)c4nc(c(-c5c(F)cc(S(=O)(=O)[O-])cc5F)c5ccc2[nH]5)C=C4)C=C3)cc1
REMARK SMILES IDX 30 1 29 2 28 3 27 4 26 5 24 6 25 7 23 8 8 9 9 10 10 11 22 12
REMARK SMILES IDX 21 13 5 14 6 15 7 16 4 17 1 18 2 19 3 20 11 22 12 23 20 24
REMARK SMILES IDX 13 25 18 26 14 27 19 28 15 29 16 30 17 31 31 32 32 33 33 34
REMARK SMILES IDX 34 35 35 36 36 37 100 38 37 39 99 40 38 41 39 42 40 43 93 44
REMARK SMILES IDX 41 45 98 46 92 47 94 48 42 49 97 50 91 51 90 52 43 54 77 55
REMARK SMILES IDX 56 56 76 57 57 58 60 59 75 60 95 61 58 62 59 63 74 65 96 66
REMARK SMILES IDX 61 67 44 68 45 69 54 70 46 71 47 72 53 73 55 74 48 75 49 76
REMARK SMILES IDX 50 77 51 78 52 79 78 80 79 81 88 82 80 83 81 84 87 85 89 86
REMARK SMILES IDX 82 87 83 88 84 89 85 90 86 91 62 92 63 93 72 94 64 95 65 96
REMARK SMILES IDX 71 97 73 98 66 99 67 100 68 101 69 102 70 103
REMARK H PARENT 4 21 94 53 60 64
REMARK Flexibility Score: inf
ROOT
ATOM      1  C   UNL A   1      33.998  34.245  29.237  1.00  0.00     0.202 C 
ENDROOT
BRANCH   1   2
ATOM      2  O   UNL A   1      34.801  34.602  30.357  1.00  0.00    -0.374 OA
BRANCH   2   3
ATOM      3  C   UNL A   1      34.312  34.335  31.665  1.00  0.00     0.202 C 
BRANCH   3   4
ATOM      4  C   UNL A   1      34.662  32.992  32.320  1.00  0.00     0.261 C 
BRANCH   4   5
ATOM      5  O   UNL A   1      36.064  32.674  32.331  1.00  0.00    -0.460 OA
BRANCH   5   6
ATOM      6  C   UNL A   1      36.590  32.543  33.569  1.00  0.00     0.339 C 
ATOM      7  O   UNL A   1      36.079  32.850  34.633  1.00  0.00    -0.246 OA
BRANCH   6   8
ATOM      8  C   UNL A   1      37.903  31.880  33.541  1.00  0.00     0.080 A 
ATOM      9  C   UNL A   1      39.098  32.450  33.971  1.00  0.00     0.103 A 
ATOM     10  C   UNL A   1      40.261  31.652  34.062  1.00  0.00     0.032 A 
ATOM     11  C   UNL A   1      40.226  30.285  33.754  1.00  0.00    -0.017 A 
ATOM     12  C   UNL A   1      37.872  30.515  33.212  1.00  0.00     0.018 A 
ATOM     13  C   UNL A   1      39.019  29.728  33.316  1.00  0.00     0.010 A 
BRANCH   9  14
ATOM     14  S   UNL A   1      39.244  34.117  34.549  1.00  0.00     0.264 S 
ATOM     15  O   UNL A   1      38.509  34.925  33.603  1.00  0.00    -0.201 OA
ATOM     16  O   UNL A   1      40.649  34.345  34.801  1.00  0.00    -0.201 OA
BRANCH  14  17
ATOM     17  N   UNL A   1      38.463  34.235  35.992  1.00  0.00    -0.249 N 
ATOM     18  C   UNL A   1      39.939  32.788  37.405  1.00  0.00     0.115 C 
ATOM     19  C   UNL A   1      38.805  33.760  37.263  1.00  0.00     0.230 C 
ATOM     20  O   UNL A   1      38.107  34.090  38.213  1.00  0.00    -0.274 OA
ATOM     21  H   UNL A   1      37.610  34.722  35.954  1.00  0.00     0.183 HD
ENDBRANCH  14  17
ENDBRANCH   9  14
BRANCH  11  22
ATOM     22  C   UNL A   1      41.394  29.398  33.941  1.00  0.00    -0.011 A 
ATOM     23  C   UNL A   1      42.235  29.451  35.124  1.00  0.00     0.027 A 
ATOM     24  C   UNL A   1      41.751  28.581  32.933  1.00  0.00     0.080 A 
ATOM     25  C   UNL A   1      43.373  28.749  35.188  1.00  0.00     0.095 A 
ATOM     26  C   UNL A   1      43.004  27.774  32.998  1.00  0.00     0.255 A 
ATOM     27  N   UNL A   1      43.766  27.934  34.144  1.00  0.00    -0.258 N 
ATOM     28  O   UNL A   1      43.292  27.059  32.045  1.00  0.00    -0.269 OA
BRANCH  27  29
ATOM     29  C   UNL A   1      45.018  27.224  34.202  1.00  0.00     0.451 C 
ATOM     30  F   UNL A   1      45.931  27.758  33.355  1.00  0.00    -0.185 F 
ATOM     31  F   UNL A   1      45.537  27.257  35.455  1.00  0.00    -0.185 F 
ENDBRANCH  27  29
ENDBRANCH  11  22
ENDBRANCH   6   8
ENDBRANCH   5   6
ENDBRANCH   4   5
ENDBRANCH   3   4
ENDBRANCH   2   3
ENDBRANCH   1   2
BRANCH   1  32
ATOM     32  C   UNL A   1      34.433  33.086  28.329  1.00  0.00     0.261 C 
BRANCH  32  33
ATOM     33  O   UNL A   1      35.069  32.003  29.029  1.00  0.00    -0.460 OA
BRANCH  33  34
ATOM     34  C   UNL A   1      34.901  30.793  28.436  1.00  0.00     0.338 C 
ATOM     35  O   UNL A   1      33.924  30.416  27.810  1.00  0.00    -0.246 OA
BRANCH  34  36
ATOM     36  C   UNL A   1      36.136  29.992  28.482  1.00  0.00     0.060 A 
ATOM     37  C   UNL A   1      36.517  29.477  29.728  1.00  0.00     0.016 A 
ATOM     38  C   UNL A   1      37.002  29.928  27.390  1.00  0.00     0.016 A 
ATOM     39  C   UNL A   1      37.801  28.971  29.908  1.00  0.00     0.010 A 
ATOM     40  C   UNL A   1      38.297  29.428  27.575  1.00  0.00     0.010 A 
ATOM     41  C   UNL A   1      38.718  29.006  28.848  1.00  0.00    -0.014 A 
BRANCH  41  42
ATOM     42  C   UNL A   1      40.154  28.798  29.155  1.00  0.00     0.031 A 
ATOM     43  C   UNL A   1      40.790  27.481  28.788  1.00  0.00     0.074 A 
ATOM     44  C   UNL A   1      40.901  29.791  29.667  1.00  0.00     0.049 A 
ATOM     45  N   UNL A   1      42.038  27.105  28.889  1.00  0.00    -0.248 NA
ATOM     46  C   UNL A   1      39.897  26.454  28.225  1.00  0.00     0.031 C 
ATOM     47  C   UNL A   1      40.407  31.117  30.031  1.00  0.00     0.029 A 
ATOM     48  N   UNL A   1      42.240  29.836  29.961  1.00  0.00    -0.354 N 
ATOM     49  C   UNL A   1      42.083  25.804  28.400  1.00  0.00     0.074 A 
ATOM     50  C   UNL A   1      40.731  25.442  28.034  1.00  0.00     0.031 C 
ATOM     51  C   UNL A   1      41.431  31.848  30.504  1.00  0.00     0.029 A 
ATOM     52  C   UNL A   1      42.648  31.038  30.488  1.00  0.00     0.049 A 
ATOM     53  H   UNL A   1      42.852  29.079  29.808  1.00  0.00     0.167 HD
ATOM     54  C   UNL A   1      43.155  24.986  28.259  1.00  0.00     0.037 A 
ATOM     55  C   UNL A   1      43.863  31.435  30.912  1.00  0.00     0.037 A 
ATOM     56  C   UNL A   1      44.498  25.346  28.626  1.00  0.00     0.049 A 
ATOM     57  C   UNL A   1      45.034  30.495  30.782  1.00  0.00     0.074 A 
ATOM     58  C   UNL A   1      45.655  24.594  28.516  1.00  0.00     0.029 A 
ATOM     59  N   UNL A   1      44.866  26.563  29.183  1.00  0.00    -0.354 N 
ATOM     60  N   UNL A   1      45.065  29.277  30.295  1.00  0.00    -0.248 NA
ATOM     61  C   UNL A   1      46.337  30.989  31.248  1.00  0.00     0.031 C 
ATOM     62  C   UNL A   1      46.716  25.342  29.040  1.00  0.00     0.029 A 
ATOM     63  C   UNL A   1      46.227  26.576  29.438  1.00  0.00     0.049 A 
ATOM     64  H   UNL A   1      44.249  27.308  29.369  1.00  0.00     0.167 HD
ATOM     65  C   UNL A   1      46.393  28.869  30.375  1.00  0.00     0.074 A 
ATOM     66  C   UNL A   1      47.135  29.973  30.945  1.00  0.00     0.031 C 
ATOM     67  C   UNL A   1      46.949  27.687  30.006  1.00  0.00     0.037 A 
BRANCH  54  68
ATOM     68  C   UNL A   1      42.907  23.612  27.702  1.00  0.00     0.058 A 
ATOM     69  C   UNL A   1      42.502  22.546  28.521  1.00  0.00     0.135 A 
ATOM     70  C   UNL A   1      43.063  23.360  26.331  1.00  0.00     0.135 A 
ATOM     71  F   UNL A   1      42.355  22.727  29.844  1.00  0.00    -0.206 F 
ATOM     72  C   UNL A   1      42.286  21.272  28.004  1.00  0.00     0.059 A 
ATOM     73  C   UNL A   1      42.832  22.099  25.788  1.00  0.00     0.059 A 
ATOM     74  F   UNL A   1      43.452  24.343  25.503  1.00  0.00    -0.206 F 
ATOM     75  C   UNL A   1      42.458  21.057  26.636  1.00  0.00     0.060 A 
BRANCH  75  76
ATOM     76  S   UNL A   1      42.185  19.399  25.977  1.00  0.00     0.124 S 
ATOM     77  O   UNL A   1      42.940  19.454  24.728  1.00  0.00    -0.237 OA
ATOM     78  O   UNL A   1      42.749  18.550  27.020  1.00  0.00    -0.237 OA
ATOM     79  O   UNL A   1      40.735  19.326  25.830  1.00  0.00    -0.744 OA
ENDBRANCH  75  76
ENDBRANCH  54  68
BRANCH  55  80
ATOM     80  C   UNL A   1      44.036  32.790  31.495  1.00  0.00     0.058 A 
ATOM     81  C   UNL A   1      44.321  33.900  30.687  1.00  0.00     0.135 A 
ATOM     82  C   UNL A   1      43.910  33.000  32.877  1.00  0.00     0.135 A 
ATOM     83  F   UNL A   1      44.461  33.747  29.362  1.00  0.00    -0.206 F 
ATOM     84  C   UNL A   1      44.487  35.171  31.230  1.00  0.00     0.059 A 
ATOM     85  C   UNL A   1      44.048  34.264  33.440  1.00  0.00     0.059 A 
ATOM     86  F   UNL A   1      43.628  31.970  33.691  1.00  0.00    -0.206 F 
ATOM     87  C   UNL A   1      44.347  35.343  32.608  1.00  0.00     0.060 A 
BRANCH  87  88
ATOM     88  S   UNL A   1      44.508  37.005  33.298  1.00  0.00     0.124 S 
ATOM     89  O   UNL A   1      45.868  37.354  32.906  1.00  0.00    -0.237 OA
ATOM     90  O   UNL A   1      43.441  37.727  32.614  1.00  0.00    -0.237 OA
ATOM     91  O   UNL A   1      44.295  36.795  34.727  1.00  0.00    -0.744 OA
ENDBRANCH  87  88
ENDBRANCH  55  80
BRANCH  67  92
ATOM     92  C   UNL A   1      48.435  27.541  30.184  1.00  0.00     0.058 A 
ATOM     93  C   UNL A   1      49.343  28.027  29.231  1.00  0.00     0.135 A 
ATOM     94  C   UNL A   1      48.956  26.930  31.336  1.00  0.00     0.135 A 
ATOM     95  F   UNL A   1      48.895  28.617  28.111  1.00  0.00    -0.206 F 
ATOM     96  C   UNL A   1      50.716  27.886  29.398  1.00  0.00     0.059 A 
ATOM     97  C   UNL A   1      50.327  26.800  31.535  1.00  0.00     0.059 A 
ATOM     98  F   UNL A   1      48.131  26.460  32.284  1.00  0.00    -0.206 F 
ATOM     99  C   UNL A   1      51.199  27.265  30.553  1.00  0.00     0.060 A 
BRANCH  99 100
ATOM    100  S   UNL A   1      52.983  27.092  30.767  1.00  0.00     0.124 S 
ATOM    101  O   UNL A   1      53.427  28.478  30.663  1.00  0.00    -0.237 OA
ATOM    102  O   UNL A   1      53.085  26.492  32.094  1.00  0.00    -0.237 OA
ATOM    103  O   UNL A   1      53.374  26.222  29.662  1.00  0.00    -0.744 OA
ENDBRANCH  99 100
ENDBRANCH  67  92
ENDBRANCH  41  42
ENDBRANCH  34  36
ENDBRANCH  33  34
ENDBRANCH  32  33
ENDBRANCH   1  32
TORSDOF 21
ENDMDL
MODEL 3
REMARK VINA RESULT:     -11.0      4.031      7.143
REMARK SMILES CC(=O)NS(=O)(=O)c1cc(-c2ccn(C(F)F)c(=O)c2)ccc1C(=O)OCCOCCOC(=O)c1ccc(-c2c3nc(c(-c4c(F)cc(S(=O)(=O)[O-])cc4F)c4ccc([nH]4)c(-c4c(F)cc(S(=O)(=O)[O-])cc4F)c4nc(c(-c5c(F)cc(S(=O)(=O)[O-])cc5F)c5ccc2[nH]5)C=C4)C=C3)cc1
REMARK SMILES IDX 30 1 29 2 28 3 27 4 26 5 24 6 25 7 23 8 8 9 9 10 10 11 22 12
REMARK SMILES IDX 21 13 5 14 6 15 7 16 4 17 1 18 2 19 3 20 11 22 12 23 20 24
REMARK SMILES IDX 13 25 18 26 14 27 19 28 15 29 16 30 17 31 31 32 32 33 33 34
REMARK SMILES IDX 34 35 35 36 36 37 100 38 37 39 99 40 38 41 39 42 40 43 93 44
REMARK SMILES IDX 41 45 98 46 92 47 94 48 42 49 97 50 91 51 90 52 43 54 77 55
REMARK SMILES IDX 56 56 76 57 57 58 60 59 75 60 95 61 58 62 59 63 74 65 96 66
REMARK SMILES IDX 61 67 44 68 45 69 54 70 46 71 47 72 53 73 55 74 48 75 49 76
REMARK SMILES IDX 50 77 51 78 52 79 78 80 79 81 88 82 80 83 81 84 87 85 89 86
REMARK SMILES IDX 82 87 83 88 84 89 85 90 86 91 62 92 63 93 72 94 64 95 65 96
REMARK SMILES IDX 71 97 73 98 66 99 67 100 68 101 69 102 70 103
REMARK H PARENT 4 21 94 53 60 64
REMARK Flexibility Score: inf
ROOT
ATOM      1  C   UNL A   1      37.899  23.710  25.878  1.00  0.00     0.202 C 
ENDROOT
BRANCH   1   2
ATOM      2  O   UNL A   1      37.771  22.299  26.021  1.00  0.00    -0.374 OA
BRANCH   2   3
ATOM      3  C   UNL A   1      38.769  21.459  25.456  1.00  0.00     0.202 C 
BRANCH   3   4
ATOM      4  C   UNL A   1      39.924  20.987  26.349  1.00  0.00     0.261 C 
BRANCH   4   5
ATOM      5  O   UNL A   1      41.150  21.721  26.187  1.00  0.00    -0.460 OA
BRANCH   5   6
ATOM      6  C   UNL A   1      42.244  21.074  26.648  1.00  0.00     0.339 C 
ATOM      7  O   UNL A   1      42.542  19.903  26.483  1.00  0.00    -0.246 OA
BRANCH   6   8
ATOM      8  C   UNL A   1      43.159  21.980  27.358  1.00  0.00     0.080 A 
ATOM      9  C   UNL A   1      44.420  22.362  26.907  1.00  0.00     0.103 A 
ATOM     10  C   UNL A   1      45.130  23.376  27.588  1.00  0.00     0.032 A 
ATOM     11  C   UNL A   1      44.573  24.027  28.698  1.00  0.00    -0.017 A 
ATOM     12  C   UNL A   1      42.610  22.617  28.483  1.00  0.00     0.018 A 
ATOM     13  C   UNL A   1      43.309  23.627  29.145  1.00  0.00     0.010 A 
BRANCH   9  14
ATOM     14  S   UNL A   1      45.166  21.743  25.426  1.00  0.00     0.264 S 
ATOM     15  O   UNL A   1      46.428  22.436  25.303  1.00  0.00    -0.201 OA
ATOM     16  O   UNL A   1      44.159  21.824  24.392  1.00  0.00    -0.201 OA
BRANCH  14  17
ATOM     17  N   UNL A   1      45.511  20.150  25.647  1.00  0.00    -0.249 N 
ATOM     18  C   UNL A   1      44.764  19.232  23.441  1.00  0.00     0.115 C 
ATOM     19  C   UNL A   1      45.449  19.064  24.765  1.00  0.00     0.230 C 
ATOM     20  O   UNL A   1      45.883  17.984  25.143  1.00  0.00    -0.274 OA
ATOM     21  H   UNL A   1      45.812  19.921  26.555  1.00  0.00     0.183 HD
ENDBRANCH  14  17
ENDBRANCH   9  14
BRANCH  11  22
ATOM     22  C   UNL A   1      45.239  25.165  29.369  1.00  0.00    -0.011 A 
ATOM     23  C   UNL A   1      45.612  25.135  30.772  1.00  0.00     0.027 A 
ATOM     24  C   UNL A   1      45.412  26.307  28.680  1.00  0.00     0.080 A 
ATOM     25  C   UNL A   1      46.065  26.237  31.384  1.00  0.00     0.095 A 
ATOM     26  C   UNL A   1      45.937  27.537  29.341  1.00  0.00     0.255 A 
ATOM     27  N   UNL A   1      46.214  27.424  30.693  1.00  0.00    -0.258 N 
ATOM     28  O   UNL A   1      46.060  28.557  28.671  1.00  0.00    -0.269 OA
BRANCH  27  29
ATOM     29  C   UNL A   1      46.652  28.616  31.374  1.00  0.00     0.451 C 
ATOM     30  F   UNL A   1      45.612  29.441  31.647  1.00  0.00    -0.185 F 
ATOM     31  F   UNL A   1      47.263  28.309  32.545  1.00  0.00    -0.185 F 
ENDBRANCH  27  29
ENDBRANCH  11  22
ENDBRANCH   6   8
ENDBRANCH   5   6
ENDBRANCH   4   5
ENDBRANCH   3   4
ENDBRANCH   2   3
ENDBRANCH   1   2
BRANCH   1  32
ATOM     32  C   UNL A   1      38.967  24.462  26.685  1.00  0.00     0.261 C 
BRANCH  32  33
ATOM     33  O   UNL A   1      39.688  25.448  25.925  1.00  0.00    -0.460 OA
BRANCH  33  34
ATOM     34  C   UNL A   1      41.021  25.470  26.180  1.00  0.00     0.338 C 
ATOM     35  O   UNL A   1      41.916  25.129  25.423  1.00  0.00    -0.246 OA
BRANCH  34  36
ATOM     36  C   UNL A   1      41.314  26.126  27.465  1.00  0.00     0.060 A 
ATOM     37  C   UNL A   1      40.579  25.704  28.581  1.00  0.00     0.016 A 
ATOM     38  C   UNL A   1      42.125  27.259  27.534  1.00  0.00     0.016 A 
ATOM     39  C   UNL A   1      40.587  26.464  29.746  1.00  0.00     0.010 A 
ATOM     40  C   UNL A   1      42.123  28.029  28.704  1.00  0.00     0.010 A 
ATOM     41  C   UNL A   1      41.307  27.665  29.790  1.00  0.00    -0.014 A 
BRANCH  41  42
ATOM     42  C   UNL A   1      41.019  28.618  30.889  1.00  0.00     0.031 A 
ATOM     43  C   UNL A   1      41.898  28.597  32.114  1.00  0.00     0.074 A 
ATOM     44  C   UNL A   1      40.053  29.544  30.765  1.00  0.00     0.049 A 
ATOM     45  N   UNL A   1      41.884  29.382  33.160  1.00  0.00    -0.248 NA
ATOM     46  C   UNL A   1      42.936  27.553  32.161  1.00  0.00     0.031 C 
ATOM     47  C   UNL A   1      39.161  29.684  29.617  1.00  0.00     0.029 A 
ATOM     48  N   UNL A   1      39.668  30.548  31.618  1.00  0.00    -0.354 N 
ATOM     49  C   UNL A   1      42.910  28.933  33.985  1.00  0.00     0.074 A 
ATOM     50  C   UNL A   1      43.504  27.786  33.336  1.00  0.00     0.031 C 
ATOM     51  C   UNL A   1      38.328  30.716  29.836  1.00  0.00     0.029 A 
ATOM     52  C   UNL A   1      38.619  31.299  31.145  1.00  0.00     0.049 A 
ATOM     53  H   UNL A   1      40.102  30.715  32.486  1.00  0.00     0.167 HD
ATOM     54  C   UNL A   1      43.326  29.436  35.173  1.00  0.00     0.037 A 
ATOM     55  C   UNL A   1      37.968  32.336  31.707  1.00  0.00     0.037 A 
ATOM     56  C   UNL A   1      42.732  30.576  35.820  1.00  0.00     0.049 A 
ATOM     57  C   UNL A   1      38.423  32.854  33.047  1.00  0.00     0.074 A 
ATOM     58  C   UNL A   1      43.084  31.170  37.019  1.00  0.00     0.029 A 
ATOM     59  N   UNL A   1      41.653  31.293  35.321  1.00  0.00    -0.354 N 
ATOM     60  N   UNL A   1      39.410  32.434  33.803  1.00  0.00    -0.248 NA
ATOM     61  C   UNL A   1      37.682  33.995  33.603  1.00  0.00     0.031 C 
ATOM     62  C   UNL A   1      42.195  32.223  37.264  1.00  0.00     0.029 A 
ATOM     63  C   UNL A   1      41.315  32.311  36.197  1.00  0.00     0.049 A 
ATOM     64  H   UNL A   1      41.194  31.104  34.470  1.00  0.00     0.167 HD
ATOM     65  C   UNL A   1      39.423  33.274  34.912  1.00  0.00     0.074 A 
ATOM     66  C   UNL A   1      38.354  34.233  34.722  1.00  0.00     0.031 C 
ATOM     67  C   UNL A   1      40.247  33.257  35.990  1.00  0.00     0.037 A 
BRANCH  54  68
ATOM     68  C   UNL A   1      44.467  28.738  35.857  1.00  0.00     0.058 A 
ATOM     69  C   UNL A   1      44.254  27.680  36.756  1.00  0.00     0.135 A 
ATOM     70  C   UNL A   1      45.793  29.121  35.602  1.00  0.00     0.135 A 
ATOM     71  F   UNL A   1      43.004  27.286  37.050  1.00  0.00    -0.206 F 
ATOM     72  C   UNL A   1      45.313  27.045  37.397  1.00  0.00     0.059 A 
ATOM     73  C   UNL A   1      46.869  28.485  36.215  1.00  0.00     0.059 A 
ATOM     74  F   UNL A   1      46.054  30.129  34.753  1.00  0.00    -0.206 F 
ATOM     75  C   UNL A   1      46.618  27.458  37.124  1.00  0.00     0.060 A 
BRANCH  75  76
ATOM     76  S   UNL A   1      47.984  26.633  37.969  1.00  0.00     0.124 S 
ATOM     77  O   UNL A   1      47.378  25.351  38.316  1.00  0.00    -0.237 OA
ATOM     78  O   UNL A   1      49.011  26.589  36.934  1.00  0.00    -0.237 OA
ATOM     79  O   UNL A   1      48.270  27.517  39.094  1.00  0.00    -0.744 OA
ENDBRANCH  75  76
ENDBRANCH  54  68
BRANCH  55  80
ATOM     80  C   UNL A   1      36.817  32.956  31.001  1.00  0.00     0.058 A 
ATOM     81  C   UNL A   1      35.496  32.705  31.399  1.00  0.00     0.135 A 
ATOM     82  C   UNL A   1      37.022  33.821  29.914  1.00  0.00     0.135 A 
ATOM     83  F   UNL A   1      35.252  31.877  32.425  1.00  0.00    -0.206 F 
ATOM     84  C   UNL A   1      34.416  33.281  30.738  1.00  0.00     0.059 A 
ATOM     85  C   UNL A   1      35.959  34.426  29.253  1.00  0.00     0.059 A 
ATOM     86  F   UNL A   1      38.268  34.099  29.502  1.00  0.00    -0.206 F 
ATOM     87  C   UNL A   1      34.658  34.142  29.667  1.00  0.00     0.060 A 
BRANCH  87  88
ATOM     88  S   UNL A   1      33.252  34.930  28.850  1.00  0.00     0.124 S 
ATOM     89  O   UNL A   1      32.444  35.342  29.991  1.00  0.00    -0.237 OA
ATOM     90  O   UNL A   1      33.894  36.005  28.100  1.00  0.00    -0.237 OA
ATOM     91  O   UNL A   1      32.694  33.855  28.034  1.00  0.00    -0.744 OA
ENDBRANCH  87  88
ENDBRANCH  55  80
BRANCH  67  92
ATOM     92  C   UNL A   1      40.042  34.322  37.031  1.00  0.00     0.058 A 
ATOM     93  C   UNL A   1      40.570  35.613  36.879  1.00  0.00     0.135 A 
ATOM     94  C   UNL A   1      39.283  34.054  38.182  1.00  0.00     0.135 A 
ATOM     95  F   UNL A   1      41.304  35.920  35.798  1.00  0.00    -0.206 F 
ATOM     96  C   UNL A   1      40.381  36.594  37.847  1.00  0.00     0.059 A 
ATOM     97  C   UNL A   1      39.060  35.027  39.151  1.00  0.00     0.059 A 
ATOM     98  F   UNL A   1      38.745  32.839  38.368  1.00  0.00    -0.206 F 
ATOM     99  C   UNL A   1      39.627  36.289  38.984  1.00  0.00     0.060 A 
BRANCH  99 100
ATOM    100  S   UNL A   1      39.378  37.569  40.232  1.00  0.00     0.124 S 
ATOM    101  O   UNL A   1      38.462  38.473  39.546  1.00  0.00    -0.237 OA
ATOM    102  O   UNL A   1      38.810  36.816  41.347  1.00  0.00    -0.237 OA
ATOM    103  O   UNL A   1      40.723  38.088  40.457  1.00  0.00    -0.744 OA
ENDBRANCH  99 100
ENDBRANCH  67  92
ENDBRANCH  41  42
ENDBRANCH  34  36
ENDBRANCH  33  34
ENDBRANCH  32  33
ENDBRANCH   1  32
TORSDOF 21
ENDMDL
