MODEL 1
REMARK VINA RESULT:     -10.1      0.000      0.000
REMARK SMILES CCCOc1ccc(N[C@H](C)[C@H](C)C(=O)OCCOCCOC(=O)c2ccc(-c3c4nc(c(-c5c(F)cc(S(=O)(=O)[O-])cc5F)c5ccc([nH]5)c(-c5c(F)cc(S(=O)(=O)[O-])cc5F)c5nc(c(-c6c(F)cc(S(=O)(=O)[O-])cc6F)c6ccc3[nH]6)C=C5)C=C4)cc2)cc1
REMARK SMILES IDX 17 1 16 2 14 3 15 4 12 5 13 6 10 7 11 8 9 9 8 11 5 12 6 13
REMARK SMILES IDX 92 14 7 15 91 16 4 17 3 18 2 19 1 20 18 21 19 22 20 23 21 24
REMARK SMILES IDX 22 25 23 26 24 27 25 28 26 29 90 30 27 31 89 32 28 33 29 34
REMARK SMILES IDX 30 35 83 36 31 37 88 38 82 39 84 40 32 41 87 42 81 43 80 44
REMARK SMILES IDX 33 46 67 47 46 48 66 49 47 50 50 51 65 52 85 53 48 54 49 55
REMARK SMILES IDX 64 57 86 58 51 59 34 60 35 61 44 62 36 63 37 64 43 65 45 66
REMARK SMILES IDX 38 67 39 68 40 69 41 70 42 71 68 72 69 73 78 74 70 75 71 76
REMARK SMILES IDX 77 77 79 78 72 79 73 80 74 81 75 82 76 83 52 84 53 85 62 86
REMARK SMILES IDX 54 87 55 88 61 89 63 90 56 91 57 92 58 93 59 94 60 95
REMARK H PARENT 9 10 84 45 50 56
REMARK Flexibility Score: inf
ROOT
ATOM      1  C   UNL A   1      31.855  28.109  26.367  1.00  0.00     0.261 C 
ENDROOT
BRANCH   1   2
ATOM      2  O   UNL A   1      31.174  26.953  26.882  1.00  0.00    -0.463 OA
BRANCH   2   3
ATOM      3  C   UNL A   1      31.634  25.759  26.425  1.00  0.00     0.310 C 
ATOM      4  O   UNL A   1      31.382  24.667  26.926  1.00  0.00    -0.252 OA
BRANCH   3   5
ATOM      5  C   UNL A   1      32.572  25.890  25.239  1.00  0.00     0.118 C 
ATOM      6  C   UNL A   1      34.048  25.912  25.629  1.00  0.00     0.022 C 
BRANCH   5   7
ATOM      7  C   UNL A   1      32.204  24.852  24.156  1.00  0.00     0.090 C 
ATOM      8  C   UNL A   1      31.973  25.478  22.775  1.00  0.00     0.031 C 
BRANCH   7   9
ATOM      9  N   UNL A   1      33.221  23.791  24.165  1.00  0.00    -0.382 N 
ATOM     10  H   UNL A   1      34.168  24.053  24.103  1.00  0.00     0.160 HD
BRANCH   9  11
ATOM     11  C   UNL A   1      32.922  22.444  24.256  1.00  0.00     0.034 A 
ATOM     12  C   UNL A   1      32.349  19.721  24.359  1.00  0.00     0.119 A 
ATOM     13  C   UNL A   1      32.613  20.413  25.537  1.00  0.00     0.048 A 
ATOM     14  C   UNL A   1      32.258  20.392  23.146  1.00  0.00     0.048 A 
ATOM     15  C   UNL A   1      32.889  21.779  25.483  1.00  0.00     0.029 A 
ATOM     16  C   UNL A   1      32.573  21.747  23.093  1.00  0.00     0.029 A 
BRANCH  12  17
ATOM     17  O   UNL A   1      32.157  18.370  24.379  1.00  0.00    -0.494 OA
BRANCH  17  18
ATOM     18  C   UNL A   1      33.131  17.718  25.212  1.00  0.00     0.229 C 
BRANCH  18  19
ATOM     19  C   UNL A   1      33.823  16.569  24.468  1.00  0.00     0.038 C 
ATOM     20  C   UNL A   1      34.054  16.862  22.990  1.00  0.00     0.007 C 
ENDBRANCH  18  19
ENDBRANCH  17  18
ENDBRANCH  12  17
ENDBRANCH   9  11
ENDBRANCH   7   9
ENDBRANCH   5   7
ENDBRANCH   3   5
ENDBRANCH   2   3
ENDBRANCH   1   2
BRANCH   1  21
ATOM     21  C   UNL A   1      32.450  28.995  27.466  1.00  0.00     0.202 C 
BRANCH  21  22
ATOM     22  O   UNL A   1      32.684  30.364  27.146  1.00  0.00    -0.374 OA
BRANCH  22  23
ATOM     23  C   UNL A   1      34.035  30.813  27.065  1.00  0.00     0.202 C 
BRANCH  23  24
ATOM     24  C   UNL A   1      34.839  30.889  28.368  1.00  0.00     0.261 C 
BRANCH  24  25
ATOM     25  O   UNL A   1      35.622  29.706  28.612  1.00  0.00    -0.460 OA
BRANCH  25  26
ATOM     26  C   UNL A   1      36.349  29.747  29.758  1.00  0.00     0.338 C 
ATOM     27  O   UNL A   1      35.926  29.632  30.897  1.00  0.00    -0.246 OA
BRANCH  26  28
ATOM     28  C   UNL A   1      37.794  29.783  29.466  1.00  0.00     0.060 A 
ATOM     29  C   UNL A   1      38.174  29.777  28.118  1.00  0.00     0.016 A 
ATOM     30  C   UNL A   1      38.755  29.689  30.475  1.00  0.00     0.016 A 
ATOM     31  C   UNL A   1      39.512  29.605  27.770  1.00  0.00     0.010 A 
ATOM     32  C   UNL A   1      40.099  29.509  30.123  1.00  0.00     0.010 A 
ATOM     33  C   UNL A   1      40.475  29.419  28.770  1.00  0.00    -0.014 A 
BRANCH  33  34
ATOM     34  C   UNL A   1      41.833  28.962  28.383  1.00  0.00     0.031 A 
ATOM     35  C   UNL A   1      42.966  29.956  28.388  1.00  0.00     0.074 A 
ATOM     36  C   UNL A   1      42.069  27.671  28.090  1.00  0.00     0.049 A 
ATOM     37  N   UNL A   1      44.230  29.774  28.104  1.00  0.00    -0.248 NA
ATOM     38  C   UNL A   1      42.628  31.337  28.768  1.00  0.00     0.031 C 
ATOM     39  C   UNL A   1      41.065  26.608  28.088  1.00  0.00     0.029 A 
ATOM     40  N   UNL A   1      43.234  27.034  27.740  1.00  0.00    -0.354 N 
ATOM     41  C   UNL A   1      44.837  31.014  28.267  1.00  0.00     0.074 A 
ATOM     42  C   UNL A   1      43.798  31.947  28.646  1.00  0.00     0.031 C 
ATOM     43  C   UNL A   1      41.657  25.450  27.746  1.00  0.00     0.029 A 
ATOM     44  C   UNL A   1      43.075  25.694  27.484  1.00  0.00     0.049 A 
ATOM     45  H   UNL A   1      44.101  27.496  27.677  1.00  0.00     0.167 HD
ATOM     46  C   UNL A   1      46.143  31.344  28.124  1.00  0.00     0.037 A 
ATOM     47  C   UNL A   1      43.968  24.772  27.074  1.00  0.00     0.037 A 
ATOM     48  C   UNL A   1      47.176  30.414  27.752  1.00  0.00     0.049 A 
ATOM     49  C   UNL A   1      45.406  25.173  26.871  1.00  0.00     0.074 A 
ATOM     50  C   UNL A   1      48.532  30.650  27.595  1.00  0.00     0.029 A 
ATOM     51  N   UNL A   1      46.970  29.072  27.475  1.00  0.00    -0.354 N 
ATOM     52  N   UNL A   1      45.969  26.346  27.047  1.00  0.00    -0.248 NA
ATOM     53  C   UNL A   1      46.333  24.126  26.417  1.00  0.00     0.031 C 
ATOM     54  C   UNL A   1      49.138  29.457  27.185  1.00  0.00     0.029 A 
ATOM     55  C   UNL A   1      48.168  28.469  27.128  1.00  0.00     0.049 A 
ATOM     56  H   UNL A   1      46.099  28.614  27.517  1.00  0.00     0.167 HD
ATOM     57  C   UNL A   1      47.317  26.170  26.753  1.00  0.00     0.074 A 
ATOM     58  C   UNL A   1      47.487  24.777  26.393  1.00  0.00     0.031 C 
ATOM     59  C   UNL A   1      48.323  27.079  26.780  1.00  0.00     0.037 A 
BRANCH  46  60
ATOM     60  C   UNL A   1      46.524  32.781  28.351  1.00  0.00     0.058 A 
ATOM     61  C   UNL A   1      46.939  33.243  29.609  1.00  0.00     0.135 A 
ATOM     62  C   UNL A   1      46.498  33.700  27.291  1.00  0.00     0.135 A 
ATOM     63  F   UNL A   1      46.965  32.409  30.661  1.00  0.00    -0.206 F 
ATOM     64  C   UNL A   1      47.292  34.573  29.815  1.00  0.00     0.059 A 
ATOM     65  C   UNL A   1      46.869  35.030  27.467  1.00  0.00     0.059 A 
ATOM     66  F   UNL A   1      46.106  33.310  26.068  1.00  0.00    -0.206 F 
ATOM     67  C   UNL A   1      47.251  35.460  28.738  1.00  0.00     0.060 A 
BRANCH  67  68
ATOM     68  S   UNL A   1      47.708  37.183  29.017  1.00  0.00     0.124 S 
ATOM     69  O   UNL A   1      47.876  37.665  27.650  1.00  0.00    -0.237 OA
ATOM     70  O   UNL A   1      46.549  37.704  29.735  1.00  0.00    -0.237 OA
ATOM     71  O   UNL A   1      48.935  37.087  29.803  1.00  0.00    -0.744 OA
ENDBRANCH  67  68
ENDBRANCH  46  60
BRANCH  47  72
ATOM     72  C   UNL A   1      43.528  23.375  26.822  1.00  0.00     0.058 A 
ATOM     73  C   UNL A   1      43.165  22.527  27.877  1.00  0.00     0.135 A 
ATOM     74  C   UNL A   1      43.459  22.862  25.517  1.00  0.00     0.135 A 
ATOM     75  F   UNL A   1      43.224  22.968  29.143  1.00  0.00    -0.206 F 
ATOM     76  C   UNL A   1      42.762  21.215  27.650  1.00  0.00     0.059 A 
ATOM     77  C   UNL A   1      43.038  21.562  25.263  1.00  0.00     0.059 A 
ATOM     78  F   UNL A   1      43.788  23.639  24.472  1.00  0.00    -0.206 F 
ATOM     79  C   UNL A   1      42.700  20.741  26.339  1.00  0.00     0.060 A 
BRANCH  79  80
ATOM     80  S   UNL A   1      42.134  19.051  26.050  1.00  0.00     0.124 S 
ATOM     81  O   UNL A   1      42.491  18.404  27.307  1.00  0.00    -0.237 OA
ATOM     82  O   UNL A   1      40.705  19.241  25.815  1.00  0.00    -0.237 OA
ATOM     83  O   UNL A   1      42.904  18.634  24.883  1.00  0.00    -0.744 OA
ENDBRANCH  79  80
ENDBRANCH  47  72
BRANCH  59  84
ATOM     84  C   UNL A   1      49.706  26.595  26.446  1.00  0.00     0.058 A 
ATOM     85  C   UNL A   1      50.523  25.975  27.404  1.00  0.00     0.135 A 
ATOM     86  C   UNL A   1      50.198  26.699  25.134  1.00  0.00     0.135 A 
ATOM     87  F   UNL A   1      50.102  25.856  28.674  1.00  0.00    -0.206 F 
ATOM     88  C   UNL A   1      51.787  25.495  27.079  1.00  0.00     0.059 A 
ATOM     89  C   UNL A   1      51.449  26.204  24.782  1.00  0.00     0.059 A 
ATOM     90  F   UNL A   1      49.451  27.272  24.177  1.00  0.00    -0.206 F 
ATOM     91  C   UNL A   1      52.242  25.613  25.765  1.00  0.00     0.060 A 
BRANCH  91  92
ATOM     92  S   UNL A   1      53.870  24.953  25.346  1.00  0.00     0.124 S 
ATOM     93  O   UNL A   1      54.189  25.705  24.137  1.00  0.00    -0.237 OA
ATOM     94  O   UNL A   1      54.659  25.287  26.527  1.00  0.00    -0.237 OA
ATOM     95  O   UNL A   1      53.618  23.528  25.151  1.00  0.00    -0.744 OA
ENDBRANCH  91  92
ENDBRANCH  59  84
ENDBRANCH  33  34
ENDBRANCH  26  28
ENDBRANCH  25  26
ENDBRANCH  24  25
ENDBRANCH  23  24
ENDBRANCH  22  23
ENDBRANCH  21  22
ENDBRANCH   1  21
TORSDOF 23
ENDMDL
MODEL 2
REMARK VINA RESULT:      -9.6      3.301     10.032
REMARK SMILES CCCOc1ccc(N[C@H](C)[C@H](C)C(=O)OCCOCCOC(=O)c2ccc(-c3c4nc(c(-c5c(F)cc(S(=O)(=O)[O-])cc5F)c5ccc([nH]5)c(-c5c(F)cc(S(=O)(=O)[O-])cc5F)c5nc(c(-c6c(F)cc(S(=O)(=O)[O-])cc6F)c6ccc3[nH]6)C=C5)C=C4)cc2)cc1
REMARK SMILES IDX 17 1 16 2 14 3 15 4 12 5 13 6 10 7 11 8 9 9 8 11 5 12 6 13
REMARK SMILES IDX 92 14 7 15 91 16 4 17 3 18 2 19 1 20 18 21 19 22 20 23 21 24
REMARK SMILES IDX 22 25 23 26 24 27 25 28 26 29 90 30 27 31 89 32 28 33 29 34
REMARK SMILES IDX 30 35 83 36 31 37 88 38 82 39 84 40 32 41 87 42 81 43 80 44
REMARK SMILES IDX 33 46 67 47 46 48 66 49 47 50 50 51 65 52 85 53 48 54 49 55
REMARK SMILES IDX 64 57 86 58 51 59 34 60 35 61 44 62 36 63 37 64 43 65 45 66
REMARK SMILES IDX 38 67 39 68 40 69 41 70 42 71 68 72 69 73 78 74 70 75 71 76
REMARK SMILES IDX 77 77 79 78 72 79 73 80 74 81 75 82 76 83 52 84 53 85 62 86
REMARK SMILES IDX 54 87 55 88 61 89 63 90 56 91 57 92 58 93 59 94 60 95
REMARK H PARENT 9 10 84 45 50 56
REMARK Flexibility Score: inf
ROOT
ATOM      1  C   UNL A   1      33.627  23.992  25.443  1.00  0.00     0.261 C 
ENDROOT
BRANCH   1   2
ATOM      2  O   UNL A   1      32.913  24.523  24.316  1.00  0.00    -0.463 OA
BRANCH   2   3
ATOM      3  C   UNL A   1      31.974  25.460  24.614  1.00  0.00     0.310 C 
ATOM      4  O   UNL A   1      31.052  25.307  25.409  1.00  0.00    -0.252 OA
BRANCH   3   5
ATOM      5  C   UNL A   1      32.123  26.737  23.809  1.00  0.00     0.118 C 
ATOM      6  C   UNL A   1      30.857  27.591  23.779  1.00  0.00     0.022 C 
BRANCH   5   7
ATOM      7  C   UNL A   1      33.400  27.491  24.241  1.00  0.00     0.090 C 
ATOM      8  C   UNL A   1      33.585  28.829  23.515  1.00  0.00     0.031 C 
BRANCH   7   9
ATOM      9  N   UNL A   1      33.400  27.605  25.706  1.00  0.00    -0.382 N 
ATOM     10  H   UNL A   1      33.234  26.791  26.236  1.00  0.00     0.160 HD
BRANCH   9  11
ATOM     11  C   UNL A   1      33.620  28.790  26.382  1.00  0.00     0.034 A 
ATOM     12  C   UNL A   1      34.148  31.173  27.723  1.00  0.00     0.119 A 
ATOM     13  C   UNL A   1      32.877  30.942  27.206  1.00  0.00     0.048 A 
ATOM     14  C   UNL A   1      35.124  30.186  27.677  1.00  0.00     0.048 A 
ATOM     15  C   UNL A   1      32.613  29.743  26.544  1.00  0.00     0.029 A 
ATOM     16  C   UNL A   1      34.867  29.008  26.981  1.00  0.00     0.029 A 
BRANCH  12  17
ATOM     17  O   UNL A   1      34.452  32.371  28.302  1.00  0.00    -0.494 OA
BRANCH  17  18
ATOM     18  C   UNL A   1      33.460  33.365  27.994  1.00  0.00     0.229 C 
BRANCH  18  19
ATOM     19  C   UNL A   1      33.934  34.768  28.388  1.00  0.00     0.038 C 
ATOM     20  C   UNL A   1      33.239  35.311  29.632  1.00  0.00     0.007 C 
ENDBRANCH  18  19
ENDBRANCH  17  18
ENDBRANCH  12  17
ENDBRANCH   9  11
ENDBRANCH   7   9
ENDBRANCH   5   7
ENDBRANCH   3   5
ENDBRANCH   2   3
ENDBRANCH   1   2
BRANCH   1  21
ATOM     21  C   UNL A   1      35.125  23.816  25.178  1.00  0.00     0.202 C 
BRANCH  21  22
ATOM     22  O   UNL A   1      35.534  22.636  24.490  1.00  0.00    -0.374 OA
BRANCH  22  23
ATOM     23  C   UNL A   1      36.910  22.504  24.143  1.00  0.00     0.202 C 
BRANCH  23  24
ATOM     24  C   UNL A   1      37.767  21.551  24.983  1.00  0.00     0.261 C 
BRANCH  24  25
ATOM     25  O   UNL A   1      38.146  22.112  26.254  1.00  0.00    -0.460 OA
BRANCH  25  26
ATOM     26  C   UNL A   1      39.487  22.180  26.454  1.00  0.00     0.338 C 
ATOM     27  O   UNL A   1      40.334  21.428  26.000  1.00  0.00    -0.246 OA
BRANCH  26  28
ATOM     28  C   UNL A   1      39.850  23.411  27.180  1.00  0.00     0.060 A 
ATOM     29  C   UNL A   1      39.123  24.570  26.878  1.00  0.00     0.016 A 
ATOM     30  C   UNL A   1      40.957  23.470  28.030  1.00  0.00     0.016 A 
ATOM     31  C   UNL A   1      39.541  25.804  27.369  1.00  0.00     0.010 A 
ATOM     32  C   UNL A   1      41.380  24.713  28.517  1.00  0.00     0.010 A 
ATOM     33  C   UNL A   1      40.701  25.890  28.150  1.00  0.00    -0.014 A 
BRANCH  33  34
ATOM     34  C   UNL A   1      41.284  27.227  28.427  1.00  0.00     0.031 A 
ATOM     35  C   UNL A   1      42.706  27.501  28.014  1.00  0.00     0.074 A 
ATOM     36  C   UNL A   1      40.542  28.201  28.983  1.00  0.00     0.049 A 
ATOM     37  N   UNL A   1      43.410  28.596  28.141  1.00  0.00    -0.248 NA
ATOM     38  C   UNL A   1      43.430  26.393  27.370  1.00  0.00     0.031 C 
ATOM     39  C   UNL A   1      39.143  28.070  29.390  1.00  0.00     0.029 A 
ATOM     40  N   UNL A   1      40.864  29.498  29.296  1.00  0.00    -0.354 N 
ATOM     41  C   UNL A   1      44.657  28.311  27.596  1.00  0.00     0.074 A 
ATOM     42  C   UNL A   1      44.624  26.931  27.165  1.00  0.00     0.031 C 
ATOM     43  C   UNL A   1      38.729  29.240  29.906  1.00  0.00     0.029 A 
ATOM     44  C   UNL A   1      39.837  30.194  29.886  1.00  0.00     0.049 A 
ATOM     45  H   UNL A   1      41.748  29.892  29.116  1.00  0.00     0.167 HD
ATOM     46  C   UNL A   1      45.729  29.128  27.458  1.00  0.00     0.037 A 
ATOM     47  C   UNL A   1      39.800  31.453  30.367  1.00  0.00     0.037 A 
ATOM     48  C   UNL A   1      45.758  30.502  27.883  1.00  0.00     0.049 A 
ATOM     49  C   UNL A   1      41.021  32.327  30.250  1.00  0.00     0.074 A 
ATOM     50  C   UNL A   1      46.793  31.416  27.773  1.00  0.00     0.029 A 
ATOM     51  N   UNL A   1      44.708  31.163  28.501  1.00  0.00    -0.354 N 
ATOM     52  N   UNL A   1      42.186  32.049  29.715  1.00  0.00    -0.248 NA
ATOM     53  C   UNL A   1      40.921  33.688  30.798  1.00  0.00     0.031 C 
ATOM     54  C   UNL A   1      46.381  32.617  28.362  1.00  0.00     0.029 A 
ATOM     55  C   UNL A   1      45.074  32.465  28.799  1.00  0.00     0.049 A 
ATOM     56  H   UNL A   1      43.830  30.764  28.701  1.00  0.00     0.167 HD
ATOM     57  C   UNL A   1      42.948  33.207  29.837  1.00  0.00     0.074 A 
ATOM     58  C   UNL A   1      42.109  34.190  30.491  1.00  0.00     0.031 C 
ATOM     59  C   UNL A   1      44.225  33.436  29.442  1.00  0.00     0.037 A 
BRANCH  46  60
ATOM     60  C   UNL A   1      46.969  28.546  26.839  1.00  0.00     0.058 A 
ATOM     61  C   UNL A   1      47.083  28.361  25.452  1.00  0.00     0.135 A 
ATOM     62  C   UNL A   1      48.066  28.193  27.640  1.00  0.00     0.135 A 
ATOM     63  F   UNL A   1      46.056  28.666  24.643  1.00  0.00    -0.206 F 
ATOM     64  C   UNL A   1      48.233  27.823  24.883  1.00  0.00     0.059 A 
ATOM     65  C   UNL A   1      49.235  27.675  27.091  1.00  0.00     0.059 A 
ATOM     66  F   UNL A   1      48.007  28.347  28.972  1.00  0.00    -0.206 F 
ATOM     67  C   UNL A   1      49.303  27.480  25.712  1.00  0.00     0.060 A 
BRANCH  67  68
ATOM     68  S   UNL A   1      50.789  26.780  24.962  1.00  0.00     0.124 S 
ATOM     69  O   UNL A   1      51.794  27.773  25.328  1.00  0.00    -0.237 OA
ATOM     70  O   UNL A   1      50.901  25.489  25.632  1.00  0.00    -0.237 OA
ATOM     71  O   UNL A   1      50.456  26.718  23.542  1.00  0.00    -0.744 OA
ENDBRANCH  67  68
ENDBRANCH  46  60
BRANCH  47  72
ATOM     72  C   UNL A   1      38.560  31.963  31.009  1.00  0.00     0.058 A 
ATOM     73  C   UNL A   1      38.304  31.745  32.370  1.00  0.00     0.135 A 
ATOM     74  C   UNL A   1      37.608  32.684  30.272  1.00  0.00     0.135 A 
ATOM     75  F   UNL A   1      39.180  31.052  33.114  1.00  0.00    -0.206 F 
ATOM     76  C   UNL A   1      37.142  32.211  32.976  1.00  0.00     0.059 A 
ATOM     77  C   UNL A   1      36.449  33.180  30.860  1.00  0.00     0.059 A 
ATOM     78  F   UNL A   1      37.811  32.928  28.967  1.00  0.00    -0.206 F 
ATOM     79  C   UNL A   1      36.220  32.929  32.213  1.00  0.00     0.060 A 
BRANCH  79  80
ATOM     80  S   UNL A   1      34.735  33.568  33.018  1.00  0.00     0.124 S 
ATOM     81  O   UNL A   1      35.068  33.393  34.426  1.00  0.00    -0.237 OA
ATOM     82  O   UNL A   1      34.694  34.946  32.539  1.00  0.00    -0.237 OA
ATOM     83  O   UNL A   1      33.677  32.702  32.505  1.00  0.00    -0.744 OA
ENDBRANCH  79  80
ENDBRANCH  47  72
BRANCH  59  84
ATOM     84  C   UNL A   1      44.787  34.810  29.671  1.00  0.00     0.058 A 
ATOM     85  C   UNL A   1      45.530  35.121  30.821  1.00  0.00     0.135 A 
ATOM     86  C   UNL A   1      44.631  35.813  28.701  1.00  0.00     0.135 A 
ATOM     87  F   UNL A   1      45.705  34.199  31.782  1.00  0.00    -0.206 F 
ATOM     88  C   UNL A   1      46.080  36.384  31.010  1.00  0.00     0.059 A 
ATOM     89  C   UNL A   1      45.192  37.076  28.858  1.00  0.00     0.059 A 
ATOM     90  F   UNL A   1      43.940  35.563  27.577  1.00  0.00    -0.206 F 
ATOM     91  C   UNL A   1      45.907  37.356  30.023  1.00  0.00     0.060 A 
BRANCH  91  92
ATOM     92  S   UNL A   1      46.656  38.982  30.261  1.00  0.00     0.124 S 
ATOM     93  O   UNL A   1      45.617  39.863  29.739  1.00  0.00    -0.237 OA
ATOM     94  O   UNL A   1      46.858  39.026  31.706  1.00  0.00    -0.237 OA
ATOM     95  O   UNL A   1      47.878  38.911  29.467  1.00  0.00    -0.744 OA
ENDBRANCH  91  92
ENDBRANCH  59  84
ENDBRANCH  33  34
ENDBRANCH  26  28
ENDBRANCH  25  26
ENDBRANCH  24  25
ENDBRANCH  23  24
ENDBRANCH  22  23
ENDBRANCH  21  22
ENDBRANCH   1  21
TORSDOF 23
ENDMDL
MODEL 3
REMARK VINA RESULT:      -9.0      3.450      9.414
REMARK SMILES CCCOc1ccc(N[C@H](C)[C@H](C)C(=O)OCCOCCOC(=O)c2ccc(-c3c4nc(c(-c5c(F)cc(S(=O)(=O)[O-])cc5F)c5ccc([nH]5)c(-c5c(F)cc(S(=O)(=O)[O-])cc5F)c5nc(c(-c6c(F)cc(S(=O)(=O)[O-])cc6F)c6ccc3[nH]6)C=C5)C=C4)cc2)cc1
REMARK SMILES IDX 17 1 16 2 14 3 15 4 12 5 13 6 10 7 11 8 9 9 8 11 5 12 6 13
REMARK SMILES IDX 92 14 7 15 91 16 4 17 3 18 2 19 1 20 18 21 19 22 20 23 21 24
REMARK SMILES IDX 22 25 23 26 24 27 25 28 26 29 90 30 27 31 89 32 28 33 29 34
REMARK SMILES IDX 30 35 83 36 31 37 88 38 82 39 84 40 32 41 87 42 81 43 80 44
REMARK SMILES IDX 33 46 67 47 46 48 66 49 47 50 50 51 65 52 85 53 48 54 49 55
REMARK SMILES IDX 64 57 86 58 51 59 34 60 35 61 44 62 36 63 37 64 43 65 45 66
REMARK SMILES IDX 38 67 39 68 40 69 41 70 42 71 68 72 69 73 78 74 70 75 71 76
REMARK SMILES IDX 77 77 79 78 72 79 73 80 74 81 75 82 76 83 52 84 53 85 62 86
REMARK SMILES IDX 54 87 55 88 61 89 63 90 56 91 57 92 58 93 59 94 60 95
REMARK H PARENT 9 10 84 45 50 56
REMARK Flexibility Score: inf
ROOT
ATOM      1  C   UNL A   1      33.773  24.203  25.962  1.00  0.00     0.261 C 
ENDROOT
BRANCH   1   2
ATOM      2  O   UNL A   1      32.725  24.668  25.096  1.00  0.00    -0.463 OA
BRANCH   2   3
ATOM      3  C   UNL A   1      32.091  25.796  25.510  1.00  0.00     0.310 C 
ATOM      4  O   UNL A   1      31.476  25.914  26.566  1.00  0.00    -0.252 OA
BRANCH   3   5
ATOM      5  C   UNL A   1      32.148  26.924  24.497  1.00  0.00     0.118 C 
ATOM      6  C   UNL A   1      30.945  27.862  24.558  1.00  0.00     0.022 C 
BRANCH   5   7
ATOM      7  C   UNL A   1      33.521  27.630  24.566  1.00  0.00     0.090 C 
ATOM      8  C   UNL A   1      33.546  28.975  23.830  1.00  0.00     0.031 C 
BRANCH   7   9
ATOM      9  N   UNL A   1      33.929  27.716  25.976  1.00  0.00    -0.382 N 
ATOM     10  H   UNL A   1      34.173  26.882  26.441  1.00  0.00     0.160 HD
BRANCH   9  11
ATOM     11  C   UNL A   1      33.990  28.900  26.684  1.00  0.00     0.034 A 
ATOM     12  C   UNL A   1      34.199  31.295  28.090  1.00  0.00     0.119 A 
ATOM     13  C   UNL A   1      32.966  30.904  27.578  1.00  0.00     0.048 A 
ATOM     14  C   UNL A   1      35.303  30.456  28.006  1.00  0.00     0.048 A 
ATOM     15  C   UNL A   1      32.863  29.698  26.884  1.00  0.00     0.029 A 
ATOM     16  C   UNL A   1      35.203  29.273  27.278  1.00  0.00     0.029 A 
BRANCH  12  17
ATOM     17  O   UNL A   1      34.341  32.507  28.701  1.00  0.00    -0.494 OA
BRANCH  17  18
ATOM     18  C   UNL A   1      34.971  33.460  27.827  1.00  0.00     0.229 C 
BRANCH  18  19
ATOM     19  C   UNL A   1      34.717  34.898  28.294  1.00  0.00     0.038 C 
ATOM     20  C   UNL A   1      33.403  35.063  29.050  1.00  0.00     0.007 C 
ENDBRANCH  18  19
ENDBRANCH  17  18
ENDBRANCH  12  17
ENDBRANCH   9  11
ENDBRANCH   7   9
ENDBRANCH   5   7
ENDBRANCH   3   5
ENDBRANCH   2   3
ENDBRANCH   1   2
BRANCH   1  21
ATOM     21  C   UNL A   1      35.169  24.354  25.350  1.00  0.00     0.202 C 
BRANCH  21  22
ATOM     22  O   UNL A   1      35.475  23.552  24.212  1.00  0.00    -0.374 OA
BRANCH  22  23
ATOM     23  C   UNL A   1      36.829  23.151  24.017  1.00  0.00     0.202 C 
BRANCH  23  24
ATOM     24  C   UNL A   1      37.397  22.084  24.960  1.00  0.00     0.261 C 
BRANCH  24  25
ATOM     25  O   UNL A   1      37.838  22.628  26.218  1.00  0.00    -0.460 OA
BRANCH  25  26
ATOM     26  C   UNL A   1      39.182  22.796  26.311  1.00  0.00     0.338 C 
ATOM     27  O   UNL A   1      40.045  22.042  25.889  1.00  0.00    -0.246 OA
BRANCH  26  28
ATOM     28  C   UNL A   1      39.512  24.126  26.855  1.00  0.00     0.060 A 
ATOM     29  C   UNL A   1      40.087  25.052  25.975  1.00  0.00     0.016 A 
ATOM     30  C   UNL A   1      39.392  24.420  28.215  1.00  0.00     0.016 A 
ATOM     31  C   UNL A   1      40.608  26.248  26.463  1.00  0.00     0.010 A 
ATOM     32  C   UNL A   1      39.923  25.620  28.704  1.00  0.00     0.010 A 
ATOM     33  C   UNL A   1      40.575  26.516  27.837  1.00  0.00    -0.014 A 
BRANCH  33  34
ATOM     34  C   UNL A   1      41.374  27.649  28.368  1.00  0.00     0.031 A 
ATOM     35  C   UNL A   1      40.672  28.741  29.132  1.00  0.00     0.074 A 
ATOM     36  C   UNL A   1      42.711  27.676  28.226  1.00  0.00     0.049 A 
ATOM     37  N   UNL A   1      41.171  29.811  29.697  1.00  0.00    -0.248 NA
ATOM     38  C   UNL A   1      39.214  28.608  29.281  1.00  0.00     0.031 C 
ATOM     39  C   UNL A   1      43.509  26.658  27.542  1.00  0.00     0.029 A 
ATOM     40  N   UNL A   1      43.635  28.595  28.656  1.00  0.00    -0.354 N 
ATOM     41  C   UNL A   1      40.092  30.478  30.265  1.00  0.00     0.074 A 
ATOM     42  C   UNL A   1      38.907  29.709  29.951  1.00  0.00     0.031 C 
ATOM     43  C   UNL A   1      44.804  27.014  27.592  1.00  0.00     0.029 A 
ATOM     44  C   UNL A   1      44.925  28.293  28.292  1.00  0.00     0.049 A 
ATOM     45  H   UNL A   1      43.395  29.397  29.174  1.00  0.00     0.167 HD
ATOM     46  C   UNL A   1      40.089  31.621  30.991  1.00  0.00     0.037 A 
ATOM     47  C   UNL A   1      46.070  28.976  28.490  1.00  0.00     0.037 A 
ATOM     48  C   UNL A   1      41.269  32.382  31.307  1.00  0.00     0.049 A 
ATOM     49  C   UNL A   1      46.036  30.272  29.256  1.00  0.00     0.074 A 
ATOM     50  C   UNL A   1      41.371  33.547  32.048  1.00  0.00     0.029 A 
ATOM     51  N   UNL A   1      42.553  32.058  30.897  1.00  0.00    -0.354 N 
ATOM     52  N   UNL A   1      45.010  30.881  29.803  1.00  0.00    -0.248 NA
ATOM     53  C   UNL A   1      47.316  30.975  29.435  1.00  0.00     0.031 C 
ATOM     54  C   UNL A   1      42.712  33.947  32.053  1.00  0.00     0.029 A 
ATOM     55  C   UNL A   1      43.451  33.009  31.351  1.00  0.00     0.049 A 
ATOM     56  H   UNL A   1      42.792  31.267  30.360  1.00  0.00     0.167 HD
ATOM     57  C   UNL A   1      45.524  32.020  30.414  1.00  0.00     0.074 A 
ATOM     58  C   UNL A   1      46.953  32.014  30.174  1.00  0.00     0.031 C 
ATOM     59  C   UNL A   1      44.873  32.984  31.112  1.00  0.00     0.037 A 
BRANCH  46  60
ATOM     60  C   UNL A   1      38.761  32.131  31.477  1.00  0.00     0.058 A 
ATOM     61  C   UNL A   1      38.268  31.808  32.750  1.00  0.00     0.135 A 
ATOM     62  C   UNL A   1      37.984  32.975  30.668  1.00  0.00     0.135 A 
ATOM     63  F   UNL A   1      38.964  30.990  33.556  1.00  0.00    -0.206 F 
ATOM     64  C   UNL A   1      37.038  32.282  33.196  1.00  0.00     0.059 A 
ATOM     65  C   UNL A   1      36.762  33.481  31.101  1.00  0.00     0.059 A 
ATOM     66  F   UNL A   1      38.408  33.313  29.440  1.00  0.00    -0.206 F 
ATOM     67  C   UNL A   1      36.291  33.116  32.363  1.00  0.00     0.060 A 
BRANCH  67  68
ATOM     68  S   UNL A   1      34.696  33.724  32.951  1.00  0.00     0.124 S 
ATOM     69  O   UNL A   1      34.683  35.079  32.408  1.00  0.00    -0.237 OA
ATOM     70  O   UNL A   1      33.758  32.787  32.341  1.00  0.00    -0.237 OA
ATOM     71  O   UNL A   1      34.812  33.632  34.403  1.00  0.00    -0.744 OA
ENDBRANCH  67  68
ENDBRANCH  46  60
BRANCH  47  72
ATOM     72  C   UNL A   1      47.350  28.447  27.951  1.00  0.00     0.058 A 
ATOM     73  C   UNL A   1      48.109  27.511  28.666  1.00  0.00     0.135 A 
ATOM     74  C   UNL A   1      47.837  28.868  26.703  1.00  0.00     0.135 A 
ATOM     75  F   UNL A   1      47.690  27.086  29.868  1.00  0.00    -0.206 F 
ATOM     76  C   UNL A   1      49.313  27.019  28.172  1.00  0.00     0.059 A 
ATOM     77  C   UNL A   1      49.027  28.374  26.177  1.00  0.00     0.059 A 
ATOM     78  F   UNL A   1      47.142  29.757  25.975  1.00  0.00    -0.206 F 
ATOM     79  C   UNL A   1      49.763  27.456  26.926  1.00  0.00     0.060 A 
BRANCH  79  80
ATOM     80  S   UNL A   1      51.305  26.780  26.272  1.00  0.00     0.124 S 
ATOM     81  O   UNL A   1      51.643  27.760  25.247  1.00  0.00    -0.237 OA
ATOM     82  O   UNL A   1      52.163  26.771  27.454  1.00  0.00    -0.237 OA
ATOM     83  O   UNL A   1      50.912  25.462  25.783  1.00  0.00    -0.744 OA
ENDBRANCH  79  80
ENDBRANCH  47  72
BRANCH  59  84
ATOM     84  C   UNL A   1      45.698  34.095  31.698  1.00  0.00     0.058 A 
ATOM     85  C   UNL A   1      46.358  33.954  32.928  1.00  0.00     0.135 A 
ATOM     86  C   UNL A   1      45.877  35.296  30.991  1.00  0.00     0.135 A 
ATOM     87  F   UNL A   1      46.215  32.829  33.646  1.00  0.00    -0.206 F 
ATOM     88  C   UNL A   1      47.151  34.972  33.447  1.00  0.00     0.059 A 
ATOM     89  C   UNL A   1      46.685  36.317  31.480  1.00  0.00     0.059 A 
ATOM     90  F   UNL A   1      45.278  35.476  29.803  1.00  0.00    -0.206 F 
ATOM     91  C   UNL A   1      47.309  36.150  32.715  1.00  0.00     0.060 A 
BRANCH  91  92
ATOM     92  S   UNL A   1      48.370  37.451  33.381  1.00  0.00     0.124 S 
ATOM     93  O   UNL A   1      49.062  37.909  32.181  1.00  0.00    -0.237 OA
ATOM     94  O   UNL A   1      47.404  38.385  33.951  1.00  0.00    -0.237 OA
ATOM     95  O   UNL A   1      49.199  36.747  34.355  1.00  0.00    -0.744 OA
ENDBRANCH  91  92
ENDBRANCH  59  84
ENDBRANCH  33  34
ENDBRANCH  26  28
ENDBRANCH  25  26
ENDBRANCH  24  25
ENDBRANCH  23  24
ENDBRANCH  22  23
ENDBRANCH  21  22
ENDBRANCH   1  21
TORSDOF 23
ENDMDL
