MODEL 1
REMARK VINA RESULT:     -11.9      0.000      0.000
REMARK SMILES O=C(OCCOCCOC(=O)[C@@H]1CC(=O)N(c2ccc(Cl)cc2C(=O)c2ccccc2)C1)c1ccc(-c2c3nc(c(-c4c(F)cc(S(=O)(=O)[O-])cc4F)c4ccc([nH]4)c(-c4c(F)cc(S(=O)(=O)[O-])cc4F)c4nc(c(-c5c(F)cc(S(=O)(=O)[O-])cc5F)c5ccc2[nH]5)C=C4)C=C3)cc1
REMARK SMILES IDX 6 1 5 2 4 3 3 4 2 5 1 6 33 7 34 8 98 9 35 10 97 11 36 12
REMARK SMILES IDX 37 13 38 14 91 15 39 16 96 17 90 18 92 19 40 20 95 21 89 22
REMARK SMILES IDX 88 23 41 25 75 26 54 27 74 28 55 29 58 30 73 31 93 32 56 33
REMARK SMILES IDX 57 34 72 36 94 37 59 38 42 39 43 40 52 41 44 42 45 43 51 44
REMARK SMILES IDX 53 45 46 46 47 47 48 48 49 49 50 50 76 51 77 52 86 53 78 54
REMARK SMILES IDX 79 55 85 56 87 57 80 58 81 59 82 60 83 61 84 62 60 63 61 64
REMARK SMILES IDX 70 65 62 66 63 67 69 68 71 69 64 70 65 71 66 72 67 73 68 74
REMARK SMILES IDX 7 75 8 76 9 77 10 78 11 79 12 80 13 81 32 82 14 83 16 84
REMARK SMILES IDX 15 85 17 86 18 87 23 88 19 89 22 90 20 91 21 92 24 93 25 94
REMARK SMILES IDX 26 95 27 96 31 97 28 98 30 99 29 100
REMARK H PARENT 92 24 58 35
REMARK Flexibility Score: inf
ROOT
ATOM      1  O   UNL A   1      32.914  29.704  24.589  1.00  0.00    -0.374 OA
ENDROOT
BRANCH   1   2
ATOM      2  C   UNL A   1      32.021  30.035  25.650  1.00  0.00     0.202 C 
BRANCH   2   3
ATOM      3  C   UNL A   1      32.486  30.801  26.922  1.00  0.00     0.261 C 
BRANCH   3   4
ATOM      4  O   UNL A   1      33.909  30.640  27.243  1.00  0.00    -0.460 OA
BRANCH   4   5
ATOM      5  C   UNL A   1      34.571  29.488  27.596  1.00  0.00     0.338 C 
ATOM      6  O   UNL A   1      34.081  28.371  27.487  1.00  0.00    -0.246 OA
BRANCH   5   7
ATOM      7  C   UNL A   1      35.873  29.676  28.245  1.00  0.00     0.060 A 
ATOM      8  C   UNL A   1      36.824  30.210  27.422  1.00  0.00     0.016 A 
ATOM      9  C   UNL A   1      36.235  29.291  29.525  1.00  0.00     0.016 A 
ATOM     10  C   UNL A   1      38.104  29.785  27.540  1.00  0.00     0.010 A 
ATOM     11  C   UNL A   1      37.601  29.251  29.828  1.00  0.00     0.010 A 
ATOM     12  C   UNL A   1      38.539  29.404  28.790  1.00  0.00    -0.014 A 
BRANCH  12  13
ATOM     13  C   UNL A   1      39.977  29.121  28.888  1.00  0.00     0.031 A 
ATOM     14  C   UNL A   1      40.859  30.180  29.458  1.00  0.00     0.074 A 
ATOM     15  C   UNL A   1      40.408  27.864  28.642  1.00  0.00     0.049 A 
ATOM     16  N   UNL A   1      42.157  30.236  29.472  1.00  0.00    -0.248 NA
ATOM     17  C   UNL A   1      40.198  31.337  30.093  1.00  0.00     0.031 C 
ATOM     18  C   UNL A   1      39.552  26.716  28.275  1.00  0.00     0.029 A 
ATOM     19  N   UNL A   1      41.653  27.307  28.716  1.00  0.00    -0.354 N 
ATOM     20  C   UNL A   1      42.469  31.468  30.031  1.00  0.00     0.074 A 
ATOM     21  C   UNL A   1      41.228  32.119  30.376  1.00  0.00     0.031 C 
ATOM     22  C   UNL A   1      40.284  25.598  28.233  1.00  0.00     0.029 A 
ATOM     23  C   UNL A   1      41.675  25.975  28.370  1.00  0.00     0.049 A 
ATOM     24  H   UNL A   1      42.455  27.810  28.989  1.00  0.00     0.167 HD
ATOM     25  C   UNL A   1      43.701  31.994  30.193  1.00  0.00     0.037 A 
ATOM     26  C   UNL A   1      42.717  25.176  28.087  1.00  0.00     0.037 A 
ATOM     27  C   UNL A   1      44.887  31.262  29.838  1.00  0.00     0.049 A 
ATOM     28  C   UNL A   1      44.069  25.819  28.165  1.00  0.00     0.074 A 
ATOM     29  C   UNL A   1      46.202  31.674  29.855  1.00  0.00     0.029 A 
ATOM     30  N   UNL A   1      44.880  29.938  29.405  1.00  0.00    -0.354 N 
ATOM     31  N   UNL A   1      44.370  27.040  28.547  1.00  0.00    -0.248 NA
ATOM     32  C   UNL A   1      45.212  25.009  27.749  1.00  0.00     0.031 C 
ATOM     33  C   UNL A   1      46.985  30.616  29.379  1.00  0.00     0.029 A 
ATOM     34  C   UNL A   1      46.166  29.521  29.133  1.00  0.00     0.049 A 
ATOM     35  H   UNL A   1      44.075  29.380  29.307  1.00  0.00     0.167 HD
ATOM     36  C   UNL A   1      45.745  27.144  28.436  1.00  0.00     0.074 A 
ATOM     37  C   UNL A   1      46.213  25.849  27.968  1.00  0.00     0.031 C 
ATOM     38  C   UNL A   1      46.555  28.203  28.687  1.00  0.00     0.037 A 
BRANCH  25  39
ATOM     39  C   UNL A   1      43.792  33.420  30.650  1.00  0.00     0.058 A 
ATOM     40  C   UNL A   1      43.740  34.507  29.763  1.00  0.00     0.135 A 
ATOM     41  C   UNL A   1      43.975  33.702  32.014  1.00  0.00     0.135 A 
ATOM     42  F   UNL A   1      43.616  34.297  28.442  1.00  0.00    -0.206 F 
ATOM     43  C   UNL A   1      43.878  35.819  30.210  1.00  0.00     0.059 A 
ATOM     44  C   UNL A   1      44.089  35.004  32.487  1.00  0.00     0.059 A 
ATOM     45  F   UNL A   1      44.065  32.699  32.904  1.00  0.00    -0.206 F 
ATOM     46  C   UNL A   1      44.047  36.057  31.576  1.00  0.00     0.060 A 
BRANCH  46  47
ATOM     47  S   UNL A   1      44.199  37.764  32.143  1.00  0.00     0.124 S 
ATOM     48  O   UNL A   1      45.610  37.829  32.507  1.00  0.00    -0.237 OA
ATOM     49  O   UNL A   1      43.815  38.520  30.956  1.00  0.00    -0.237 OA
ATOM     50  O   UNL A   1      43.260  37.837  33.258  1.00  0.00    -0.744 OA
ENDBRANCH  46  47
ENDBRANCH  25  39
BRANCH  26  51
ATOM     51  C   UNL A   1      42.507  23.784  27.598  1.00  0.00     0.058 A 
ATOM     52  C   UNL A   1      42.437  22.704  28.487  1.00  0.00     0.135 A 
ATOM     53  C   UNL A   1      42.367  23.501  26.226  1.00  0.00     0.135 A 
ATOM     54  F   UNL A   1      42.558  22.913  29.806  1.00  0.00    -0.206 F 
ATOM     55  C   UNL A   1      42.265  21.396  28.037  1.00  0.00     0.059 A 
ATOM     56  C   UNL A   1      42.157  22.208  25.754  1.00  0.00     0.059 A 
ATOM     57  F   UNL A   1      42.405  24.493  25.322  1.00  0.00    -0.206 F 
ATOM     58  C   UNL A   1      42.130  21.158  26.668  1.00  0.00     0.060 A 
BRANCH  58  59
ATOM     59  S   UNL A   1      41.912  19.459  26.096  1.00  0.00     0.124 S 
ATOM     60  O   UNL A   1      42.771  19.435  24.919  1.00  0.00    -0.237 OA
ATOM     61  O   UNL A   1      42.378  18.687  27.244  1.00  0.00    -0.237 OA
ATOM     62  O   UNL A   1      40.478  19.373  25.833  1.00  0.00    -0.744 OA
ENDBRANCH  58  59
ENDBRANCH  26  51
BRANCH  38  63
ATOM     63  C   UNL A   1      48.020  27.964  28.519  1.00  0.00     0.058 A 
ATOM     64  C   UNL A   1      48.674  28.220  27.306  1.00  0.00     0.135 A 
ATOM     65  C   UNL A   1      48.782  27.533  29.616  1.00  0.00     0.135 A 
ATOM     66  F   UNL A   1      47.977  28.619  26.232  1.00  0.00    -0.206 F 
ATOM     67  C   UNL A   1      50.043  28.038  27.180  1.00  0.00     0.059 A 
ATOM     68  C   UNL A   1      50.156  27.380  29.521  1.00  0.00     0.059 A 
ATOM     69  F   UNL A   1      48.192  27.286  30.796  1.00  0.00    -0.206 F 
ATOM     70  C   UNL A   1      50.775  27.626  28.296  1.00  0.00     0.060 A 
BRANCH  70  71
ATOM     71  S   UNL A   1      52.560  27.446  28.134  1.00  0.00     0.124 S 
ATOM     72  O   UNL A   1      52.866  26.553  29.246  1.00  0.00    -0.237 OA
ATOM     73  O   UNL A   1      52.692  26.867  26.799  1.00  0.00    -0.237 OA
ATOM     74  O   UNL A   1      53.053  28.813  28.270  1.00  0.00    -0.744 OA
ENDBRANCH  70  71
ENDBRANCH  38  63
ENDBRANCH  12  13
ENDBRANCH   5   7
ENDBRANCH   4   5
ENDBRANCH   3   4
ENDBRANCH   2   3
ENDBRANCH   1   2
BRANCH   1  75
ATOM     75  C   UNL A   1      32.359  28.907  23.526  1.00  0.00     0.202 C 
BRANCH  75  76
ATOM     76  C   UNL A   1      31.081  28.146  23.877  1.00  0.00     0.261 C 
BRANCH  76  77
ATOM     77  O   UNL A   1      31.091  26.825  23.299  1.00  0.00    -0.463 OA
BRANCH  77  78
ATOM     78  C   UNL A   1      30.900  25.796  24.161  1.00  0.00     0.311 C 
ATOM     79  O   UNL A   1      29.844  25.541  24.725  1.00  0.00    -0.252 OA
BRANCH  78  80
ATOM     80  C   UNL A   1      32.106  24.893  24.271  1.00  0.00     0.128 C 
ATOM     81  C   UNL A   1      33.073  24.896  23.097  1.00  0.00     0.117 C 
ATOM     82  C   UNL A   1      31.693  23.440  24.394  1.00  0.00     0.141 C 
ATOM     83  C   UNL A   1      33.632  23.482  23.100  1.00  0.00     0.227 C 
ATOM     84  N   UNL A   1      32.753  22.683  23.815  1.00  0.00    -0.311 N 
ATOM     85  O   UNL A   1      34.637  23.126  22.504  1.00  0.00    -0.274 OA
BRANCH  84  86
ATOM     86  C   UNL A   1      32.807  21.286  23.980  1.00  0.00     0.055 A 
ATOM     87  C   UNL A   1      32.118  20.542  23.009  1.00  0.00     0.028 A 
ATOM     88  C   UNL A   1      33.699  20.623  24.857  1.00  0.00     0.048 A 
ATOM     89  C   UNL A   1      32.351  19.173  22.854  1.00  0.00     0.023 A 
ATOM     90  C   UNL A   1      33.935  19.244  24.668  1.00  0.00     0.035 A 
ATOM     91  C   UNL A   1      33.275  18.535  23.670  1.00  0.00     0.041 A 
ATOM     92  Cl  UNL A   1      33.608  16.863  23.443  1.00  0.00    -0.084 Cl
BRANCH  88  93
ATOM     93  C   UNL A   1      34.454  21.226  26.004  1.00  0.00     0.195 C 
ATOM     94  O   UNL A   1      33.964  21.166  27.132  1.00  0.00    -0.289 OA
BRANCH  93  95
ATOM     95  C   UNL A   1      35.759  21.910  25.877  1.00  0.00     0.023 A 
ATOM     96  C   UNL A   1      35.808  23.288  26.108  1.00  0.00     0.012 A 
ATOM     97  C   UNL A   1      36.925  21.237  25.525  1.00  0.00     0.012 A 
ATOM     98  C   UNL A   1      37.023  23.967  26.136  1.00  0.00     0.001 A 
ATOM     99  C   UNL A   1      38.146  21.922  25.534  1.00  0.00     0.001 A 
ATOM    100  C   UNL A   1      38.198  23.275  25.875  1.00  0.00     0.000 A 
ENDBRANCH  93  95
ENDBRANCH  88  93
ENDBRANCH  84  86
ENDBRANCH  78  80
ENDBRANCH  77  78
ENDBRANCH  76  77
ENDBRANCH  75  76
ENDBRANCH   1  75
TORSDOF 20
ENDMDL
MODEL 2
REMARK VINA RESULT:     -10.9      2.077      8.473
REMARK SMILES O=C(OCCOCCOC(=O)[C@@H]1CC(=O)N(c2ccc(Cl)cc2C(=O)c2ccccc2)C1)c1ccc(-c2c3nc(c(-c4c(F)cc(S(=O)(=O)[O-])cc4F)c4ccc([nH]4)c(-c4c(F)cc(S(=O)(=O)[O-])cc4F)c4nc(c(-c5c(F)cc(S(=O)(=O)[O-])cc5F)c5ccc2[nH]5)C=C4)C=C3)cc1
REMARK SMILES IDX 6 1 5 2 4 3 3 4 2 5 1 6 33 7 34 8 98 9 35 10 97 11 36 12
REMARK SMILES IDX 37 13 38 14 91 15 39 16 96 17 90 18 92 19 40 20 95 21 89 22
REMARK SMILES IDX 88 23 41 25 75 26 54 27 74 28 55 29 58 30 73 31 93 32 56 33
REMARK SMILES IDX 57 34 72 36 94 37 59 38 42 39 43 40 52 41 44 42 45 43 51 44
REMARK SMILES IDX 53 45 46 46 47 47 48 48 49 49 50 50 76 51 77 52 86 53 78 54
REMARK SMILES IDX 79 55 85 56 87 57 80 58 81 59 82 60 83 61 84 62 60 63 61 64
REMARK SMILES IDX 70 65 62 66 63 67 69 68 71 69 64 70 65 71 66 72 67 73 68 74
REMARK SMILES IDX 7 75 8 76 9 77 10 78 11 79 12 80 13 81 32 82 14 83 16 84
REMARK SMILES IDX 15 85 17 86 18 87 23 88 19 89 22 90 20 91 21 92 24 93 25 94
REMARK SMILES IDX 26 95 27 96 31 97 28 98 30 99 29 100
REMARK H PARENT 92 24 58 35
REMARK Flexibility Score: inf
ROOT
ATOM      1  O   UNL A   1      34.411  28.338  26.314  1.00  0.00    -0.374 OA
ENDROOT
BRANCH   1   2
ATOM      2  C   UNL A   1      34.055  29.409  27.187  1.00  0.00     0.202 C 
BRANCH   2   3
ATOM      3  C   UNL A   1      35.106  30.162  28.053  1.00  0.00     0.261 C 
BRANCH   3   4
ATOM      4  O   UNL A   1      36.117  29.298  28.672  1.00  0.00    -0.460 OA
BRANCH   4   5
ATOM      5  C   UNL A   1      36.712  29.441  29.904  1.00  0.00     0.338 C 
ATOM      6  O   UNL A   1      36.081  29.496  30.952  1.00  0.00    -0.246 OA
BRANCH   5   7
ATOM      7  C   UNL A   1      38.162  29.657  29.888  1.00  0.00     0.060 A 
ATOM      8  C   UNL A   1      38.636  30.122  28.693  1.00  0.00     0.016 A 
ATOM      9  C   UNL A   1      39.065  29.357  30.895  1.00  0.00     0.016 A 
ATOM     10  C   UNL A   1      39.841  29.690  28.256  1.00  0.00     0.010 A 
ATOM     11  C   UNL A   1      40.424  29.322  30.558  1.00  0.00     0.010 A 
ATOM     12  C   UNL A   1      40.796  29.391  29.203  1.00  0.00    -0.014 A 
BRANCH  12  13
ATOM     13  C   UNL A   1      42.132  29.097  28.668  1.00  0.00     0.031 A 
ATOM     14  C   UNL A   1      42.378  27.732  28.117  1.00  0.00     0.074 A 
ATOM     15  C   UNL A   1      43.010  30.114  28.522  1.00  0.00     0.049 A 
ATOM     16  N   UNL A   1      43.505  27.188  27.770  1.00  0.00    -0.248 NA
ATOM     17  C   UNL A   1      41.203  26.857  27.938  1.00  0.00     0.031 C 
ATOM     18  C   UNL A   1      42.750  31.530  28.856  1.00  0.00     0.029 A 
ATOM     19  N   UNL A   1      44.273  30.147  28.004  1.00  0.00    -0.354 N 
ATOM     20  C   UNL A   1      43.193  25.882  27.418  1.00  0.00     0.074 A 
ATOM     21  C   UNL A   1      41.766  25.720  27.559  1.00  0.00     0.031 C 
ATOM     22  C   UNL A   1      43.782  32.286  28.467  1.00  0.00     0.029 A 
ATOM     23  C   UNL A   1      44.845  31.398  28.046  1.00  0.00     0.049 A 
ATOM     24  H   UNL A   1      44.729  29.354  27.638  1.00  0.00     0.167 HD
ATOM     25  C   UNL A   1      44.058  24.914  27.047  1.00  0.00     0.037 A 
ATOM     26  C   UNL A   1      46.125  31.766  27.867  1.00  0.00     0.037 A 
ATOM     27  C   UNL A   1      45.466  25.173  26.911  1.00  0.00     0.049 A 
ATOM     28  C   UNL A   1      47.085  30.655  27.567  1.00  0.00     0.074 A 
ATOM     29  C   UNL A   1      46.490  24.294  26.630  1.00  0.00     0.029 A 
ATOM     30  N   UNL A   1      46.039  26.436  27.044  1.00  0.00    -0.354 N 
ATOM     31  N   UNL A   1      46.824  29.379  27.383  1.00  0.00    -0.248 NA
ATOM     32  C   UNL A   1      48.501  31.007  27.485  1.00  0.00     0.031 C 
ATOM     33  C   UNL A   1      47.688  25.016  26.648  1.00  0.00     0.029 A 
ATOM     34  C   UNL A   1      47.405  26.359  26.870  1.00  0.00     0.049 A 
ATOM     35  H   UNL A   1      45.542  27.265  27.234  1.00  0.00     0.167 HD
ATOM     36  C   UNL A   1      48.044  28.773  27.142  1.00  0.00     0.074 A 
ATOM     37  C   UNL A   1      49.039  29.833  27.187  1.00  0.00     0.031 C 
ATOM     38  C   UNL A   1      48.330  27.468  26.910  1.00  0.00     0.037 A 
BRANCH  25  39
ATOM     39  C   UNL A   1      43.518  23.524  26.889  1.00  0.00     0.058 A 
ATOM     40  C   UNL A   1      43.185  22.711  27.985  1.00  0.00     0.135 A 
ATOM     41  C   UNL A   1      43.367  22.978  25.604  1.00  0.00     0.135 A 
ATOM     42  F   UNL A   1      43.355  23.161  29.238  1.00  0.00    -0.206 F 
ATOM     43  C   UNL A   1      42.734  21.405  27.810  1.00  0.00     0.059 A 
ATOM     44  C   UNL A   1      42.894  21.686  25.404  1.00  0.00     0.059 A 
ATOM     45  F   UNL A   1      43.701  23.700  24.522  1.00  0.00    -0.206 F 
ATOM     46  C   UNL A   1      42.587  20.903  26.515  1.00  0.00     0.060 A 
BRANCH  46  47
ATOM     47  S   UNL A   1      41.977  19.217  26.304  1.00  0.00     0.124 S 
ATOM     48  O   UNL A   1      42.937  18.674  25.350  1.00  0.00    -0.237 OA
ATOM     49  O   UNL A   1      42.062  18.686  27.661  1.00  0.00    -0.237 OA
ATOM     50  O   UNL A   1      40.623  19.406  25.793  1.00  0.00    -0.744 OA
ENDBRANCH  46  47
ENDBRANCH  25  39
BRANCH  26  51
ATOM     51  C   UNL A   1      46.558  33.174  28.093  1.00  0.00     0.058 A 
ATOM     52  C   UNL A   1      46.506  34.125  27.066  1.00  0.00     0.135 A 
ATOM     53  C   UNL A   1      47.033  33.605  29.347  1.00  0.00     0.135 A 
ATOM     54  F   UNL A   1      46.058  33.774  25.850  1.00  0.00    -0.206 F 
ATOM     55  C   UNL A   1      46.932  35.437  27.260  1.00  0.00     0.059 A 
ATOM     56  C   UNL A   1      47.428  34.919  29.577  1.00  0.00     0.059 A 
ATOM     57  F   UNL A   1      47.090  32.749  30.380  1.00  0.00    -0.206 F 
ATOM     58  C   UNL A   1      47.395  35.824  28.519  1.00  0.00     0.060 A 
BRANCH  58  59
ATOM     59  S   UNL A   1      47.948  37.526  28.759  1.00  0.00     0.124 S 
ATOM     60  O   UNL A   1      46.741  38.274  28.428  1.00  0.00    -0.237 OA
ATOM     61  O   UNL A   1      48.337  37.526  30.166  1.00  0.00    -0.237 OA
ATOM     62  O   UNL A   1      49.052  37.658  27.812  1.00  0.00    -0.744 OA
ENDBRANCH  58  59
ENDBRANCH  26  51
BRANCH  38  63
ATOM     63  C   UNL A   1      49.762  27.149  26.628  1.00  0.00     0.058 A 
ATOM     64  C   UNL A   1      50.654  26.797  27.651  1.00  0.00     0.135 A 
ATOM     65  C   UNL A   1      50.220  27.135  25.302  1.00  0.00     0.135 A 
ATOM     66  F   UNL A   1      50.256  26.811  28.932  1.00  0.00    -0.206 F 
ATOM     67  C   UNL A   1      51.968  26.457  27.367  1.00  0.00     0.059 A 
ATOM     68  C   UNL A   1      51.519  26.764  24.993  1.00  0.00     0.059 A 
ATOM     69  F   UNL A   1      49.392  27.459  24.295  1.00  0.00    -0.206 F 
ATOM     70  C   UNL A   1      52.387  26.436  26.034  1.00  0.00     0.060 A 
BRANCH  70  71
ATOM     71  S   UNL A   1      54.081  25.940  25.675  1.00  0.00     0.124 S 
ATOM     72  O   UNL A   1      54.772  27.226  25.698  1.00  0.00    -0.237 OA
ATOM     73  O   UNL A   1      54.381  25.038  26.783  1.00  0.00    -0.237 OA
ATOM     74  O   UNL A   1      53.979  25.304  24.366  1.00  0.00    -0.744 OA
ENDBRANCH  70  71
ENDBRANCH  38  63
ENDBRANCH  12  13
ENDBRANCH   5   7
ENDBRANCH   4   5
ENDBRANCH   3   4
ENDBRANCH   2   3
ENDBRANCH   1   2
BRANCH   1  75
ATOM     75  C   UNL A   1      33.348  27.816  25.495  1.00  0.00     0.202 C 
BRANCH  75  76
ATOM     76  C   UNL A   1      33.796  26.973  24.301  1.00  0.00     0.261 C 
BRANCH  76  77
ATOM     77  O   UNL A   1      32.677  26.639  23.456  1.00  0.00    -0.463 OA
BRANCH  77  78
ATOM     78  C   UNL A   1      32.846  25.571  22.638  1.00  0.00     0.311 C 
ATOM     79  O   UNL A   1      33.676  25.501  21.740  1.00  0.00    -0.252 OA
BRANCH  78  80
ATOM     80  C   UNL A   1      31.980  24.395  23.023  1.00  0.00     0.128 C 
ATOM     81  C   UNL A   1      31.353  24.430  24.407  1.00  0.00     0.117 C 
ATOM     82  C   UNL A   1      32.776  23.105  23.021  1.00  0.00     0.141 C 
ATOM     83  C   UNL A   1      31.264  22.962  24.790  1.00  0.00     0.227 C 
ATOM     84  N   UNL A   1      32.157  22.264  23.991  1.00  0.00    -0.311 N 
ATOM     85  O   UNL A   1      30.579  22.515  25.697  1.00  0.00    -0.274 OA
BRANCH  84  86
ATOM     86  C   UNL A   1      32.495  20.899  24.073  1.00  0.00     0.055 A 
ATOM     87  C   UNL A   1      31.924  20.082  23.084  1.00  0.00     0.028 A 
ATOM     88  C   UNL A   1      33.540  20.387  24.879  1.00  0.00     0.048 A 
ATOM     89  C   UNL A   1      32.417  18.797  22.843  1.00  0.00     0.023 A 
ATOM     90  C   UNL A   1      34.036  19.094  24.602  1.00  0.00     0.035 A 
ATOM     91  C   UNL A   1      33.485  18.317  23.588  1.00  0.00     0.041 A 
ATOM     92  Cl  UNL A   1      34.133  16.759  23.253  1.00  0.00    -0.084 Cl
BRANCH  88  93
ATOM     93  C   UNL A   1      34.212  21.071  26.032  1.00  0.00     0.195 C 
ATOM     94  O   UNL A   1      33.733  20.938  27.159  1.00  0.00    -0.289 OA
BRANCH  93  95
ATOM     95  C   UNL A   1      35.418  21.917  25.913  1.00  0.00     0.023 A 
ATOM     96  C   UNL A   1      36.638  21.294  25.636  1.00  0.00     0.012 A 
ATOM     97  C   UNL A   1      35.382  23.298  26.080  1.00  0.00     0.012 A 
ATOM     98  C   UNL A   1      37.784  22.042  25.380  1.00  0.00     0.001 A 
ATOM     99  C   UNL A   1      36.537  24.052  25.841  1.00  0.00     0.001 A 
ATOM    100  C   UNL A   1      37.725  23.427  25.456  1.00  0.00     0.000 A 
ENDBRANCH  93  95
ENDBRANCH  88  93
ENDBRANCH  84  86
ENDBRANCH  78  80
ENDBRANCH  77  78
ENDBRANCH  76  77
ENDBRANCH  75  76
ENDBRANCH   1  75
TORSDOF 20
ENDMDL
MODEL 3
REMARK VINA RESULT:     -10.8      1.993      2.688
REMARK SMILES O=C(OCCOCCOC(=O)[C@@H]1CC(=O)N(c2ccc(Cl)cc2C(=O)c2ccccc2)C1)c1ccc(-c2c3nc(c(-c4c(F)cc(S(=O)(=O)[O-])cc4F)c4ccc([nH]4)c(-c4c(F)cc(S(=O)(=O)[O-])cc4F)c4nc(c(-c5c(F)cc(S(=O)(=O)[O-])cc5F)c5ccc2[nH]5)C=C4)C=C3)cc1
REMARK SMILES IDX 6 1 5 2 4 3 3 4 2 5 1 6 33 7 34 8 98 9 35 10 97 11 36 12
REMARK SMILES IDX 37 13 38 14 91 15 39 16 96 17 90 18 92 19 40 20 95 21 89 22
REMARK SMILES IDX 88 23 41 25 75 26 54 27 74 28 55 29 58 30 73 31 93 32 56 33
REMARK SMILES IDX 57 34 72 36 94 37 59 38 42 39 43 40 52 41 44 42 45 43 51 44
REMARK SMILES IDX 53 45 46 46 47 47 48 48 49 49 50 50 76 51 77 52 86 53 78 54
REMARK SMILES IDX 79 55 85 56 87 57 80 58 81 59 82 60 83 61 84 62 60 63 61 64
REMARK SMILES IDX 70 65 62 66 63 67 69 68 71 69 64 70 65 71 66 72 67 73 68 74
REMARK SMILES IDX 7 75 8 76 9 77 10 78 11 79 12 80 13 81 32 82 14 83 16 84
REMARK SMILES IDX 15 85 17 86 18 87 23 88 19 89 22 90 20 91 21 92 24 93 25 94
REMARK SMILES IDX 26 95 27 96 31 97 28 98 30 99 29 100
REMARK H PARENT 92 24 58 35
REMARK Flexibility Score: inf
ROOT
ATOM      1  O   UNL A   1      34.058  28.806  25.554  1.00  0.00    -0.374 OA
ENDROOT
BRANCH   1   2
ATOM      2  C   UNL A   1      33.554  29.733  26.513  1.00  0.00     0.202 C 
BRANCH   2   3
ATOM      3  C   UNL A   1      34.468  30.416  27.571  1.00  0.00     0.261 C 
BRANCH   3   4
ATOM      4  O   UNL A   1      35.737  29.723  27.818  1.00  0.00    -0.460 OA
BRANCH   4   5
ATOM      5  C   UNL A   1      36.403  29.577  29.012  1.00  0.00     0.338 C 
ATOM      6  O   UNL A   1      35.836  29.356  30.075  1.00  0.00    -0.246 OA
BRANCH   5   7
ATOM      7  C   UNL A   1      37.847  29.832  28.971  1.00  0.00     0.060 A 
ATOM      8  C   UNL A   1      38.395  29.687  27.728  1.00  0.00     0.016 A 
ATOM      9  C   UNL A   1      38.681  30.099  30.043  1.00  0.00     0.016 A 
ATOM     10  C   UNL A   1      39.636  29.159  27.618  1.00  0.00     0.010 A 
ATOM     11  C   UNL A   1      40.061  29.974  29.839  1.00  0.00     0.010 A 
ATOM     12  C   UNL A   1      40.527  29.401  28.641  1.00  0.00    -0.014 A 
BRANCH  12  13
ATOM     13  C   UNL A   1      41.903  28.954  28.386  1.00  0.00     0.031 A 
ATOM     14  C   UNL A   1      43.005  29.940  28.584  1.00  0.00     0.074 A 
ATOM     15  C   UNL A   1      42.128  27.638  28.173  1.00  0.00     0.049 A 
ATOM     16  N   UNL A   1      44.256  29.839  28.249  1.00  0.00    -0.248 NA
ATOM     17  C   UNL A   1      42.657  31.215  29.242  1.00  0.00     0.031 C 
ATOM     18  C   UNL A   1      41.099  26.578  28.171  1.00  0.00     0.029 A 
ATOM     19  N   UNL A   1      43.286  26.942  27.975  1.00  0.00    -0.354 N 
ATOM     20  C   UNL A   1      44.825  31.064  28.569  1.00  0.00     0.074 A 
ATOM     21  C   UNL A   1      43.795  31.885  29.157  1.00  0.00     0.031 C 
ATOM     22  C   UNL A   1      41.680  25.380  28.059  1.00  0.00     0.029 A 
ATOM     23  C   UNL A   1      43.085  25.595  27.782  1.00  0.00     0.049 A 
ATOM     24  H   UNL A   1      44.176  27.364  27.971  1.00  0.00     0.167 HD
ATOM     25  C   UNL A   1      46.099  31.447  28.342  1.00  0.00     0.037 A 
ATOM     26  C   UNL A   1      43.928  24.655  27.322  1.00  0.00     0.037 A 
ATOM     27  C   UNL A   1      47.067  30.551  27.769  1.00  0.00     0.049 A 
ATOM     28  C   UNL A   1      45.304  25.133  26.971  1.00  0.00     0.074 A 
ATOM     29  C   UNL A   1      48.369  30.800  27.393  1.00  0.00     0.029 A 
ATOM     30  N   UNL A   1      46.815  29.208  27.499  1.00  0.00    -0.354 N 
ATOM     31  N   UNL A   1      45.814  26.335  27.125  1.00  0.00    -0.248 NA
ATOM     32  C   UNL A   1      46.206  24.160  26.358  1.00  0.00     0.031 C 
ATOM     33  C   UNL A   1      48.887  29.621  26.845  1.00  0.00     0.029 A 
ATOM     34  C   UNL A   1      47.931  28.617  26.943  1.00  0.00     0.049 A 
ATOM     35  H   UNL A   1      45.964  28.746  27.678  1.00  0.00     0.167 HD
ATOM     36  C   UNL A   1      47.110  26.262  26.644  1.00  0.00     0.074 A 
ATOM     37  C   UNL A   1      47.305  24.887  26.213  1.00  0.00     0.031 C 
ATOM     38  C   UNL A   1      48.054  27.231  26.557  1.00  0.00     0.037 A 
BRANCH  25  39
ATOM     39  C   UNL A   1      46.448  32.883  28.602  1.00  0.00     0.058 A 
ATOM     40  C   UNL A   1      46.448  33.859  27.592  1.00  0.00     0.135 A 
ATOM     41  C   UNL A   1      46.831  33.282  29.893  1.00  0.00     0.135 A 
ATOM     42  F   UNL A   1      46.139  33.526  26.329  1.00  0.00    -0.206 F 
ATOM     43  C   UNL A   1      46.825  35.174  27.852  1.00  0.00     0.059 A 
ATOM     44  C   UNL A   1      47.187  34.595  30.182  1.00  0.00     0.059 A 
ATOM     45  F   UNL A   1      46.881  32.383  30.890  1.00  0.00    -0.206 F 
ATOM     46  C   UNL A   1      47.188  35.534  29.152  1.00  0.00     0.060 A 
BRANCH  46  47
ATOM     47  S   UNL A   1      47.651  37.248  29.479  1.00  0.00     0.124 S 
ATOM     48  O   UNL A   1      47.649  37.280  30.937  1.00  0.00    -0.237 OA
ATOM     49  O   UNL A   1      48.961  37.341  28.844  1.00  0.00    -0.237 OA
ATOM     50  O   UNL A   1      46.590  38.015  28.833  1.00  0.00    -0.744 OA
ENDBRANCH  46  47
ENDBRANCH  25  39
BRANCH  26  51
ATOM     51  C   UNL A   1      43.459  23.265  27.060  1.00  0.00     0.058 A 
ATOM     52  C   UNL A   1      43.325  22.334  28.099  1.00  0.00     0.135 A 
ATOM     53  C   UNL A   1      43.130  22.833  25.761  1.00  0.00     0.135 A 
ATOM     54  F   UNL A   1      43.620  22.689  29.359  1.00  0.00    -0.206 F 
ATOM     55  C   UNL A   1      42.912  21.025  27.860  1.00  0.00     0.059 A 
ATOM     56  C   UNL A   1      42.678  21.543  25.502  1.00  0.00     0.059 A 
ATOM     57  F   UNL A   1      43.218  23.681  24.723  1.00  0.00    -0.206 F 
ATOM     58  C   UNL A   1      42.594  20.638  26.557  1.00  0.00     0.060 A 
BRANCH  58  59
ATOM     59  S   UNL A   1      42.063  18.938  26.258  1.00  0.00     0.124 S 
ATOM     60  O   UNL A   1      42.163  18.362  27.594  1.00  0.00    -0.237 OA
ATOM     61  O   UNL A   1      40.711  19.126  25.740  1.00  0.00    -0.237 OA
ATOM     62  O   UNL A   1      43.036  18.447  25.285  1.00  0.00    -0.744 OA
ENDBRANCH  58  59
ENDBRANCH  26  51
BRANCH  38  63
ATOM     63  C   UNL A   1      49.388  26.803  26.035  1.00  0.00     0.058 A 
ATOM     64  C   UNL A   1      49.735  26.959  24.686  1.00  0.00     0.135 A 
ATOM     65  C   UNL A   1      50.347  26.291  26.921  1.00  0.00     0.135 A 
ATOM     66  F   UNL A   1      48.839  27.433  23.806  1.00  0.00    -0.206 F 
ATOM     67  C   UNL A   1      50.993  26.601  24.226  1.00  0.00     0.059 A 
ATOM     68  C   UNL A   1      51.622  25.961  26.490  1.00  0.00     0.059 A 
ATOM     69  F   UNL A   1      50.053  26.135  28.222  1.00  0.00    -0.206 F 
ATOM     70  C   UNL A   1      51.931  26.111  25.139  1.00  0.00     0.060 A 
BRANCH  70  71
ATOM     71  S   UNL A   1      53.579  25.701  24.539  1.00  0.00     0.124 S 
ATOM     72  O   UNL A   1      53.617  24.258  24.752  1.00  0.00    -0.237 OA
ATOM     73  O   UNL A   1      53.518  26.135  23.146  1.00  0.00    -0.237 OA
ATOM     74  O   UNL A   1      54.459  26.488  25.397  1.00  0.00    -0.744 OA
ENDBRANCH  70  71
ENDBRANCH  38  63
ENDBRANCH  12  13
ENDBRANCH   5   7
ENDBRANCH   4   5
ENDBRANCH   3   4
ENDBRANCH   2   3
ENDBRANCH   1   2
BRANCH   1  75
ATOM     75  C   UNL A   1      33.077  27.966  24.915  1.00  0.00     0.202 C 
BRANCH  75  76
ATOM     76  C   UNL A   1      33.572  27.193  23.694  1.00  0.00     0.261 C 
BRANCH  76  77
ATOM     77  O   UNL A   1      32.478  26.542  23.017  1.00  0.00    -0.463 OA
BRANCH  77  78
ATOM     78  C   UNL A   1      32.778  25.384  22.378  1.00  0.00     0.311 C 
ATOM     79  O   UNL A   1      33.701  25.239  21.587  1.00  0.00    -0.252 OA
BRANCH  78  80
ATOM     80  C   UNL A   1      31.927  24.224  22.838  1.00  0.00     0.128 C 
ATOM     81  C   UNL A   1      31.348  24.313  24.241  1.00  0.00     0.117 C 
ATOM     82  C   UNL A   1      32.722  22.934  22.858  1.00  0.00     0.141 C 
ATOM     83  C   UNL A   1      31.273  22.860  24.683  1.00  0.00     0.227 C 
ATOM     84  N   UNL A   1      32.138  22.131  23.881  1.00  0.00    -0.311 N 
ATOM     85  O   UNL A   1      30.620  22.449  25.629  1.00  0.00    -0.274 OA
BRANCH  84  86
ATOM     86  C   UNL A   1      32.479  20.771  24.003  1.00  0.00     0.055 A 
ATOM     87  C   UNL A   1      31.923  19.925  23.029  1.00  0.00     0.028 A 
ATOM     88  C   UNL A   1      33.516  20.283  24.836  1.00  0.00     0.048 A 
ATOM     89  C   UNL A   1      32.424  18.636  22.829  1.00  0.00     0.023 A 
ATOM     90  C   UNL A   1      34.019  18.986  24.600  1.00  0.00     0.035 A 
ATOM     91  C   UNL A   1      33.484  18.180  23.600  1.00  0.00     0.041 A 
ATOM     92  Cl  UNL A   1      34.141  16.616  23.315  1.00  0.00    -0.084 Cl
BRANCH  88  93
ATOM     93  C   UNL A   1      34.170  21.000  25.979  1.00  0.00     0.195 C 
ATOM     94  O   UNL A   1      33.768  20.782  27.122  1.00  0.00    -0.289 OA
BRANCH  93  95
ATOM     95  C   UNL A   1      35.272  21.975  25.832  1.00  0.00     0.023 A 
ATOM     96  C   UNL A   1      36.567  21.484  25.641  1.00  0.00     0.012 A 
ATOM     97  C   UNL A   1      35.067  23.350  25.892  1.00  0.00     0.012 A 
ATOM     98  C   UNL A   1      37.625  22.345  25.362  1.00  0.00     0.001 A 
ATOM     99  C   UNL A   1      36.134  24.218  25.631  1.00  0.00     0.001 A 
ATOM    100  C   UNL A   1      37.401  23.715  25.331  1.00  0.00     0.000 A 
ENDBRANCH  93  95
ENDBRANCH  88  93
ENDBRANCH  84  86
ENDBRANCH  78  80
ENDBRANCH  77  78
ENDBRANCH  76  77
ENDBRANCH  75  76
ENDBRANCH   1  75
TORSDOF 20
ENDMDL
