MODEL 1
REMARK VINA RESULT:     -11.1      0.000      0.000
REMARK SMILES CC1(C)S[C@H](c2ccc(-c3ccccc3)o2)[NH2+][C@H]1C(=O)OCCOCCOC(=O)c1ccc(-c2c3nc(c(-c4c(F)cc(S(=O)(=O)[O-])cc4F)c4ccc([nH]4)c(-c4c(F)cc(S(=O)(=O)[O-])cc4F)c4nc(c(-c5c(F)cc(S(=O)(=O)[O-])cc5F)c5ccc2[nH]5)C=C4)C=C3)cc1
REMARK SMILES IDX 25 1 24 2 23 3 22 4 21 5 19 6 20 7 18 8 1 9 2 10 3 11 4 12
REMARK SMILES IDX 5 13 17 14 6 17 7 18 16 19 8 20 9 21 10 22 11 23 15 24 12 25
REMARK SMILES IDX 14 26 13 27 26 28 27 29 28 30 29 31 30 32 31 33 95 34 32 35
REMARK SMILES IDX 94 36 33 37 34 38 35 39 88 40 36 41 93 42 87 43 89 44 37 45
REMARK SMILES IDX 92 46 86 47 85 48 38 50 72 51 51 52 71 53 52 54 55 55 70 56
REMARK SMILES IDX 90 57 53 58 54 59 69 61 91 62 56 63 39 64 40 65 49 66 41 67
REMARK SMILES IDX 42 68 48 69 50 70 43 71 44 72 45 73 46 74 47 75 73 76 74 77
REMARK SMILES IDX 83 78 75 79 76 80 82 81 84 82 77 83 78 84 79 85 80 86 81 87
REMARK SMILES IDX 57 88 58 89 67 90 59 91 60 92 66 93 68 94 61 95 62 96 63 97
REMARK SMILES IDX 64 98 65 99
REMARK H PARENT 17 15 17 16 89 49 55 60
REMARK Flexibility Score: inf
ROOT
ATOM      1  C   UNL A   1      34.947  32.355  28.241  1.00  0.00     0.202 C 
ENDROOT
BRANCH   1   2
ATOM      2  O   UNL A   1      34.022  31.570  27.497  1.00  0.00    -0.374 OA
BRANCH   2   3
ATOM      3  C   UNL A   1      34.394  30.210  27.255  1.00  0.00     0.202 C 
BRANCH   3   4
ATOM      4  C   UNL A   1      33.408  29.364  26.439  1.00  0.00     0.261 C 
BRANCH   4   5
ATOM      5  O   UNL A   1      34.063  28.297  25.718  1.00  0.00    -0.459 OA
BRANCH   5   6
ATOM      6  C   UNL A   1      33.650  28.103  24.435  1.00  0.00     0.366 C 
ATOM      7  O   UNL A   1      33.725  28.948  23.551  1.00  0.00    -0.245 OA
BRANCH   6   8
ATOM      8  C   UNL A   1      33.084  26.696  24.196  1.00  0.00     0.310 C 
ATOM      9  C   UNL A   1      30.647  27.499  23.602  1.00  0.00     0.030 C 
ATOM     10  C   UNL A   1      31.552  26.487  24.316  1.00  0.00     0.079 C 
ATOM     11  C   UNL A   1      31.107  26.268  25.766  1.00  0.00     0.030 C 
ATOM     12  S   UNL A   1      31.299  24.894  23.426  1.00  0.00    -0.078 SA
ATOM     13  C   UNL A   1      32.992  24.835  22.761  1.00  0.00     0.311 C 
ATOM     14  N   UNL A   1      33.537  26.190  22.874  1.00  0.00    -0.316 N 
ATOM     15  H   UNL A   1      33.178  26.781  22.126  1.00  0.00     0.348 HD
ATOM     16  H   UNL A   1      34.554  26.193  22.799  1.00  0.00     0.348 HD
BRANCH  13  17
ATOM     17  C   UNL A   1      33.783  23.766  23.462  1.00  0.00     0.172 A 
ATOM     18  C   UNL A   1      33.543  22.411  23.621  1.00  0.00     0.054 A 
ATOM     19  O   UNL A   1      34.970  24.090  24.074  1.00  0.00    -0.454 OA
ATOM     20  C   UNL A   1      34.640  21.883  24.336  1.00  0.00     0.051 A 
ATOM     21  C   UNL A   1      35.490  22.938  24.587  1.00  0.00     0.134 A 
BRANCH  21  22
ATOM     22  C   UNL A   1      36.792  23.018  25.227  1.00  0.00     0.017 A 
ATOM     23  C   UNL A   1      37.191  24.155  25.937  1.00  0.00     0.012 A 
ATOM     24  C   UNL A   1      37.640  21.902  25.199  1.00  0.00     0.012 A 
ATOM     25  C   UNL A   1      38.404  24.161  26.634  1.00  0.00     0.001 A 
ATOM     26  C   UNL A   1      38.856  21.912  25.883  1.00  0.00     0.001 A 
ATOM     27  C   UNL A   1      39.234  23.039  26.610  1.00  0.00     0.000 A 
ENDBRANCH  21  22
ENDBRANCH  13  17
ENDBRANCH   6   8
ENDBRANCH   5   6
ENDBRANCH   4   5
ENDBRANCH   3   4
ENDBRANCH   2   3
ENDBRANCH   1   2
BRANCH   1  28
ATOM     28  C   UNL A   1      34.892  32.220  29.768  1.00  0.00     0.261 C 
BRANCH  28  29
ATOM     29  O   UNL A   1      35.786  31.199  30.240  1.00  0.00    -0.460 OA
BRANCH  29  30
ATOM     30  C   UNL A   1      36.973  31.668  30.690  1.00  0.00     0.338 C 
ATOM     31  O   UNL A   1      37.144  32.538  31.533  1.00  0.00    -0.246 OA
BRANCH  30  32
ATOM     32  C   UNL A   1      38.080  30.850  30.159  1.00  0.00     0.060 A 
ATOM     33  C   UNL A   1      39.050  30.427  31.076  1.00  0.00     0.016 A 
ATOM     34  C   UNL A   1      38.207  30.543  28.801  1.00  0.00     0.016 A 
ATOM     35  C   UNL A   1      40.191  29.768  30.630  1.00  0.00     0.010 A 
ATOM     36  C   UNL A   1      39.355  29.878  28.355  1.00  0.00     0.010 A 
ATOM     37  C   UNL A   1      40.374  29.533  29.263  1.00  0.00    -0.014 A 
BRANCH  37  38
ATOM     38  C   UNL A   1      41.706  29.087  28.785  1.00  0.00     0.031 A 
ATOM     39  C   UNL A   1      42.838  30.082  28.753  1.00  0.00     0.074 A 
ATOM     40  C   UNL A   1      41.923  27.802  28.452  1.00  0.00     0.049 A 
ATOM     41  N   UNL A   1      44.084  29.909  28.399  1.00  0.00    -0.248 NA
ATOM     42  C   UNL A   1      42.519  31.455  29.177  1.00  0.00     0.031 C 
ATOM     43  C   UNL A   1      40.915  26.743  28.479  1.00  0.00     0.029 A 
ATOM     44  N   UNL A   1      43.065  27.169  28.031  1.00  0.00    -0.354 N 
ATOM     45  C   UNL A   1      44.697  31.149  28.552  1.00  0.00     0.074 A 
ATOM     46  C   UNL A   1      43.677  32.074  28.992  1.00  0.00     0.031 C 
ATOM     47  C   UNL A   1      41.484  25.589  28.090  1.00  0.00     0.029 A 
ATOM     48  C   UNL A   1      42.887  25.833  27.759  1.00  0.00     0.049 A 
ATOM     49  H   UNL A   1      43.931  27.627  27.933  1.00  0.00     0.167 HD
ATOM     50  C   UNL A   1      45.995  31.482  28.357  1.00  0.00     0.037 A 
ATOM     51  C   UNL A   1      43.753  24.918  27.284  1.00  0.00     0.037 A 
ATOM     52  C   UNL A   1      47.007  30.552  27.923  1.00  0.00     0.049 A 
ATOM     53  C   UNL A   1      45.180  25.325  27.019  1.00  0.00     0.074 A 
ATOM     54  C   UNL A   1      48.355  30.783  27.714  1.00  0.00     0.029 A 
ATOM     55  N   UNL A   1      46.780  29.215  27.626  1.00  0.00    -0.354 N 
ATOM     56  N   UNL A   1      45.751  26.494  27.193  1.00  0.00    -0.248 NA
ATOM     57  C   UNL A   1      46.083  24.287  26.502  1.00  0.00     0.031 C 
ATOM     58  C   UNL A   1      48.931  29.603  27.235  1.00  0.00     0.029 A 
ATOM     59  C   UNL A   1      47.957  28.617  27.207  1.00  0.00     0.049 A 
ATOM     60  H   UNL A   1      45.911  28.760  27.700  1.00  0.00     0.167 HD
ATOM     61  C   UNL A   1      47.085  26.324  26.834  1.00  0.00     0.074 A 
ATOM     62  C   UNL A   1      47.237  24.936  26.448  1.00  0.00     0.031 C 
ATOM     63  C   UNL A   1      48.093  27.232  26.828  1.00  0.00     0.037 A 
BRANCH  50  64
ATOM     64  C   UNL A   1      46.392  32.916  28.585  1.00  0.00     0.058 A 
ATOM     65  C   UNL A   1      46.847  33.372  29.833  1.00  0.00     0.135 A 
ATOM     66  C   UNL A   1      46.347  33.841  27.529  1.00  0.00     0.135 A 
ATOM     67  F   UNL A   1      46.894  32.537  30.883  1.00  0.00    -0.206 F 
ATOM     68  C   UNL A   1      47.219  34.699  30.031  1.00  0.00     0.059 A 
ATOM     69  C   UNL A   1      46.742  35.165  27.697  1.00  0.00     0.059 A 
ATOM     70  F   UNL A   1      45.917  33.461  26.316  1.00  0.00    -0.206 F 
ATOM     71  C   UNL A   1      47.164  35.587  28.957  1.00  0.00     0.060 A 
BRANCH  71  72
ATOM     72  S   UNL A   1      47.657  37.302  29.229  1.00  0.00     0.124 S 
ATOM     73  O   UNL A   1      48.076  37.702  27.889  1.00  0.00    -0.237 OA
ATOM     74  O   UNL A   1      46.421  37.908  29.714  1.00  0.00    -0.237 OA
ATOM     75  O   UNL A   1      48.729  37.197  30.214  1.00  0.00    -0.744 OA
ENDBRANCH  71  72
ENDBRANCH  50  64
BRANCH  51  76
ATOM     76  C   UNL A   1      43.294  23.526  27.021  1.00  0.00     0.058 A 
ATOM     77  C   UNL A   1      43.050  23.072  25.717  1.00  0.00     0.135 A 
ATOM     78  C   UNL A   1      43.091  22.621  28.076  1.00  0.00     0.135 A 
ATOM     79  F   UNL A   1      43.218  23.901  24.676  1.00  0.00    -0.206 F 
ATOM     80  C   UNL A   1      42.607  21.776  25.467  1.00  0.00     0.059 A 
ATOM     81  C   UNL A   1      42.677  21.313  27.849  1.00  0.00     0.059 A 
ATOM     82  F   UNL A   1      43.320  23.002  29.342  1.00  0.00    -0.206 F 
ATOM     83  C   UNL A   1      42.428  20.903  26.541  1.00  0.00     0.060 A 
BRANCH  83  84
ATOM     84  S   UNL A   1      41.902  19.209  26.201  1.00  0.00     0.124 S 
ATOM     85  O   UNL A   1      42.293  18.527  27.430  1.00  0.00    -0.237 OA
ATOM     86  O   UNL A   1      40.469  19.372  25.987  1.00  0.00    -0.237 OA
ATOM     87  O   UNL A   1      42.669  18.853  25.010  1.00  0.00    -0.744 OA
ENDBRANCH  83  84
ENDBRANCH  51  76
BRANCH  63  88
ATOM     88  C   UNL A   1      49.462  26.747  26.428  1.00  0.00     0.058 A 
ATOM     89  C   UNL A   1      50.319  26.110  27.338  1.00  0.00     0.135 A 
ATOM     90  C   UNL A   1      49.903  26.882  25.101  1.00  0.00     0.135 A 
ATOM     91  F   UNL A   1      49.950  25.956  28.621  1.00  0.00    -0.206 F 
ATOM     92  C   UNL A   1      51.579  25.658  26.957  1.00  0.00     0.059 A 
ATOM     93  C   UNL A   1      51.144  26.408  24.690  1.00  0.00     0.059 A 
ATOM     94  F   UNL A   1      49.118  27.470  24.184  1.00  0.00    -0.206 F 
ATOM     95  C   UNL A   1      51.983  25.812  25.630  1.00  0.00     0.060 A 
BRANCH  95  96
ATOM     96  S   UNL A   1      53.613  25.205  25.145  1.00  0.00     0.124 S 
ATOM     97  O   UNL A   1      53.702  25.675  23.767  1.00  0.00    -0.237 OA
ATOM     98  O   UNL A   1      54.491  25.874  26.100  1.00  0.00    -0.237 OA
ATOM     99  O   UNL A   1      53.501  23.759  25.310  1.00  0.00    -0.744 OA
ENDBRANCH  95  96
ENDBRANCH  63  88
ENDBRANCH  37  38
ENDBRANCH  30  32
ENDBRANCH  29  30
ENDBRANCH  28  29
ENDBRANCH   1  28
TORSDOF 19
ENDMDL
MODEL 2
REMARK VINA RESULT:     -11.0      6.398     12.034
REMARK SMILES CC1(C)S[C@H](c2ccc(-c3ccccc3)o2)[NH2+][C@H]1C(=O)OCCOCCOC(=O)c1ccc(-c2c3nc(c(-c4c(F)cc(S(=O)(=O)[O-])cc4F)c4ccc([nH]4)c(-c4c(F)cc(S(=O)(=O)[O-])cc4F)c4nc(c(-c5c(F)cc(S(=O)(=O)[O-])cc5F)c5ccc2[nH]5)C=C4)C=C3)cc1
REMARK SMILES IDX 25 1 24 2 23 3 22 4 21 5 19 6 20 7 18 8 1 9 2 10 3 11 4 12
REMARK SMILES IDX 5 13 17 14 6 17 7 18 16 19 8 20 9 21 10 22 11 23 15 24 12 25
REMARK SMILES IDX 14 26 13 27 26 28 27 29 28 30 29 31 30 32 31 33 95 34 32 35
REMARK SMILES IDX 94 36 33 37 34 38 35 39 88 40 36 41 93 42 87 43 89 44 37 45
REMARK SMILES IDX 92 46 86 47 85 48 38 50 72 51 51 52 71 53 52 54 55 55 70 56
REMARK SMILES IDX 90 57 53 58 54 59 69 61 91 62 56 63 39 64 40 65 49 66 41 67
REMARK SMILES IDX 42 68 48 69 50 70 43 71 44 72 45 73 46 74 47 75 73 76 74 77
REMARK SMILES IDX 83 78 75 79 76 80 82 81 84 82 77 83 78 84 79 85 80 86 81 87
REMARK SMILES IDX 57 88 58 89 67 90 59 91 60 92 66 93 68 94 61 95 62 96 63 97
REMARK SMILES IDX 64 98 65 99
REMARK H PARENT 17 15 17 16 89 49 55 60
REMARK Flexibility Score: inf
ROOT
ATOM      1  C   UNL A   1      39.794  21.904  26.159  1.00  0.00     0.202 C 
ENDROOT
BRANCH   1   2
ATOM      2  O   UNL A   1      38.573  21.230  25.872  1.00  0.00    -0.374 OA
BRANCH   2   3
ATOM      3  C   UNL A   1      37.564  21.998  25.211  1.00  0.00     0.202 C 
BRANCH   3   4
ATOM      4  C   UNL A   1      36.123  21.806  25.701  1.00  0.00     0.261 C 
BRANCH   4   5
ATOM      5  O   UNL A   1      35.535  23.036  26.179  1.00  0.00    -0.459 OA
BRANCH   5   6
ATOM      6  C   UNL A   1      34.318  22.921  26.779  1.00  0.00     0.366 C 
ATOM      7  O   UNL A   1      34.124  22.348  27.844  1.00  0.00    -0.245 OA
BRANCH   6   8
ATOM      8  C   UNL A   1      33.195  23.603  25.985  1.00  0.00     0.310 C 
ATOM      9  C   UNL A   1      32.242  21.382  24.935  1.00  0.00     0.030 C 
ATOM     10  C   UNL A   1      32.607  22.862  24.756  1.00  0.00     0.079 C 
ATOM     11  C   UNL A   1      33.443  23.080  23.490  1.00  0.00     0.030 C 
ATOM     12  S   UNL A   1      31.002  23.731  24.500  1.00  0.00    -0.078 SA
ATOM     13  C   UNL A   1      31.092  24.654  26.065  1.00  0.00     0.311 C 
ATOM     14  N   UNL A   1      32.084  23.973  26.900  1.00  0.00    -0.316 N 
ATOM     15  H   UNL A   1      31.679  23.138  27.323  1.00  0.00     0.348 HD
ATOM     16  H   UNL A   1      32.408  24.569  27.662  1.00  0.00     0.348 HD
BRANCH  13  17
ATOM     17  C   UNL A   1      31.374  26.106  25.791  1.00  0.00     0.172 A 
ATOM     18  C   UNL A   1      30.797  26.994  24.900  1.00  0.00     0.054 A 
ATOM     19  O   UNL A   1      32.353  26.754  26.506  1.00  0.00    -0.454 OA
ATOM     20  C   UNL A   1      31.430  28.240  25.097  1.00  0.00     0.051 A 
ATOM     21  C   UNL A   1      32.367  28.052  26.089  1.00  0.00     0.134 A 
BRANCH  21  22
ATOM     22  C   UNL A   1      33.282  28.961  26.759  1.00  0.00     0.017 A 
ATOM     23  C   UNL A   1      34.615  28.612  27.002  1.00  0.00     0.012 A 
ATOM     24  C   UNL A   1      32.842  30.247  27.102  1.00  0.00     0.012 A 
ATOM     25  C   UNL A   1      35.499  29.548  27.549  1.00  0.00     0.001 A 
ATOM     26  C   UNL A   1      33.721  31.176  27.661  1.00  0.00     0.001 A 
ATOM     27  C   UNL A   1      35.054  30.830  27.875  1.00  0.00     0.000 A 
ENDBRANCH  21  22
ENDBRANCH  13  17
ENDBRANCH   6   8
ENDBRANCH   5   6
ENDBRANCH   4   5
ENDBRANCH   3   4
ENDBRANCH   2   3
ENDBRANCH   1   2
BRANCH   1  28
ATOM     28  C   UNL A   1      39.687  23.383  26.550  1.00  0.00     0.261 C 
BRANCH  28  29
ATOM     29  O   UNL A   1      40.978  24.013  26.589  1.00  0.00    -0.460 OA
BRANCH  29  30
ATOM     30  C   UNL A   1      40.948  25.348  26.361  1.00  0.00     0.338 C 
ATOM     31  O   UNL A   1      40.739  25.902  25.291  1.00  0.00    -0.246 OA
BRANCH  30  32
ATOM     32  C   UNL A   1      41.019  26.086  27.637  1.00  0.00     0.060 A 
ATOM     33  C   UNL A   1      39.929  25.953  28.505  1.00  0.00     0.016 A 
ATOM     34  C   UNL A   1      42.088  26.926  27.964  1.00  0.00     0.016 A 
ATOM     35  C   UNL A   1      39.862  26.722  29.663  1.00  0.00     0.010 A 
ATOM     36  C   UNL A   1      42.019  27.696  29.130  1.00  0.00     0.010 A 
ATOM     37  C   UNL A   1      40.883  27.633  29.958  1.00  0.00    -0.014 A 
BRANCH  37  38
ATOM     38  C   UNL A   1      40.662  28.631  31.033  1.00  0.00     0.031 A 
ATOM     39  C   UNL A   1      41.525  28.571  32.268  1.00  0.00     0.074 A 
ATOM     40  C   UNL A   1      39.759  29.616  30.884  1.00  0.00     0.049 A 
ATOM     41  N   UNL A   1      41.527  29.351  33.317  1.00  0.00    -0.248 NA
ATOM     42  C   UNL A   1      42.517  27.485  32.326  1.00  0.00     0.031 C 
ATOM     43  C   UNL A   1      38.895  29.797  29.718  1.00  0.00     0.029 A 
ATOM     44  N   UNL A   1      39.423  30.654  31.716  1.00  0.00    -0.354 N 
ATOM     45  C   UNL A   1      42.512  28.850  34.161  1.00  0.00     0.074 A 
ATOM     46  C   UNL A   1      43.060  27.676  33.520  1.00  0.00     0.031 C 
ATOM     47  C   UNL A   1      38.125  30.882  29.910  1.00  0.00     0.029 A 
ATOM     48  C   UNL A   1      38.422  31.455  31.222  1.00  0.00     0.049 A 
ATOM     49  H   UNL A   1      39.859  30.811  32.585  1.00  0.00     0.167 HD
ATOM     50  C   UNL A   1      42.932  29.333  35.354  1.00  0.00     0.037 A 
ATOM     51  C   UNL A   1      37.805  32.519  31.773  1.00  0.00     0.037 A 
ATOM     52  C   UNL A   1      42.383  30.508  35.983  1.00  0.00     0.049 A 
ATOM     53  C   UNL A   1      38.250  33.005  33.128  1.00  0.00     0.074 A 
ATOM     54  C   UNL A   1      42.751  31.093  37.182  1.00  0.00     0.029 A 
ATOM     55  N   UNL A   1      41.347  31.273  35.467  1.00  0.00    -0.354 N 
ATOM     56  N   UNL A   1      39.200  32.537  33.902  1.00  0.00    -0.248 NA
ATOM     57  C   UNL A   1      37.544  34.169  33.681  1.00  0.00     0.031 C 
ATOM     58  C   UNL A   1      41.899  32.176  37.419  1.00  0.00     0.029 A 
ATOM     59  C   UNL A   1      41.043  32.307  36.337  1.00  0.00     0.049 A 
ATOM     60  H   UNL A   1      40.893  31.105  34.610  1.00  0.00     0.167 HD
ATOM     61  C   UNL A   1      39.226  33.367  35.019  1.00  0.00     0.074 A 
ATOM     62  C   UNL A   1      38.205  34.373  34.812  1.00  0.00     0.031 C 
ATOM     63  C   UNL A   1      40.024  33.303  36.116  1.00  0.00     0.037 A 
BRANCH  50  64
ATOM     64  C   UNL A   1      44.019  28.579  36.072  1.00  0.00     0.058 A 
ATOM     65  C   UNL A   1      45.374  28.924  35.940  1.00  0.00     0.135 A 
ATOM     66  C   UNL A   1      43.697  27.516  36.931  1.00  0.00     0.135 A 
ATOM     67  F   UNL A   1      45.743  29.919  35.118  1.00  0.00    -0.206 F 
ATOM     68  C   UNL A   1      46.372  28.224  36.614  1.00  0.00     0.059 A 
ATOM     69  C   UNL A   1      44.675  26.822  37.638  1.00  0.00     0.059 A 
ATOM     70  F   UNL A   1      42.418  27.142  37.093  1.00  0.00    -0.206 F 
ATOM     71  C   UNL A   1      46.012  27.176  37.462  1.00  0.00     0.060 A 
BRANCH  71  72
ATOM     72  S   UNL A   1      47.317  26.285  38.334  1.00  0.00     0.124 S 
ATOM     73  O   UNL A   1      47.040  26.645  39.721  1.00  0.00    -0.237 OA
ATOM     74  O   UNL A   1      47.042  24.898  37.973  1.00  0.00    -0.237 OA
ATOM     75  O   UNL A   1      48.544  26.844  37.776  1.00  0.00    -0.744 OA
ENDBRANCH  71  72
ENDBRANCH  50  64
BRANCH  51  76
ATOM     76  C   UNL A   1      36.696  33.194  31.044  1.00  0.00     0.058 A 
ATOM     77  C   UNL A   1      36.946  34.034  29.950  1.00  0.00     0.135 A 
ATOM     78  C   UNL A   1      35.359  33.009  31.432  1.00  0.00     0.135 A 
ATOM     79  F   UNL A   1      38.207  34.252  29.547  1.00  0.00    -0.206 F 
ATOM     80  C   UNL A   1      35.914  34.679  29.274  1.00  0.00     0.059 A 
ATOM     81  C   UNL A   1      34.308  33.620  30.755  1.00  0.00     0.059 A 
ATOM     82  F   UNL A   1      35.063  32.207  32.467  1.00  0.00    -0.206 F 
ATOM     83  C   UNL A   1      34.597  34.461  29.682  1.00  0.00     0.060 A 
BRANCH  83  84
ATOM     84  S   UNL A   1      33.263  35.262  28.767  1.00  0.00     0.124 S 
ATOM     85  O   UNL A   1      32.655  34.128  28.079  1.00  0.00    -0.237 OA
ATOM     86  O   UNL A   1      32.473  35.858  29.839  1.00  0.00    -0.237 OA
ATOM     87  O   UNL A   1      33.967  36.215  27.913  1.00  0.00    -0.744 OA
ENDBRANCH  83  84
ENDBRANCH  51  76
BRANCH  63  88
ATOM     88  C   UNL A   1      39.853  34.375  37.160  1.00  0.00     0.058 A 
ATOM     89  C   UNL A   1      39.135  34.150  38.344  1.00  0.00     0.135 A 
ATOM     90  C   UNL A   1      40.455  35.633  36.990  1.00  0.00     0.135 A 
ATOM     91  F   UNL A   1      38.536  32.967  38.558  1.00  0.00    -0.206 F 
ATOM     92  C   UNL A   1      38.989  35.145  39.307  1.00  0.00     0.059 A 
ATOM     93  C   UNL A   1      40.350  36.631  37.953  1.00  0.00     0.059 A 
ATOM     94  F   UNL A   1      41.166  35.899  35.882  1.00  0.00    -0.206 F 
ATOM     95  C   UNL A   1      39.600  36.383  39.102  1.00  0.00     0.060 A 
BRANCH  95  96
ATOM     96  S   UNL A   1      39.418  37.659  40.367  1.00  0.00     0.124 S 
ATOM     97  O   UNL A   1      38.607  38.650  39.668  1.00  0.00    -0.237 OA
ATOM     98  O   UNL A   1      38.747  36.936  41.443  1.00  0.00    -0.237 OA
ATOM     99  O   UNL A   1      40.793  38.058  40.648  1.00  0.00    -0.744 OA
ENDBRANCH  95  96
ENDBRANCH  63  88
ENDBRANCH  37  38
ENDBRANCH  30  32
ENDBRANCH  29  30
ENDBRANCH  28  29
ENDBRANCH   1  28
TORSDOF 19
ENDMDL
MODEL 3
REMARK VINA RESULT:     -10.9      6.005     11.952
REMARK SMILES CC1(C)S[C@H](c2ccc(-c3ccccc3)o2)[NH2+][C@H]1C(=O)OCCOCCOC(=O)c1ccc(-c2c3nc(c(-c4c(F)cc(S(=O)(=O)[O-])cc4F)c4ccc([nH]4)c(-c4c(F)cc(S(=O)(=O)[O-])cc4F)c4nc(c(-c5c(F)cc(S(=O)(=O)[O-])cc5F)c5ccc2[nH]5)C=C4)C=C3)cc1
REMARK SMILES IDX 25 1 24 2 23 3 22 4 21 5 19 6 20 7 18 8 1 9 2 10 3 11 4 12
REMARK SMILES IDX 5 13 17 14 6 17 7 18 16 19 8 20 9 21 10 22 11 23 15 24 12 25
REMARK SMILES IDX 14 26 13 27 26 28 27 29 28 30 29 31 30 32 31 33 95 34 32 35
REMARK SMILES IDX 94 36 33 37 34 38 35 39 88 40 36 41 93 42 87 43 89 44 37 45
REMARK SMILES IDX 92 46 86 47 85 48 38 50 72 51 51 52 71 53 52 54 55 55 70 56
REMARK SMILES IDX 90 57 53 58 54 59 69 61 91 62 56 63 39 64 40 65 49 66 41 67
REMARK SMILES IDX 42 68 48 69 50 70 43 71 44 72 45 73 46 74 47 75 73 76 74 77
REMARK SMILES IDX 83 78 75 79 76 80 82 81 84 82 77 83 78 84 79 85 80 86 81 87
REMARK SMILES IDX 57 88 58 89 67 90 59 91 60 92 66 93 68 94 61 95 62 96 63 97
REMARK SMILES IDX 64 98 65 99
REMARK H PARENT 17 15 17 16 89 49 55 60
REMARK Flexibility Score: inf
ROOT
ATOM      1  C   UNL A   1      40.841  21.859  26.915  1.00  0.00     0.202 C 
ENDROOT
BRANCH   1   2
ATOM      2  O   UNL A   1      39.765  21.594  26.022  1.00  0.00    -0.374 OA
BRANCH   2   3
ATOM      3  C   UNL A   1      38.617  22.438  26.145  1.00  0.00     0.202 C 
BRANCH   3   4
ATOM      4  C   UNL A   1      37.589  22.370  25.007  1.00  0.00     0.261 C 
BRANCH   4   5
ATOM      5  O   UNL A   1      36.365  23.065  25.328  1.00  0.00    -0.459 OA
BRANCH   5   6
ATOM      6  C   UNL A   1      35.465  23.187  24.313  1.00  0.00     0.366 C 
ATOM      7  O   UNL A   1      35.767  23.399  23.144  1.00  0.00    -0.245 OA
BRANCH   6   8
ATOM      8  C   UNL A   1      34.012  23.018  24.780  1.00  0.00     0.310 C 
ATOM      9  C   UNL A   1      34.028  20.385  24.710  1.00  0.00     0.030 C 
ATOM     10  C   UNL A   1      33.278  21.695  24.439  1.00  0.00     0.079 C 
ATOM     11  C   UNL A   1      32.676  21.712  23.029  1.00  0.00     0.030 C 
ATOM     12  S   UNL A   1      31.870  21.706  25.628  1.00  0.00    -0.078 SA
ATOM     13  C   UNL A   1      32.505  23.119  26.583  1.00  0.00     0.311 C 
ATOM     14  N   UNL A   1      33.923  23.253  26.245  1.00  0.00    -0.316 N 
ATOM     15  H   UNL A   1      34.476  22.562  26.749  1.00  0.00     0.348 HD
ATOM     16  H   UNL A   1      34.285  24.172  26.500  1.00  0.00     0.348 HD
BRANCH  13  17
ATOM     17  C   UNL A   1      31.665  24.338  26.317  1.00  0.00     0.172 A 
ATOM     18  C   UNL A   1      30.315  24.472  26.040  1.00  0.00     0.054 A 
ATOM     19  O   UNL A   1      32.248  25.582  26.341  1.00  0.00    -0.454 OA
ATOM     20  C   UNL A   1      30.059  25.854  25.915  1.00  0.00     0.051 A 
ATOM     21  C   UNL A   1      31.261  26.496  26.112  1.00  0.00     0.134 A 
BRANCH  21  22
ATOM     22  C   UNL A   1      31.626  27.902  26.161  1.00  0.00     0.017 A 
ATOM     23  C   UNL A   1      31.255  28.791  25.147  1.00  0.00     0.012 A 
ATOM     24  C   UNL A   1      32.300  28.397  27.287  1.00  0.00     0.012 A 
ATOM     25  C   UNL A   1      31.525  30.158  25.275  1.00  0.00     0.001 A 
ATOM     26  C   UNL A   1      32.582  29.759  27.408  1.00  0.00     0.001 A 
ATOM     27  C   UNL A   1      32.185  30.642  26.406  1.00  0.00     0.000 A 
ENDBRANCH  21  22
ENDBRANCH  13  17
ENDBRANCH   6   8
ENDBRANCH   5   6
ENDBRANCH   4   5
ENDBRANCH   3   4
ENDBRANCH   2   3
ENDBRANCH   1   2
BRANCH   1  28
ATOM     28  C   UNL A   1      42.109  22.466  26.303  1.00  0.00     0.261 C 
BRANCH  28  29
ATOM     29  O   UNL A   1      42.569  23.600  27.057  1.00  0.00    -0.460 OA
BRANCH  29  30
ATOM     30  C   UNL A   1      42.429  24.784  26.414  1.00  0.00     0.338 C 
ATOM     31  O   UNL A   1      42.599  24.993  25.221  1.00  0.00    -0.246 OA
BRANCH  30  32
ATOM     32  C   UNL A   1      41.849  25.792  27.322  1.00  0.00     0.060 A 
ATOM     33  C   UNL A   1      42.500  27.030  27.389  1.00  0.00     0.016 A 
ATOM     34  C   UNL A   1      40.736  25.531  28.126  1.00  0.00     0.016 A 
ATOM     35  C   UNL A   1      42.093  27.982  28.319  1.00  0.00     0.010 A 
ATOM     36  C   UNL A   1      40.327  26.491  29.059  1.00  0.00     0.010 A 
ATOM     37  C   UNL A   1      41.036  27.700  29.193  1.00  0.00    -0.014 A 
BRANCH  37  38
ATOM     38  C   UNL A   1      40.801  28.601  30.347  1.00  0.00     0.031 A 
ATOM     39  C   UNL A   1      41.682  28.470  31.563  1.00  0.00     0.074 A 
ATOM     40  C   UNL A   1      39.867  29.566  30.288  1.00  0.00     0.049 A 
ATOM     41  N   UNL A   1      41.676  29.163  32.671  1.00  0.00    -0.248 NA
ATOM     42  C   UNL A   1      42.707  27.414  31.522  1.00  0.00     0.031 C 
ATOM     43  C   UNL A   1      38.981  29.813  29.150  1.00  0.00     0.029 A 
ATOM     44  N   UNL A   1      39.512  30.524  31.204  1.00  0.00    -0.354 N 
ATOM     45  C   UNL A   1      42.688  28.627  33.461  1.00  0.00     0.074 A 
ATOM     46  C   UNL A   1      43.262  27.525  32.721  1.00  0.00     0.031 C 
ATOM     47  C   UNL A   1      38.183  30.855  29.437  1.00  0.00     0.029 A 
ATOM     48  C   UNL A   1      38.480  31.331  30.787  1.00  0.00     0.049 A 
ATOM     49  H   UNL A   1      39.955  30.624  32.077  1.00  0.00     0.167 HD
ATOM     50  C   UNL A   1      43.109  29.027  34.684  1.00  0.00     0.037 A 
ATOM     51  C   UNL A   1      37.840  32.328  31.429  1.00  0.00     0.037 A 
ATOM     52  C   UNL A   1      42.535  30.130  35.411  1.00  0.00     0.049 A 
ATOM     53  C   UNL A   1      38.289  32.718  32.813  1.00  0.00     0.074 A 
ATOM     54  C   UNL A   1      42.902  30.629  36.649  1.00  0.00     0.029 A 
ATOM     55  N   UNL A   1      41.469  30.901  34.970  1.00  0.00    -0.354 N 
ATOM     56  N   UNL A   1      39.264  32.219  33.536  1.00  0.00    -0.248 NA
ATOM     57  C   UNL A   1      37.557  33.812  33.466  1.00  0.00     0.031 C 
ATOM     58  C   UNL A   1      42.021  31.662  36.982  1.00  0.00     0.029 A 
ATOM     59  C   UNL A   1      41.146  31.852  35.924  1.00  0.00     0.049 A 
ATOM     60  H   UNL A   1      41.009  30.788  34.107  1.00  0.00     0.167 HD
ATOM     61  C   UNL A   1      39.280  32.957  34.716  1.00  0.00     0.074 A 
ATOM     62  C   UNL A   1      38.228  33.945  34.602  1.00  0.00     0.031 C 
ATOM     63  C   UNL A   1      40.095  32.832  35.794  1.00  0.00     0.037 A 
BRANCH  50  64
ATOM     64  C   UNL A   1      44.229  28.252  35.326  1.00  0.00     0.058 A 
ATOM     65  C   UNL A   1      45.578  28.563  35.092  1.00  0.00     0.135 A 
ATOM     66  C   UNL A   1      43.946  27.202  36.216  1.00  0.00     0.135 A 
ATOM     67  F   UNL A   1      45.909  29.544  34.237  1.00  0.00    -0.206 F 
ATOM     68  C   UNL A   1      46.606  27.845  35.697  1.00  0.00     0.059 A 
ATOM     69  C   UNL A   1      44.958  26.490  36.855  1.00  0.00     0.059 A 
ATOM     70  F   UNL A   1      42.674  26.860  36.474  1.00  0.00    -0.206 F 
ATOM     71  C   UNL A   1      46.285  26.811  36.578  1.00  0.00     0.060 A 
BRANCH  71  72
ATOM     72  S   UNL A   1      47.630  25.895  37.359  1.00  0.00     0.124 S 
ATOM     73  O   UNL A   1      48.515  26.977  37.779  1.00  0.00    -0.237 OA
ATOM     74  O   UNL A   1      46.942  25.186  38.433  1.00  0.00    -0.237 OA
ATOM     75  O   UNL A   1      48.140  25.053  36.281  1.00  0.00    -0.744 OA
ENDBRANCH  71  72
ENDBRANCH  50  64
BRANCH  51  76
ATOM     76  C   UNL A   1      36.701  33.024  30.770  1.00  0.00     0.058 A 
ATOM     77  C   UNL A   1      35.373  32.763  31.139  1.00  0.00     0.135 A 
ATOM     78  C   UNL A   1      36.921  33.969  29.754  1.00  0.00     0.135 A 
ATOM     79  F   UNL A   1      35.109  31.859  32.097  1.00  0.00    -0.206 F 
ATOM     80  C   UNL A   1      34.304  33.400  30.517  1.00  0.00     0.059 A 
ATOM     81  C   UNL A   1      35.870  34.640  29.138  1.00  0.00     0.059 A 
ATOM     82  F   UNL A   1      38.172  34.264  29.370  1.00  0.00    -0.206 F 
ATOM     83  C   UNL A   1      34.564  34.341  29.520  1.00  0.00     0.060 A 
BRANCH  83  84
ATOM     84  S   UNL A   1      33.171  35.200  28.755  1.00  0.00     0.124 S 
ATOM     85  O   UNL A   1      32.427  35.654  29.924  1.00  0.00    -0.237 OA
ATOM     86  O   UNL A   1      33.842  36.238  27.980  1.00  0.00    -0.237 OA
ATOM     87  O   UNL A   1      32.528  34.155  27.963  1.00  0.00    -0.744 OA
ENDBRANCH  83  84
ENDBRANCH  51  76
BRANCH  63  88
ATOM     88  C   UNL A   1      39.907  33.812  36.923  1.00  0.00     0.058 A 
ATOM     89  C   UNL A   1      40.488  35.089  36.902  1.00  0.00     0.135 A 
ATOM     90  C   UNL A   1      39.097  33.481  38.022  1.00  0.00     0.135 A 
ATOM     91  F   UNL A   1      41.274  35.458  35.876  1.00  0.00    -0.206 F 
ATOM     92  C   UNL A   1      40.302  35.990  37.946  1.00  0.00     0.059 A 
ATOM     93  C   UNL A   1      38.871  34.377  39.061  1.00  0.00     0.059 A 
ATOM     94  F   UNL A   1      38.504  32.277  38.088  1.00  0.00    -0.206 F 
ATOM     95  C   UNL A   1      39.492  35.625  39.022  1.00  0.00     0.060 A 
BRANCH  95  96
ATOM     96  S   UNL A   1      39.245  36.810  40.362  1.00  0.00     0.124 S 
ATOM     97  O   UNL A   1      38.333  36.080  41.235  1.00  0.00    -0.237 OA
ATOM     98  O   UNL A   1      40.601  36.990  40.872  1.00  0.00    -0.237 OA
ATOM     99  O   UNL A   1      38.675  37.972  39.687  1.00  0.00    -0.744 OA
ENDBRANCH  95  96
ENDBRANCH  63  88
ENDBRANCH  37  38
ENDBRANCH  30  32
ENDBRANCH  29  30
ENDBRANCH  28  29
ENDBRANCH   1  28
TORSDOF 19
ENDMDL
