MODEL 1
REMARK VINA RESULT:     -10.7      0.000      0.000
REMARK SMILES CN(c1ccccc1C(=O)OCCOCCOC(=O)c1ccc(-c2c3nc(c(-c4c(F)cc(S(=O)(=O)[O-])cc4F)c4ccc([nH]4)c(-c4c(F)cc(S(=O)(=O)[O-])cc4F)c4nc(c(-c5c(F)cc(S(=O)(=O)[O-])cc5F)c5ccc2[nH]5)C=C4)C=C3)cc1)S(=O)(=O)c1ccc(I)cc1
REMARK SMILES IDX 14 1 13 2 12 3 11 4 9 5 10 6 8 7 3 8 4 9 5 10 7 11 6 12 2 13
REMARK SMILES IDX 1 14 86 15 87 16 88 17 89 18 90 19 95 20 91 21 94 22 92 23
REMARK SMILES IDX 93 24 15 25 16 26 17 27 18 28 19 29 20 30 21 31 85 32 22 33
REMARK SMILES IDX 84 34 23 35 24 36 25 37 78 38 26 39 83 40 77 41 79 42 27 43
REMARK SMILES IDX 82 44 76 45 75 46 28 48 62 49 41 50 61 51 42 52 45 53 60 54
REMARK SMILES IDX 80 55 43 56 44 57 59 59 81 60 46 61 29 62 30 63 39 64 31 65
REMARK SMILES IDX 32 66 38 67 40 68 33 69 34 70 35 71 36 72 37 73 63 74 64 75
REMARK SMILES IDX 73 76 65 77 66 78 72 79 74 80 67 81 68 82 69 83 70 84 71 85
REMARK SMILES IDX 47 86 48 87 57 88 49 89 50 90 56 91 58 92 51 93 52 94 53 95
REMARK SMILES IDX 54 96 55 97
REMARK H PARENT 79 47 45 58
REMARK Flexibility Score: inf
ROOT
ATOM      1  O   UNL A   1      32.987  29.230  26.224  1.00  0.00    -0.374 OA
ENDROOT
BRANCH   1   2
ATOM      2  C   UNL A   1      31.868  28.890  27.045  1.00  0.00     0.202 C 
BRANCH   2   3
ATOM      3  C   UNL A   1      31.186  27.558  26.734  1.00  0.00     0.261 C 
BRANCH   3   4
ATOM      4  O   UNL A   1      32.152  26.509  26.546  1.00  0.00    -0.460 OA
BRANCH   4   5
ATOM      5  C   UNL A   1      31.611  25.289  26.362  1.00  0.00     0.340 C 
ATOM      6  O   UNL A   1      30.420  25.015  26.323  1.00  0.00    -0.246 OA
BRANCH   5   7
ATOM      7  C   UNL A   1      32.622  24.283  26.006  1.00  0.00     0.084 A 
ATOM      8  C   UNL A   1      33.255  24.186  24.758  1.00  0.00     0.066 A 
ATOM      9  C   UNL A   1      34.486  23.509  24.726  1.00  0.00     0.028 A 
ATOM     10  C   UNL A   1      35.005  22.832  25.832  1.00  0.00     0.002 A 
ATOM     11  C   UNL A   1      33.148  23.599  27.128  1.00  0.00     0.018 A 
ATOM     12  C   UNL A   1      34.315  22.847  27.031  1.00  0.00     0.001 A 
BRANCH   8  13
ATOM     13  N   UNL A   1      32.771  24.646  23.465  1.00  0.00    -0.269 N 
ATOM     14  C   UNL A   1      32.901  23.728  22.303  1.00  0.00     0.164 C 
BRANCH  13  15
ATOM     15  S   UNL A   1      33.214  26.267  23.003  1.00  0.00     0.264 S 
ATOM     16  O   UNL A   1      34.037  26.808  24.055  1.00  0.00    -0.201 OA
ATOM     17  O   UNL A   1      33.698  26.213  21.632  1.00  0.00    -0.201 OA
BRANCH  15  18
ATOM     18  C   UNL A   1      31.719  27.239  22.946  1.00  0.00     0.088 A 
ATOM     19  C   UNL A   1      31.813  28.618  22.721  1.00  0.00     0.023 A 
ATOM     20  C   UNL A   1      30.469  26.634  23.105  1.00  0.00     0.023 A 
ATOM     21  C   UNL A   1      30.658  29.405  22.737  1.00  0.00     0.016 A 
ATOM     22  C   UNL A   1      29.320  27.430  23.164  1.00  0.00     0.016 A 
ATOM     23  C   UNL A   1      29.421  28.812  22.990  1.00  0.00     0.013 A 
ATOM     24  I   UNL A   1      27.721  30.002  23.125  1.00  0.00    -0.044 I 
ENDBRANCH  15  18
ENDBRANCH  13  15
ENDBRANCH   8  13
ENDBRANCH   5   7
ENDBRANCH   4   5
ENDBRANCH   3   4
ENDBRANCH   2   3
ENDBRANCH   1   2
BRANCH   1  25
ATOM     25  C   UNL A   1      34.264  29.332  26.856  1.00  0.00     0.202 C 
BRANCH  25  26
ATOM     26  C   UNL A   1      34.566  30.614  27.640  1.00  0.00     0.261 C 
BRANCH  26  27
ATOM     27  O   UNL A   1      35.280  30.380  28.864  1.00  0.00    -0.460 OA
BRANCH  27  28
ATOM     28  C   UNL A   1      36.399  31.126  29.030  1.00  0.00     0.338 C 
ATOM     29  O   UNL A   1      36.463  32.265  29.464  1.00  0.00    -0.246 OA
BRANCH  28  30
ATOM     30  C   UNL A   1      37.604  30.315  28.770  1.00  0.00     0.060 A 
ATOM     31  C   UNL A   1      38.453  30.043  29.851  1.00  0.00     0.016 A 
ATOM     32  C   UNL A   1      37.960  29.930  27.476  1.00  0.00     0.016 A 
ATOM     33  C   UNL A   1      39.685  29.431  29.634  1.00  0.00     0.010 A 
ATOM     34  C   UNL A   1      39.204  29.328  27.259  1.00  0.00     0.010 A 
ATOM     35  C   UNL A   1      40.088  29.109  28.331  1.00  0.00    -0.014 A 
BRANCH  35  36
ATOM     36  C   UNL A   1      41.487  28.683  28.083  1.00  0.00     0.031 A 
ATOM     37  C   UNL A   1      42.584  29.713  28.124  1.00  0.00     0.074 A 
ATOM     38  C   UNL A   1      41.783  27.389  27.864  1.00  0.00     0.049 A 
ATOM     39  N   UNL A   1      43.866  29.570  27.914  1.00  0.00    -0.248 NA
ATOM     40  C   UNL A   1      42.180  31.090  28.454  1.00  0.00     0.031 C 
ATOM     41  C   UNL A   1      40.814  26.293  27.846  1.00  0.00     0.029 A 
ATOM     42  N   UNL A   1      42.985  26.779  27.613  1.00  0.00    -0.354 N 
ATOM     43  C   UNL A   1      44.424  30.831  28.086  1.00  0.00     0.074 A 
ATOM     44  C   UNL A   1      43.336  31.736  28.391  1.00  0.00     0.031 C 
ATOM     45  C   UNL A   1      41.462  25.143  27.588  1.00  0.00     0.029 A 
ATOM     46  C   UNL A   1      42.883  25.426  27.392  1.00  0.00     0.049 A 
ATOM     47  H   UNL A   1      43.841  27.264  27.591  1.00  0.00     0.167 HD
ATOM     48  C   UNL A   1      45.725  31.200  28.009  1.00  0.00     0.037 A 
ATOM     49  C   UNL A   1      43.826  24.525  27.053  1.00  0.00     0.037 A 
ATOM     50  C   UNL A   1      46.804  30.300  27.698  1.00  0.00     0.049 A 
ATOM     51  C   UNL A   1      45.255  24.976  26.890  1.00  0.00     0.074 A 
ATOM     52  C   UNL A   1      48.154  30.579  27.585  1.00  0.00     0.029 A 
ATOM     53  N   UNL A   1      46.655  28.944  27.445  1.00  0.00    -0.354 N 
ATOM     54  N   UNL A   1      45.768  26.172  27.060  1.00  0.00    -0.248 NA
ATOM     55  C   UNL A   1      46.234  23.956  26.489  1.00  0.00     0.031 C 
ATOM     56  C   UNL A   1      48.818  29.400  27.229  1.00  0.00     0.029 A 
ATOM     57  C   UNL A   1      47.886  28.376  27.162  1.00  0.00     0.049 A 
ATOM     58  H   UNL A   1      45.799  28.457  27.464  1.00  0.00     0.167 HD
ATOM     59  C   UNL A   1      47.131  26.040  26.817  1.00  0.00     0.074 A 
ATOM     60  C   UNL A   1      47.365  24.647  26.495  1.00  0.00     0.031 C 
ATOM     61  C   UNL A   1      48.104  26.985  26.859  1.00  0.00     0.037 A 
BRANCH  48  62
ATOM     62  C   UNL A   1      46.052  32.647  28.254  1.00  0.00     0.058 A 
ATOM     63  C   UNL A   1      46.401  33.115  29.531  1.00  0.00     0.135 A 
ATOM     64  C   UNL A   1      46.057  33.569  27.195  1.00  0.00     0.135 A 
ATOM     65  F   UNL A   1      46.396  32.279  30.582  1.00  0.00    -0.206 F 
ATOM     66  C   UNL A   1      46.723  34.450  29.753  1.00  0.00     0.059 A 
ATOM     67  C   UNL A   1      46.397  34.905  27.389  1.00  0.00     0.059 A 
ATOM     68  F   UNL A   1      45.729  33.174  25.954  1.00  0.00    -0.206 F 
ATOM     69  C   UNL A   1      46.718  35.338  28.675  1.00  0.00     0.060 A 
BRANCH  69  70
ATOM     70  S   UNL A   1      47.148  37.065  28.978  1.00  0.00     0.124 S 
ATOM     71  O   UNL A   1      48.571  37.073  28.646  1.00  0.00    -0.237 OA
ATOM     72  O   UNL A   1      46.277  37.774  28.045  1.00  0.00    -0.237 OA
ATOM     73  O   UNL A   1      46.833  37.253  30.390  1.00  0.00    -0.744 OA
ENDBRANCH  69  70
ENDBRANCH  48  62
BRANCH  49  74
ATOM     74  C   UNL A   1      43.455  23.102  26.827  1.00  0.00     0.058 A 
ATOM     75  C   UNL A   1      43.140  22.256  27.900  1.00  0.00     0.135 A 
ATOM     76  C   UNL A   1      43.433  22.553  25.535  1.00  0.00     0.135 A 
ATOM     77  F   UNL A   1      43.159  22.731  29.156  1.00  0.00    -0.206 F 
ATOM     78  C   UNL A   1      42.837  20.913  27.706  1.00  0.00     0.059 A 
ATOM     79  C   UNL A   1      43.109  21.219  25.313  1.00  0.00     0.059 A 
ATOM     80  F   UNL A   1      43.718  23.323  24.473  1.00  0.00    -0.206 F 
ATOM     81  C   UNL A   1      42.827  20.403  26.407  1.00  0.00     0.060 A 
BRANCH  81  82
ATOM     82  S   UNL A   1      42.405  18.664  26.158  1.00  0.00     0.124 S 
ATOM     83  O   UNL A   1      42.653  18.110  27.483  1.00  0.00    -0.237 OA
ATOM     84  O   UNL A   1      41.007  18.742  25.749  1.00  0.00    -0.237 OA
ATOM     85  O   UNL A   1      43.332  18.242  25.112  1.00  0.00    -0.744 OA
ENDBRANCH  81  82
ENDBRANCH  49  74
BRANCH  61  86
ATOM     86  C   UNL A   1      49.515  26.540  26.593  1.00  0.00     0.058 A 
ATOM     87  C   UNL A   1      50.341  26.051  27.616  1.00  0.00     0.135 A 
ATOM     88  C   UNL A   1      50.029  26.556  25.286  1.00  0.00     0.135 A 
ATOM     89  F   UNL A   1      49.900  26.020  28.884  1.00  0.00    -0.206 F 
ATOM     90  C   UNL A   1      51.636  25.613  27.356  1.00  0.00     0.059 A 
ATOM     91  C   UNL A   1      51.312  26.100  24.999  1.00  0.00     0.059 A 
ATOM     92  F   UNL A   1      49.275  27.005  24.269  1.00  0.00    -0.206 F 
ATOM     93  C   UNL A   1      52.113  25.642  26.044  1.00  0.00     0.060 A 
BRANCH  93  94
ATOM     94  S   UNL A   1      53.783  25.039  25.714  1.00  0.00     0.124 S 
ATOM     95  O   UNL A   1      54.400  25.146  27.030  1.00  0.00    -0.237 OA
ATOM     96  O   UNL A   1      53.539  23.681  25.236  1.00  0.00    -0.237 OA
ATOM     97  O   UNL A   1      54.285  25.969  24.706  1.00  0.00    -0.744 OA
ENDBRANCH  93  94
ENDBRANCH  61  86
ENDBRANCH  35  36
ENDBRANCH  28  30
ENDBRANCH  27  28
ENDBRANCH  26  27
ENDBRANCH  25  26
ENDBRANCH   1  25
TORSDOF 20
ENDMDL
MODEL 2
REMARK VINA RESULT:     -10.6      2.656      8.329
REMARK SMILES CN(c1ccccc1C(=O)OCCOCCOC(=O)c1ccc(-c2c3nc(c(-c4c(F)cc(S(=O)(=O)[O-])cc4F)c4ccc([nH]4)c(-c4c(F)cc(S(=O)(=O)[O-])cc4F)c4nc(c(-c5c(F)cc(S(=O)(=O)[O-])cc5F)c5ccc2[nH]5)C=C4)C=C3)cc1)S(=O)(=O)c1ccc(I)cc1
REMARK SMILES IDX 14 1 13 2 12 3 11 4 9 5 10 6 8 7 3 8 4 9 5 10 7 11 6 12 2 13
REMARK SMILES IDX 1 14 86 15 87 16 88 17 89 18 90 19 95 20 91 21 94 22 92 23
REMARK SMILES IDX 93 24 15 25 16 26 17 27 18 28 19 29 20 30 21 31 85 32 22 33
REMARK SMILES IDX 84 34 23 35 24 36 25 37 78 38 26 39 83 40 77 41 79 42 27 43
REMARK SMILES IDX 82 44 76 45 75 46 28 48 62 49 41 50 61 51 42 52 45 53 60 54
REMARK SMILES IDX 80 55 43 56 44 57 59 59 81 60 46 61 29 62 30 63 39 64 31 65
REMARK SMILES IDX 32 66 38 67 40 68 33 69 34 70 35 71 36 72 37 73 63 74 64 75
REMARK SMILES IDX 73 76 65 77 66 78 72 79 74 80 67 81 68 82 69 83 70 84 71 85
REMARK SMILES IDX 47 86 48 87 57 88 49 89 50 90 56 91 58 92 51 93 52 94 53 95
REMARK SMILES IDX 54 96 55 97
REMARK H PARENT 79 47 45 58
REMARK Flexibility Score: inf
ROOT
ATOM      1  O   UNL A   1      36.759  20.952  24.268  1.00  0.00    -0.374 OA
ENDROOT
BRANCH   1   2
ATOM      2  C   UNL A   1      36.668  22.374  24.366  1.00  0.00     0.202 C 
BRANCH   2   3
ATOM      3  C   UNL A   1      35.648  23.048  23.449  1.00  0.00     0.261 C 
BRANCH   3   4
ATOM      4  O   UNL A   1      35.196  24.297  24.001  1.00  0.00    -0.460 OA
BRANCH   4   5
ATOM      5  C   UNL A   1      34.153  24.843  23.346  1.00  0.00     0.340 C 
ATOM      6  O   UNL A   1      33.665  24.455  22.294  1.00  0.00    -0.246 OA
BRANCH   5   7
ATOM      7  C   UNL A   1      33.490  25.891  24.136  1.00  0.00     0.084 A 
ATOM      8  C   UNL A   1      32.664  25.661  25.245  1.00  0.00     0.066 A 
ATOM      9  C   UNL A   1      32.502  26.729  26.144  1.00  0.00     0.028 A 
ATOM     10  C   UNL A   1      33.004  28.009  25.895  1.00  0.00     0.002 A 
ATOM     11  C   UNL A   1      34.002  27.187  23.884  1.00  0.00     0.018 A 
ATOM     12  C   UNL A   1      33.729  28.248  24.741  1.00  0.00     0.001 A 
BRANCH   8  13
ATOM     13  N   UNL A   1      31.895  24.467  25.563  1.00  0.00    -0.269 N 
ATOM     14  C   UNL A   1      30.474  24.637  25.968  1.00  0.00     0.164 C 
BRANCH  13  15
ATOM     15  S   UNL A   1      32.675  23.290  26.584  1.00  0.00     0.264 S 
ATOM     16  O   UNL A   1      33.994  23.784  26.886  1.00  0.00    -0.201 OA
ATOM     17  O   UNL A   1      31.744  22.953  27.651  1.00  0.00    -0.201 OA
BRANCH  15  18
ATOM     18  C   UNL A   1      32.873  21.795  25.631  1.00  0.00     0.088 A 
ATOM     19  C   UNL A   1      32.260  21.703  24.374  1.00  0.00     0.023 A 
ATOM     20  C   UNL A   1      33.641  20.735  26.120  1.00  0.00     0.023 A 
ATOM     21  C   UNL A   1      32.351  20.517  23.642  1.00  0.00     0.016 A 
ATOM     22  C   UNL A   1      33.693  19.533  25.405  1.00  0.00     0.016 A 
ATOM     23  C   UNL A   1      33.039  19.427  24.174  1.00  0.00     0.013 A 
ATOM     24  I   UNL A   1      33.075  17.627  23.133  1.00  0.00    -0.044 I 
ENDBRANCH  15  18
ENDBRANCH  13  15
ENDBRANCH   8  13
ENDBRANCH   5   7
ENDBRANCH   4   5
ENDBRANCH   3   4
ENDBRANCH   2   3
ENDBRANCH   1   2
BRANCH   1  25
ATOM     25  C   UNL A   1      37.768  20.298  25.039  1.00  0.00     0.202 C 
BRANCH  25  26
ATOM     26  C   UNL A   1      38.834  21.178  25.702  1.00  0.00     0.261 C 
BRANCH  26  27
ATOM     27  O   UNL A   1      39.610  20.488  26.692  1.00  0.00    -0.460 OA
BRANCH  27  28
ATOM     28  C   UNL A   1      40.846  20.104  26.292  1.00  0.00     0.338 C 
ATOM     29  O   UNL A   1      41.145  19.059  25.734  1.00  0.00    -0.246 OA
BRANCH  28  30
ATOM     30  C   UNL A   1      41.812  21.206  26.466  1.00  0.00     0.060 A 
ATOM     31  C   UNL A   1      42.128  21.595  27.774  1.00  0.00     0.016 A 
ATOM     32  C   UNL A   1      42.306  21.923  25.374  1.00  0.00     0.016 A 
ATOM     33  C   UNL A   1      42.899  22.734  27.996  1.00  0.00     0.010 A 
ATOM     34  C   UNL A   1      43.067  23.075  25.601  1.00  0.00     0.010 A 
ATOM     35  C   UNL A   1      43.336  23.506  26.912  1.00  0.00    -0.014 A 
BRANCH  35  36
ATOM     36  C   UNL A   1      43.944  24.837  27.160  1.00  0.00     0.031 A 
ATOM     37  C   UNL A   1      43.064  25.969  27.621  1.00  0.00     0.074 A 
ATOM     38  C   UNL A   1      45.269  25.025  27.018  1.00  0.00     0.049 A 
ATOM     39  N   UNL A   1      43.377  27.213  27.873  1.00  0.00    -0.248 NA
ATOM     40  C   UNL A   1      41.642  25.652  27.832  1.00  0.00     0.031 C 
ATOM     41  C   UNL A   1      46.229  23.995  26.623  1.00  0.00     0.029 A 
ATOM     42  N   UNL A   1      46.033  26.151  27.188  1.00  0.00    -0.354 N 
ATOM     43  C   UNL A   1      42.196  27.828  28.272  1.00  0.00     0.074 A 
ATOM     44  C   UNL A   1      41.153  26.827  28.203  1.00  0.00     0.031 C 
ATOM     45  C   UNL A   1      47.457  24.541  26.572  1.00  0.00     0.029 A 
ATOM     46  C   UNL A   1      47.364  25.962  26.901  1.00  0.00     0.049 A 
ATOM     47  H   UNL A   1      45.664  27.013  27.486  1.00  0.00     0.167 HD
ATOM     48  C   UNL A   1      42.000  29.108  28.673  1.00  0.00     0.037 A 
ATOM     49  C   UNL A   1      48.385  26.842  26.887  1.00  0.00     0.037 A 
ATOM     50  C   UNL A   1      43.038  30.103  28.733  1.00  0.00     0.049 A 
ATOM     51  C   UNL A   1      48.126  28.281  27.255  1.00  0.00     0.074 A 
ATOM     52  C   UNL A   1      42.939  31.430  29.115  1.00  0.00     0.029 A 
ATOM     53  N   UNL A   1      44.366  29.883  28.400  1.00  0.00    -0.354 N 
ATOM     54  N   UNL A   1      47.005  28.847  27.635  1.00  0.00    -0.248 NA
ATOM     55  C   UNL A   1      49.270  29.201  27.193  1.00  0.00     0.031 C 
ATOM     56  C   UNL A   1      44.199  32.022  28.977  1.00  0.00     0.029 A 
ATOM     57  C   UNL A   1      45.093  31.052  28.552  1.00  0.00     0.049 A 
ATOM     58  H   UNL A   1      44.737  29.022  28.099  1.00  0.00     0.167 HD
ATOM     59  C   UNL A   1      47.317  30.180  27.886  1.00  0.00     0.074 A 
ATOM     60  C   UNL A   1      48.732  30.334  27.621  1.00  0.00     0.031 C 
ATOM     61  C   UNL A   1      46.505  31.185  28.300  1.00  0.00     0.037 A 
BRANCH  48  62
ATOM     62  C   UNL A   1      40.605  29.507  29.065  1.00  0.00     0.058 A 
ATOM     63  C   UNL A   1      40.267  29.778  30.400  1.00  0.00     0.135 A 
ATOM     64  C   UNL A   1      39.604  29.660  28.092  1.00  0.00     0.135 A 
ATOM     65  F   UNL A   1      41.181  29.630  31.372  1.00  0.00    -0.206 F 
ATOM     66  C   UNL A   1      38.980  30.167  30.760  1.00  0.00     0.059 A 
ATOM     67  C   UNL A   1      38.317  30.070  28.426  1.00  0.00     0.059 A 
ATOM     68  F   UNL A   1      39.874  29.412  26.801  1.00  0.00    -0.206 F 
ATOM     69  C   UNL A   1      38.011  30.309  29.765  1.00  0.00     0.060 A 
BRANCH  69  70
ATOM     70  S   UNL A   1      36.349  30.825  30.246  1.00  0.00     0.124 S 
ATOM     71  O   UNL A   1      36.592  32.186  30.717  1.00  0.00    -0.237 OA
ATOM     72  O   UNL A   1      35.610  30.711  28.992  1.00  0.00    -0.237 OA
ATOM     73  O   UNL A   1      35.979  29.861  31.278  1.00  0.00    -0.744 OA
ENDBRANCH  69  70
ENDBRANCH  48  62
BRANCH  49  74
ATOM     74  C   UNL A   1      49.751  26.399  26.499  1.00  0.00     0.058 A 
ATOM     75  C   UNL A   1      50.150  26.375  25.155  1.00  0.00     0.135 A 
ATOM     76  C   UNL A   1      50.676  25.968  27.463  1.00  0.00     0.135 A 
ATOM     77  F   UNL A   1      49.297  26.766  24.195  1.00  0.00    -0.206 F 
ATOM     78  C   UNL A   1      51.408  25.919  24.775  1.00  0.00     0.059 A 
ATOM     79  C   UNL A   1      51.949  25.531  27.110  1.00  0.00     0.059 A 
ATOM     80  F   UNL A   1      50.347  25.981  28.763  1.00  0.00    -0.206 F 
ATOM     81  C   UNL A   1      52.300  25.497  25.762  1.00  0.00     0.060 A 
BRANCH  81  82
ATOM     82  S   UNL A   1      53.943  24.932  25.266  1.00  0.00     0.124 S 
ATOM     83  O   UNL A   1      54.244  25.839  24.165  1.00  0.00    -0.237 OA
ATOM     84  O   UNL A   1      54.718  25.129  26.487  1.00  0.00    -0.237 OA
ATOM     85  O   UNL A   1      53.720  23.538  24.895  1.00  0.00    -0.744 OA
ENDBRANCH  81  82
ENDBRANCH  49  74
BRANCH  61  86
ATOM     86  C   UNL A   1      47.134  32.531  28.535  1.00  0.00     0.058 A 
ATOM     87  C   UNL A   1      47.711  32.871  29.767  1.00  0.00     0.135 A 
ATOM     88  C   UNL A   1      47.204  33.472  27.495  1.00  0.00     0.135 A 
ATOM     89  F   UNL A   1      47.665  32.010  30.796  1.00  0.00    -0.206 F 
ATOM     90  C   UNL A   1      48.317  34.108  29.968  1.00  0.00     0.059 A 
ATOM     91  C   UNL A   1      47.827  34.704  27.666  1.00  0.00     0.059 A 
ATOM     92  F   UNL A   1      46.676  33.192  26.293  1.00  0.00    -0.206 F 
ATOM     93  C   UNL A   1      48.370  35.018  28.911  1.00  0.00     0.060 A 
BRANCH  93  94
ATOM     94  S   UNL A   1      49.189  36.606  29.172  1.00  0.00     0.124 S 
ATOM     95  O   UNL A   1      48.594  37.040  30.430  1.00  0.00    -0.237 OA
ATOM     96  O   UNL A   1      50.598  36.227  29.235  1.00  0.00    -0.237 OA
ATOM     97  O   UNL A   1      48.808  37.382  27.995  1.00  0.00    -0.744 OA
ENDBRANCH  93  94
ENDBRANCH  61  86
ENDBRANCH  35  36
ENDBRANCH  28  30
ENDBRANCH  27  28
ENDBRANCH  26  27
ENDBRANCH  25  26
ENDBRANCH   1  25
TORSDOF 20
ENDMDL
MODEL 3
REMARK VINA RESULT:     -10.5      6.660     11.333
REMARK SMILES CN(c1ccccc1C(=O)OCCOCCOC(=O)c1ccc(-c2c3nc(c(-c4c(F)cc(S(=O)(=O)[O-])cc4F)c4ccc([nH]4)c(-c4c(F)cc(S(=O)(=O)[O-])cc4F)c4nc(c(-c5c(F)cc(S(=O)(=O)[O-])cc5F)c5ccc2[nH]5)C=C4)C=C3)cc1)S(=O)(=O)c1ccc(I)cc1
REMARK SMILES IDX 14 1 13 2 12 3 11 4 9 5 10 6 8 7 3 8 4 9 5 10 7 11 6 12 2 13
REMARK SMILES IDX 1 14 86 15 87 16 88 17 89 18 90 19 95 20 91 21 94 22 92 23
REMARK SMILES IDX 93 24 15 25 16 26 17 27 18 28 19 29 20 30 21 31 85 32 22 33
REMARK SMILES IDX 84 34 23 35 24 36 25 37 78 38 26 39 83 40 77 41 79 42 27 43
REMARK SMILES IDX 82 44 76 45 75 46 28 48 62 49 41 50 61 51 42 52 45 53 60 54
REMARK SMILES IDX 80 55 43 56 44 57 59 59 81 60 46 61 29 62 30 63 39 64 31 65
REMARK SMILES IDX 32 66 38 67 40 68 33 69 34 70 35 71 36 72 37 73 63 74 64 75
REMARK SMILES IDX 73 76 65 77 66 78 72 79 74 80 67 81 68 82 69 83 70 84 71 85
REMARK SMILES IDX 47 86 48 87 57 88 49 89 50 90 56 91 58 92 51 93 52 94 53 95
REMARK SMILES IDX 54 96 55 97
REMARK H PARENT 79 47 45 58
REMARK Flexibility Score: inf
ROOT
ATOM      1  O   UNL A   1      39.052  21.452  25.872  1.00  0.00    -0.374 OA
ENDROOT
BRANCH   1   2
ATOM      2  C   UNL A   1      37.887  22.126  25.393  1.00  0.00     0.202 C 
BRANCH   2   3
ATOM      3  C   UNL A   1      36.602  21.299  25.349  1.00  0.00     0.261 C 
BRANCH   3   4
ATOM      4  O   UNL A   1      35.452  22.109  25.653  1.00  0.00    -0.460 OA
BRANCH   4   5
ATOM      5  C   UNL A   1      34.286  21.590  25.222  1.00  0.00     0.340 C 
ATOM      6  O   UNL A   1      34.108  20.472  24.758  1.00  0.00    -0.246 OA
BRANCH   5   7
ATOM      7  C   UNL A   1      33.142  22.457  25.543  1.00  0.00     0.084 A 
ATOM      8  C   UNL A   1      32.206  22.932  24.614  1.00  0.00     0.066 A 
ATOM      9  C   UNL A   1      30.959  23.333  25.122  1.00  0.00     0.028 A 
ATOM     10  C   UNL A   1      30.689  23.405  26.490  1.00  0.00     0.002 A 
ATOM     11  C   UNL A   1      32.868  22.527  26.930  1.00  0.00     0.018 A 
ATOM     12  C   UNL A   1      31.661  23.033  27.402  1.00  0.00     0.001 A 
BRANCH   8  13
ATOM     13  N   UNL A   1      32.378  23.124  23.181  1.00  0.00    -0.269 N 
ATOM     14  C   UNL A   1      32.563  21.917  22.332  1.00  0.00     0.164 C 
BRANCH  13  15
ATOM     15  S   UNL A   1      33.484  24.378  22.693  1.00  0.00     0.264 S 
ATOM     16  O   UNL A   1      34.820  23.904  22.952  1.00  0.00    -0.201 OA
ATOM     17  O   UNL A   1      33.093  24.810  21.359  1.00  0.00    -0.201 OA
BRANCH  15  18
ATOM     18  C   UNL A   1      33.205  25.785  23.754  1.00  0.00     0.088 A 
ATOM     19  C   UNL A   1      34.040  25.978  24.862  1.00  0.00     0.023 A 
ATOM     20  C   UNL A   1      32.181  26.695  23.477  1.00  0.00     0.023 A 
ATOM     21  C   UNL A   1      33.798  27.038  25.739  1.00  0.00     0.016 A 
ATOM     22  C   UNL A   1      31.913  27.728  24.381  1.00  0.00     0.016 A 
ATOM     23  C   UNL A   1      32.716  27.888  25.513  1.00  0.00     0.013 A 
ATOM     24  I   UNL A   1      32.289  29.394  26.881  1.00  0.00    -0.044 I 
ENDBRANCH  15  18
ENDBRANCH  13  15
ENDBRANCH   8  13
ENDBRANCH   5   7
ENDBRANCH   4   5
ENDBRANCH   3   4
ENDBRANCH   2   3
ENDBRANCH   1   2
BRANCH   1  25
ATOM     25  C   UNL A   1      39.836  22.111  26.867  1.00  0.00     0.202 C 
BRANCH  25  26
ATOM     26  C   UNL A   1      41.169  22.727  26.426  1.00  0.00     0.261 C 
BRANCH  26  27
ATOM     27  O   UNL A   1      41.100  24.145  26.211  1.00  0.00    -0.460 OA
BRANCH  27  28
ATOM     28  C   UNL A   1      42.156  24.851  26.681  1.00  0.00     0.338 C 
ATOM     29  O   UNL A   1      43.319  24.759  26.321  1.00  0.00    -0.246 OA
BRANCH  28  30
ATOM     30  C   UNL A   1      41.701  25.909  27.605  1.00  0.00     0.060 A 
ATOM     31  C   UNL A   1      42.523  27.033  27.764  1.00  0.00     0.016 A 
ATOM     32  C   UNL A   1      40.557  25.751  28.389  1.00  0.00     0.016 A 
ATOM     33  C   UNL A   1      42.229  27.978  28.745  1.00  0.00     0.010 A 
ATOM     34  C   UNL A   1      40.273  26.694  29.383  1.00  0.00     0.010 A 
ATOM     35  C   UNL A   1      41.127  27.792  29.590  1.00  0.00    -0.014 A 
BRANCH  35  36
ATOM     36  C   UNL A   1      40.960  28.666  30.777  1.00  0.00     0.031 A 
ATOM     37  C   UNL A   1      39.902  29.737  30.753  1.00  0.00     0.074 A 
ATOM     38  C   UNL A   1      41.712  28.482  31.877  1.00  0.00     0.049 A 
ATOM     39  N   UNL A   1      39.600  30.625  31.664  1.00  0.00    -0.248 NA
ATOM     40  C   UNL A   1      39.069  29.811  29.541  1.00  0.00     0.031 C 
ATOM     41  C   UNL A   1      42.736  27.449  32.037  1.00  0.00     0.029 A 
ATOM     42  N   UNL A   1      41.731  29.161  33.069  1.00  0.00    -0.354 N 
ATOM     43  C   UNL A   1      38.544  31.362  31.141  1.00  0.00     0.074 A 
ATOM     44  C   UNL A   1      38.276  30.836  29.819  1.00  0.00     0.031 C 
ATOM     45  C   UNL A   1      43.290  27.570  33.256  1.00  0.00     0.029 A 
ATOM     46  C   UNL A   1      42.683  28.705  33.949  1.00  0.00     0.049 A 
ATOM     47  H   UNL A   1      41.121  29.906  33.274  1.00  0.00     0.167 HD
ATOM     48  C   UNL A   1      37.853  32.377  31.714  1.00  0.00     0.037 A 
ATOM     49  C   UNL A   1      43.034  29.165  35.166  1.00  0.00     0.037 A 
ATOM     50  C   UNL A   1      38.127  32.902  33.025  1.00  0.00     0.049 A 
ATOM     51  C   UNL A   1      42.306  30.350  35.748  1.00  0.00     0.074 A 
ATOM     52  C   UNL A   1      37.491  33.936  33.690  1.00  0.00     0.029 A 
ATOM     53  N   UNL A   1      39.123  32.438  33.871  1.00  0.00    -0.354 N 
ATOM     54  N   UNL A   1      41.307  31.034  35.243  1.00  0.00    -0.248 NA
ATOM     55  C   UNL A   1      42.753  30.826  37.065  1.00  0.00     0.031 C 
ATOM     56  C   UNL A   1      38.125  34.121  34.923  1.00  0.00     0.029 A 
ATOM     57  C   UNL A   1      39.129  33.173  35.045  1.00  0.00     0.049 A 
ATOM     58  H   UNL A   1      39.736  31.694  33.667  1.00  0.00     0.167 HD
ATOM     59  C   UNL A   1      40.987  31.999  36.193  1.00  0.00     0.074 A 
ATOM     60  C   UNL A   1      41.894  31.807  37.305  1.00  0.00     0.031 C 
ATOM     61  C   UNL A   1      40.028  32.958  36.150  1.00  0.00     0.037 A 
BRANCH  48  62
ATOM     62  C   UNL A   1      36.738  32.994  30.917  1.00  0.00     0.058 A 
ATOM     63  C   UNL A   1      35.391  32.750  31.226  1.00  0.00     0.135 A 
ATOM     64  C   UNL A   1      37.017  33.872  29.857  1.00  0.00     0.135 A 
ATOM     65  F   UNL A   1      35.068  31.905  32.219  1.00  0.00    -0.206 F 
ATOM     66  C   UNL A   1      34.360  33.338  30.500  1.00  0.00     0.059 A 
ATOM     67  C   UNL A   1      36.002  34.490  29.132  1.00  0.00     0.059 A 
ATOM     68  F   UNL A   1      38.288  34.140  29.518  1.00  0.00    -0.206 F 
ATOM     69  C   UNL A   1      34.675  34.206  29.454  1.00  0.00     0.060 A 
BRANCH  69  70
ATOM     70  S   UNL A   1      33.326  34.970  28.529  1.00  0.00     0.124 S 
ATOM     71  O   UNL A   1      34.054  35.891  27.660  1.00  0.00    -0.237 OA
ATOM     72  O   UNL A   1      32.713  33.824  27.864  1.00  0.00    -0.237 OA
ATOM     73  O   UNL A   1      32.514  35.597  29.566  1.00  0.00    -0.744 OA
ENDBRANCH  69  70
ENDBRANCH  48  62
BRANCH  49  74
ATOM     74  C   UNL A   1      44.140  28.516  35.921  1.00  0.00     0.058 A 
ATOM     75  C   UNL A   1      45.472  28.914  35.740  1.00  0.00     0.135 A 
ATOM     76  C   UNL A   1      43.887  27.469  36.822  1.00  0.00     0.135 A 
ATOM     77  F   UNL A   1      45.765  29.903  34.881  1.00  0.00    -0.206 F 
ATOM     78  C   UNL A   1      46.519  28.284  36.405  1.00  0.00     0.059 A 
ATOM     79  C   UNL A   1      44.915  26.840  37.518  1.00  0.00     0.059 A 
ATOM     80  F   UNL A   1      42.629  27.057  37.038  1.00  0.00    -0.206 F 
ATOM     81  C   UNL A   1      46.229  27.246  37.292  1.00  0.00     0.060 A 
BRANCH  81  82
ATOM     82  S   UNL A   1      47.589  26.450  38.174  1.00  0.00     0.124 S 
ATOM     83  O   UNL A   1      47.312  25.040  37.929  1.00  0.00    -0.237 OA
ATOM     84  O   UNL A   1      48.759  26.999  37.496  1.00  0.00    -0.237 OA
ATOM     85  O   UNL A   1      47.405  26.902  39.550  1.00  0.00    -0.744 OA
ENDBRANCH  81  82
ENDBRANCH  49  74
BRANCH  61  86
ATOM     86  C   UNL A   1      39.879  33.844  37.356  1.00  0.00     0.058 A 
ATOM     87  C   UNL A   1      40.549  35.071  37.458  1.00  0.00     0.135 A 
ATOM     88  C   UNL A   1      39.013  33.480  38.400  1.00  0.00     0.135 A 
ATOM     89  F   UNL A   1      41.394  35.462  36.491  1.00  0.00    -0.206 F 
ATOM     90  C   UNL A   1      40.383  35.899  38.564  1.00  0.00     0.059 A 
ATOM     91  C   UNL A   1      38.812  34.304  39.503  1.00  0.00     0.059 A 
ATOM     92  F   UNL A   1      38.339  32.320  38.346  1.00  0.00    -0.206 F 
ATOM     93  C   UNL A   1      39.512  35.507  39.582  1.00  0.00     0.060 A 
BRANCH  93  94
ATOM     94  S   UNL A   1      39.278  36.605  40.996  1.00  0.00     0.124 S 
ATOM     95  O   UNL A   1      40.644  36.756  41.481  1.00  0.00    -0.237 OA
ATOM     96  O   UNL A   1      38.689  37.791  40.379  1.00  0.00    -0.237 OA
ATOM     97  O   UNL A   1      38.381  35.850  41.867  1.00  0.00    -0.744 OA
ENDBRANCH  93  94
ENDBRANCH  61  86
ENDBRANCH  35  36
ENDBRANCH  28  30
ENDBRANCH  27  28
ENDBRANCH  26  27
ENDBRANCH  25  26
ENDBRANCH   1  25
TORSDOF 20
ENDMDL
