MODEL 1
REMARK VINA RESULT:     -11.4      0.000      0.000
REMARK SMILES CCc1nc(C)c(C)c2nn(CC(=O)OCCOCCOC(=O)c3ccc(-c4c5nc(c(-c6c(F)cc(S(=O)(=O)[O-])cc6F)c6ccc([nH]6)c(-c6c(F)cc(S(=O)(=O)[O-])cc6F)c6nc(c(-c7c(F)cc(S(=O)(=O)[O-])cc7F)c7ccc4[nH]7)C=C6)C=C5)cc3)c(=O)n12
REMARK SMILES IDX 19 1 18 2 17 3 16 4 15 5 13 6 14 7 12 8 11 9 3 10 4 11 92 12
REMARK SMILES IDX 5 13 9 14 90 15 6 16 7 17 10 18 91 19 8 20 2 21 1 22 20 23
REMARK SMILES IDX 21 24 22 25 23 26 24 27 25 28 89 29 26 30 88 31 27 32 28 33
REMARK SMILES IDX 29 34 82 35 30 36 87 37 81 38 83 39 31 40 86 41 80 42 79 43
REMARK SMILES IDX 32 45 66 46 45 47 65 48 46 49 49 50 64 51 84 52 47 53 48 54
REMARK SMILES IDX 63 56 85 57 50 58 33 59 34 60 43 61 35 62 36 63 42 64 44 65
REMARK SMILES IDX 37 66 38 67 39 68 40 69 41 70 67 71 68 72 77 73 69 74 70 75
REMARK SMILES IDX 76 76 78 77 71 78 72 79 73 80 74 81 75 82 51 83 52 84 61 85
REMARK SMILES IDX 53 86 54 87 60 88 62 89 55 90 56 91 57 92 58 93 59 94
REMARK H PARENT 83 44 49 55
REMARK Flexibility Score: inf
ROOT
ATOM      1  C   UNL A   1      42.426  19.092  26.207  1.00  0.00     0.202 C 
ENDROOT
BRANCH   1   2
ATOM      2  O   UNL A   1      41.469  20.008  25.691  1.00  0.00    -0.374 OA
BRANCH   2   3
ATOM      3  C   UNL A   1      40.423  20.457  26.549  1.00  0.00     0.202 C 
BRANCH   3   4
ATOM      4  C   UNL A   1      39.915  21.886  26.337  1.00  0.00     0.261 C 
BRANCH   4   5
ATOM      5  O   UNL A   1      38.675  21.930  25.600  1.00  0.00    -0.462 OA
BRANCH   5   6
ATOM      6  C   UNL A   1      37.905  23.030  25.819  1.00  0.00     0.328 C 
ATOM      7  O   UNL A   1      38.053  23.803  26.763  1.00  0.00    -0.250 OA
BRANCH   6   8
ATOM      8  C   UNL A   1      36.918  23.340  24.703  1.00  0.00     0.272 C 
BRANCH   8   9
ATOM      9  N   UNL A   1      35.710  22.555  24.579  1.00  0.00    -0.201 N 
ATOM     10  C   UNL A   1      32.319  21.484  25.077  1.00  0.00     0.119 A 
ATOM     11  N   UNL A   1      31.871  20.266  25.013  1.00  0.00    -0.239 NA
ATOM     12  N   UNL A   1      33.658  21.773  24.908  1.00  0.00    -0.230 N 
ATOM     13  C   UNL A   1      32.767  19.230  24.859  1.00  0.00     0.046 A 
ATOM     14  C   UNL A   1      34.551  20.796  24.637  1.00  0.00     0.167 A 
ATOM     15  C   UNL A   1      34.410  22.944  24.961  1.00  0.00     0.352 A 
ATOM     16  C   UNL A   1      32.160  17.855  24.982  1.00  0.00     0.067 C 
ATOM     17  C   UNL A   1      34.091  19.401  24.679  1.00  0.00     0.016 A 
ATOM     18  N   UNL A   1      35.768  21.195  24.414  1.00  0.00    -0.149 NA
ATOM     19  O   UNL A   1      34.084  24.041  25.383  1.00  0.00    -0.245 OA
ATOM     20  C   UNL A   1      35.152  18.350  24.627  1.00  0.00     0.050 C 
BRANCH  10  21
ATOM     21  C   UNL A   1      31.327  22.599  25.360  1.00  0.00     0.072 C 
ATOM     22  C   UNL A   1      31.186  22.945  26.829  1.00  0.00     0.012 C 
ENDBRANCH  10  21
ENDBRANCH   8   9
ENDBRANCH   6   8
ENDBRANCH   5   6
ENDBRANCH   4   5
ENDBRANCH   3   4
ENDBRANCH   2   3
ENDBRANCH   1   2
BRANCH   1  23
ATOM     23  C   UNL A   1      43.691  18.830  25.393  1.00  0.00     0.261 C 
BRANCH  23  24
ATOM     24  O   UNL A   1      43.983  19.801  24.384  1.00  0.00    -0.460 OA
BRANCH  24  25
ATOM     25  C   UNL A   1      45.159  20.450  24.598  1.00  0.00     0.338 C 
ATOM     26  O   UNL A   1      46.258  19.934  24.663  1.00  0.00    -0.246 OA
BRANCH  25  27
ATOM     27  C   UNL A   1      44.923  21.869  24.934  1.00  0.00     0.060 A 
ATOM     28  C   UNL A   1      45.671  22.378  25.995  1.00  0.00     0.016 A 
ATOM     29  C   UNL A   1      43.867  22.608  24.383  1.00  0.00     0.016 A 
ATOM     30  C   UNL A   1      45.254  23.543  26.610  1.00  0.00     0.010 A 
ATOM     31  C   UNL A   1      43.441  23.775  25.008  1.00  0.00     0.010 A 
ATOM     32  C   UNL A   1      44.099  24.202  26.157  1.00  0.00    -0.014 A 
BRANCH  32  33
ATOM     33  C   UNL A   1      43.766  25.461  26.812  1.00  0.00     0.031 A 
ATOM     34  C   UNL A   1      44.773  26.509  26.525  1.00  0.00     0.074 A 
ATOM     35  C   UNL A   1      42.692  25.709  27.586  1.00  0.00     0.049 A 
ATOM     36  N   UNL A   1      45.696  26.920  27.328  1.00  0.00    -0.248 NA
ATOM     37  C   UNL A   1      44.916  26.990  25.144  1.00  0.00     0.031 C 
ATOM     38  C   UNL A   1      41.511  24.879  27.812  1.00  0.00     0.029 A 
ATOM     39  N   UNL A   1      42.414  26.833  28.313  1.00  0.00    -0.354 N 
ATOM     40  C   UNL A   1      46.387  27.901  26.632  1.00  0.00     0.074 A 
ATOM     41  C   UNL A   1      46.001  27.760  25.252  1.00  0.00     0.031 C 
ATOM     42  C   UNL A   1      40.558  25.619  28.430  1.00  0.00     0.029 A 
ATOM     43  C   UNL A   1      41.099  26.929  28.757  1.00  0.00     0.049 A 
ATOM     44  H   UNL A   1      43.090  27.522  28.506  1.00  0.00     0.167 HD
ATOM     45  C   UNL A   1      47.003  28.912  27.302  1.00  0.00     0.037 A 
ATOM     46  C   UNL A   1      40.498  28.018  29.314  1.00  0.00     0.037 A 
ATOM     47  C   UNL A   1      47.208  28.568  28.690  1.00  0.00     0.049 A 
ATOM     48  C   UNL A   1      41.582  28.850  29.905  1.00  0.00     0.074 A 
ATOM     49  C   UNL A   1      47.828  27.522  29.348  1.00  0.00     0.029 A 
ATOM     50  N   UNL A   1      46.401  29.170  29.628  1.00  0.00    -0.354 N 
ATOM     51  N   UNL A   1      42.292  28.481  30.937  1.00  0.00    -0.248 NA
ATOM     52  C   UNL A   1      42.190  29.868  29.060  1.00  0.00     0.031 C 
ATOM     53  C   UNL A   1      46.995  27.247  30.470  1.00  0.00     0.029 A 
ATOM     54  C   UNL A   1      45.964  28.186  30.474  1.00  0.00     0.049 A 
ATOM     55  H   UNL A   1      46.179  30.127  29.679  1.00  0.00     0.167 HD
ATOM     56  C   UNL A   1      43.587  28.868  30.625  1.00  0.00     0.074 A 
ATOM     57  C   UNL A   1      43.451  29.781  29.491  1.00  0.00     0.031 C 
ATOM     58  C   UNL A   1      44.671  28.202  31.119  1.00  0.00     0.037 A 
BRANCH  45  59
ATOM     59  C   UNL A   1      47.011  30.344  26.822  1.00  0.00     0.058 A 
ATOM     60  C   UNL A   1      48.207  31.083  26.927  1.00  0.00     0.135 A 
ATOM     61  C   UNL A   1      45.844  31.103  26.579  1.00  0.00     0.135 A 
ATOM     62  F   UNL A   1      49.378  30.464  27.150  1.00  0.00    -0.206 F 
ATOM     63  C   UNL A   1      48.225  32.477  26.909  1.00  0.00     0.059 A 
ATOM     64  C   UNL A   1      45.848  32.488  26.503  1.00  0.00     0.059 A 
ATOM     65  F   UNL A   1      44.626  30.555  26.501  1.00  0.00    -0.206 F 
ATOM     66  C   UNL A   1      47.033  33.169  26.718  1.00  0.00     0.060 A 
BRANCH  66  67
ATOM     67  S   UNL A   1      47.034  34.965  26.805  1.00  0.00     0.124 S 
ATOM     68  O   UNL A   1      46.395  35.315  25.542  1.00  0.00    -0.237 OA
ATOM     69  O   UNL A   1      46.248  35.204  28.010  1.00  0.00    -0.237 OA
ATOM     70  O   UNL A   1      48.453  35.294  26.911  1.00  0.00    -0.744 OA
ENDBRANCH  66  67
ENDBRANCH  45  59
BRANCH  46  71
ATOM     71  C   UNL A   1      39.129  28.560  29.039  1.00  0.00     0.058 A 
ATOM     72  C   UNL A   1      38.174  28.706  30.069  1.00  0.00     0.135 A 
ATOM     73  C   UNL A   1      38.816  29.212  27.830  1.00  0.00     0.135 A 
ATOM     74  F   UNL A   1      38.376  28.132  31.265  1.00  0.00    -0.206 F 
ATOM     75  C   UNL A   1      37.028  29.504  29.930  1.00  0.00     0.059 A 
ATOM     76  C   UNL A   1      37.677  30.001  27.664  1.00  0.00     0.059 A 
ATOM     77  F   UNL A   1      39.655  29.181  26.785  1.00  0.00    -0.206 F 
ATOM     78  C   UNL A   1      36.802  30.171  28.728  1.00  0.00     0.060 A 
BRANCH  78  79
ATOM     79  S   UNL A   1      35.435  31.351  28.591  1.00  0.00     0.124 S 
ATOM     80  O   UNL A   1      36.063  32.465  27.888  1.00  0.00    -0.237 OA
ATOM     81  O   UNL A   1      34.446  30.594  27.833  1.00  0.00    -0.237 OA
ATOM     82  O   UNL A   1      35.077  31.617  29.983  1.00  0.00    -0.744 OA
ENDBRANCH  78  79
ENDBRANCH  46  71
BRANCH  58  83
ATOM     83  C   UNL A   1      44.495  27.236  32.260  1.00  0.00     0.058 A 
ATOM     84  C   UNL A   1      44.391  27.605  33.612  1.00  0.00     0.135 A 
ATOM     85  C   UNL A   1      44.194  25.903  31.932  1.00  0.00     0.135 A 
ATOM     86  F   UNL A   1      44.576  28.877  33.998  1.00  0.00    -0.206 F 
ATOM     87  C   UNL A   1      44.007  26.686  34.593  1.00  0.00     0.059 A 
ATOM     88  C   UNL A   1      43.780  24.982  32.887  1.00  0.00     0.059 A 
ATOM     89  F   UNL A   1      44.227  25.504  30.650  1.00  0.00    -0.206 F 
ATOM     90  C   UNL A   1      43.688  25.381  34.217  1.00  0.00     0.060 A 
BRANCH  90  91
ATOM     91  S   UNL A   1      43.069  24.229  35.464  1.00  0.00     0.124 S 
ATOM     92  O   UNL A   1      41.647  24.556  35.507  1.00  0.00    -0.237 OA
ATOM     93  O   UNL A   1      43.404  22.931  34.887  1.00  0.00    -0.237 OA
ATOM     94  O   UNL A   1      43.825  24.581  36.663  1.00  0.00    -0.744 OA
ENDBRANCH  90  91
ENDBRANCH  58  83
ENDBRANCH  32  33
ENDBRANCH  25  27
ENDBRANCH  24  25
ENDBRANCH  23  24
ENDBRANCH   1  23
TORSDOF 19
ENDMDL
MODEL 2
REMARK VINA RESULT:     -11.4      1.213      2.080
REMARK SMILES CCc1nc(C)c(C)c2nn(CC(=O)OCCOCCOC(=O)c3ccc(-c4c5nc(c(-c6c(F)cc(S(=O)(=O)[O-])cc6F)c6ccc([nH]6)c(-c6c(F)cc(S(=O)(=O)[O-])cc6F)c6nc(c(-c7c(F)cc(S(=O)(=O)[O-])cc7F)c7ccc4[nH]7)C=C6)C=C5)cc3)c(=O)n12
REMARK SMILES IDX 19 1 18 2 17 3 16 4 15 5 13 6 14 7 12 8 11 9 3 10 4 11 92 12
REMARK SMILES IDX 5 13 9 14 90 15 6 16 7 17 10 18 91 19 8 20 2 21 1 22 20 23
REMARK SMILES IDX 21 24 22 25 23 26 24 27 25 28 89 29 26 30 88 31 27 32 28 33
REMARK SMILES IDX 29 34 82 35 30 36 87 37 81 38 83 39 31 40 86 41 80 42 79 43
REMARK SMILES IDX 32 45 66 46 45 47 65 48 46 49 49 50 64 51 84 52 47 53 48 54
REMARK SMILES IDX 63 56 85 57 50 58 33 59 34 60 43 61 35 62 36 63 42 64 44 65
REMARK SMILES IDX 37 66 38 67 39 68 40 69 41 70 67 71 68 72 77 73 69 74 70 75
REMARK SMILES IDX 76 76 78 77 71 78 72 79 73 80 74 81 75 82 51 83 52 84 61 85
REMARK SMILES IDX 53 86 54 87 60 88 62 89 55 90 56 91 57 92 58 93 59 94
REMARK H PARENT 83 44 49 55
REMARK Flexibility Score: inf
ROOT
ATOM      1  C   UNL A   1      42.364  19.268  26.621  1.00  0.00     0.202 C 
ENDROOT
BRANCH   1   2
ATOM      2  O   UNL A   1      41.299  20.143  26.274  1.00  0.00    -0.374 OA
BRANCH   2   3
ATOM      3  C   UNL A   1      41.149  21.359  27.002  1.00  0.00     0.202 C 
BRANCH   3   4
ATOM      4  C   UNL A   1      39.884  22.179  26.732  1.00  0.00     0.261 C 
BRANCH   4   5
ATOM      5  O   UNL A   1      38.949  21.489  25.876  1.00  0.00    -0.462 OA
BRANCH   5   6
ATOM      6  C   UNL A   1      37.837  22.196  25.537  1.00  0.00     0.328 C 
ATOM      7  O   UNL A   1      37.703  23.405  25.716  1.00  0.00    -0.250 OA
BRANCH   6   8
ATOM      8  C   UNL A   1      36.800  21.403  24.755  1.00  0.00     0.272 C 
BRANCH   8   9
ATOM      9  N   UNL A   1      35.469  21.943  24.581  1.00  0.00    -0.201 N 
ATOM     10  C   UNL A   1      32.814  24.053  23.403  1.00  0.00     0.119 A 
ATOM     11  N   UNL A   1      31.725  24.361  24.041  1.00  0.00    -0.239 NA
ATOM     12  N   UNL A   1      33.789  23.262  23.976  1.00  0.00    -0.230 N 
ATOM     13  C   UNL A   1      31.579  23.958  25.351  1.00  0.00     0.046 A 
ATOM     14  C   UNL A   1      33.629  22.750  25.216  1.00  0.00     0.167 A 
ATOM     15  C   UNL A   1      35.041  22.814  23.560  1.00  0.00     0.352 A 
ATOM     16  C   UNL A   1      30.366  24.523  26.047  1.00  0.00     0.067 C 
ATOM     17  C   UNL A   1      32.464  23.180  26.002  1.00  0.00     0.016 A 
ATOM     18  N   UNL A   1      34.572  21.952  25.619  1.00  0.00    -0.149 NA
ATOM     19  O   UNL A   1      35.707  23.189  22.609  1.00  0.00    -0.245 OA
ATOM     20  C   UNL A   1      32.458  22.795  27.446  1.00  0.00     0.050 C 
BRANCH  10  21
ATOM     21  C   UNL A   1      33.004  24.603  22.000  1.00  0.00     0.072 C 
ATOM     22  C   UNL A   1      33.280  26.092  21.949  1.00  0.00     0.012 C 
ENDBRANCH  10  21
ENDBRANCH   8   9
ENDBRANCH   6   8
ENDBRANCH   5   6
ENDBRANCH   4   5
ENDBRANCH   3   4
ENDBRANCH   2   3
ENDBRANCH   1   2
BRANCH   1  23
ATOM     23  C   UNL A   1      43.364  18.876  25.536  1.00  0.00     0.261 C 
BRANCH  23  24
ATOM     24  O   UNL A   1      43.750  19.930  24.648  1.00  0.00    -0.460 OA
BRANCH  24  25
ATOM     25  C   UNL A   1      44.912  20.534  25.017  1.00  0.00     0.338 C 
ATOM     26  O   UNL A   1      45.969  19.975  25.236  1.00  0.00    -0.246 OA
BRANCH  25  27
ATOM     27  C   UNL A   1      44.690  21.965  25.308  1.00  0.00     0.060 A 
ATOM     28  C   UNL A   1      45.357  22.472  26.423  1.00  0.00     0.016 A 
ATOM     29  C   UNL A   1      43.710  22.724  24.655  1.00  0.00     0.016 A 
ATOM     30  C   UNL A   1      44.923  23.659  26.980  1.00  0.00     0.010 A 
ATOM     31  C   UNL A   1      43.266  23.914  25.221  1.00  0.00     0.010 A 
ATOM     32  C   UNL A   1      43.834  24.343  26.417  1.00  0.00    -0.014 A 
BRANCH  32  33
ATOM     33  C   UNL A   1      43.482  25.623  27.020  1.00  0.00     0.031 A 
ATOM     34  C   UNL A   1      44.491  26.665  26.715  1.00  0.00     0.074 A 
ATOM     35  C   UNL A   1      42.393  25.894  27.763  1.00  0.00     0.049 A 
ATOM     36  N   UNL A   1      45.396  27.109  27.520  1.00  0.00    -0.248 NA
ATOM     37  C   UNL A   1      44.659  27.097  25.321  1.00  0.00     0.031 C 
ATOM     38  C   UNL A   1      41.210  25.067  27.995  1.00  0.00     0.029 A 
ATOM     39  N   UNL A   1      42.095  27.042  28.443  1.00  0.00    -0.354 N 
ATOM     40  C   UNL A   1      46.096  28.068  26.804  1.00  0.00     0.074 A 
ATOM     41  C   UNL A   1      45.739  27.875  25.422  1.00  0.00     0.031 C 
ATOM     42  C   UNL A   1      40.242  25.824  28.568  1.00  0.00     0.029 A 
ATOM     43  C   UNL A   1      40.771  27.148  28.858  1.00  0.00     0.049 A 
ATOM     44  H   UNL A   1      42.765  27.740  28.625  1.00  0.00     0.167 HD
ATOM     45  C   UNL A   1      46.696  29.105  27.448  1.00  0.00     0.037 A 
ATOM     46  C   UNL A   1      40.155  28.252  29.364  1.00  0.00     0.037 A 
ATOM     47  C   UNL A   1      46.875  28.812  28.852  1.00  0.00     0.049 A 
ATOM     48  C   UNL A   1      41.224  29.111  29.945  1.00  0.00     0.074 A 
ATOM     49  C   UNL A   1      47.486  27.792  29.559  1.00  0.00     0.029 A 
ATOM     50  N   UNL A   1      46.047  29.442  29.751  1.00  0.00    -0.354 N 
ATOM     51  N   UNL A   1      41.915  28.782  31.004  1.00  0.00    -0.248 NA
ATOM     52  C   UNL A   1      41.845  30.101  29.077  1.00  0.00     0.031 C 
ATOM     53  C   UNL A   1      46.631  27.554  30.674  1.00  0.00     0.029 A 
ATOM     54  C   UNL A   1      45.596  28.488  30.624  1.00  0.00     0.049 A 
ATOM     55  H   UNL A   1      45.820  30.400  29.764  1.00  0.00     0.167 HD
ATOM     56  C   UNL A   1      43.215  29.163  30.704  1.00  0.00     0.074 A 
ATOM     57  C   UNL A   1      43.097  30.035  29.536  1.00  0.00     0.031 C 
ATOM     58  C   UNL A   1      44.291  28.520  31.242  1.00  0.00     0.037 A 
BRANCH  45  59
ATOM     59  C   UNL A   1      46.707  30.519  26.918  1.00  0.00     0.058 A 
ATOM     60  C   UNL A   1      47.905  31.258  26.997  1.00  0.00     0.135 A 
ATOM     61  C   UNL A   1      45.542  31.271  26.648  1.00  0.00     0.135 A 
ATOM     62  F   UNL A   1      49.074  30.644  27.242  1.00  0.00    -0.206 F 
ATOM     63  C   UNL A   1      47.927  32.650  26.930  1.00  0.00     0.059 A 
ATOM     64  C   UNL A   1      45.550  32.653  26.523  1.00  0.00     0.059 A 
ATOM     65  F   UNL A   1      44.323  30.724  26.589  1.00  0.00    -0.206 F 
ATOM     66  C   UNL A   1      46.737  33.338  26.713  1.00  0.00     0.060 A 
BRANCH  66  67
ATOM     67  S   UNL A   1      46.742  35.136  26.736  1.00  0.00     0.124 S 
ATOM     68  O   UNL A   1      47.510  35.406  27.946  1.00  0.00    -0.237 OA
ATOM     69  O   UNL A   1      47.404  35.447  25.474  1.00  0.00    -0.237 OA
ATOM     70  O   UNL A   1      45.323  35.474  26.795  1.00  0.00    -0.744 OA
ENDBRANCH  66  67
ENDBRANCH  45  59
BRANCH  46  71
ATOM     71  C   UNL A   1      38.790  28.778  29.043  1.00  0.00     0.058 A 
ATOM     72  C   UNL A   1      37.805  28.930  30.044  1.00  0.00     0.135 A 
ATOM     73  C   UNL A   1      38.506  29.410  27.816  1.00  0.00     0.135 A 
ATOM     74  F   UNL A   1      37.979  28.375  31.253  1.00  0.00    -0.206 F 
ATOM     75  C   UNL A   1      36.656  29.716  29.861  1.00  0.00     0.059 A 
ATOM     76  C   UNL A   1      37.365  30.186  27.607  1.00  0.00     0.059 A 
ATOM     77  F   UNL A   1      39.374  29.372  26.796  1.00  0.00    -0.206 F 
ATOM     78  C   UNL A   1      36.459  30.363  28.643  1.00  0.00     0.060 A 
BRANCH  78  79
ATOM     79  S   UNL A   1      35.086  31.529  28.452  1.00  0.00     0.124 S 
ATOM     80  O   UNL A   1      34.049  30.686  27.865  1.00  0.00    -0.237 OA
ATOM     81  O   UNL A   1      34.854  31.963  29.824  1.00  0.00    -0.237 OA
ATOM     82  O   UNL A   1      35.632  32.552  27.563  1.00  0.00    -0.744 OA
ENDBRANCH  78  79
ENDBRANCH  46  71
BRANCH  58  83
ATOM     83  C   UNL A   1      44.097  27.595  32.414  1.00  0.00     0.058 A 
ATOM     84  C   UNL A   1      43.928  26.204  32.315  1.00  0.00     0.135 A 
ATOM     85  C   UNL A   1      44.321  28.127  33.696  1.00  0.00     0.135 A 
ATOM     86  F   UNL A   1      43.797  25.606  31.122  1.00  0.00    -0.206 F 
ATOM     87  C   UNL A   1      43.977  25.380  33.444  1.00  0.00     0.059 A 
ATOM     88  C   UNL A   1      44.405  27.323  34.826  1.00  0.00     0.059 A 
ATOM     89  F   UNL A   1      44.539  29.444  33.847  1.00  0.00    -0.206 F 
ATOM     90  C   UNL A   1      44.232  25.948  34.692  1.00  0.00     0.060 A 
BRANCH  90  91
ATOM     91  S   UNL A   1      44.424  24.871  36.131  1.00  0.00     0.124 S 
ATOM     92  O   UNL A   1      44.719  23.582  35.513  1.00  0.00    -0.237 OA
ATOM     93  O   UNL A   1      45.529  25.498  36.848  1.00  0.00    -0.237 OA
ATOM     94  O   UNL A   1      43.129  24.959  36.800  1.00  0.00    -0.744 OA
ENDBRANCH  90  91
ENDBRANCH  58  83
ENDBRANCH  32  33
ENDBRANCH  25  27
ENDBRANCH  24  25
ENDBRANCH  23  24
ENDBRANCH   1  23
TORSDOF 19
ENDMDL
MODEL 3
REMARK VINA RESULT:     -10.9      2.505      9.315
REMARK SMILES CCc1nc(C)c(C)c2nn(CC(=O)OCCOCCOC(=O)c3ccc(-c4c5nc(c(-c6c(F)cc(S(=O)(=O)[O-])cc6F)c6ccc([nH]6)c(-c6c(F)cc(S(=O)(=O)[O-])cc6F)c6nc(c(-c7c(F)cc(S(=O)(=O)[O-])cc7F)c7ccc4[nH]7)C=C6)C=C5)cc3)c(=O)n12
REMARK SMILES IDX 19 1 18 2 17 3 16 4 15 5 13 6 14 7 12 8 11 9 3 10 4 11 92 12
REMARK SMILES IDX 5 13 9 14 90 15 6 16 7 17 10 18 91 19 8 20 2 21 1 22 20 23
REMARK SMILES IDX 21 24 22 25 23 26 24 27 25 28 89 29 26 30 88 31 27 32 28 33
REMARK SMILES IDX 29 34 82 35 30 36 87 37 81 38 83 39 31 40 86 41 80 42 79 43
REMARK SMILES IDX 32 45 66 46 45 47 65 48 46 49 49 50 64 51 84 52 47 53 48 54
REMARK SMILES IDX 63 56 85 57 50 58 33 59 34 60 43 61 35 62 36 63 42 64 44 65
REMARK SMILES IDX 37 66 38 67 39 68 40 69 41 70 67 71 68 72 77 73 69 74 70 75
REMARK SMILES IDX 76 76 78 77 71 78 72 79 73 80 74 81 75 82 51 83 52 84 61 85
REMARK SMILES IDX 53 86 54 87 60 88 62 89 55 90 56 91 57 92 58 93 59 94
REMARK H PARENT 83 44 49 55
REMARK Flexibility Score: inf
ROOT
ATOM      1  C   UNL A   1      33.179  30.130  26.364  1.00  0.00     0.202 C 
ENDROOT
BRANCH   1   2
ATOM      2  O   UNL A   1      33.724  28.924  26.886  1.00  0.00    -0.374 OA
BRANCH   2   3
ATOM      3  C   UNL A   1      32.970  27.722  26.754  1.00  0.00     0.202 C 
BRANCH   3   4
ATOM      4  C   UNL A   1      31.522  27.859  26.277  1.00  0.00     0.261 C 
BRANCH   4   5
ATOM      5  O   UNL A   1      30.714  26.713  26.621  1.00  0.00    -0.462 OA
BRANCH   5   6
ATOM      6  C   UNL A   1      30.892  25.616  25.835  1.00  0.00     0.328 C 
ATOM      7  O   UNL A   1      30.844  25.629  24.607  1.00  0.00    -0.250 OA
BRANCH   6   8
ATOM      8  C   UNL A   1      31.323  24.366  26.588  1.00  0.00     0.272 C 
BRANCH   8   9
ATOM      9  N   UNL A   1      32.252  23.445  25.971  1.00  0.00    -0.201 N 
ATOM     10  C   UNL A   1      33.747  20.348  24.940  1.00  0.00     0.119 A 
ATOM     11  N   UNL A   1      35.011  20.123  24.741  1.00  0.00    -0.239 NA
ATOM     12  N   UNL A   1      33.290  21.574  25.378  1.00  0.00    -0.230 N 
ATOM     13  C   UNL A   1      35.924  21.106  25.056  1.00  0.00     0.046 A 
ATOM     14  C   UNL A   1      34.144  22.601  25.586  1.00  0.00     0.167 A 
ATOM     15  C   UNL A   1      32.034  22.078  25.708  1.00  0.00     0.352 A 
ATOM     16  C   UNL A   1      37.366  20.674  24.959  1.00  0.00     0.067 C 
ATOM     17  C   UNL A   1      35.587  22.337  25.483  1.00  0.00     0.016 A 
ATOM     18  N   UNL A   1      33.593  23.730  25.916  1.00  0.00    -0.149 NA
ATOM     19  O   UNL A   1      30.991  21.471  25.884  1.00  0.00    -0.245 OA
ATOM     20  C   UNL A   1      36.495  23.422  25.966  1.00  0.00     0.050 C 
BRANCH  10  21
ATOM     21  C   UNL A   1      32.769  19.212  24.692  1.00  0.00     0.072 C 
ATOM     22  C   UNL A   1      33.234  18.207  23.658  1.00  0.00     0.012 C 
ENDBRANCH  10  21
ENDBRANCH   8   9
ENDBRANCH   6   8
ENDBRANCH   5   6
ENDBRANCH   4   5
ENDBRANCH   3   4
ENDBRANCH   2   3
ENDBRANCH   1   2
BRANCH   1  23
ATOM     23  C   UNL A   1      33.225  31.383  27.236  1.00  0.00     0.261 C 
BRANCH  23  24
ATOM     24  O   UNL A   1      34.102  31.313  28.365  1.00  0.00    -0.460 OA
BRANCH  24  25
ATOM     25  C   UNL A   1      35.295  31.928  28.147  1.00  0.00     0.338 C 
ATOM     26  O   UNL A   1      35.460  32.978  27.557  1.00  0.00    -0.246 OA
BRANCH  25  27
ATOM     27  C   UNL A   1      36.416  31.060  28.560  1.00  0.00     0.060 A 
ATOM     28  C   UNL A   1      37.558  31.715  29.022  1.00  0.00     0.016 A 
ATOM     29  C   UNL A   1      36.436  29.682  28.307  1.00  0.00     0.016 A 
ATOM     30  C   UNL A   1      38.754  31.026  29.064  1.00  0.00     0.010 A 
ATOM     31  C   UNL A   1      37.642  28.991  28.340  1.00  0.00     0.010 A 
ATOM     32  C   UNL A   1      38.806  29.682  28.658  1.00  0.00    -0.014 A 
BRANCH  32  33
ATOM     33  C   UNL A   1      40.089  29.006  28.799  1.00  0.00     0.031 A 
ATOM     34  C   UNL A   1      40.483  28.873  30.221  1.00  0.00     0.074 A 
ATOM     35  C   UNL A   1      40.866  28.530  27.807  1.00  0.00     0.049 A 
ATOM     36  N   UNL A   1      41.364  29.585  30.839  1.00  0.00    -0.248 NA
ATOM     37  C   UNL A   1      39.668  28.025  31.102  1.00  0.00     0.031 C 
ATOM     38  C   UNL A   1      40.555  28.389  26.386  1.00  0.00     0.029 A 
ATOM     39  N   UNL A   1      42.124  28.004  27.893  1.00  0.00    -0.354 N 
ATOM     40  C   UNL A   1      41.393  29.101  32.138  1.00  0.00     0.074 A 
ATOM     41  C   UNL A   1      40.209  28.296  32.292  1.00  0.00     0.031 C 
ATOM     42  C   UNL A   1      41.502  27.617  25.797  1.00  0.00     0.029 A 
ATOM     43  C   UNL A   1      42.547  27.313  26.762  1.00  0.00     0.049 A 
ATOM     44  H   UNL A   1      42.687  28.105  28.695  1.00  0.00     0.167 HD
ATOM     45  C   UNL A   1      42.531  29.189  32.878  1.00  0.00     0.037 A 
ATOM     46  C   UNL A   1      43.651  26.524  26.647  1.00  0.00     0.037 A 
ATOM     47  C   UNL A   1      43.431  30.178  32.333  1.00  0.00     0.049 A 
ATOM     48  C   UNL A   1      44.616  26.983  27.685  1.00  0.00     0.074 A 
ATOM     49  C   UNL A   1      43.322  31.522  32.023  1.00  0.00     0.029 A 
ATOM     50  N   UNL A   1      44.549  29.734  31.664  1.00  0.00    -0.354 N 
ATOM     51  N   UNL A   1      45.212  28.144  27.651  1.00  0.00    -0.248 NA
ATOM     52  C   UNL A   1      44.549  26.353  28.996  1.00  0.00     0.031 C 
ATOM     53  C   UNL A   1      44.060  31.683  30.814  1.00  0.00     0.029 A 
ATOM     54  C   UNL A   1      44.637  30.452  30.501  1.00  0.00     0.049 A 
ATOM     55  H   UNL A   1      45.168  29.030  31.965  1.00  0.00     0.167 HD
ATOM     56  C   UNL A   1      45.186  28.588  28.965  1.00  0.00     0.074 A 
ATOM     57  C   UNL A   1      44.831  27.413  29.759  1.00  0.00     0.031 C 
ATOM     58  C   UNL A   1      45.171  29.918  29.270  1.00  0.00     0.037 A 
BRANCH  45  59
ATOM     59  C   UNL A   1      43.010  28.093  33.801  1.00  0.00     0.058 A 
ATOM     60  C   UNL A   1      43.307  28.423  35.139  1.00  0.00     0.135 A 
ATOM     61  C   UNL A   1      43.492  26.841  33.358  1.00  0.00     0.135 A 
ATOM     62  F   UNL A   1      42.892  29.585  35.668  1.00  0.00    -0.206 F 
ATOM     63  C   UNL A   1      44.121  27.623  35.939  1.00  0.00     0.059 A 
ATOM     64  C   UNL A   1      44.259  26.004  34.156  1.00  0.00     0.059 A 
ATOM     65  F   UNL A   1      43.334  26.406  32.104  1.00  0.00    -0.206 F 
ATOM     66  C   UNL A   1      44.609  26.424  35.427  1.00  0.00     0.060 A 
BRANCH  66  67
ATOM     67  S   UNL A   1      45.749  25.444  36.415  1.00  0.00     0.124 S 
ATOM     68  O   UNL A   1      44.838  24.503  37.056  1.00  0.00    -0.237 OA
ATOM     69  O   UNL A   1      46.628  24.891  35.391  1.00  0.00    -0.237 OA
ATOM     70  O   UNL A   1      46.363  26.433  37.296  1.00  0.00    -0.744 OA
ENDBRANCH  66  67
ENDBRANCH  45  59
BRANCH  46  71
ATOM     71  C   UNL A   1      43.769  25.190  25.976  1.00  0.00     0.058 A 
ATOM     72  C   UNL A   1      44.885  24.865  25.175  1.00  0.00     0.135 A 
ATOM     73  C   UNL A   1      42.943  24.105  26.329  1.00  0.00     0.135 A 
ATOM     74  F   UNL A   1      45.742  25.823  24.788  1.00  0.00    -0.206 F 
ATOM     75  C   UNL A   1      45.198  23.545  24.812  1.00  0.00     0.059 A 
ATOM     76  C   UNL A   1      43.226  22.786  25.971  1.00  0.00     0.059 A 
ATOM     77  F   UNL A   1      41.871  24.273  27.116  1.00  0.00    -0.206 F 
ATOM     78  C   UNL A   1      44.372  22.507  25.240  1.00  0.00     0.060 A 
BRANCH  78  79
ATOM     79  S   UNL A   1      44.858  20.787  24.945  1.00  0.00     0.124 S 
ATOM     80  O   UNL A   1      43.898  20.054  25.765  1.00  0.00    -0.237 OA
ATOM     81  O   UNL A   1      44.691  20.661  23.502  1.00  0.00    -0.237 OA
ATOM     82  O   UNL A   1      46.240  20.740  25.415  1.00  0.00    -0.744 OA
ENDBRANCH  78  79
ENDBRANCH  46  71
BRANCH  58  83
ATOM     83  C   UNL A   1      45.503  30.930  28.206  1.00  0.00     0.058 A 
ATOM     84  C   UNL A   1      44.609  31.375  27.218  1.00  0.00     0.135 A 
ATOM     85  C   UNL A   1      46.710  31.637  28.347  1.00  0.00     0.135 A 
ATOM     86  F   UNL A   1      43.399  30.812  27.076  1.00  0.00    -0.206 F 
ATOM     87  C   UNL A   1      44.905  32.472  26.404  1.00  0.00     0.059 A 
ATOM     88  C   UNL A   1      47.010  32.751  27.571  1.00  0.00     0.059 A 
ATOM     89  F   UNL A   1      47.582  31.290  29.308  1.00  0.00    -0.206 F 
ATOM     90  C   UNL A   1      46.101  33.163  26.600  1.00  0.00     0.060 A 
BRANCH  90  91
ATOM     91  S   UNL A   1      46.427  34.658  25.638  1.00  0.00     0.124 S 
ATOM     92  O   UNL A   1      45.490  34.519  24.527  1.00  0.00    -0.237 OA
ATOM     93  O   UNL A   1      46.125  35.719  26.593  1.00  0.00    -0.237 OA
ATOM     94  O   UNL A   1      47.838  34.536  25.281  1.00  0.00    -0.744 OA
ENDBRANCH  90  91
ENDBRANCH  58  83
ENDBRANCH  32  33
ENDBRANCH  25  27
ENDBRANCH  24  25
ENDBRANCH  23  24
ENDBRANCH   1  23
TORSDOF 19
ENDMDL
