MODEL 1
REMARK VINA RESULT:     -10.0      0.000      0.000
REMARK SMILES CC[C@@H](NC(=O)c1cscc1C)C(=O)OCCOCCOC(=O)c1ccc(-c2c3nc(c(-c4c(F)cc(S(=O)(=O)[O-])cc4F)c4ccc([nH]4)c(-c4c(F)cc(S(=O)(=O)[O-])cc4F)c4nc(c(-c5c(F)cc(S(=O)(=O)[O-])cc5F)c5ccc2[nH]5)C=C4)C=C3)cc1
REMARK SMILES IDX 19 1 18 2 17 3 16 4 15 5 13 6 14 7 3 8 2 9 1 10 4 11 5 12
REMARK SMILES IDX 6 14 7 15 8 16 11 17 9 18 10 19 12 20 20 21 21 22 22 23
REMARK SMILES IDX 23 24 24 25 25 26 89 27 26 28 88 29 27 30 28 31 29 32 82 33
REMARK SMILES IDX 30 34 87 35 81 36 83 37 31 38 86 39 80 40 79 41 32 43 66 44
REMARK SMILES IDX 45 45 65 46 46 47 49 48 64 49 84 50 47 51 48 52 63 54 85 55
REMARK SMILES IDX 50 56 33 57 34 58 43 59 35 60 36 61 42 62 44 63 37 64 38 65
REMARK SMILES IDX 39 66 40 67 41 68 67 69 68 70 77 71 69 72 70 73 76 74 78 75
REMARK SMILES IDX 71 76 72 77 73 78 74 79 75 80 51 81 52 82 61 83 53 84 54 85
REMARK SMILES IDX 60 86 62 87 55 88 56 89 57 90 58 91 59 92
REMARK H PARENT 4 13 83 42 49 53
REMARK Flexibility Score: inf
ROOT
ATOM      1  C   UNL A   1      37.817  22.661  25.367  1.00  0.00     0.202 C 
ENDROOT
BRANCH   1   2
ATOM      2  O   UNL A   1      36.750  21.937  25.976  1.00  0.00    -0.374 OA
BRANCH   2   3
ATOM      3  C   UNL A   1      36.049  21.025  25.129  1.00  0.00     0.202 C 
BRANCH   3   4
ATOM      4  C   UNL A   1      34.658  21.485  24.689  1.00  0.00     0.261 C 
BRANCH   4   5
ATOM      5  O   UNL A   1      34.405  22.869  24.995  1.00  0.00    -0.462 OA
BRANCH   5   6
ATOM      6  C   UNL A   1      34.378  23.716  23.933  1.00  0.00     0.328 C 
ATOM      7  O   UNL A   1      35.125  23.659  22.962  1.00  0.00    -0.250 OA
BRANCH   6   8
ATOM      8  C   UNL A   1      33.201  24.696  23.999  1.00  0.00     0.192 C 
BRANCH   8   9
ATOM      9  C   UNL A   1      32.286  24.381  22.794  1.00  0.00     0.033 C 
ATOM     10  C   UNL A   1      32.190  25.515  21.784  1.00  0.00     0.007 C 
ENDBRANCH   8   9
BRANCH   8  11
ATOM     11  N   UNL A   1      32.409  24.675  25.233  1.00  0.00    -0.339 N 
ATOM     12  C   UNL A   1      31.547  25.622  25.728  1.00  0.00     0.253 C 
ATOM     13  H   UNL A   1      32.509  23.866  25.785  1.00  0.00     0.164 HD
ATOM     14  O   UNL A   1      30.700  25.275  26.546  1.00  0.00    -0.269 OA
BRANCH  12  15
ATOM     15  C   UNL A   1      31.741  27.023  25.374  1.00  0.00     0.053 A 
ATOM     16  C   UNL A   1      32.797  27.802  25.811  1.00  0.00     0.079 A 
ATOM     17  C   UNL A   1      30.876  27.767  24.480  1.00  0.00    -0.028 A 
ATOM     18  S   UNL A   1      32.715  29.409  25.234  1.00  0.00    -0.151 S 
ATOM     19  C   UNL A   1      31.296  29.078  24.347  1.00  0.00     0.069 A 
ATOM     20  C   UNL A   1      29.671  27.212  23.787  1.00  0.00     0.046 C 
ENDBRANCH  12  15
ENDBRANCH   8  11
ENDBRANCH   6   8
ENDBRANCH   5   6
ENDBRANCH   4   5
ENDBRANCH   3   4
ENDBRANCH   2   3
ENDBRANCH   1   2
BRANCH   1  21
ATOM     21  C   UNL A   1      38.876  23.185  26.338  1.00  0.00     0.261 C 
BRANCH  21  22
ATOM     22  O   UNL A   1      38.830  24.622  26.411  1.00  0.00    -0.460 OA
BRANCH  22  23
ATOM     23  C   UNL A   1      40.039  25.226  26.370  1.00  0.00     0.338 C 
ATOM     24  O   UNL A   1      40.803  25.277  25.415  1.00  0.00    -0.246 OA
BRANCH  23  25
ATOM     25  C   UNL A   1      40.268  25.996  27.609  1.00  0.00     0.060 A 
ATOM     26  C   UNL A   1      39.346  25.817  28.649  1.00  0.00     0.016 A 
ATOM     27  C   UNL A   1      41.313  26.915  27.739  1.00  0.00     0.016 A 
ATOM     28  C   UNL A   1      39.415  26.613  29.788  1.00  0.00     0.010 A 
ATOM     29  C   UNL A   1      41.378  27.720  28.883  1.00  0.00     0.010 A 
ATOM     30  C   UNL A   1      40.400  27.604  29.887  1.00  0.00    -0.014 A 
BRANCH  30  31
ATOM     31  C   UNL A   1      40.274  28.639  30.941  1.00  0.00     0.031 A 
ATOM     32  C   UNL A   1      41.182  28.556  32.140  1.00  0.00     0.074 A 
ATOM     33  C   UNL A   1      39.410  29.660  30.810  1.00  0.00     0.049 A 
ATOM     34  N   UNL A   1      41.249  29.338  33.185  1.00  0.00    -0.248 NA
ATOM     35  C   UNL A   1      42.143  27.440  32.160  1.00  0.00     0.031 C 
ATOM     36  C   UNL A   1      38.514  29.870  29.674  1.00  0.00     0.029 A 
ATOM     37  N   UNL A   1      39.148  30.716  31.646  1.00  0.00    -0.354 N 
ATOM     38  C   UNL A   1      42.253  28.809  33.989  1.00  0.00     0.074 A 
ATOM     39  C   UNL A   1      42.747  27.623  33.325  1.00  0.00     0.031 C 
ATOM     40  C   UNL A   1      37.791  30.984  29.890  1.00  0.00     0.029 A 
ATOM     41  C   UNL A   1      38.155  31.548  31.188  1.00  0.00     0.049 A 
ATOM     42  H   UNL A   1      39.625  30.863  32.495  1.00  0.00     0.167 HD
ATOM     43  C   UNL A   1      42.727  29.274  35.168  1.00  0.00     0.037 A 
ATOM     44  C   UNL A   1      37.595  32.631  31.761  1.00  0.00     0.037 A 
ATOM     45  C   UNL A   1      42.235  30.459  35.821  1.00  0.00     0.049 A 
ATOM     46  C   UNL A   1      38.096  33.098  33.104  1.00  0.00     0.074 A 
ATOM     47  C   UNL A   1      42.657  31.024  37.012  1.00  0.00     0.029 A 
ATOM     48  N   UNL A   1      41.208  31.257  35.341  1.00  0.00    -0.354 N 
ATOM     49  N   UNL A   1      39.056  32.597  33.846  1.00  0.00    -0.248 NA
ATOM     50  C   UNL A   1      37.441  34.277  33.687  1.00  0.00     0.031 C 
ATOM     51  C   UNL A   1      41.856  32.140  37.272  1.00  0.00     0.029 A 
ATOM     52  C   UNL A   1      40.966  32.298  36.222  1.00  0.00     0.049 A 
ATOM     53  H   UNL A   1      40.722  31.106  34.498  1.00  0.00     0.167 HD
ATOM     54  C   UNL A   1      39.136  33.413  34.969  1.00  0.00     0.074 A 
ATOM     55  C   UNL A   1      38.134  34.446  34.805  1.00  0.00     0.031 C 
ATOM     56  C   UNL A   1      39.966  33.320  36.038  1.00  0.00     0.037 A 
BRANCH  43  57
ATOM     57  C   UNL A   1      43.816  28.486  35.839  1.00  0.00     0.058 A 
ATOM     58  C   UNL A   1      45.174  28.759  35.610  1.00  0.00     0.135 A 
ATOM     59  C   UNL A   1      43.497  27.457  36.739  1.00  0.00     0.135 A 
ATOM     60  F   UNL A   1      45.535  29.719  34.743  1.00  0.00    -0.206 F 
ATOM     61  C   UNL A   1      46.178  28.023  36.231  1.00  0.00     0.059 A 
ATOM     62  C   UNL A   1      44.485  26.724  37.390  1.00  0.00     0.059 A 
ATOM     63  F   UNL A   1      42.214  27.152  36.989  1.00  0.00    -0.206 F 
ATOM     64  C   UNL A   1      45.823  27.006  37.119  1.00  0.00     0.060 A 
BRANCH  64  65
ATOM     65  S   UNL A   1      47.135  26.059  37.919  1.00  0.00     0.124 S 
ATOM     66  O   UNL A   1      46.639  25.975  39.289  1.00  0.00    -0.237 OA
ATOM     67  O   UNL A   1      47.126  24.811  37.164  1.00  0.00    -0.237 OA
ATOM     68  O   UNL A   1      48.320  26.893  37.732  1.00  0.00    -0.744 OA
ENDBRANCH  64  65
ENDBRANCH  43  57
BRANCH  44  69
ATOM     69  C   UNL A   1      36.485  33.344  31.074  1.00  0.00     0.058 A 
ATOM     70  C   UNL A   1      35.168  33.264  31.547  1.00  0.00     0.135 A 
ATOM     71  C   UNL A   1      36.725  34.123  29.931  1.00  0.00     0.135 A 
ATOM     72  F   UNL A   1      34.888  32.523  32.630  1.00  0.00    -0.206 F 
ATOM     73  C   UNL A   1      34.123  33.922  30.906  1.00  0.00     0.059 A 
ATOM     74  C   UNL A   1      35.701  34.809  29.287  1.00  0.00     0.059 A 
ATOM     75  F   UNL A   1      37.970  34.238  29.444  1.00  0.00    -0.206 F 
ATOM     76  C   UNL A   1      34.401  34.696  29.777  1.00  0.00     0.060 A 
BRANCH  76  77
ATOM     77  S   UNL A   1      33.048  35.591  28.984  1.00  0.00     0.124 S 
ATOM     78  O   UNL A   1      33.773  36.602  28.221  1.00  0.00    -0.237 OA
ATOM     79  O   UNL A   1      32.403  34.542  28.201  1.00  0.00    -0.237 OA
ATOM     80  O   UNL A   1      32.268  36.090  30.113  1.00  0.00    -0.744 OA
ENDBRANCH  76  77
ENDBRANCH  44  69
BRANCH  56  81
ATOM     81  C   UNL A   1      39.850  34.378  37.101  1.00  0.00     0.058 A 
ATOM     82  C   UNL A   1      40.468  35.630  36.964  1.00  0.00     0.135 A 
ATOM     83  C   UNL A   1      39.061  34.155  38.241  1.00  0.00     0.135 A 
ATOM     84  F   UNL A   1      41.236  35.891  35.894  1.00  0.00    -0.206 F 
ATOM     85  C   UNL A   1      40.326  36.618  37.932  1.00  0.00     0.059 A 
ATOM     86  C   UNL A   1      38.885  35.138  39.209  1.00  0.00     0.059 A 
ATOM     87  F   UNL A   1      38.438  32.979  38.413  1.00  0.00    -0.206 F 
ATOM     88  C   UNL A   1      39.531  36.364  39.052  1.00  0.00     0.060 A 
BRANCH  88  89
ATOM     89  S   UNL A   1      39.326  37.666  40.284  1.00  0.00     0.124 S 
ATOM     90  O   UNL A   1      40.662  38.251  40.318  1.00  0.00    -0.237 OA
ATOM     91  O   UNL A   1      38.284  38.498  39.692  1.00  0.00    -0.237 OA
ATOM     92  O   UNL A   1      38.929  36.937  41.485  1.00  0.00    -0.744 OA
ENDBRANCH  88  89
ENDBRANCH  56  81
ENDBRANCH  30  31
ENDBRANCH  23  25
ENDBRANCH  22  23
ENDBRANCH  21  22
ENDBRANCH   1  21
TORSDOF 20
ENDMDL
MODEL 2
REMARK VINA RESULT:      -9.6      7.044     12.245
REMARK SMILES CC[C@@H](NC(=O)c1cscc1C)C(=O)OCCOCCOC(=O)c1ccc(-c2c3nc(c(-c4c(F)cc(S(=O)(=O)[O-])cc4F)c4ccc([nH]4)c(-c4c(F)cc(S(=O)(=O)[O-])cc4F)c4nc(c(-c5c(F)cc(S(=O)(=O)[O-])cc5F)c5ccc2[nH]5)C=C4)C=C3)cc1
REMARK SMILES IDX 19 1 18 2 17 3 16 4 15 5 13 6 14 7 3 8 2 9 1 10 4 11 5 12
REMARK SMILES IDX 6 14 7 15 8 16 11 17 9 18 10 19 12 20 20 21 21 22 22 23
REMARK SMILES IDX 23 24 24 25 25 26 89 27 26 28 88 29 27 30 28 31 29 32 82 33
REMARK SMILES IDX 30 34 87 35 81 36 83 37 31 38 86 39 80 40 79 41 32 43 66 44
REMARK SMILES IDX 45 45 65 46 46 47 49 48 64 49 84 50 47 51 48 52 63 54 85 55
REMARK SMILES IDX 50 56 33 57 34 58 43 59 35 60 36 61 42 62 44 63 37 64 38 65
REMARK SMILES IDX 39 66 40 67 41 68 67 69 68 70 77 71 69 72 70 73 76 74 78 75
REMARK SMILES IDX 71 76 72 77 73 78 74 79 75 80 51 81 52 82 61 83 53 84 54 85
REMARK SMILES IDX 60 86 62 87 55 88 56 89 57 90 58 91 59 92
REMARK H PARENT 4 13 83 42 49 53
REMARK Flexibility Score: inf
ROOT
ATOM      1  C   UNL A   1      34.600  32.835  29.230  1.00  0.00     0.202 C 
ENDROOT
BRANCH   1   2
ATOM      2  O   UNL A   1      35.162  32.337  28.017  1.00  0.00    -0.374 OA
BRANCH   2   3
ATOM      3  C   UNL A   1      34.859  30.978  27.698  1.00  0.00     0.202 C 
BRANCH   3   4
ATOM      4  C   UNL A   1      33.401  30.709  27.323  1.00  0.00     0.261 C 
BRANCH   4   5
ATOM      5  O   UNL A   1      33.268  29.849  26.175  1.00  0.00    -0.462 OA
BRANCH   5   6
ATOM      6  C   UNL A   1      32.216  28.989  26.196  1.00  0.00     0.328 C 
ATOM      7  O   UNL A   1      31.513  28.753  27.173  1.00  0.00    -0.250 OA
BRANCH   6   8
ATOM      8  C   UNL A   1      31.894  28.430  24.806  1.00  0.00     0.192 C 
BRANCH   8   9
ATOM      9  C   UNL A   1      33.196  27.804  24.260  1.00  0.00     0.033 C 
ATOM     10  C   UNL A   1      33.523  26.444  24.860  1.00  0.00     0.007 C 
ENDBRANCH   8   9
BRANCH   8  11
ATOM     11  N   UNL A   1      30.811  27.443  24.739  1.00  0.00    -0.339 N 
ATOM     12  C   UNL A   1      29.816  27.306  23.803  1.00  0.00     0.253 C 
ATOM     13  H   UNL A   1      30.797  26.783  25.470  1.00  0.00     0.164 HD
ATOM     14  O   UNL A   1      29.255  26.220  23.697  1.00  0.00    -0.269 OA
BRANCH  12  15
ATOM     15  C   UNL A   1      29.367  28.476  23.059  1.00  0.00     0.053 A 
ATOM     16  C   UNL A   1      30.189  29.280  22.291  1.00  0.00     0.079 A 
ATOM     17  C   UNL A   1      27.988  28.921  22.989  1.00  0.00    -0.028 A 
ATOM     18  S   UNL A   1      29.352  30.584  21.569  1.00  0.00    -0.151 S 
ATOM     19  C   UNL A   1      27.867  30.067  22.226  1.00  0.00     0.069 A 
ATOM     20  C   UNL A   1      26.832  28.247  23.659  1.00  0.00     0.046 C 
ENDBRANCH  12  15
ENDBRANCH   8  11
ENDBRANCH   6   8
ENDBRANCH   5   6
ENDBRANCH   4   5
ENDBRANCH   3   4
ENDBRANCH   2   3
ENDBRANCH   1   2
BRANCH   1  21
ATOM     21  C   UNL A   1      34.947  32.025  30.480  1.00  0.00     0.261 C 
BRANCH  21  22
ATOM     22  O   UNL A   1      36.374  31.943  30.650  1.00  0.00    -0.460 OA
BRANCH  22  23
ATOM     23  C   UNL A   1      36.847  30.690  30.837  1.00  0.00     0.338 C 
ATOM     24  O   UNL A   1      36.204  29.707  31.180  1.00  0.00    -0.246 OA
BRANCH  23  25
ATOM     25  C   UNL A   1      38.253  30.604  30.397  1.00  0.00     0.060 A 
ATOM     26  C   UNL A   1      38.482  30.475  29.020  1.00  0.00     0.016 A 
ATOM     27  C   UNL A   1      39.322  30.585  31.298  1.00  0.00     0.016 A 
ATOM     28  C   UNL A   1      39.769  30.244  28.545  1.00  0.00     0.010 A 
ATOM     29  C   UNL A   1      40.615  30.347  30.819  1.00  0.00     0.010 A 
ATOM     30  C   UNL A   1      40.835  30.127  29.447  1.00  0.00    -0.014 A 
BRANCH  30  31
ATOM     31  C   UNL A   1      42.125  29.577  28.967  1.00  0.00     0.031 A 
ATOM     32  C   UNL A   1      43.317  30.495  28.903  1.00  0.00     0.074 A 
ATOM     33  C   UNL A   1      42.248  28.277  28.647  1.00  0.00     0.049 A 
ATOM     34  N   UNL A   1      44.538  30.243  28.512  1.00  0.00    -0.248 NA
ATOM     35  C   UNL A   1      43.100  31.884  29.341  1.00  0.00     0.031 C 
ATOM     36  C   UNL A   1      41.177  27.285  28.713  1.00  0.00     0.029 A 
ATOM     37  N   UNL A   1      43.336  27.571  28.201  1.00  0.00    -0.354 N 
ATOM     38  C   UNL A   1      45.234  31.439  28.650  1.00  0.00     0.074 A 
ATOM     39  C   UNL A   1      44.292  32.424  29.134  1.00  0.00     0.031 C 
ATOM     40  C   UNL A   1      41.660  26.095  28.311  1.00  0.00     0.029 A 
ATOM     41  C   UNL A   1      43.064  26.250  27.936  1.00  0.00     0.049 A 
ATOM     42  H   UNL A   1      44.228  27.972  28.082  1.00  0.00     0.167 HD
ATOM     43  C   UNL A   1      46.541  31.691  28.406  1.00  0.00     0.037 A 
ATOM     44  C   UNL A   1      43.856  25.283  27.432  1.00  0.00     0.037 A 
ATOM     45  C   UNL A   1      47.475  30.704  27.930  1.00  0.00     0.049 A 
ATOM     46  C   UNL A   1      45.294  25.601  27.110  1.00  0.00     0.074 A 
ATOM     47  C   UNL A   1      48.825  30.854  27.664  1.00  0.00     0.029 A 
ATOM     48  N   UNL A   1      47.154  29.386  27.644  1.00  0.00    -0.354 N 
ATOM     49  N   UNL A   1      45.942  26.732  27.259  1.00  0.00    -0.248 NA
ATOM     50  C   UNL A   1      46.108  24.512  26.552  1.00  0.00     0.031 C 
ATOM     51  C   UNL A   1      49.311  29.637  27.177  1.00  0.00     0.029 A 
ATOM     52  C   UNL A   1      48.275  28.715  27.183  1.00  0.00     0.049 A 
ATOM     53  H   UNL A   1      46.261  28.986  27.753  1.00  0.00     0.167 HD
ATOM     54  C   UNL A   1      47.245  26.484  26.839  1.00  0.00     0.074 A 
ATOM     55  C   UNL A   1      47.295  25.093  26.438  1.00  0.00     0.031 C 
ATOM     56  C   UNL A   1      48.305  27.329  26.792  1.00  0.00     0.037 A 
BRANCH  43  57
ATOM     57  C   UNL A   1      47.031  33.094  28.625  1.00  0.00     0.058 A 
ATOM     58  C   UNL A   1      46.961  34.067  27.616  1.00  0.00     0.135 A 
ATOM     59  C   UNL A   1      47.559  33.476  29.868  1.00  0.00     0.135 A 
ATOM     60  F   UNL A   1      46.484  33.750  26.402  1.00  0.00    -0.206 F 
ATOM     61  C   UNL A   1      47.420  35.364  27.824  1.00  0.00     0.059 A 
ATOM     62  C   UNL A   1      48.001  34.774  30.107  1.00  0.00     0.059 A 
ATOM     63  F   UNL A   1      47.653  32.583  30.866  1.00  0.00    -0.206 F 
ATOM     64  C   UNL A   1      47.940  35.708  29.072  1.00  0.00     0.060 A 
BRANCH  64  65
ATOM     65  S   UNL A   1      48.531  37.394  29.330  1.00  0.00     0.124 S 
ATOM     66  O   UNL A   1      49.032  37.732  28.001  1.00  0.00    -0.237 OA
ATOM     67  O   UNL A   1      47.319  38.091  29.746  1.00  0.00    -0.237 OA
ATOM     68  O   UNL A   1      49.551  37.243  30.364  1.00  0.00    -0.744 OA
ENDBRANCH  64  65
ENDBRANCH  43  57
BRANCH  44  69
ATOM     69  C   UNL A   1      43.304  23.924  27.189  1.00  0.00     0.058 A 
ATOM     70  C   UNL A   1      42.979  23.494  25.894  1.00  0.00     0.135 A 
ATOM     71  C   UNL A   1      43.096  23.028  28.249  1.00  0.00     0.135 A 
ATOM     72  F   UNL A   1      43.151  24.318  24.851  1.00  0.00    -0.206 F 
ATOM     73  C   UNL A   1      42.457  22.226  25.659  1.00  0.00     0.059 A 
ATOM     74  C   UNL A   1      42.596  21.747  28.036  1.00  0.00     0.059 A 
ATOM     75  F   UNL A   1      43.399  23.389  29.505  1.00  0.00    -0.206 F 
ATOM     76  C   UNL A   1      42.271  21.358  26.737  1.00  0.00     0.060 A 
BRANCH  76  77
ATOM     77  S   UNL A   1      41.644  19.696  26.416  1.00  0.00     0.124 S 
ATOM     78  O   UNL A   1      42.044  18.991  27.629  1.00  0.00    -0.237 OA
ATOM     79  O   UNL A   1      40.212  19.933  26.259  1.00  0.00    -0.237 OA
ATOM     80  O   UNL A   1      42.344  19.303  25.196  1.00  0.00    -0.744 OA
ENDBRANCH  76  77
ENDBRANCH  44  69
BRANCH  56  81
ATOM     81  C   UNL A   1      49.618  26.768  26.320  1.00  0.00     0.058 A 
ATOM     82  C   UNL A   1      50.072  26.961  25.006  1.00  0.00     0.135 A 
ATOM     83  C   UNL A   1      50.458  26.079  27.210  1.00  0.00     0.135 A 
ATOM     84  F   UNL A   1      49.305  27.610  24.115  1.00  0.00    -0.206 F 
ATOM     85  C   UNL A   1      51.304  26.473  24.585  1.00  0.00     0.059 A 
ATOM     86  C   UNL A   1      51.705  25.604  26.818  1.00  0.00     0.059 A 
ATOM     87  F   UNL A   1      50.076  25.878  28.481  1.00  0.00    -0.206 F 
ATOM     88  C   UNL A   1      52.115  25.796  25.498  1.00  0.00     0.060 A 
BRANCH  88  89
ATOM     89  S   UNL A   1      53.726  25.197  24.950  1.00  0.00     0.124 S 
ATOM     90  O   UNL A   1      53.897  25.920  23.694  1.00  0.00    -0.237 OA
ATOM     91  O   UNL A   1      54.603  25.606  26.043  1.00  0.00    -0.237 OA
ATOM     92  O   UNL A   1      53.527  23.756  24.822  1.00  0.00    -0.744 OA
ENDBRANCH  88  89
ENDBRANCH  56  81
ENDBRANCH  30  31
ENDBRANCH  23  25
ENDBRANCH  22  23
ENDBRANCH  21  22
ENDBRANCH   1  21
TORSDOF 20
ENDMDL
MODEL 3
REMARK VINA RESULT:      -9.6      6.794     12.126
REMARK SMILES CC[C@@H](NC(=O)c1cscc1C)C(=O)OCCOCCOC(=O)c1ccc(-c2c3nc(c(-c4c(F)cc(S(=O)(=O)[O-])cc4F)c4ccc([nH]4)c(-c4c(F)cc(S(=O)(=O)[O-])cc4F)c4nc(c(-c5c(F)cc(S(=O)(=O)[O-])cc5F)c5ccc2[nH]5)C=C4)C=C3)cc1
REMARK SMILES IDX 19 1 18 2 17 3 16 4 15 5 13 6 14 7 3 8 2 9 1 10 4 11 5 12
REMARK SMILES IDX 6 14 7 15 8 16 11 17 9 18 10 19 12 20 20 21 21 22 22 23
REMARK SMILES IDX 23 24 24 25 25 26 89 27 26 28 88 29 27 30 28 31 29 32 82 33
REMARK SMILES IDX 30 34 87 35 81 36 83 37 31 38 86 39 80 40 79 41 32 43 66 44
REMARK SMILES IDX 45 45 65 46 46 47 49 48 64 49 84 50 47 51 48 52 63 54 85 55
REMARK SMILES IDX 50 56 33 57 34 58 43 59 35 60 36 61 42 62 44 63 37 64 38 65
REMARK SMILES IDX 39 66 40 67 41 68 67 69 68 70 77 71 69 72 70 73 76 74 78 75
REMARK SMILES IDX 71 76 72 77 73 78 74 79 75 80 51 81 52 82 61 83 53 84 54 85
REMARK SMILES IDX 60 86 62 87 55 88 56 89 57 90 58 91 59 92
REMARK H PARENT 4 13 83 42 49 53
REMARK Flexibility Score: inf
ROOT
ATOM      1  C   UNL A   1      35.080  32.598  28.010  1.00  0.00     0.202 C 
ENDROOT
BRANCH   1   2
ATOM      2  O   UNL A   1      34.878  31.277  27.511  1.00  0.00    -0.374 OA
BRANCH   2   3
ATOM      3  C   UNL A   1      33.519  30.875  27.336  1.00  0.00     0.202 C 
BRANCH   3   4
ATOM      4  C   UNL A   1      33.310  29.379  27.092  1.00  0.00     0.261 C 
BRANCH   4   5
ATOM      5  O   UNL A   1      33.240  29.046  25.693  1.00  0.00    -0.462 OA
BRANCH   5   6
ATOM      6  C   UNL A   1      32.009  29.132  25.123  1.00  0.00     0.328 C 
ATOM      7  O   UNL A   1      31.253  30.094  25.210  1.00  0.00    -0.250 OA
BRANCH   6   8
ATOM      8  C   UNL A   1      31.700  27.932  24.220  1.00  0.00     0.192 C 
BRANCH   8   9
ATOM      9  C   UNL A   1      30.333  28.210  23.556  1.00  0.00     0.033 C 
ATOM     10  C   UNL A   1      29.358  27.045  23.648  1.00  0.00     0.007 C 
ENDBRANCH   8   9
BRANCH   8  11
ATOM     11  N   UNL A   1      32.693  27.629  23.185  1.00  0.00    -0.339 N 
ATOM     12  C   UNL A   1      33.273  26.427  22.863  1.00  0.00     0.253 C 
ATOM     13  H   UNL A   1      32.986  28.397  22.642  1.00  0.00     0.164 HD
ATOM     14  O   UNL A   1      33.769  26.293  21.748  1.00  0.00    -0.269 OA
BRANCH  12  15
ATOM     15  C   UNL A   1      33.401  25.396  23.886  1.00  0.00     0.053 A 
ATOM     16  C   UNL A   1      34.385  25.373  24.858  1.00  0.00     0.079 A 
ATOM     17  C   UNL A   1      32.482  24.285  24.047  1.00  0.00    -0.028 A 
ATOM     18  S   UNL A   1      34.266  24.014  25.888  1.00  0.00    -0.151 S 
ATOM     19  C   UNL A   1      32.866  23.460  25.087  1.00  0.00     0.069 A 
ATOM     20  C   UNL A   1      31.274  24.039  23.199  1.00  0.00     0.046 C 
ENDBRANCH  12  15
ENDBRANCH   8  11
ENDBRANCH   6   8
ENDBRANCH   5   6
ENDBRANCH   4   5
ENDBRANCH   3   4
ENDBRANCH   2   3
ENDBRANCH   1   2
BRANCH   1  21
ATOM     21  C   UNL A   1      35.095  32.713  29.535  1.00  0.00     0.261 C 
BRANCH  21  22
ATOM     22  O   UNL A   1      35.662  31.530  30.127  1.00  0.00    -0.460 OA
BRANCH  22  23
ATOM     23  C   UNL A   1      36.789  31.745  30.844  1.00  0.00     0.338 C 
ATOM     24  O   UNL A   1      36.893  32.407  31.868  1.00  0.00    -0.246 OA
BRANCH  23  25
ATOM     25  C   UNL A   1      37.893  30.914  30.323  1.00  0.00     0.060 A 
ATOM     26  C   UNL A   1      38.834  30.451  31.252  1.00  0.00     0.016 A 
ATOM     27  C   UNL A   1      38.047  30.641  28.961  1.00  0.00     0.016 A 
ATOM     28  C   UNL A   1      39.976  29.786  30.816  1.00  0.00     0.010 A 
ATOM     29  C   UNL A   1      39.199  29.977  28.523  1.00  0.00     0.010 A 
ATOM     30  C   UNL A   1      40.189  29.592  29.445  1.00  0.00    -0.014 A 
BRANCH  30  31
ATOM     31  C   UNL A   1      41.533  29.173  28.980  1.00  0.00     0.031 A 
ATOM     32  C   UNL A   1      42.637  30.196  28.960  1.00  0.00     0.074 A 
ATOM     33  C   UNL A   1      41.779  27.896  28.635  1.00  0.00     0.049 A 
ATOM     34  N   UNL A   1      43.883  30.063  28.588  1.00  0.00    -0.248 NA
ATOM     35  C   UNL A   1      42.287  31.549  29.421  1.00  0.00     0.031 C 
ATOM     36  C   UNL A   1      40.801  26.810  28.659  1.00  0.00     0.029 A 
ATOM     37  N   UNL A   1      42.935  27.301  28.198  1.00  0.00    -0.354 N 
ATOM     38  C   UNL A   1      44.465  31.314  28.765  1.00  0.00     0.074 A 
ATOM     39  C   UNL A   1      43.429  32.199  29.250  1.00  0.00     0.031 C 
ATOM     40  C   UNL A   1      41.398  25.679  28.243  1.00  0.00     0.029 A 
ATOM     41  C   UNL A   1      42.789  25.967  27.899  1.00  0.00     0.049 A 
ATOM     42  H   UNL A   1      43.788  27.784  28.105  1.00  0.00     0.167 HD
ATOM     43  C   UNL A   1      45.748  31.688  28.553  1.00  0.00     0.037 A 
ATOM     44  C   UNL A   1      43.675  25.088  27.392  1.00  0.00     0.037 A 
ATOM     45  C   UNL A   1      46.777  30.801  28.076  1.00  0.00     0.049 A 
ATOM     46  C   UNL A   1      45.083  25.542  27.106  1.00  0.00     0.074 A 
ATOM     47  C   UNL A   1      48.112  31.079  27.841  1.00  0.00     0.029 A 
ATOM     48  N   UNL A   1      46.582  29.466  27.756  1.00  0.00    -0.354 N 
ATOM     49  N   UNL A   1      45.624  26.723  27.292  1.00  0.00    -0.248 NA
ATOM     50  C   UNL A   1      46.003  24.543  26.542  1.00  0.00     0.031 C 
ATOM     51  C   UNL A   1      48.715  29.921  27.339  1.00  0.00     0.029 A 
ATOM     52  C   UNL A   1      47.768  28.910  27.305  1.00  0.00     0.049 A 
ATOM     53  H   UNL A   1      45.728  28.984  27.839  1.00  0.00     0.167 HD
ATOM     54  C   UNL A   1      46.951  26.603  26.893  1.00  0.00     0.074 A 
ATOM     55  C   UNL A   1      47.134  25.231  26.464  1.00  0.00     0.031 C 
ATOM     56  C   UNL A   1      47.931  27.541  26.886  1.00  0.00     0.037 A 
BRANCH  43  57
ATOM     57  C   UNL A   1      46.105  33.125  28.812  1.00  0.00     0.058 A 
ATOM     58  C   UNL A   1      46.109  34.081  27.784  1.00  0.00     0.135 A 
ATOM     59  C   UNL A   1      46.427  33.555  30.108  1.00  0.00     0.135 A 
ATOM     60  F   UNL A   1      45.829  33.720  26.522  1.00  0.00    -0.206 F 
ATOM     61  C   UNL A   1      46.444  35.410  28.029  1.00  0.00     0.059 A 
ATOM     62  C   UNL A   1      46.740  34.883  30.381  1.00  0.00     0.059 A 
ATOM     63  F   UNL A   1      46.442  32.680  31.126  1.00  0.00    -0.206 F 
ATOM     64  C   UNL A   1      46.759  35.801  29.331  1.00  0.00     0.060 A 
BRANCH  64  65
ATOM     65  S   UNL A   1      47.191  37.527  29.635  1.00  0.00     0.124 S 
ATOM     66  O   UNL A   1      48.221  37.751  28.625  1.00  0.00    -0.237 OA
ATOM     67  O   UNL A   1      45.922  38.212  29.409  1.00  0.00    -0.237 OA
ATOM     68  O   UNL A   1      47.660  37.522  31.018  1.00  0.00    -0.744 OA
ENDBRANCH  64  65
ENDBRANCH  43  57
BRANCH  44  69
ATOM     69  C   UNL A   1      43.253  23.690  27.109  1.00  0.00     0.058 A 
ATOM     70  C   UNL A   1      43.131  22.747  28.139  1.00  0.00     0.135 A 
ATOM     71  C   UNL A   1      42.961  23.274  25.801  1.00  0.00     0.135 A 
ATOM     72  F   UNL A   1      43.411  23.094  29.404  1.00  0.00    -0.206 F 
ATOM     73  C   UNL A   1      42.744  21.435  27.882  1.00  0.00     0.059 A 
ATOM     74  C   UNL A   1      42.549  21.975  25.522  1.00  0.00     0.059 A 
ATOM     75  F   UNL A   1      43.054  24.142  24.782  1.00  0.00    -0.206 F 
ATOM     76  C   UNL A   1      42.451  21.060  26.569  1.00  0.00     0.060 A 
BRANCH  76  77
ATOM     77  S   UNL A   1      41.896  19.371  26.252  1.00  0.00     0.124 S 
ATOM     78  O   UNL A   1      42.289  18.697  27.484  1.00  0.00    -0.237 OA
ATOM     79  O   UNL A   1      40.461  19.552  26.053  1.00  0.00    -0.237 OA
ATOM     80  O   UNL A   1      42.643  18.992  25.056  1.00  0.00    -0.744 OA
ENDBRANCH  76  77
ENDBRANCH  44  69
BRANCH  56  81
ATOM     81  C   UNL A   1      49.298  27.112  26.429  1.00  0.00     0.058 A 
ATOM     82  C   UNL A   1      50.222  26.534  27.313  1.00  0.00     0.135 A 
ATOM     83  C   UNL A   1      49.664  27.227  25.078  1.00  0.00     0.135 A 
ATOM     84  F   UNL A   1      49.922  26.404  28.615  1.00  0.00    -0.206 F 
ATOM     85  C   UNL A   1      51.470  26.103  26.877  1.00  0.00     0.059 A 
ATOM     86  C   UNL A   1      50.897  26.782  24.616  1.00  0.00     0.059 A 
ATOM     87  F   UNL A   1      48.811  27.763  24.190  1.00  0.00    -0.206 F 
ATOM     88  C   UNL A   1      51.800  26.230  25.526  1.00  0.00     0.060 A 
BRANCH  88  89
ATOM     89  S   UNL A   1      53.410  25.638  24.966  1.00  0.00     0.124 S 
ATOM     90  O   UNL A   1      54.299  26.675  25.477  1.00  0.00    -0.237 OA
ATOM     91  O   UNL A   1      53.510  24.336  25.619  1.00  0.00    -0.237 OA
ATOM     92  O   UNL A   1      53.268  25.593  23.513  1.00  0.00    -0.744 OA
ENDBRANCH  88  89
ENDBRANCH  56  81
ENDBRANCH  30  31
ENDBRANCH  23  25
ENDBRANCH  22  23
ENDBRANCH  21  22
ENDBRANCH   1  21
TORSDOF 20
ENDMDL
