MODEL 1
REMARK VINA RESULT:     -11.1      0.000      0.000
REMARK SMILES COc1ccc(OC)c(/C=N/[NH+]=C2/NC(=O)[C@@H](CC(=O)OCCOCCOC(=O)c3ccc(-c4c5nc(c(-c6c(F)cc(S(=O)(=O)[O-])cc6F)c6ccc([nH]6)c(-c6c(F)cc(S(=O)(=O)[O-])cc6F)c6nc(c(-c7c(F)cc(S(=O)(=O)[O-])cc7F)c7ccc4[nH]7)C=C6)C=C5)cc3)S2)c1
REMARK SMILES IDX 23 1 22 2 21 3 19 4 20 5 18 6 17 7 12 8 13 9 14 11 96 12
REMARK SMILES IDX 15 13 16 15 11 16 10 17 9 18 3 19 4 20 97 21 5 22 6 23 2 24
REMARK SMILES IDX 1 25 7 26 8 27 24 28 25 29 26 30 27 31 28 32 29 33 30 34
REMARK SMILES IDX 31 35 95 36 32 37 94 38 33 39 34 40 35 41 88 42 36 43 93 44
REMARK SMILES IDX 87 45 89 46 37 47 92 48 86 49 85 50 38 52 72 53 51 54 71 55
REMARK SMILES IDX 52 56 55 57 70 58 90 59 53 60 54 61 69 63 91 64 56 65 39 66
REMARK SMILES IDX 40 67 49 68 41 69 42 70 48 71 50 72 43 73 44 74 45 75 46 76
REMARK SMILES IDX 47 77 73 78 74 79 83 80 75 81 76 82 82 83 84 84 77 85 78 86
REMARK SMILES IDX 79 87 80 88 81 89 57 90 58 91 67 92 59 93 60 94 66 95 68 96
REMARK SMILES IDX 61 97 62 98 63 99 64 100 65 101
REMARK H PARENT 12 10 14 14 89 51 55 62
REMARK Flexibility Score: inf
ROOT
ATOM      1  C   UNL A   1      39.357  22.746  26.823  1.00  0.00     0.202 C 
ENDROOT
BRANCH   1   2
ATOM      2  C   UNL A   1      38.725  21.796  25.787  1.00  0.00     0.261 C 
BRANCH   2   3
ATOM      3  O   UNL A   1      37.282  21.789  25.733  1.00  0.00    -0.463 OA
BRANCH   3   4
ATOM      4  C   UNL A   1      36.771  20.665  25.178  1.00  0.00     0.307 C 
ATOM      5  O   UNL A   1      37.412  19.628  25.018  1.00  0.00    -0.252 OA
BRANCH   4   6
ATOM      6  C   UNL A   1      35.313  20.721  24.788  1.00  0.00     0.150 C 
BRANCH   6   7
ATOM      7  C   UNL A   1      34.148  20.995  25.740  1.00  0.00     0.184 C 
ATOM      8  N   UNL A   1      31.061  23.225  26.555  1.00  0.00    -0.142 N 
ATOM      9  C   UNL A   1      32.061  22.458  26.272  1.00  0.00     0.337 C 
ATOM     10  H   UNL A   1      30.160  22.876  26.368  1.00  0.00     0.343 HD
ATOM     11  N   UNL A   1      31.794  21.265  25.668  1.00  0.00    -0.202 N 
ATOM     12  S   UNL A   1      33.776  22.656  26.435  1.00  0.00    -0.020 SA
ATOM     13  C   UNL A   1      32.822  20.459  25.270  1.00  0.00     0.322 C 
ATOM     14  H   UNL A   1      30.862  20.984  25.520  1.00  0.00     0.316 HD
ATOM     15  O   UNL A   1      32.669  19.396  24.676  1.00  0.00    -0.246 OA
BRANCH   8  16
ATOM     16  N   UNL A   1      31.148  24.531  27.112  1.00  0.00    -0.093 NA
ATOM     17  C   UNL A   1      31.711  25.358  26.283  1.00  0.00     0.170 C 
BRANCH  17  18
ATOM     18  C   UNL A   1      31.500  26.812  26.039  1.00  0.00     0.042 A 
ATOM     19  C   UNL A   1      32.258  29.051  26.725  1.00  0.00     0.119 A 
ATOM     20  C   UNL A   1      31.753  29.583  25.551  1.00  0.00     0.050 A 
ATOM     21  C   UNL A   1      32.124  27.681  26.973  1.00  0.00     0.060 A 
ATOM     22  C   UNL A   1      31.095  28.751  24.644  1.00  0.00     0.051 A 
ATOM     23  C   UNL A   1      30.977  27.364  24.862  1.00  0.00     0.128 A 
BRANCH  19  24
ATOM     24  O   UNL A   1      32.732  29.945  27.646  1.00  0.00    -0.497 OA
ATOM     25  C   UNL A   1      33.787  30.777  27.175  1.00  0.00     0.278 C 
ENDBRANCH  19  24
BRANCH  23  26
ATOM     26  O   UNL A   1      30.277  26.724  23.882  1.00  0.00    -0.496 OA
ATOM     27  C   UNL A   1      29.110  27.373  23.395  1.00  0.00     0.278 C 
ENDBRANCH  23  26
ENDBRANCH  17  18
ENDBRANCH   8  16
ENDBRANCH   6   7
ENDBRANCH   4   6
ENDBRANCH   3   4
ENDBRANCH   2   3
ENDBRANCH   1   2
BRANCH   1  28
ATOM     28  O   UNL A   1      40.515  22.330  27.525  1.00  0.00    -0.374 OA
BRANCH  28  29
ATOM     29  C   UNL A   1      41.701  22.073  26.783  1.00  0.00     0.202 C 
BRANCH  29  30
ATOM     30  C   UNL A   1      42.234  23.145  25.824  1.00  0.00     0.261 C 
BRANCH  30  31
ATOM     31  O   UNL A   1      42.650  24.401  26.435  1.00  0.00    -0.460 OA
BRANCH  31  32
ATOM     32  C   UNL A   1      41.854  25.464  26.147  1.00  0.00     0.338 C 
ATOM     33  O   UNL A   1      41.534  25.778  25.007  1.00  0.00    -0.246 OA
BRANCH  32  34
ATOM     34  C   UNL A   1      41.512  26.376  27.277  1.00  0.00     0.060 A 
ATOM     35  C   UNL A   1      42.443  27.397  27.516  1.00  0.00     0.016 A 
ATOM     36  C   UNL A   1      40.476  26.188  28.192  1.00  0.00     0.016 A 
ATOM     37  C   UNL A   1      42.434  28.123  28.705  1.00  0.00     0.010 A 
ATOM     38  C   UNL A   1      40.476  26.895  29.404  1.00  0.00     0.010 A 
ATOM     39  C   UNL A   1      41.466  27.855  29.675  1.00  0.00    -0.014 A 
BRANCH  39  40
ATOM     40  C   UNL A   1      41.307  28.773  30.824  1.00  0.00     0.031 A 
ATOM     41  C   UNL A   1      42.047  28.621  32.119  1.00  0.00     0.074 A 
ATOM     42  C   UNL A   1      40.369  29.723  30.677  1.00  0.00     0.049 A 
ATOM     43  N   UNL A   1      41.987  29.365  33.194  1.00  0.00    -0.248 NA
ATOM     44  C   UNL A   1      42.955  27.476  32.236  1.00  0.00     0.031 C 
ATOM     45  C   UNL A   1      39.548  29.902  29.475  1.00  0.00     0.029 A 
ATOM     46  N   UNL A   1      39.910  30.671  31.545  1.00  0.00    -0.354 N 
ATOM     47  C   UNL A   1      42.848  28.781  34.119  1.00  0.00     0.074 A 
ATOM     48  C   UNL A   1      43.394  27.599  33.485  1.00  0.00     0.031 C 
ATOM     49  C   UNL A   1      38.639  30.856  29.708  1.00  0.00     0.029 A 
ATOM     50  C   UNL A   1      38.831  31.364  31.060  1.00  0.00     0.049 A 
ATOM     51  H   UNL A   1      40.313  30.838  32.428  1.00  0.00     0.167 HD
ATOM     52  C   UNL A   1      43.147  29.207  35.375  1.00  0.00     0.037 A 
ATOM     53  C   UNL A   1      38.073  32.305  31.644  1.00  0.00     0.037 A 
ATOM     54  C   UNL A   1      42.563  30.385  35.977  1.00  0.00     0.049 A 
ATOM     55  C   UNL A   1      38.448  32.790  33.009  1.00  0.00     0.074 A 
ATOM     56  C   UNL A   1      42.873  30.980  37.189  1.00  0.00     0.029 A 
ATOM     57  N   UNL A   1      41.528  31.129  35.427  1.00  0.00    -0.354 N 
ATOM     58  N   UNL A   1      39.381  32.337  33.811  1.00  0.00    -0.248 NA
ATOM     59  C   UNL A   1      37.702  33.940  33.528  1.00  0.00     0.031 C 
ATOM     60  C   UNL A   1      41.983  32.040  37.400  1.00  0.00     0.029 A 
ATOM     61  C   UNL A   1      41.164  32.152  36.289  1.00  0.00     0.049 A 
ATOM     62  H   UNL A   1      41.113  30.956  34.551  1.00  0.00     0.167 HD
ATOM     63  C   UNL A   1      39.358  33.170  34.922  1.00  0.00     0.074 A 
ATOM     64  C   UNL A   1      38.325  34.158  34.678  1.00  0.00     0.031 C 
ATOM     65  C   UNL A   1      40.128  33.125  36.037  1.00  0.00     0.037 A 
BRANCH  52  66
ATOM     66  C   UNL A   1      44.149  28.428  36.195  1.00  0.00     0.058 A 
ATOM     67  C   UNL A   1      45.503  28.796  36.255  1.00  0.00     0.135 A 
ATOM     68  C   UNL A   1      43.731  27.374  37.031  1.00  0.00     0.135 A 
ATOM     69  F   UNL A   1      45.966  29.795  35.485  1.00  0.00    -0.206 F 
ATOM     70  C   UNL A   1      46.404  28.147  37.096  1.00  0.00     0.059 A 
ATOM     71  C   UNL A   1      44.610  26.729  37.901  1.00  0.00     0.059 A 
ATOM     72  F   UNL A   1      42.449  26.979  37.028  1.00  0.00    -0.206 F 
ATOM     73  C   UNL A   1      45.947  27.119  37.922  1.00  0.00     0.060 A 
BRANCH  73  74
ATOM     74  S   UNL A   1      47.125  26.318  39.034  1.00  0.00     0.124 S 
ATOM     75  O   UNL A   1      48.308  27.154  38.857  1.00  0.00    -0.237 OA
ATOM     76  O   UNL A   1      46.458  26.433  40.328  1.00  0.00    -0.237 OA
ATOM     77  O   UNL A   1      47.230  24.963  38.505  1.00  0.00    -0.744 OA
ENDBRANCH  73  74
ENDBRANCH  52  66
BRANCH  53  78
ATOM     78  C   UNL A   1      36.949  32.887  30.877  1.00  0.00     0.058 A 
ATOM     79  C   UNL A   1      35.626  32.604  31.237  1.00  0.00     0.135 A 
ATOM     80  C   UNL A   1      37.173  33.811  29.844  1.00  0.00     0.135 A 
ATOM     81  F   UNL A   1      35.371  31.745  32.236  1.00  0.00    -0.206 F 
ATOM     82  C   UNL A   1      34.556  33.199  30.584  1.00  0.00     0.059 A 
ATOM     83  C   UNL A   1      36.119  34.439  29.191  1.00  0.00     0.059 A 
ATOM     84  F   UNL A   1      38.426  34.148  29.502  1.00  0.00    -0.206 F 
ATOM     85  C   UNL A   1      34.814  34.117  29.562  1.00  0.00     0.060 A 
BRANCH  85  86
ATOM     86  S   UNL A   1      33.411  34.919  28.760  1.00  0.00     0.124 S 
ATOM     87  O   UNL A   1      33.111  33.976  27.689  1.00  0.00    -0.237 OA
ATOM     88  O   UNL A   1      32.437  34.985  29.845  1.00  0.00    -0.237 OA
ATOM     89  O   UNL A   1      33.956  36.205  28.338  1.00  0.00    -0.744 OA
ENDBRANCH  85  86
ENDBRANCH  53  78
BRANCH  65  90
ATOM     90  C   UNL A   1      39.897  34.191  37.072  1.00  0.00     0.058 A 
ATOM     91  C   UNL A   1      39.034  33.989  38.160  1.00  0.00     0.135 A 
ATOM     92  C   UNL A   1      40.582  35.414  36.995  1.00  0.00     0.135 A 
ATOM     93  F   UNL A   1      38.344  32.843  38.273  1.00  0.00    -0.206 F 
ATOM     94  C   UNL A   1      38.841  34.972  39.125  1.00  0.00     0.059 A 
ATOM     95  C   UNL A   1      40.429  36.399  37.965  1.00  0.00     0.059 A 
ATOM     96  F   UNL A   1      41.422  35.657  35.976  1.00  0.00    -0.206 F 
ATOM     97  C   UNL A   1      39.548  36.171  39.022  1.00  0.00     0.060 A 
BRANCH  97  98
ATOM     98  S   UNL A   1      39.322  37.420  40.306  1.00  0.00     0.124 S 
ATOM     99  O   UNL A   1      38.253  38.234  39.740  1.00  0.00    -0.237 OA
ATOM    100  O   UNL A   1      38.957  36.609  41.464  1.00  0.00    -0.237 OA
ATOM    101  O   UNL A   1      40.628  38.066  40.387  1.00  0.00    -0.744 OA
ENDBRANCH  97  98
ENDBRANCH  65  90
ENDBRANCH  39  40
ENDBRANCH  32  34
ENDBRANCH  31  32
ENDBRANCH  30  31
ENDBRANCH  29  30
ENDBRANCH  28  29
ENDBRANCH   1  28
TORSDOF 22
ENDMDL
MODEL 2
REMARK VINA RESULT:     -10.4      1.123      2.142
REMARK SMILES COc1ccc(OC)c(/C=N/[NH+]=C2/NC(=O)[C@@H](CC(=O)OCCOCCOC(=O)c3ccc(-c4c5nc(c(-c6c(F)cc(S(=O)(=O)[O-])cc6F)c6ccc([nH]6)c(-c6c(F)cc(S(=O)(=O)[O-])cc6F)c6nc(c(-c7c(F)cc(S(=O)(=O)[O-])cc7F)c7ccc4[nH]7)C=C6)C=C5)cc3)S2)c1
REMARK SMILES IDX 23 1 22 2 21 3 19 4 20 5 18 6 17 7 12 8 13 9 14 11 96 12
REMARK SMILES IDX 15 13 16 15 11 16 10 17 9 18 3 19 4 20 97 21 5 22 6 23 2 24
REMARK SMILES IDX 1 25 7 26 8 27 24 28 25 29 26 30 27 31 28 32 29 33 30 34
REMARK SMILES IDX 31 35 95 36 32 37 94 38 33 39 34 40 35 41 88 42 36 43 93 44
REMARK SMILES IDX 87 45 89 46 37 47 92 48 86 49 85 50 38 52 72 53 51 54 71 55
REMARK SMILES IDX 52 56 55 57 70 58 90 59 53 60 54 61 69 63 91 64 56 65 39 66
REMARK SMILES IDX 40 67 49 68 41 69 42 70 48 71 50 72 43 73 44 74 45 75 46 76
REMARK SMILES IDX 47 77 73 78 74 79 83 80 75 81 76 82 82 83 84 84 77 85 78 86
REMARK SMILES IDX 79 87 80 88 81 89 57 90 58 91 67 92 59 93 60 94 66 95 68 96
REMARK SMILES IDX 61 97 62 98 63 99 64 100 65 101
REMARK H PARENT 12 10 14 14 89 51 55 62
REMARK Flexibility Score: inf
ROOT
ATOM      1  C   UNL A   1      39.684  22.478  26.652  1.00  0.00     0.202 C 
ENDROOT
BRANCH   1   2
ATOM      2  C   UNL A   1      38.578  21.833  25.793  1.00  0.00     0.261 C 
BRANCH   2   3
ATOM      3  O   UNL A   1      37.355  22.590  25.664  1.00  0.00    -0.463 OA
BRANCH   3   4
ATOM      4  C   UNL A   1      36.604  22.218  24.602  1.00  0.00     0.307 C 
ATOM      5  O   UNL A   1      36.925  22.415  23.432  1.00  0.00    -0.252 OA
BRANCH   4   6
ATOM      6  C   UNL A   1      35.324  21.481  24.921  1.00  0.00     0.150 C 
BRANCH   6   7
ATOM      7  C   UNL A   1      34.004  22.130  25.336  1.00  0.00     0.184 C 
ATOM      8  N   UNL A   1      30.585  23.589  24.175  1.00  0.00    -0.142 N 
ATOM      9  C   UNL A   1      31.700  23.074  24.572  1.00  0.00     0.337 C 
ATOM     10  H   UNL A   1      29.770  23.049  24.301  1.00  0.00     0.343 HD
ATOM     11  N   UNL A   1      31.673  21.800  25.059  1.00  0.00    -0.202 N 
ATOM     12  S   UNL A   1      33.335  23.653  24.553  1.00  0.00    -0.020 SA
ATOM     13  C   UNL A   1      32.838  21.181  25.408  1.00  0.00     0.322 C 
ATOM     14  H   UNL A   1      30.815  21.328  25.158  1.00  0.00     0.316 HD
ATOM     15  O   UNL A   1      32.906  20.021  25.805  1.00  0.00    -0.246 OA
BRANCH   8  16
ATOM     16  N   UNL A   1      30.429  24.867  23.571  1.00  0.00    -0.093 NA
ATOM     17  C   UNL A   1      30.360  25.804  24.467  1.00  0.00     0.170 C 
BRANCH  17  18
ATOM     18  C   UNL A   1      30.821  27.220  24.457  1.00  0.00     0.042 A 
ATOM     19  C   UNL A   1      30.144  29.504  23.835  1.00  0.00     0.119 A 
ATOM     20  C   UNL A   1      31.104  30.022  24.688  1.00  0.00     0.050 A 
ATOM     21  C   UNL A   1      30.010  28.117  23.711  1.00  0.00     0.060 A 
ATOM     22  C   UNL A   1      31.940  29.155  25.392  1.00  0.00     0.051 A 
ATOM     23  C   UNL A   1      31.800  27.756  25.304  1.00  0.00     0.128 A 
BRANCH  19  24
ATOM     24  O   UNL A   1      29.479  30.403  23.046  1.00  0.00    -0.497 OA
ATOM     25  C   UNL A   1      29.422  30.051  21.667  1.00  0.00     0.278 C 
ENDBRANCH  19  24
BRANCH  23  26
ATOM     26  O   UNL A   1      32.725  27.076  26.040  1.00  0.00    -0.496 OA
ATOM     27  C   UNL A   1      33.670  27.852  26.764  1.00  0.00     0.278 C 
ENDBRANCH  23  26
ENDBRANCH  17  18
ENDBRANCH   8  16
ENDBRANCH   6   7
ENDBRANCH   4   6
ENDBRANCH   3   4
ENDBRANCH   2   3
ENDBRANCH   1   2
BRANCH   1  28
ATOM     28  O   UNL A   1      40.417  21.670  27.555  1.00  0.00    -0.374 OA
BRANCH  28  29
ATOM     29  C   UNL A   1      41.806  21.475  27.316  1.00  0.00     0.202 C 
BRANCH  29  30
ATOM     30  C   UNL A   1      42.520  22.351  26.278  1.00  0.00     0.261 C 
BRANCH  30  31
ATOM     31  O   UNL A   1      43.196  23.534  26.796  1.00  0.00    -0.460 OA
BRANCH  31  32
ATOM     32  C   UNL A   1      42.487  24.688  26.686  1.00  0.00     0.338 C 
ATOM     33  O   UNL A   1      41.990  25.076  25.636  1.00  0.00    -0.246 OA
BRANCH  32  34
ATOM     34  C   UNL A   1      42.478  25.589  27.874  1.00  0.00     0.060 A 
ATOM     35  C   UNL A   1      41.290  25.575  28.618  1.00  0.00     0.016 A 
ATOM     36  C   UNL A   1      43.449  26.543  28.182  1.00  0.00     0.016 A 
ATOM     37  C   UNL A   1      41.006  26.570  29.551  1.00  0.00     0.010 A 
ATOM     38  C   UNL A   1      43.160  27.564  29.100  1.00  0.00     0.010 A 
ATOM     39  C   UNL A   1      41.929  27.593  29.777  1.00  0.00    -0.014 A 
BRANCH  39  40
ATOM     40  C   UNL A   1      41.740  28.509  30.924  1.00  0.00     0.031 A 
ATOM     41  C   UNL A   1      42.473  28.377  32.224  1.00  0.00     0.074 A 
ATOM     42  C   UNL A   1      40.782  29.438  30.767  1.00  0.00     0.049 A 
ATOM     43  N   UNL A   1      42.387  29.121  33.298  1.00  0.00    -0.248 NA
ATOM     44  C   UNL A   1      43.406  27.253  32.351  1.00  0.00     0.031 C 
ATOM     45  C   UNL A   1      39.966  29.596  29.558  1.00  0.00     0.029 A 
ATOM     46  N   UNL A   1      40.294  30.376  31.630  1.00  0.00    -0.354 N 
ATOM     47  C   UNL A   1      43.253  28.559  34.231  1.00  0.00     0.074 A 
ATOM     48  C   UNL A   1      43.832  27.388  33.603  1.00  0.00     0.031 C 
ATOM     49  C   UNL A   1      39.034  30.529  29.782  1.00  0.00     0.029 A 
ATOM     50  C   UNL A   1      39.204  31.043  31.134  1.00  0.00     0.049 A 
ATOM     51  H   UNL A   1      40.685  30.554  32.516  1.00  0.00     0.167 HD
ATOM     52  C   UNL A   1      43.532  28.993  35.488  1.00  0.00     0.037 A 
ATOM     53  C   UNL A   1      38.420  31.968  31.710  1.00  0.00     0.037 A 
ATOM     54  C   UNL A   1      42.917  30.158  36.084  1.00  0.00     0.049 A 
ATOM     55  C   UNL A   1      38.773  32.464  33.077  1.00  0.00     0.074 A 
ATOM     56  C   UNL A   1      43.203  30.762  37.297  1.00  0.00     0.029 A 
ATOM     57  N   UNL A   1      41.869  30.878  35.524  1.00  0.00    -0.354 N 
ATOM     58  N   UNL A   1      39.709  32.034  33.888  1.00  0.00    -0.248 NA
ATOM     59  C   UNL A   1      37.996  33.597  33.589  1.00  0.00     0.031 C 
ATOM     60  C   UNL A   1      42.288  31.802  37.499  1.00  0.00     0.029 A 
ATOM     61  C   UNL A   1      41.475  31.894  36.381  1.00  0.00     0.049 A 
ATOM     62  H   UNL A   1      41.466  30.694  34.644  1.00  0.00     0.167 HD
ATOM     63  C   UNL A   1      39.657  32.867  34.997  1.00  0.00     0.074 A 
ATOM     64  C   UNL A   1      38.604  33.831  34.743  1.00  0.00     0.031 C 
ATOM     65  C   UNL A   1      40.419  32.842  36.118  1.00  0.00     0.037 A 
BRANCH  52  66
ATOM     66  C   UNL A   1      44.545  28.238  36.318  1.00  0.00     0.058 A 
ATOM     67  C   UNL A   1      45.913  28.556  36.285  1.00  0.00     0.135 A 
ATOM     68  C   UNL A   1      44.132  27.268  37.251  1.00  0.00     0.135 A 
ATOM     69  F   UNL A   1      46.373  29.474  35.420  1.00  0.00    -0.206 F 
ATOM     70  C   UNL A   1      46.830  27.936  37.131  1.00  0.00     0.059 A 
ATOM     71  C   UNL A   1      45.029  26.656  38.126  1.00  0.00     0.059 A 
ATOM     72  F   UNL A   1      42.837  26.926  37.340  1.00  0.00    -0.206 F 
ATOM     73  C   UNL A   1      46.379  26.992  38.054  1.00  0.00     0.060 A 
BRANCH  73  74
ATOM     74  S   UNL A   1      47.580  26.231  39.168  1.00  0.00     0.124 S 
ATOM     75  O   UNL A   1      48.832  26.474  38.457  1.00  0.00    -0.237 OA
ATOM     76  O   UNL A   1      47.394  26.997  40.397  1.00  0.00    -0.237 OA
ATOM     77  O   UNL A   1      47.155  24.837  39.231  1.00  0.00    -0.744 OA
ENDBRANCH  73  74
ENDBRANCH  52  66
BRANCH  53  78
ATOM     78  C   UNL A   1      37.288  32.522  30.934  1.00  0.00     0.058 A 
ATOM     79  C   UNL A   1      37.516  33.472  29.930  1.00  0.00     0.135 A 
ATOM     80  C   UNL A   1      35.981  32.041  31.108  1.00  0.00     0.135 A 
ATOM     81  F   UNL A   1      38.757  33.937  29.716  1.00  0.00    -0.206 F 
ATOM     82  C   UNL A   1      36.482  33.947  29.137  1.00  0.00     0.059 A 
ATOM     83  C   UNL A   1      34.932  32.484  30.310  1.00  0.00     0.059 A 
ATOM     84  F   UNL A   1      35.728  31.094  32.024  1.00  0.00    -0.206 F 
ATOM     85  C   UNL A   1      35.193  33.445  29.334  1.00  0.00     0.060 A 
BRANCH  85  86
ATOM     86  S   UNL A   1      33.872  34.038  28.258  1.00  0.00     0.124 S 
ATOM     87  O   UNL A   1      32.815  34.316  29.223  1.00  0.00    -0.237 OA
ATOM     88  O   UNL A   1      34.490  35.202  27.631  1.00  0.00    -0.237 OA
ATOM     89  O   UNL A   1      33.633  32.908  27.366  1.00  0.00    -0.744 OA
ENDBRANCH  85  86
ENDBRANCH  53  78
BRANCH  65  90
ATOM     90  C   UNL A   1      40.155  33.904  37.150  1.00  0.00     0.058 A 
ATOM     91  C   UNL A   1      40.886  35.101  37.180  1.00  0.00     0.135 A 
ATOM     92  C   UNL A   1      39.130  33.735  38.094  1.00  0.00     0.135 A 
ATOM     93  F   UNL A   1      41.887  35.306  36.309  1.00  0.00    -0.206 F 
ATOM     94  C   UNL A   1      40.623  36.088  38.125  1.00  0.00     0.059 A 
ATOM     95  C   UNL A   1      38.829  34.722  39.028  1.00  0.00     0.059 A 
ATOM     96  F   UNL A   1      38.399  32.610  38.107  1.00  0.00    -0.206 F 
ATOM     97  C   UNL A   1      39.588  35.891  39.041  1.00  0.00     0.060 A 
BRANCH  97  98
ATOM     98  S   UNL A   1      39.229  37.199  40.232  1.00  0.00     0.124 S 
ATOM     99  O   UNL A   1      40.567  37.547  40.698  1.00  0.00    -0.237 OA
ATOM    100  O   UNL A   1      38.566  38.200  39.401  1.00  0.00    -0.237 OA
ATOM    101  O   UNL A   1      38.374  36.541  41.213  1.00  0.00    -0.744 OA
ENDBRANCH  97  98
ENDBRANCH  65  90
ENDBRANCH  39  40
ENDBRANCH  32  34
ENDBRANCH  31  32
ENDBRANCH  30  31
ENDBRANCH  29  30
ENDBRANCH  28  29
ENDBRANCH   1  28
TORSDOF 22
ENDMDL
MODEL 3
REMARK VINA RESULT:      -9.1     10.389     17.293
REMARK SMILES COc1ccc(OC)c(/C=N/[NH+]=C2/NC(=O)[C@@H](CC(=O)OCCOCCOC(=O)c3ccc(-c4c5nc(c(-c6c(F)cc(S(=O)(=O)[O-])cc6F)c6ccc([nH]6)c(-c6c(F)cc(S(=O)(=O)[O-])cc6F)c6nc(c(-c7c(F)cc(S(=O)(=O)[O-])cc7F)c7ccc4[nH]7)C=C6)C=C5)cc3)S2)c1
REMARK SMILES IDX 23 1 22 2 21 3 19 4 20 5 18 6 17 7 12 8 13 9 14 11 96 12
REMARK SMILES IDX 15 13 16 15 11 16 10 17 9 18 3 19 4 20 97 21 5 22 6 23 2 24
REMARK SMILES IDX 1 25 7 26 8 27 24 28 25 29 26 30 27 31 28 32 29 33 30 34
REMARK SMILES IDX 31 35 95 36 32 37 94 38 33 39 34 40 35 41 88 42 36 43 93 44
REMARK SMILES IDX 87 45 89 46 37 47 92 48 86 49 85 50 38 52 72 53 51 54 71 55
REMARK SMILES IDX 52 56 55 57 70 58 90 59 53 60 54 61 69 63 91 64 56 65 39 66
REMARK SMILES IDX 40 67 49 68 41 69 42 70 48 71 50 72 43 73 44 74 45 75 46 76
REMARK SMILES IDX 47 77 73 78 74 79 83 80 75 81 76 82 82 83 84 84 77 85 78 86
REMARK SMILES IDX 79 87 80 88 81 89 57 90 58 91 67 92 59 93 60 94 66 95 68 96
REMARK SMILES IDX 61 97 62 98 63 99 64 100 65 101
REMARK H PARENT 12 10 14 14 89 51 55 62
REMARK Flexibility Score: inf
ROOT
ATOM      1  C   UNL A   1      47.394  43.066  28.249  1.00  0.00     0.202 C 
ENDROOT
BRANCH   1   2
ATOM      2  C   UNL A   1      45.915  42.993  27.821  1.00  0.00     0.261 C 
BRANCH   2   3
ATOM      3  O   UNL A   1      45.632  43.377  26.458  1.00  0.00    -0.463 OA
BRANCH   3   4
ATOM      4  C   UNL A   1      45.440  42.322  25.632  1.00  0.00     0.307 C 
ATOM      5  O   UNL A   1      46.325  41.530  25.315  1.00  0.00    -0.252 OA
BRANCH   4   6
ATOM      6  C   UNL A   1      44.029  42.121  25.131  1.00  0.00     0.150 C 
BRANCH   6   7
ATOM      7  C   UNL A   1      43.349  42.941  24.035  1.00  0.00     0.184 C 
ATOM      8  N   UNL A   1      42.700  43.379  20.220  1.00  0.00    -0.142 N 
ATOM      9  C   UNL A   1      42.880  43.220  21.489  1.00  0.00     0.337 C 
ATOM     10  H   UNL A   1      41.826  43.111  19.853  1.00  0.00     0.343 HD
ATOM     11  N   UNL A   1      41.880  42.625  22.202  1.00  0.00    -0.202 N 
ATOM     12  S   UNL A   1      44.223  43.550  22.536  1.00  0.00    -0.020 SA
ATOM     13  C   UNL A   1      42.059  42.356  23.528  1.00  0.00     0.322 C 
ATOM     14  H   UNL A   1      41.032  42.391  21.761  1.00  0.00     0.316 HD
ATOM     15  O   UNL A   1      41.232  41.779  24.228  1.00  0.00    -0.246 OA
BRANCH   8  16
ATOM     16  N   UNL A   1      43.654  43.905  19.306  1.00  0.00    -0.093 NA
ATOM     17  C   UNL A   1      43.155  44.892  18.624  1.00  0.00     0.170 C 
BRANCH  17  18
ATOM     18  C   UNL A   1      43.775  46.130  18.076  1.00  0.00     0.042 A 
ATOM     19  C   UNL A   1      45.933  47.267  17.744  1.00  0.00     0.119 A 
ATOM     20  C   UNL A   1      45.367  48.057  16.758  1.00  0.00     0.050 A 
ATOM     21  C   UNL A   1      45.144  46.320  18.405  1.00  0.00     0.060 A 
ATOM     22  C   UNL A   1      44.011  47.916  16.456  1.00  0.00     0.051 A 
ATOM     23  C   UNL A   1      43.209  46.947  17.089  1.00  0.00     0.128 A 
BRANCH  19  24
ATOM     24  O   UNL A   1      47.214  47.575  18.113  1.00  0.00    -0.497 OA
ATOM     25  C   UNL A   1      47.730  48.763  17.521  1.00  0.00     0.278 C 
ENDBRANCH  19  24
BRANCH  23  26
ATOM     26  O   UNL A   1      41.906  46.980  16.684  1.00  0.00    -0.496 OA
ATOM     27  C   UNL A   1      41.386  48.244  16.293  1.00  0.00     0.278 C 
ENDBRANCH  23  26
ENDBRANCH  17  18
ENDBRANCH   8  16
ENDBRANCH   6   7
ENDBRANCH   4   6
ENDBRANCH   3   4
ENDBRANCH   2   3
ENDBRANCH   1   2
BRANCH   1  28
ATOM     28  O   UNL A   1      48.137  41.866  28.372  1.00  0.00    -0.374 OA
BRANCH  28  29
ATOM     29  C   UNL A   1      47.455  40.685  28.774  1.00  0.00     0.202 C 
BRANCH  29  30
ATOM     30  C   UNL A   1      47.920  39.326  28.234  1.00  0.00     0.261 C 
BRANCH  30  31
ATOM     31  O   UNL A   1      47.482  38.155  28.983  1.00  0.00    -0.460 OA
BRANCH  31  32
ATOM     32  C   UNL A   1      48.228  37.038  28.780  1.00  0.00     0.338 C 
ATOM     33  O   UNL A   1      49.444  37.056  28.635  1.00  0.00    -0.246 OA
BRANCH  32  34
ATOM     34  C   UNL A   1      47.486  35.764  28.555  1.00  0.00     0.060 A 
ATOM     35  C   UNL A   1      47.578  34.833  29.601  1.00  0.00     0.016 A 
ATOM     36  C   UNL A   1      46.887  35.369  27.359  1.00  0.00     0.016 A 
ATOM     37  C   UNL A   1      47.215  33.501  29.419  1.00  0.00     0.010 A 
ATOM     38  C   UNL A   1      46.544  34.023  27.159  1.00  0.00     0.010 A 
ATOM     39  C   UNL A   1      46.723  33.077  28.183  1.00  0.00    -0.014 A 
BRANCH  39  40
ATOM     40  C   UNL A   1      46.120  31.732  28.057  1.00  0.00     0.031 A 
ATOM     41  C   UNL A   1      44.734  31.395  28.515  1.00  0.00     0.074 A 
ATOM     42  C   UNL A   1      46.937  30.777  27.580  1.00  0.00     0.049 A 
ATOM     43  N   UNL A   1      44.102  30.250  28.456  1.00  0.00    -0.248 NA
ATOM     44  C   UNL A   1      43.961  32.470  29.143  1.00  0.00     0.031 C 
ATOM     45  C   UNL A   1      48.329  31.000  27.174  1.00  0.00     0.029 A 
ATOM     46  N   UNL A   1      46.745  29.437  27.410  1.00  0.00    -0.354 N 
ATOM     47  C   UNL A   1      42.855  30.463  29.038  1.00  0.00     0.074 A 
ATOM     48  C   UNL A   1      42.835  31.845  29.474  1.00  0.00     0.031 C 
ATOM     49  C   UNL A   1      48.885  29.822  26.865  1.00  0.00     0.029 A 
ATOM     50  C   UNL A   1      47.884  28.776  27.031  1.00  0.00     0.049 A 
ATOM     51  H   UNL A   1      45.876  28.992  27.545  1.00  0.00     0.167 HD
ATOM     52  C   UNL A   1      41.833  29.580  29.183  1.00  0.00     0.037 A 
ATOM     53  C   UNL A   1      48.103  27.466  26.842  1.00  0.00     0.037 A 
ATOM     54  C   UNL A   1      41.903  28.202  28.749  1.00  0.00     0.049 A 
ATOM     55  C   UNL A   1      46.952  26.517  26.963  1.00  0.00     0.074 A 
ATOM     56  C   UNL A   1      40.898  27.248  28.735  1.00  0.00     0.029 A 
ATOM     57  N   UNL A   1      43.049  27.572  28.282  1.00  0.00    -0.354 N 
ATOM     58  N   UNL A   1      45.726  26.763  27.356  1.00  0.00    -0.248 NA
ATOM     59  C   UNL A   1      47.200  25.126  26.573  1.00  0.00     0.031 C 
ATOM     60  C   UNL A   1      41.451  26.030  28.324  1.00  0.00     0.029 A 
ATOM     61  C   UNL A   1      42.785  26.238  28.013  1.00  0.00     0.049 A 
ATOM     62  H   UNL A   1      43.922  28.010  28.159  1.00  0.00     0.167 HD
ATOM     63  C   UNL A   1      45.042  25.561  27.229  1.00  0.00     0.074 A 
ATOM     64  C   UNL A   1      45.993  24.596  26.712  1.00  0.00     0.031 C 
ATOM     65  C   UNL A   1      43.744  25.285  27.506  1.00  0.00     0.037 A 
BRANCH  52  66
ATOM     66  C   UNL A   1      40.544  30.047  29.819  1.00  0.00     0.058 A 
ATOM     67  C   UNL A   1      39.387  30.282  29.058  1.00  0.00     0.135 A 
ATOM     68  C   UNL A   1      40.425  30.142  31.218  1.00  0.00     0.135 A 
ATOM     69  F   UNL A   1      39.431  30.205  27.718  1.00  0.00    -0.206 F 
ATOM     70  C   UNL A   1      38.169  30.604  29.655  1.00  0.00     0.059 A 
ATOM     71  C   UNL A   1      39.210  30.436  31.837  1.00  0.00     0.059 A 
ATOM     72  F   UNL A   1      41.491  29.920  32.003  1.00  0.00    -0.206 F 
ATOM     73  C   UNL A   1      38.088  30.672  31.046  1.00  0.00     0.060 A 
BRANCH  73  74
ATOM     74  S   UNL A   1      36.490  31.052  31.799  1.00  0.00     0.124 S 
ATOM     75  O   UNL A   1      35.721  31.500  30.642  1.00  0.00    -0.237 OA
ATOM     76  O   UNL A   1      36.096  29.763  32.359  1.00  0.00    -0.237 OA
ATOM     77  O   UNL A   1      36.809  32.086  32.777  1.00  0.00    -0.744 OA
ENDBRANCH  73  74
ENDBRANCH  52  66
BRANCH  53  78
ATOM     78  C   UNL A   1      49.456  27.023  26.435  1.00  0.00     0.058 A 
ATOM     79  C   UNL A   1      50.372  26.574  27.393  1.00  0.00     0.135 A 
ATOM     80  C   UNL A   1      49.819  26.944  25.081  1.00  0.00     0.135 A 
ATOM     81  F   UNL A   1      50.051  26.610  28.696  1.00  0.00    -0.206 F 
ATOM     82  C   UNL A   1      51.616  26.081  27.029  1.00  0.00     0.059 A 
ATOM     83  C   UNL A   1      51.050  26.431  24.689  1.00  0.00     0.059 A 
ATOM     84  F   UNL A   1      48.951  27.317  24.127  1.00  0.00    -0.206 F 
ATOM     85  C   UNL A   1      51.945  26.012  25.673  1.00  0.00     0.060 A 
BRANCH  85  86
ATOM     86  S   UNL A   1      53.547  25.320  25.216  1.00  0.00     0.124 S 
ATOM     87  O   UNL A   1      54.401  25.839  26.278  1.00  0.00    -0.237 OA
ATOM     88  O   UNL A   1      53.280  23.886  25.253  1.00  0.00    -0.237 OA
ATOM     89  O   UNL A   1      53.784  25.872  23.886  1.00  0.00    -0.744 OA
ENDBRANCH  85  86
ENDBRANCH  53  78
BRANCH  65  90
ATOM     90  C   UNL A   1      43.268  23.885  27.235  1.00  0.00     0.058 A 
ATOM     91  C   UNL A   1      43.322  22.884  28.216  1.00  0.00     0.135 A 
ATOM     92  C   UNL A   1      42.712  23.555  25.988  1.00  0.00     0.135 A 
ATOM     93  F   UNL A   1      43.857  23.144  29.420  1.00  0.00    -0.206 F 
ATOM     94  C   UNL A   1      42.861  21.596  27.965  1.00  0.00     0.059 A 
ATOM     95  C   UNL A   1      42.216  22.282  25.725  1.00  0.00     0.059 A 
ATOM     96  F   UNL A   1      42.634  24.476  25.015  1.00  0.00    -0.206 F 
ATOM     97  C   UNL A   1      42.304  21.307  26.718  1.00  0.00     0.060 A 
BRANCH  97  98
ATOM     98  S   UNL A   1      41.668  19.643  26.421  1.00  0.00     0.124 S 
ATOM     99  O   UNL A   1      42.527  19.190  25.333  1.00  0.00    -0.237 OA
ATOM    100  O   UNL A   1      41.884  18.995  27.712  1.00  0.00    -0.237 OA
ATOM    101  O   UNL A   1      40.272  19.871  26.066  1.00  0.00    -0.744 OA
ENDBRANCH  97  98
ENDBRANCH  65  90
ENDBRANCH  39  40
ENDBRANCH  32  34
ENDBRANCH  31  32
ENDBRANCH  30  31
ENDBRANCH  29  30
ENDBRANCH  28  29
ENDBRANCH   1  28
TORSDOF 22
ENDMDL
