MODEL 1
REMARK VINA RESULT:     -11.2      0.000      0.000
REMARK SMILES O=C(C[NH+]1CCN(c2nccc(N3CCCCC3)n2)CC1)OCCOCCOC(=O)c1ccc(-c2c3nc(c(-c4c(F)cc(S(=O)(=O)[O-])cc4F)c4ccc([nH]4)c(-c4c(F)cc(S(=O)(=O)[O-])cc4F)c4nc(c(-c5c(F)cc(S(=O)(=O)[O-])cc5F)c5ccc2[nH]5)C=C4)C=C3)cc1
REMARK SMILES IDX 25 1 24 2 23 3 22 4 2 5 1 6 3 7 4 8 5 9 21 10 6 12 20 13
REMARK SMILES IDX 7 14 8 15 9 16 19 17 10 18 12 19 11 20 13 21 14 22 18 23
REMARK SMILES IDX 15 24 17 25 16 26 26 27 27 28 28 29 29 30 30 31 31 32 32 33
REMARK SMILES IDX 96 34 33 35 95 36 34 37 35 38 36 39 89 40 37 41 94 42 88 43
REMARK SMILES IDX 90 44 38 45 93 46 87 47 86 48 39 50 73 51 52 52 72 53 53 54
REMARK SMILES IDX 56 55 71 56 91 57 54 58 55 59 70 61 92 62 57 63 40 64 41 65
REMARK SMILES IDX 50 66 42 67 43 68 49 69 51 70 44 71 45 72 46 73 47 74 48 75
REMARK SMILES IDX 74 76 75 77 84 78 76 79 77 80 83 81 85 82 78 83 79 84 80 85
REMARK SMILES IDX 81 86 82 87 58 88 59 89 68 90 60 91 61 92 67 93 69 94 62 95
REMARK SMILES IDX 63 96 64 97 65 98 66 99
REMARK H PARENT 4 11 90 49 56 60
REMARK Flexibility Score: inf
ROOT
ATOM      1  O   UNL A   1      46.211  23.306  25.946  1.00  0.00    -0.374 OA
ENDROOT
BRANCH   1   2
ATOM      2  C   UNL A   1      45.931  22.706  24.686  1.00  0.00     0.202 C 
BRANCH   2   3
ATOM      3  C   UNL A   1      46.242  21.233  24.399  1.00  0.00     0.261 C 
BRANCH   3   4
ATOM      4  O   UNL A   1      45.926  20.207  25.364  1.00  0.00    -0.459 OA
BRANCH   4   5
ATOM      5  C   UNL A   1      45.086  19.156  25.341  1.00  0.00     0.361 C 
ATOM      6  O   UNL A   1      45.556  18.021  25.249  1.00  0.00    -0.245 OA
BRANCH   5   7
ATOM      7  C   UNL A   1      43.590  19.369  25.366  1.00  0.00     0.386 C 
BRANCH   7   8
ATOM      8  N   UNL A   1      42.999  19.956  26.575  1.00  0.00    -0.323 N 
ATOM      9  C   UNL A   1      43.058  21.432  26.601  1.00  0.00     0.284 C 
ATOM     10  C   UNL A   1      41.650  19.487  26.933  1.00  0.00     0.284 C 
ATOM     11  H   UNL A   1      43.613  19.591  27.303  1.00  0.00     0.348 HD
ATOM     12  C   UNL A   1      41.933  22.180  25.846  1.00  0.00     0.181 C 
ATOM     13  C   UNL A   1      40.480  20.182  26.211  1.00  0.00     0.181 C 
ATOM     14  N   UNL A   1      40.667  21.623  26.263  1.00  0.00    -0.329 N 
BRANCH  14  15
ATOM     15  C   UNL A   1      39.521  22.362  26.234  1.00  0.00     0.227 A 
ATOM     16  N   UNL A   1      39.425  23.510  26.913  1.00  0.00    -0.221 NA
ATOM     17  N   UNL A   1      38.540  21.855  25.482  1.00  0.00    -0.196 NA
ATOM     18  C   UNL A   1      38.301  24.217  26.704  1.00  0.00     0.119 A 
ATOM     19  C   UNL A   1      37.415  22.553  25.321  1.00  0.00     0.134 A 
ATOM     20  C   UNL A   1      37.270  23.793  25.897  1.00  0.00     0.067 A 
BRANCH  19  21
ATOM     21  N   UNL A   1      36.404  21.960  24.601  1.00  0.00    -0.356 N 
ATOM     22  C   UNL A   1      35.739  22.750  23.571  1.00  0.00     0.118 C 
ATOM     23  C   UNL A   1      35.793  20.728  25.082  1.00  0.00     0.118 C 
ATOM     24  C   UNL A   1      34.256  22.939  23.868  1.00  0.00     0.022 C 
ATOM     25  C   UNL A   1      34.306  20.945  25.374  1.00  0.00     0.022 C 
ATOM     26  C   UNL A   1      33.594  21.606  24.196  1.00  0.00     0.004 C 
ENDBRANCH  19  21
ENDBRANCH  14  15
ENDBRANCH   7   8
ENDBRANCH   5   7
ENDBRANCH   4   5
ENDBRANCH   3   4
ENDBRANCH   2   3
ENDBRANCH   1   2
BRANCH   1  27
ATOM     27  C   UNL A   1      45.831  24.640  26.233  1.00  0.00     0.202 C 
BRANCH  27  28
ATOM     28  C   UNL A   1      44.693  25.232  25.410  1.00  0.00     0.261 C 
BRANCH  28  29
ATOM     29  O   UNL A   1      43.438  25.196  26.091  1.00  0.00    -0.460 OA
BRANCH  29  30
ATOM     30  C   UNL A   1      42.661  26.292  25.902  1.00  0.00     0.338 C 
ATOM     31  O   UNL A   1      42.137  26.663  24.873  1.00  0.00    -0.246 OA
BRANCH  30  32
ATOM     32  C   UNL A   1      42.420  26.912  27.216  1.00  0.00     0.060 A 
ATOM     33  C   UNL A   1      41.519  26.292  28.091  1.00  0.00     0.016 A 
ATOM     34  C   UNL A   1      43.062  28.101  27.569  1.00  0.00     0.016 A 
ATOM     35  C   UNL A   1      41.251  26.869  29.328  1.00  0.00     0.010 A 
ATOM     36  C   UNL A   1      42.778  28.686  28.799  1.00  0.00     0.010 A 
ATOM     37  C   UNL A   1      41.860  28.081  29.676  1.00  0.00    -0.014 A 
BRANCH  37  38
ATOM     38  C   UNL A   1      41.461  28.792  30.908  1.00  0.00     0.031 A 
ATOM     39  C   UNL A   1      40.281  29.718  30.853  1.00  0.00     0.074 A 
ATOM     40  C   UNL A   1      42.173  28.633  32.037  1.00  0.00     0.049 A 
ATOM     41  N   UNL A   1      39.835  30.538  31.765  1.00  0.00    -0.248 NA
ATOM     42  C   UNL A   1      39.505  29.726  29.600  1.00  0.00     0.031 C 
ATOM     43  C   UNL A   1      43.317  27.734  32.194  1.00  0.00     0.029 A 
ATOM     44  N   UNL A   1      42.057  29.245  33.258  1.00  0.00    -0.354 N 
ATOM     45  C   UNL A   1      38.740  31.175  31.195  1.00  0.00     0.074 A 
ATOM     46  C   UNL A   1      38.593  30.655  29.854  1.00  0.00     0.031 C 
ATOM     47  C   UNL A   1      43.819  27.879  33.433  1.00  0.00     0.029 A 
ATOM     48  C   UNL A   1      43.061  28.910  34.136  1.00  0.00     0.049 A 
ATOM     49  H   UNL A   1      41.326  29.865  33.485  1.00  0.00     0.167 HD
ATOM     50  C   UNL A   1      37.936  32.110  31.749  1.00  0.00     0.037 A 
ATOM     51  C   UNL A   1      43.357  29.416  35.349  1.00  0.00     0.037 A 
ATOM     52  C   UNL A   1      38.097  32.608  33.089  1.00  0.00     0.049 A 
ATOM     53  C   UNL A   1      42.480  30.507  35.914  1.00  0.00     0.074 A 
ATOM     54  C   UNL A   1      37.305  33.518  33.766  1.00  0.00     0.029 A 
ATOM     55  N   UNL A   1      39.124  32.251  33.949  1.00  0.00    -0.354 N 
ATOM     56  N   UNL A   1      41.412  31.060  35.391  1.00  0.00    -0.248 NA
ATOM     57  C   UNL A   1      42.851  31.046  37.230  1.00  0.00     0.031 C 
ATOM     58  C   UNL A   1      37.892  33.761  35.011  1.00  0.00     0.029 A 
ATOM     59  C   UNL A   1      39.013  32.956  35.135  1.00  0.00     0.049 A 
ATOM     60  H   UNL A   1      39.828  31.593  33.746  1.00  0.00     0.167 HD
ATOM     61  C   UNL A   1      40.973  31.998  36.321  1.00  0.00     0.074 A 
ATOM     62  C   UNL A   1      41.877  31.919  37.449  1.00  0.00     0.031 C 
ATOM     63  C   UNL A   1      39.924  32.853  36.247  1.00  0.00     0.037 A 
BRANCH  50  64
ATOM     64  C   UNL A   1      36.827  32.684  30.912  1.00  0.00     0.058 A 
ATOM     65  C   UNL A   1      35.495  32.270  31.062  1.00  0.00     0.135 A 
ATOM     66  C   UNL A   1      37.093  33.732  30.014  1.00  0.00     0.135 A 
ATOM     67  F   UNL A   1      35.190  31.258  31.889  1.00  0.00    -0.206 F 
ATOM     68  C   UNL A   1      34.463  32.880  30.355  1.00  0.00     0.059 A 
ATOM     69  C   UNL A   1      36.075  34.372  29.316  1.00  0.00     0.059 A 
ATOM     70  F   UNL A   1      38.353  34.156  29.826  1.00  0.00    -0.206 F 
ATOM     71  C   UNL A   1      34.762  33.940  29.494  1.00  0.00     0.060 A 
BRANCH  71  72
ATOM     72  S   UNL A   1      33.403  34.762  28.638  1.00  0.00     0.124 S 
ATOM     73  O   UNL A   1      32.489  35.045  29.741  1.00  0.00    -0.237 OA
ATOM     74  O   UNL A   1      34.064  35.922  28.050  1.00  0.00    -0.237 OA
ATOM     75  O   UNL A   1      32.941  33.756  27.685  1.00  0.00    -0.744 OA
ENDBRANCH  71  72
ENDBRANCH  50  64
BRANCH  51  76
ATOM     76  C   UNL A   1      44.558  28.946  36.092  1.00  0.00     0.058 A 
ATOM     77  C   UNL A   1      44.493  27.850  36.963  1.00  0.00     0.135 A 
ATOM     78  C   UNL A   1      45.792  29.607  35.968  1.00  0.00     0.135 A 
ATOM     79  F   UNL A   1      43.336  27.189  37.124  1.00  0.00    -0.206 F 
ATOM     80  C   UNL A   1      45.595  27.444  37.710  1.00  0.00     0.059 A 
ATOM     81  C   UNL A   1      46.918  29.200  36.678  1.00  0.00     0.059 A 
ATOM     82  F   UNL A   1      45.916  30.656  35.140  1.00  0.00    -0.206 F 
ATOM     83  C   UNL A   1      46.804  28.126  37.560  1.00  0.00     0.060 A 
BRANCH  83  84
ATOM     84  S   UNL A   1      48.233  27.575  38.517  1.00  0.00     0.124 S 
ATOM     85  O   UNL A   1      49.043  26.931  37.490  1.00  0.00    -0.237 OA
ATOM     86  O   UNL A   1      48.749  28.835  39.043  1.00  0.00    -0.237 OA
ATOM     87  O   UNL A   1      47.648  26.684  39.514  1.00  0.00    -0.744 OA
ENDBRANCH  83  84
ENDBRANCH  51  76
BRANCH  63  88
ATOM     88  C   UNL A   1      39.684  33.759  37.424  1.00  0.00     0.058 A 
ATOM     89  C   UNL A   1      38.863  33.370  38.494  1.00  0.00     0.135 A 
ATOM     90  C   UNL A   1      40.336  35.000  37.514  1.00  0.00     0.135 A 
ATOM     91  F   UNL A   1      38.210  32.198  38.453  1.00  0.00    -0.206 F 
ATOM     92  C   UNL A   1      38.683  34.187  39.604  1.00  0.00     0.059 A 
ATOM     93  C   UNL A   1      40.196  35.819  38.630  1.00  0.00     0.059 A 
ATOM     94  F   UNL A   1      41.141  35.415  36.522  1.00  0.00    -0.206 F 
ATOM     95  C   UNL A   1      39.361  35.408  39.666  1.00  0.00     0.060 A 
BRANCH  95  96
ATOM     96  S   UNL A   1      39.155  36.434  41.136  1.00  0.00     0.124 S 
ATOM     97  O   UNL A   1      40.488  36.372  41.727  1.00  0.00    -0.237 OA
ATOM     98  O   UNL A   1      38.774  37.722  40.565  1.00  0.00    -0.237 OA
ATOM     99  O   UNL A   1      38.104  35.750  41.884  1.00  0.00    -0.744 OA
ENDBRANCH  95  96
ENDBRANCH  63  88
ENDBRANCH  37  38
ENDBRANCH  30  32
ENDBRANCH  29  30
ENDBRANCH  28  29
ENDBRANCH  27  28
ENDBRANCH   1  27
TORSDOF 20
ENDMDL
MODEL 2
REMARK VINA RESULT:     -10.9      5.313     11.183
REMARK SMILES O=C(C[NH+]1CCN(c2nccc(N3CCCCC3)n2)CC1)OCCOCCOC(=O)c1ccc(-c2c3nc(c(-c4c(F)cc(S(=O)(=O)[O-])cc4F)c4ccc([nH]4)c(-c4c(F)cc(S(=O)(=O)[O-])cc4F)c4nc(c(-c5c(F)cc(S(=O)(=O)[O-])cc5F)c5ccc2[nH]5)C=C4)C=C3)cc1
REMARK SMILES IDX 25 1 24 2 23 3 22 4 2 5 1 6 3 7 4 8 5 9 21 10 6 12 20 13
REMARK SMILES IDX 7 14 8 15 9 16 19 17 10 18 12 19 11 20 13 21 14 22 18 23
REMARK SMILES IDX 15 24 17 25 16 26 26 27 27 28 28 29 29 30 30 31 31 32 32 33
REMARK SMILES IDX 96 34 33 35 95 36 34 37 35 38 36 39 89 40 37 41 94 42 88 43
REMARK SMILES IDX 90 44 38 45 93 46 87 47 86 48 39 50 73 51 52 52 72 53 53 54
REMARK SMILES IDX 56 55 71 56 91 57 54 58 55 59 70 61 92 62 57 63 40 64 41 65
REMARK SMILES IDX 50 66 42 67 43 68 49 69 51 70 44 71 45 72 46 73 47 74 48 75
REMARK SMILES IDX 74 76 75 77 84 78 76 79 77 80 83 81 85 82 78 83 79 84 80 85
REMARK SMILES IDX 81 86 82 87 58 88 59 89 68 90 60 91 61 92 67 93 69 94 62 95
REMARK SMILES IDX 63 96 64 97 65 98 66 99
REMARK H PARENT 4 11 90 49 56 60
REMARK Flexibility Score: inf
ROOT
ATOM      1  O   UNL A   1      31.600  28.964  24.799  1.00  0.00    -0.374 OA
ENDROOT
BRANCH   1   2
ATOM      2  C   UNL A   1      30.572  29.658  24.100  1.00  0.00     0.202 C 
BRANCH   2   3
ATOM      3  C   UNL A   1      29.837  29.037  22.908  1.00  0.00     0.261 C 
BRANCH   3   4
ATOM      4  O   UNL A   1      29.621  27.611  22.832  1.00  0.00    -0.459 OA
BRANCH   4   5
ATOM      5  C   UNL A   1      29.156  26.707  23.714  1.00  0.00     0.361 C 
ATOM      6  O   UNL A   1      27.953  26.703  23.983  1.00  0.00    -0.245 OA
BRANCH   5   7
ATOM      7  C   UNL A   1      30.103  25.755  24.408  1.00  0.00     0.386 C 
BRANCH   7   8
ATOM      8  N   UNL A   1      31.502  25.734  23.966  1.00  0.00    -0.323 N 
ATOM      9  C   UNL A   1      32.468  25.599  25.077  1.00  0.00     0.284 C 
ATOM     10  C   UNL A   1      31.828  24.793  22.882  1.00  0.00     0.284 C 
ATOM     11  H   UNL A   1      31.604  26.663  23.556  1.00  0.00     0.348 HD
ATOM     12  C   UNL A   1      32.741  24.162  25.581  1.00  0.00     0.181 C 
ATOM     13  C   UNL A   1      32.103  23.339  23.311  1.00  0.00     0.181 C 
ATOM     14  N   UNL A   1      33.027  23.332  24.434  1.00  0.00    -0.329 N 
BRANCH  14  15
ATOM     15  C   UNL A   1      33.812  22.221  24.538  1.00  0.00     0.227 A 
ATOM     16  N   UNL A   1      35.134  22.326  24.710  1.00  0.00    -0.221 NA
ATOM     17  N   UNL A   1      33.158  21.058  24.463  1.00  0.00    -0.196 NA
ATOM     18  C   UNL A   1      35.785  21.171  24.933  1.00  0.00     0.119 A 
ATOM     19  C   UNL A   1      33.830  19.920  24.646  1.00  0.00     0.134 A 
ATOM     20  C   UNL A   1      35.174  19.937  24.933  1.00  0.00     0.067 A 
BRANCH  19  21
ATOM     21  N   UNL A   1      33.133  18.745  24.486  1.00  0.00    -0.356 N 
ATOM     22  C   UNL A   1      32.649  18.065  25.682  1.00  0.00     0.118 C 
ATOM     23  C   UNL A   1      33.181  18.037  23.214  1.00  0.00     0.118 C 
ATOM     24  C   UNL A   1      33.265  16.680  25.837  1.00  0.00     0.022 C 
ATOM     25  C   UNL A   1      33.805  16.650  23.397  1.00  0.00     0.022 C 
ATOM     26  C   UNL A   1      33.145  15.885  24.542  1.00  0.00     0.004 C 
ENDBRANCH  19  21
ENDBRANCH  14  15
ENDBRANCH   7   8
ENDBRANCH   5   7
ENDBRANCH   4   5
ENDBRANCH   3   4
ENDBRANCH   2   3
ENDBRANCH   1   2
BRANCH   1  27
ATOM     27  C   UNL A   1      32.691  29.650  25.387  1.00  0.00     0.202 C 
BRANCH  27  28
ATOM     28  C   UNL A   1      32.560  30.037  26.856  1.00  0.00     0.261 C 
BRANCH  28  29
ATOM     29  O   UNL A   1      33.681  29.628  27.640  1.00  0.00    -0.460 OA
BRANCH  29  30
ATOM     30  C   UNL A   1      34.435  30.648  28.122  1.00  0.00     0.338 C 
ATOM     31  O   UNL A   1      34.067  31.759  28.438  1.00  0.00    -0.246 OA
BRANCH  30  32
ATOM     32  C   UNL A   1      35.799  30.140  28.349  1.00  0.00     0.060 A 
ATOM     33  C   UNL A   1      36.151  29.728  29.640  1.00  0.00     0.016 A 
ATOM     34  C   UNL A   1      36.722  30.089  27.302  1.00  0.00     0.016 A 
ATOM     35  C   UNL A   1      37.440  29.268  29.891  1.00  0.00     0.010 A 
ATOM     36  C   UNL A   1      38.016  29.647  27.559  1.00  0.00     0.010 A 
ATOM     37  C   UNL A   1      38.384  29.251  28.857  1.00  0.00    -0.014 A 
BRANCH  37  38
ATOM     38  C   UNL A   1      39.797  28.927  29.141  1.00  0.00     0.031 A 
ATOM     39  C   UNL A   1      40.692  30.013  29.664  1.00  0.00     0.074 A 
ATOM     40  C   UNL A   1      40.268  27.692  28.894  1.00  0.00     0.049 A 
ATOM     41  N   UNL A   1      41.982  29.994  29.857  1.00  0.00    -0.248 NA
ATOM     42  C   UNL A   1      40.046  31.292  30.008  1.00  0.00     0.031 C 
ATOM     43  C   UNL A   1      39.468  26.565  28.413  1.00  0.00     0.029 A 
ATOM     44  N   UNL A   1      41.538  27.187  28.986  1.00  0.00    -0.354 N 
ATOM     45  C   UNL A   1      42.310  31.260  30.326  1.00  0.00     0.074 A 
ATOM     46  C   UNL A   1      41.085  32.028  30.380  1.00  0.00     0.031 C 
ATOM     47  C   UNL A   1      40.276  25.508  28.219  1.00  0.00     0.029 A 
ATOM     48  C   UNL A   1      41.651  25.898  28.520  1.00  0.00     0.049 A 
ATOM     49  H   UNL A   1      42.298  27.698  29.350  1.00  0.00     0.167 HD
ATOM     50  C   UNL A   1      43.528  31.732  30.676  1.00  0.00     0.037 A 
ATOM     51  C   UNL A   1      42.747  25.142  28.316  1.00  0.00     0.037 A 
ATOM     52  C   UNL A   1      44.733  30.948  30.620  1.00  0.00     0.049 A 
ATOM     53  C   UNL A   1      44.100  25.719  28.654  1.00  0.00     0.074 A 
ATOM     54  C   UNL A   1      46.012  31.313  31.002  1.00  0.00     0.029 A 
ATOM     55  N   UNL A   1      44.812  29.649  30.141  1.00  0.00    -0.354 N 
ATOM     56  N   UNL A   1      44.393  26.897  29.153  1.00  0.00    -0.248 NA
ATOM     57  C   UNL A   1      45.271  24.869  28.397  1.00  0.00     0.031 C 
ATOM     58  C   UNL A   1      46.875  30.258  30.692  1.00  0.00     0.029 A 
ATOM     59  C   UNL A   1      46.125  29.213  30.175  1.00  0.00     0.049 A 
ATOM     60  H   UNL A   1      44.048  29.117  29.824  1.00  0.00     0.167 HD
ATOM     61  C   UNL A   1      45.778  26.921  29.287  1.00  0.00     0.074 A 
ATOM     62  C   UNL A   1      46.261  25.632  28.839  1.00  0.00     0.031 C 
ATOM     63  C   UNL A   1      46.580  27.920  29.730  1.00  0.00     0.037 A 
BRANCH  50  64
ATOM     64  C   UNL A   1      43.638  33.163  31.123  1.00  0.00     0.058 A 
ATOM     65  C   UNL A   1      43.586  33.522  32.478  1.00  0.00     0.135 A 
ATOM     66  C   UNL A   1      43.894  34.176  30.184  1.00  0.00     0.135 A 
ATOM     67  F   UNL A   1      43.322  32.597  33.414  1.00  0.00    -0.206 F 
ATOM     68  C   UNL A   1      43.791  34.836  32.887  1.00  0.00     0.059 A 
ATOM     69  C   UNL A   1      44.126  35.491  30.573  1.00  0.00     0.059 A 
ATOM     70  F   UNL A   1      43.941  33.886  28.873  1.00  0.00    -0.206 F 
ATOM     71  C   UNL A   1      44.074  35.811  31.927  1.00  0.00     0.060 A 
BRANCH  71  72
ATOM     72  S   UNL A   1      44.403  37.496  32.484  1.00  0.00     0.124 S 
ATOM     73  O   UNL A   1      44.372  38.233  31.224  1.00  0.00    -0.237 OA
ATOM     74  O   UNL A   1      43.288  37.746  33.391  1.00  0.00    -0.237 OA
ATOM     75  O   UNL A   1      45.714  37.396  33.119  1.00  0.00    -0.744 OA
ENDBRANCH  71  72
ENDBRANCH  50  64
BRANCH  51  76
ATOM     76  C   UNL A   1      42.628  23.784  27.718  1.00  0.00     0.058 A 
ATOM     77  C   UNL A   1      42.495  22.643  28.522  1.00  0.00     0.135 A 
ATOM     78  C   UNL A   1      42.678  23.598  26.326  1.00  0.00     0.135 A 
ATOM     79  F   UNL A   1      42.451  22.765  29.857  1.00  0.00    -0.206 F 
ATOM     80  C   UNL A   1      42.448  21.365  27.974  1.00  0.00     0.059 A 
ATOM     81  C   UNL A   1      42.599  22.333  25.752  1.00  0.00     0.059 A 
ATOM     82  F   UNL A   1      42.794  24.655  25.508  1.00  0.00    -0.206 F 
ATOM     83  C   UNL A   1      42.501  21.220  26.586  1.00  0.00     0.060 A 
BRANCH  83  84
ATOM     84  S   UNL A   1      42.415  19.558  25.885  1.00  0.00     0.124 S 
ATOM     85  O   UNL A   1      43.479  19.604  24.889  1.00  0.00    -0.237 OA
ATOM     86  O   UNL A   1      42.668  18.722  27.055  1.00  0.00    -0.237 OA
ATOM     87  O   UNL A   1      41.056  19.485  25.357  1.00  0.00    -0.744 OA
ENDBRANCH  83  84
ENDBRANCH  51  76
BRANCH  63  88
ATOM     88  C   UNL A   1      48.060  27.655  29.772  1.00  0.00     0.058 A 
ATOM     89  C   UNL A   1      48.885  27.919  28.667  1.00  0.00     0.135 A 
ATOM     90  C   UNL A   1      48.670  27.197  30.952  1.00  0.00     0.135 A 
ATOM     91  F   UNL A   1      48.351  28.349  27.513  1.00  0.00    -0.206 F 
ATOM     92  C   UNL A   1      50.260  27.722  28.725  1.00  0.00     0.059 A 
ATOM     93  C   UNL A   1      50.047  27.024  31.042  1.00  0.00     0.059 A 
ATOM     94  F   UNL A   1      47.927  26.940  32.041  1.00  0.00    -0.206 F 
ATOM     95  C   UNL A   1      50.833  27.281  29.920  1.00  0.00     0.060 A 
BRANCH  95  96
ATOM     96  S   UNL A   1      52.624  27.078  29.993  1.00  0.00     0.124 S 
ATOM     97  O   UNL A   1      52.749  25.846  30.767  1.00  0.00    -0.237 OA
ATOM     98  O   UNL A   1      52.984  26.979  28.582  1.00  0.00    -0.237 OA
ATOM     99  O   UNL A   1      53.077  28.290  30.667  1.00  0.00    -0.744 OA
ENDBRANCH  95  96
ENDBRANCH  63  88
ENDBRANCH  37  38
ENDBRANCH  30  32
ENDBRANCH  29  30
ENDBRANCH  28  29
ENDBRANCH  27  28
ENDBRANCH   1  27
TORSDOF 20
ENDMDL
MODEL 3
REMARK VINA RESULT:     -10.8      1.504      2.912
REMARK SMILES O=C(C[NH+]1CCN(c2nccc(N3CCCCC3)n2)CC1)OCCOCCOC(=O)c1ccc(-c2c3nc(c(-c4c(F)cc(S(=O)(=O)[O-])cc4F)c4ccc([nH]4)c(-c4c(F)cc(S(=O)(=O)[O-])cc4F)c4nc(c(-c5c(F)cc(S(=O)(=O)[O-])cc5F)c5ccc2[nH]5)C=C4)C=C3)cc1
REMARK SMILES IDX 25 1 24 2 23 3 22 4 2 5 1 6 3 7 4 8 5 9 21 10 6 12 20 13
REMARK SMILES IDX 7 14 8 15 9 16 19 17 10 18 12 19 11 20 13 21 14 22 18 23
REMARK SMILES IDX 15 24 17 25 16 26 26 27 27 28 28 29 29 30 30 31 31 32 32 33
REMARK SMILES IDX 96 34 33 35 95 36 34 37 35 38 36 39 89 40 37 41 94 42 88 43
REMARK SMILES IDX 90 44 38 45 93 46 87 47 86 48 39 50 73 51 52 52 72 53 53 54
REMARK SMILES IDX 56 55 71 56 91 57 54 58 55 59 70 61 92 62 57 63 40 64 41 65
REMARK SMILES IDX 50 66 42 67 43 68 49 69 51 70 44 71 45 72 46 73 47 74 48 75
REMARK SMILES IDX 74 76 75 77 84 78 76 79 77 80 83 81 85 82 78 83 79 84 80 85
REMARK SMILES IDX 81 86 82 87 58 88 59 89 68 90 60 91 61 92 67 93 69 94 62 95
REMARK SMILES IDX 63 96 64 97 65 98 66 99
REMARK H PARENT 4 11 90 49 56 60
REMARK Flexibility Score: inf
ROOT
ATOM      1  O   UNL A   1      44.702  22.786  25.603  1.00  0.00    -0.374 OA
ENDROOT
BRANCH   1   2
ATOM      2  C   UNL A   1      43.986  21.611  25.240  1.00  0.00     0.202 C 
BRANCH   2   3
ATOM      3  C   UNL A   1      42.815  21.081  26.075  1.00  0.00     0.261 C 
BRANCH   3   4
ATOM      4  O   UNL A   1      41.546  21.770  26.092  1.00  0.00    -0.459 OA
BRANCH   4   5
ATOM      5  C   UNL A   1      40.445  21.641  26.855  1.00  0.00     0.361 C 
ATOM      6  O   UNL A   1      40.349  20.665  27.600  1.00  0.00    -0.245 OA
BRANCH   5   7
ATOM      7  C   UNL A   1      39.320  22.645  26.753  1.00  0.00     0.386 C 
BRANCH   7   8
ATOM      8  N   UNL A   1      38.579  22.722  25.488  1.00  0.00    -0.323 N 
ATOM      9  C   UNL A   1      38.086  21.412  25.016  1.00  0.00     0.284 C 
ATOM     10  C   UNL A   1      37.509  23.731  25.420  1.00  0.00     0.284 C 
ATOM     11  H   UNL A   1      39.301  23.051  24.846  1.00  0.00     0.348 HD
ATOM     12  C   UNL A   1      36.748  20.920  25.619  1.00  0.00     0.181 C 
ATOM     13  C   UNL A   1      36.150  23.313  26.012  1.00  0.00     0.181 C 
ATOM     14  N   UNL A   1      35.789  21.996  25.514  1.00  0.00    -0.329 N 
BRANCH  14  15
ATOM     15  C   UNL A   1      34.450  21.749  25.432  1.00  0.00     0.227 A 
ATOM     16  N   UNL A   1      33.556  22.713  25.674  1.00  0.00    -0.221 NA
ATOM     17  N   UNL A   1      34.125  20.498  25.089  1.00  0.00    -0.196 NA
ATOM     18  C   UNL A   1      32.273  22.391  25.434  1.00  0.00     0.119 A 
ATOM     19  C   UNL A   1      32.842  20.188  24.896  1.00  0.00     0.134 A 
ATOM     20  C   UNL A   1      31.863  21.144  25.021  1.00  0.00     0.067 A 
BRANCH  19  21
ATOM     21  N   UNL A   1      32.548  18.873  24.618  1.00  0.00    -0.356 N 
ATOM     22  C   UNL A   1      32.612  17.909  25.711  1.00  0.00     0.118 C 
ATOM     23  C   UNL A   1      32.519  18.409  23.238  1.00  0.00     0.118 C 
ATOM     24  C   UNL A   1      33.663  16.834  25.459  1.00  0.00     0.022 C 
ATOM     25  C   UNL A   1      33.584  17.333  23.012  1.00  0.00     0.022 C 
ATOM     26  C   UNL A   1      33.503  16.233  24.068  1.00  0.00     0.004 C 
ENDBRANCH  19  21
ENDBRANCH  14  15
ENDBRANCH   7   8
ENDBRANCH   5   7
ENDBRANCH   4   5
ENDBRANCH   3   4
ENDBRANCH   2   3
ENDBRANCH   1   2
BRANCH   1  27
ATOM     27  C   UNL A   1      44.794  23.898  24.730  1.00  0.00     0.202 C 
BRANCH  27  28
ATOM     28  C   UNL A   1      44.086  25.179  25.157  1.00  0.00     0.261 C 
BRANCH  28  29
ATOM     29  O   UNL A   1      43.019  24.943  26.078  1.00  0.00    -0.460 OA
BRANCH  29  30
ATOM     30  C   UNL A   1      41.989  25.820  25.983  1.00  0.00     0.338 C 
ATOM     31  O   UNL A   1      41.220  25.966  25.057  1.00  0.00    -0.246 OA
BRANCH  30  32
ATOM     32  C   UNL A   1      41.845  26.498  27.283  1.00  0.00     0.060 A 
ATOM     33  C   UNL A   1      40.893  26.012  28.187  1.00  0.00     0.016 A 
ATOM     34  C   UNL A   1      42.630  27.611  27.594  1.00  0.00     0.016 A 
ATOM     35  C   UNL A   1      40.717  26.648  29.412  1.00  0.00     0.010 A 
ATOM     36  C   UNL A   1      42.439  28.257  28.812  1.00  0.00     0.010 A 
ATOM     37  C   UNL A   1      41.471  27.788  29.717  1.00  0.00    -0.014 A 
BRANCH  37  38
ATOM     38  C   UNL A   1      41.181  28.572  30.936  1.00  0.00     0.031 A 
ATOM     39  C   UNL A   1      40.059  29.568  30.898  1.00  0.00     0.074 A 
ATOM     40  C   UNL A   1      41.939  28.414  32.035  1.00  0.00     0.049 A 
ATOM     41  N   UNL A   1      39.712  30.451  31.794  1.00  0.00    -0.248 NA
ATOM     42  C   UNL A   1      39.221  29.575  29.685  1.00  0.00     0.031 C 
ATOM     43  C   UNL A   1      43.032  27.451  32.174  1.00  0.00     0.029 A 
ATOM     44  N   UNL A   1      41.924  29.081  33.231  1.00  0.00    -0.354 N 
ATOM     45  C   UNL A   1      38.630  31.133  31.251  1.00  0.00     0.074 A 
ATOM     46  C   UNL A   1      38.382  30.570  29.942  1.00  0.00     0.031 C 
ATOM     47  C   UNL A   1      43.605  27.614  33.379  1.00  0.00     0.029 A 
ATOM     48  C   UNL A   1      42.949  28.719  34.073  1.00  0.00     0.049 A 
ATOM     49  H   UNL A   1      41.245  29.756  33.466  1.00  0.00     0.167 HD
ATOM     50  C   UNL A   1      37.915  32.140  31.801  1.00  0.00     0.037 A 
ATOM     51  C   UNL A   1      43.338  29.255  35.247  1.00  0.00     0.037 A 
ATOM     52  C   UNL A   1      38.175  32.681  33.109  1.00  0.00     0.049 A 
ATOM     53  C   UNL A   1      42.560  30.421  35.806  1.00  0.00     0.074 A 
ATOM     54  C   UNL A   1      37.477  33.666  33.784  1.00  0.00     0.029 A 
ATOM     55  N   UNL A   1      39.221  32.294  33.933  1.00  0.00    -0.354 N 
ATOM     56  N   UNL A   1      41.502  31.019  35.311  1.00  0.00    -0.248 NA
ATOM     57  C   UNL A   1      43.030  30.989  37.077  1.00  0.00     0.031 C 
ATOM     58  C   UNL A   1      38.140  33.921  34.987  1.00  0.00     0.029 A 
ATOM     59  C   UNL A   1      39.215  33.052  35.090  1.00  0.00     0.049 A 
ATOM     60  H   UNL A   1      39.871  31.585  33.724  1.00  0.00     0.167 HD
ATOM     61  C   UNL A   1      41.170  32.020  36.220  1.00  0.00     0.074 A 
ATOM     62  C   UNL A   1      42.124  31.930  37.305  1.00  0.00     0.031 C 
ATOM     63  C   UNL A   1      40.174  32.937  36.160  1.00  0.00     0.037 A 
BRANCH  50  64
ATOM     64  C   UNL A   1      36.802  32.749  30.995  1.00  0.00     0.058 A 
ATOM     65  C   UNL A   1      35.474  32.311  31.115  1.00  0.00     0.135 A 
ATOM     66  C   UNL A   1      37.057  33.850  30.162  1.00  0.00     0.135 A 
ATOM     67  F   UNL A   1      35.179  31.248  31.880  1.00  0.00    -0.206 F 
ATOM     68  C   UNL A   1      34.437  32.949  30.441  1.00  0.00     0.059 A 
ATOM     69  C   UNL A   1      36.034  34.518  29.498  1.00  0.00     0.059 A 
ATOM     70  F   UNL A   1      38.313  34.300  30.004  1.00  0.00    -0.206 F 
ATOM     71  C   UNL A   1      34.726  34.061  29.646  1.00  0.00     0.060 A 
BRANCH  71  72
ATOM     72  S   UNL A   1      33.359  34.915  28.834  1.00  0.00     0.124 S 
ATOM     73  O   UNL A   1      32.812  33.857  27.989  1.00  0.00    -0.237 OA
ATOM     74  O   UNL A   1      32.529  35.315  29.965  1.00  0.00    -0.237 OA
ATOM     75  O   UNL A   1      34.014  36.009  28.122  1.00  0.00    -0.744 OA
ENDBRANCH  71  72
ENDBRANCH  50  64
BRANCH  51  76
ATOM     76  C   UNL A   1      44.545  28.740  35.950  1.00  0.00     0.058 A 
ATOM     77  C   UNL A   1      44.451  27.716  36.903  1.00  0.00     0.135 A 
ATOM     78  C   UNL A   1      45.815  29.287  35.705  1.00  0.00     0.135 A 
ATOM     79  F   UNL A   1      43.259  27.166  37.181  1.00  0.00    -0.206 F 
ATOM     80  C   UNL A   1      45.564  27.273  37.611  1.00  0.00     0.059 A 
ATOM     81  C   UNL A   1      46.950  28.838  36.375  1.00  0.00     0.059 A 
ATOM     82  F   UNL A   1      45.967  30.261  34.795  1.00  0.00    -0.206 F 
ATOM     83  C   UNL A   1      46.810  27.841  37.340  1.00  0.00     0.060 A 
BRANCH  83  84
ATOM     84  S   UNL A   1      48.251  27.241  38.248  1.00  0.00     0.124 S 
ATOM     85  O   UNL A   1      49.053  28.453  38.360  1.00  0.00    -0.237 OA
ATOM     86  O   UNL A   1      47.649  26.756  39.486  1.00  0.00    -0.237 OA
ATOM     87  O   UNL A   1      48.791  26.202  37.376  1.00  0.00    -0.744 OA
ENDBRANCH  83  84
ENDBRANCH  51  76
BRANCH  63  88
ATOM     88  C   UNL A   1      40.051  33.904  37.307  1.00  0.00     0.058 A 
ATOM     89  C   UNL A   1      40.649  35.173  37.264  1.00  0.00     0.135 A 
ATOM     90  C   UNL A   1      39.268  33.584  38.429  1.00  0.00     0.135 A 
ATOM     91  F   UNL A   1      41.414  35.524  36.219  1.00  0.00    -0.206 F 
ATOM     92  C   UNL A   1      40.491  36.084  38.302  1.00  0.00     0.059 A 
ATOM     93  C   UNL A   1      39.070  34.492  39.463  1.00  0.00     0.059 A 
ATOM     94  F   UNL A   1      38.665  32.387  38.513  1.00  0.00    -0.206 F 
ATOM     95  C   UNL A   1      39.693  35.737  39.395  1.00  0.00     0.060 A 
BRANCH  95  96
ATOM     96  S   UNL A   1      39.458  36.950  40.710  1.00  0.00     0.124 S 
ATOM     97  O   UNL A   1      38.453  36.293  41.539  1.00  0.00    -0.237 OA
ATOM     98  O   UNL A   1      40.795  37.043  41.289  1.00  0.00    -0.237 OA
ATOM     99  O   UNL A   1      39.004  38.141  39.998  1.00  0.00    -0.744 OA
ENDBRANCH  95  96
ENDBRANCH  63  88
ENDBRANCH  37  38
ENDBRANCH  30  32
ENDBRANCH  29  30
ENDBRANCH  28  29
ENDBRANCH  27  28
ENDBRANCH   1  27
TORSDOF 20
ENDMDL
