MODEL 1
REMARK VINA RESULT:      -9.9      0.000      0.000
REMARK SMILES O=C(CC1(NS(=O)(=O)C[C@H]2CCCO2)CCC1)OCCOCCOC(=O)c1ccc(-c2c3nc(c(-c4c(F)cc(S(=O)(=O)[O-])cc4F)c4ccc([nH]4)c(-c4c(F)cc(S(=O)(=O)[O-])cc4F)c4nc(c(-c5c(F)cc(S(=O)(=O)[O-])cc5F)c5ccc2[nH]5)C=C4)C=C3)cc1
REMARK SMILES IDX 20 1 19 2 18 3 2 4 1 5 3 6 4 7 15 8 17 9 16 10 5 11 6 13
REMARK SMILES IDX 7 14 8 15 9 16 10 17 11 18 14 19 12 20 13 21 21 22 22 23
REMARK SMILES IDX 23 24 24 25 25 26 26 27 27 28 28 29 92 30 29 31 91 32 30 33
REMARK SMILES IDX 31 34 32 35 85 36 33 37 90 38 84 39 86 40 34 41 89 42 83 43
REMARK SMILES IDX 82 44 35 46 69 47 48 48 68 49 49 50 52 51 67 52 87 53 50 54
REMARK SMILES IDX 51 55 66 57 88 58 53 59 36 60 37 61 46 62 38 63 39 64 45 65
REMARK SMILES IDX 47 66 40 67 41 68 42 69 43 70 44 71 70 72 71 73 80 74 72 75
REMARK SMILES IDX 73 76 79 77 81 78 74 79 75 80 76 81 77 82 78 83 54 84 55 85
REMARK SMILES IDX 64 86 56 87 57 88 63 89 65 90 58 91 59 92 60 93 61 94 62 95
REMARK H PARENT 5 12 86 45 52 56
REMARK Flexibility Score: inf
ROOT
ATOM      1  C   UNL A   1      40.247  22.691  26.862  1.00  0.00     0.202 C 
ENDROOT
BRANCH   1   2
ATOM      2  C   UNL A   1      38.836  22.765  26.285  1.00  0.00     0.261 C 
BRANCH   2   3
ATOM      3  O   UNL A   1      38.551  21.665  25.411  1.00  0.00    -0.463 OA
BRANCH   3   4
ATOM      4  C   UNL A   1      37.358  21.515  24.797  1.00  0.00     0.307 C 
ATOM      5  O   UNL A   1      36.837  20.404  24.723  1.00  0.00    -0.252 OA
BRANCH   4   6
ATOM      6  C   UNL A   1      36.717  22.711  24.161  1.00  0.00     0.146 C 
BRANCH   6   7
ATOM      7  C   UNL A   1      35.297  23.078  24.564  1.00  0.00     0.043 C 
ATOM      8  C   UNL A   1      35.099  24.182  25.642  1.00  0.00     0.024 C 
ATOM      9  C   UNL A   1      34.656  24.066  23.522  1.00  0.00     0.024 C 
ATOM     10  C   UNL A   1      34.481  25.125  24.606  1.00  0.00     0.004 C 
BRANCH   7  11
ATOM     11  N   UNL A   1      34.467  21.816  24.688  1.00  0.00    -0.208 NA
ATOM     12  H   UNL A   1      35.120  21.060  24.486  1.00  0.00     0.141 HD
BRANCH  11  13
ATOM     13  S   UNL A   1      33.587  21.269  25.995  1.00  0.00     0.214 S 
ATOM     14  O   UNL A   1      34.409  21.449  27.170  1.00  0.00    -0.212 OA
ATOM     15  O   UNL A   1      32.318  21.960  25.895  1.00  0.00    -0.212 OA
BRANCH  13  16
ATOM     16  C   UNL A   1      33.289  19.521  25.760  1.00  0.00     0.185 C 
BRANCH  16  17
ATOM     17  C   UNL A   1      33.778  18.820  24.494  1.00  0.00     0.134 C 
ATOM     18  C   UNL A   1      34.217  17.365  24.516  1.00  0.00     0.035 C 
ATOM     19  O   UNL A   1      32.824  18.952  23.420  1.00  0.00    -0.377 OA
ATOM     20  C   UNL A   1      33.169  16.649  23.696  1.00  0.00     0.031 C 
ATOM     21  C   UNL A   1      32.739  17.710  22.714  1.00  0.00     0.160 C 
ENDBRANCH  16  17
ENDBRANCH  13  16
ENDBRANCH  11  13
ENDBRANCH   7  11
ENDBRANCH   6   7
ENDBRANCH   4   6
ENDBRANCH   3   4
ENDBRANCH   2   3
ENDBRANCH   1   2
BRANCH   1  22
ATOM     22  O   UNL A   1      41.187  21.915  26.114  1.00  0.00    -0.374 OA
BRANCH  22  23
ATOM     23  C   UNL A   1      42.427  22.576  25.827  1.00  0.00     0.202 C 
BRANCH  23  24
ATOM     24  C   UNL A   1      42.763  23.673  26.842  1.00  0.00     0.261 C 
BRANCH  24  25
ATOM     25  O   UNL A   1      43.056  24.891  26.146  1.00  0.00    -0.460 OA
BRANCH  25  26
ATOM     26  C   UNL A   1      42.033  25.779  26.099  1.00  0.00     0.338 C 
ATOM     27  O   UNL A   1      41.176  25.870  25.236  1.00  0.00    -0.246 OA
BRANCH  26  28
ATOM     28  C   UNL A   1      41.958  26.464  27.410  1.00  0.00     0.060 A 
ATOM     29  C   UNL A   1      40.860  26.164  28.232  1.00  0.00     0.016 A 
ATOM     30  C   UNL A   1      42.982  27.297  27.875  1.00  0.00     0.016 A 
ATOM     31  C   UNL A   1      40.749  26.747  29.488  1.00  0.00     0.010 A 
ATOM     32  C   UNL A   1      42.866  27.894  29.129  1.00  0.00     0.010 A 
ATOM     33  C   UNL A   1      41.720  27.665  29.907  1.00  0.00    -0.014 A 
BRANCH  33  34
ATOM     34  C   UNL A   1      41.365  28.620  30.976  1.00  0.00     0.031 A 
ATOM     35  C   UNL A   1      42.210  28.583  32.222  1.00  0.00     0.074 A 
ATOM     36  C   UNL A   1      40.372  29.510  30.828  1.00  0.00     0.049 A 
ATOM     37  N   UNL A   1      42.128  29.305  33.306  1.00  0.00    -0.248 NA
ATOM     38  C   UNL A   1      43.297  27.585  32.246  1.00  0.00     0.031 C 
ATOM     39  C   UNL A   1      39.526  29.652  29.644  1.00  0.00     0.029 A 
ATOM     40  N   UNL A   1      39.911  30.471  31.690  1.00  0.00    -0.354 N 
ATOM     41  C   UNL A   1      43.140  28.841  34.140  1.00  0.00     0.074 A 
ATOM     42  C   UNL A   1      43.799  27.754  33.456  1.00  0.00     0.031 C 
ATOM     43  C   UNL A   1      38.645  30.646  29.856  1.00  0.00     0.029 A 
ATOM     44  C   UNL A   1      38.851  31.191  31.197  1.00  0.00     0.049 A 
ATOM     45  H   UNL A   1      40.304  30.631  32.578  1.00  0.00     0.167 HD
ATOM     46  C   UNL A   1      43.493  29.291  35.365  1.00  0.00     0.037 A 
ATOM     47  C   UNL A   1      38.132  32.171  31.777  1.00  0.00     0.037 A 
ATOM     48  C   UNL A   1      42.825  30.375  36.029  1.00  0.00     0.049 A 
ATOM     49  C   UNL A   1      38.510  32.621  33.167  1.00  0.00     0.074 A 
ATOM     50  C   UNL A   1      43.103  30.931  37.263  1.00  0.00     0.029 A 
ATOM     51  N   UNL A   1      41.735  31.060  35.512  1.00  0.00    -0.354 N 
ATOM     52  N   UNL A   1      39.486  32.197  33.936  1.00  0.00    -0.248 NA
ATOM     53  C   UNL A   1      37.695  33.687  33.762  1.00  0.00     0.031 C 
ATOM     54  C   UNL A   1      42.145  31.920  37.514  1.00  0.00     0.029 A 
ATOM     55  C   UNL A   1      41.310  32.019  36.411  1.00  0.00     0.049 A 
ATOM     56  H   UNL A   1      41.324  30.888  34.634  1.00  0.00     0.167 HD
ATOM     57  C   UNL A   1      39.424  32.968  35.093  1.00  0.00     0.074 A 
ATOM     58  C   UNL A   1      38.318  33.888  34.916  1.00  0.00     0.031 C 
ATOM     59  C   UNL A   1      40.209  32.926  36.199  1.00  0.00     0.037 A 
BRANCH  46  60
ATOM     60  C   UNL A   1      44.620  28.581  36.064  1.00  0.00     0.058 A 
ATOM     61  C   UNL A   1      44.396  27.492  36.923  1.00  0.00     0.135 A 
ATOM     62  C   UNL A   1      45.944  29.008  35.880  1.00  0.00     0.135 A 
ATOM     63  F   UNL A   1      43.147  27.062  37.159  1.00  0.00    -0.206 F 
ATOM     64  C   UNL A   1      45.442  26.872  37.599  1.00  0.00     0.059 A 
ATOM     65  C   UNL A   1      47.009  28.382  36.523  1.00  0.00     0.059 A 
ATOM     66  F   UNL A   1      46.214  30.051  35.081  1.00  0.00    -0.206 F 
ATOM     67  C   UNL A   1      46.745  27.326  37.393  1.00  0.00     0.060 A 
BRANCH  67  68
ATOM     68  S   UNL A   1      48.093  26.514  38.280  1.00  0.00     0.124 S 
ATOM     69  O   UNL A   1      48.607  27.611  39.095  1.00  0.00    -0.237 OA
ATOM     70  O   UNL A   1      47.396  25.457  39.006  1.00  0.00    -0.237 OA
ATOM     71  O   UNL A   1      48.977  26.059  37.211  1.00  0.00    -0.744 OA
ENDBRANCH  67  68
ENDBRANCH  46  60
BRANCH  47  72
ATOM     72  C   UNL A   1      37.001  32.804  31.046  1.00  0.00     0.058 A 
ATOM     73  C   UNL A   1      37.220  33.847  30.136  1.00  0.00     0.135 A 
ATOM     74  C   UNL A   1      35.677  32.375  31.239  1.00  0.00     0.135 A 
ATOM     75  F   UNL A   1      38.465  34.300  29.921  1.00  0.00    -0.206 F 
ATOM     76  C   UNL A   1      36.170  34.454  29.452  1.00  0.00     0.059 A 
ATOM     77  C   UNL A   1      34.613  32.948  30.550  1.00  0.00     0.059 A 
ATOM     78  F   UNL A   1      35.413  31.373  32.092  1.00  0.00    -0.206 F 
ATOM     79  C   UNL A   1      34.869  33.994  29.664  1.00  0.00     0.060 A 
BRANCH  79  80
ATOM     80  S   UNL A   1      33.522  34.754  28.731  1.00  0.00     0.124 S 
ATOM     81  O   UNL A   1      33.192  33.702  27.778  1.00  0.00    -0.237 OA
ATOM     82  O   UNL A   1      32.534  35.006  29.774  1.00  0.00    -0.237 OA
ATOM     83  O   UNL A   1      34.141  35.949  28.163  1.00  0.00    -0.744 OA
ENDBRANCH  79  80
ENDBRANCH  47  72
BRANCH  59  84
ATOM     84  C   UNL A   1      39.931  33.936  37.279  1.00  0.00     0.058 A 
ATOM     85  C   UNL A   1      39.104  33.642  38.373  1.00  0.00     0.135 A 
ATOM     86  C   UNL A   1      40.541  35.201  37.236  1.00  0.00     0.135 A 
ATOM     87  F   UNL A   1      38.494  32.449  38.460  1.00  0.00    -0.206 F 
ATOM     88  C   UNL A   1      38.862  34.581  39.371  1.00  0.00     0.059 A 
ATOM     89  C   UNL A   1      40.340  36.141  38.239  1.00  0.00     0.059 A 
ATOM     90  F   UNL A   1      41.356  35.524  36.220  1.00  0.00    -0.206 F 
ATOM     91  C   UNL A   1      39.485  35.828  39.293  1.00  0.00     0.060 A 
BRANCH  91  92
ATOM     92  S   UNL A   1      39.175  37.033  40.601  1.00  0.00     0.124 S 
ATOM     93  O   UNL A   1      38.239  37.941  39.947  1.00  0.00    -0.237 OA
ATOM     94  O   UNL A   1      38.616  36.204  41.664  1.00  0.00    -0.237 OA
ATOM     95  O   UNL A   1      40.499  37.585  40.875  1.00  0.00    -0.744 OA
ENDBRANCH  91  92
ENDBRANCH  59  84
ENDBRANCH  33  34
ENDBRANCH  26  28
ENDBRANCH  25  26
ENDBRANCH  24  25
ENDBRANCH  23  24
ENDBRANCH  22  23
ENDBRANCH   1  22
TORSDOF 22
ENDMDL
MODEL 2
REMARK VINA RESULT:      -9.9      1.704      3.630
REMARK SMILES O=C(CC1(NS(=O)(=O)C[C@H]2CCCO2)CCC1)OCCOCCOC(=O)c1ccc(-c2c3nc(c(-c4c(F)cc(S(=O)(=O)[O-])cc4F)c4ccc([nH]4)c(-c4c(F)cc(S(=O)(=O)[O-])cc4F)c4nc(c(-c5c(F)cc(S(=O)(=O)[O-])cc5F)c5ccc2[nH]5)C=C4)C=C3)cc1
REMARK SMILES IDX 20 1 19 2 18 3 2 4 1 5 3 6 4 7 15 8 17 9 16 10 5 11 6 13
REMARK SMILES IDX 7 14 8 15 9 16 10 17 11 18 14 19 12 20 13 21 21 22 22 23
REMARK SMILES IDX 23 24 24 25 25 26 26 27 27 28 28 29 92 30 29 31 91 32 30 33
REMARK SMILES IDX 31 34 32 35 85 36 33 37 90 38 84 39 86 40 34 41 89 42 83 43
REMARK SMILES IDX 82 44 35 46 69 47 48 48 68 49 49 50 52 51 67 52 87 53 50 54
REMARK SMILES IDX 51 55 66 57 88 58 53 59 36 60 37 61 46 62 38 63 39 64 45 65
REMARK SMILES IDX 47 66 40 67 41 68 42 69 43 70 44 71 70 72 71 73 80 74 72 75
REMARK SMILES IDX 73 76 79 77 81 78 74 79 75 80 76 81 77 82 78 83 54 84 55 85
REMARK SMILES IDX 64 86 56 87 57 88 63 89 65 90 58 91 59 92 60 93 61 94 62 95
REMARK H PARENT 5 12 86 45 52 56
REMARK Flexibility Score: inf
ROOT
ATOM      1  C   UNL A   1      37.819  21.997  25.725  1.00  0.00     0.202 C 
ENDROOT
BRANCH   1   2
ATOM      2  C   UNL A   1      36.973  21.466  24.570  1.00  0.00     0.261 C 
BRANCH   2   3
ATOM      3  O   UNL A   1      35.921  20.605  25.022  1.00  0.00    -0.463 OA
BRANCH   3   4
ATOM      4  C   UNL A   1      34.621  20.969  24.994  1.00  0.00     0.307 C 
ATOM      5  O   UNL A   1      33.739  20.116  25.052  1.00  0.00    -0.252 OA
BRANCH   4   6
ATOM      6  C   UNL A   1      34.280  22.420  24.832  1.00  0.00     0.146 C 
BRANCH   6   7
ATOM      7  C   UNL A   1      33.780  23.191  26.045  1.00  0.00     0.043 C 
ATOM      8  C   UNL A   1      32.447  22.739  26.706  1.00  0.00     0.024 C 
ATOM      9  C   UNL A   1      34.518  22.722  27.351  1.00  0.00     0.024 C 
ATOM     10  C   UNL A   1      33.191  22.287  27.966  1.00  0.00     0.004 C 
BRANCH   7  11
ATOM     11  N   UNL A   1      33.985  24.675  25.816  1.00  0.00    -0.208 NA
ATOM     12  H   UNL A   1      34.937  24.750  25.458  1.00  0.00     0.141 HD
BRANCH  11  13
ATOM     13  S   UNL A   1      33.097  25.717  24.863  1.00  0.00     0.214 S 
ATOM     14  O   UNL A   1      34.002  26.284  23.890  1.00  0.00    -0.212 OA
ATOM     15  O   UNL A   1      31.967  24.929  24.418  1.00  0.00    -0.212 OA
BRANCH  13  16
ATOM     16  C   UNL A   1      32.483  27.029  25.914  1.00  0.00     0.185 C 
BRANCH  16  17
ATOM     17  C   UNL A   1      32.928  28.472  25.685  1.00  0.00     0.134 C 
ATOM     18  C   UNL A   1      31.923  29.612  25.640  1.00  0.00     0.035 C 
ATOM     19  O   UNL A   1      33.955  28.858  26.622  1.00  0.00    -0.377 OA
ATOM     20  C   UNL A   1      32.229  30.425  26.876  1.00  0.00     0.031 C 
ATOM     21  C   UNL A   1      33.709  30.198  27.061  1.00  0.00     0.160 C 
ENDBRANCH  16  17
ENDBRANCH  13  16
ENDBRANCH  11  13
ENDBRANCH   7  11
ENDBRANCH   6   7
ENDBRANCH   4   6
ENDBRANCH   3   4
ENDBRANCH   2   3
ENDBRANCH   1   2
BRANCH   1  22
ATOM     22  O   UNL A   1      39.173  21.540  25.767  1.00  0.00    -0.374 OA
BRANCH  22  23
ATOM     23  C   UNL A   1      39.934  22.002  26.893  1.00  0.00     0.202 C 
BRANCH  23  24
ATOM     24  C   UNL A   1      40.872  23.159  26.540  1.00  0.00     0.261 C 
BRANCH  24  25
ATOM     25  O   UNL A   1      40.112  24.367  26.418  1.00  0.00    -0.460 OA
BRANCH  25  26
ATOM     26  C   UNL A   1      40.850  25.486  26.213  1.00  0.00     0.338 C 
ATOM     27  O   UNL A   1      41.229  25.931  25.143  1.00  0.00    -0.246 OA
BRANCH  26  28
ATOM     28  C   UNL A   1      40.904  26.241  27.486  1.00  0.00     0.060 A 
ATOM     29  C   UNL A   1      39.865  26.030  28.406  1.00  0.00     0.016 A 
ATOM     30  C   UNL A   1      41.992  27.056  27.822  1.00  0.00     0.016 A 
ATOM     31  C   UNL A   1      39.876  26.683  29.632  1.00  0.00     0.010 A 
ATOM     32  C   UNL A   1      41.998  27.723  29.045  1.00  0.00     0.010 A 
ATOM     33  C   UNL A   1      40.909  27.582  29.922  1.00  0.00    -0.014 A 
BRANCH  33  34
ATOM     34  C   UNL A   1      40.675  28.607  30.960  1.00  0.00     0.031 A 
ATOM     35  C   UNL A   1      41.567  28.555  32.172  1.00  0.00     0.074 A 
ATOM     36  C   UNL A   1      39.748  29.565  30.811  1.00  0.00     0.049 A 
ATOM     37  N   UNL A   1      41.588  29.327  33.224  1.00  0.00    -0.248 NA
ATOM     38  C   UNL A   1      42.574  27.478  32.198  1.00  0.00     0.031 C 
ATOM     39  C   UNL A   1      38.865  29.723  29.657  1.00  0.00     0.029 A 
ATOM     40  N   UNL A   1      39.400  30.595  31.646  1.00  0.00    -0.354 N 
ATOM     41  C   UNL A   1      42.596  28.820  34.038  1.00  0.00     0.074 A 
ATOM     42  C   UNL A   1      43.141  27.657  33.378  1.00  0.00     0.031 C 
ATOM     43  C   UNL A   1      38.073  30.791  29.858  1.00  0.00     0.029 A 
ATOM     44  C   UNL A   1      38.378  31.374  31.163  1.00  0.00     0.049 A 
ATOM     45  H   UNL A   1      39.842  30.760  32.510  1.00  0.00     0.167 HD
ATOM     46  C   UNL A   1      43.036  29.292  35.226  1.00  0.00     0.037 A 
ATOM     47  C   UNL A   1      37.761  32.431  31.727  1.00  0.00     0.037 A 
ATOM     48  C   UNL A   1      42.482  30.452  35.867  1.00  0.00     0.049 A 
ATOM     49  C   UNL A   1      38.233  32.908  33.079  1.00  0.00     0.074 A 
ATOM     50  C   UNL A   1      42.854  31.037  37.061  1.00  0.00     0.029 A 
ATOM     51  N   UNL A   1      41.426  31.198  35.362  1.00  0.00    -0.354 N 
ATOM     52  N   UNL A   1      39.205  32.441  33.827  1.00  0.00    -0.248 NA
ATOM     53  C   UNL A   1      37.528  34.059  33.657  1.00  0.00     0.031 C 
ATOM     54  C   UNL A   1      41.987  32.108  37.306  1.00  0.00     0.029 A 
ATOM     55  C   UNL A   1      41.115  32.226  36.233  1.00  0.00     0.049 A 
ATOM     56  H   UNL A   1      40.966  31.023  34.510  1.00  0.00     0.167 HD
ATOM     57  C   UNL A   1      39.253  33.263  34.950  1.00  0.00     0.074 A 
ATOM     58  C   UNL A   1      38.214  34.259  34.775  1.00  0.00     0.031 C 
ATOM     59  C   UNL A   1      40.079  33.207  36.024  1.00  0.00     0.037 A 
BRANCH  46  60
ATOM     60  C   UNL A   1      44.134  28.526  35.911  1.00  0.00     0.058 A 
ATOM     61  C   UNL A   1      43.864  27.476  36.805  1.00  0.00     0.135 A 
ATOM     62  C   UNL A   1      45.477  28.859  35.679  1.00  0.00     0.135 A 
ATOM     63  F   UNL A   1      42.597  27.136  37.087  1.00  0.00    -0.206 F 
ATOM     64  C   UNL A   1      44.888  26.804  37.467  1.00  0.00     0.059 A 
ATOM     65  C   UNL A   1      46.517  28.180  36.307  1.00  0.00     0.059 A 
ATOM     66  F   UNL A   1      45.791  29.862  34.845  1.00  0.00    -0.206 F 
ATOM     67  C   UNL A   1      46.211  27.165  37.212  1.00  0.00     0.060 A 
BRANCH  67  68
ATOM     68  S   UNL A   1      47.528  26.287  38.081  1.00  0.00     0.124 S 
ATOM     69  O   UNL A   1      48.481  26.051  37.000  1.00  0.00    -0.237 OA
ATOM     70  O   UNL A   1      47.939  27.259  39.088  1.00  0.00    -0.237 OA
ATOM     71  O   UNL A   1      46.859  25.097  38.598  1.00  0.00    -0.744 OA
ENDBRANCH  67  68
ENDBRANCH  46  60
BRANCH  47  72
ATOM     72  C   UNL A   1      36.652  33.120  31.014  1.00  0.00     0.058 A 
ATOM     73  C   UNL A   1      35.320  32.965  31.425  1.00  0.00     0.135 A 
ATOM     74  C   UNL A   1      36.900  33.951  29.909  1.00  0.00     0.135 A 
ATOM     75  F   UNL A   1      35.029  32.175  32.470  1.00  0.00    -0.206 F 
ATOM     76  C   UNL A   1      34.272  33.596  30.762  1.00  0.00     0.059 A 
ATOM     77  C   UNL A   1      35.872  34.613  29.245  1.00  0.00     0.059 A 
ATOM     78  F   UNL A   1      38.157  34.142  29.480  1.00  0.00    -0.206 F 
ATOM     79  C   UNL A   1      34.559  34.422  29.674  1.00  0.00     0.060 A 
BRANCH  79  80
ATOM     80  S   UNL A   1      33.195  35.277  28.855  1.00  0.00     0.124 S 
ATOM     81  O   UNL A   1      32.411  35.740  29.993  1.00  0.00    -0.237 OA
ATOM     82  O   UNL A   1      33.894  36.309  28.097  1.00  0.00    -0.237 OA
ATOM     83  O   UNL A   1      32.578  34.228  28.048  1.00  0.00    -0.744 OA
ENDBRANCH  79  80
ENDBRANCH  47  72
BRANCH  59  84
ATOM     84  C   UNL A   1      39.926  34.279  37.067  1.00  0.00     0.058 A 
ATOM     85  C   UNL A   1      40.629  35.490  36.993  1.00  0.00     0.135 A 
ATOM     86  C   UNL A   1      39.024  34.106  38.131  1.00  0.00     0.135 A 
ATOM     87  F   UNL A   1      41.505  35.706  35.999  1.00  0.00    -0.206 F 
ATOM     88  C   UNL A   1      40.472  36.480  37.959  1.00  0.00     0.059 A 
ATOM     89  C   UNL A   1      38.827  35.094  39.088  1.00  0.00     0.059 A 
ATOM     90  F   UNL A   1      38.313  32.972  38.236  1.00  0.00    -0.206 F 
ATOM     91  C   UNL A   1      39.568  36.270  39.003  1.00  0.00     0.060 A 
BRANCH  91  92
ATOM     92  S   UNL A   1      39.362  37.566  40.242  1.00  0.00     0.124 S 
ATOM     93  O   UNL A   1      40.738  38.012  40.433  1.00  0.00    -0.237 OA
ATOM     94  O   UNL A   1      38.478  38.509  39.564  1.00  0.00    -0.237 OA
ATOM     95  O   UNL A   1      38.767  36.862  41.375  1.00  0.00    -0.744 OA
ENDBRANCH  91  92
ENDBRANCH  59  84
ENDBRANCH  33  34
ENDBRANCH  26  28
ENDBRANCH  25  26
ENDBRANCH  24  25
ENDBRANCH  23  24
ENDBRANCH  22  23
ENDBRANCH   1  22
TORSDOF 22
ENDMDL
MODEL 3
REMARK VINA RESULT:      -9.8      1.593      3.022
REMARK SMILES O=C(CC1(NS(=O)(=O)C[C@H]2CCCO2)CCC1)OCCOCCOC(=O)c1ccc(-c2c3nc(c(-c4c(F)cc(S(=O)(=O)[O-])cc4F)c4ccc([nH]4)c(-c4c(F)cc(S(=O)(=O)[O-])cc4F)c4nc(c(-c5c(F)cc(S(=O)(=O)[O-])cc5F)c5ccc2[nH]5)C=C4)C=C3)cc1
REMARK SMILES IDX 20 1 19 2 18 3 2 4 1 5 3 6 4 7 15 8 17 9 16 10 5 11 6 13
REMARK SMILES IDX 7 14 8 15 9 16 10 17 11 18 14 19 12 20 13 21 21 22 22 23
REMARK SMILES IDX 23 24 24 25 25 26 26 27 27 28 28 29 92 30 29 31 91 32 30 33
REMARK SMILES IDX 31 34 32 35 85 36 33 37 90 38 84 39 86 40 34 41 89 42 83 43
REMARK SMILES IDX 82 44 35 46 69 47 48 48 68 49 49 50 52 51 67 52 87 53 50 54
REMARK SMILES IDX 51 55 66 57 88 58 53 59 36 60 37 61 46 62 38 63 39 64 45 65
REMARK SMILES IDX 47 66 40 67 41 68 42 69 43 70 44 71 70 72 71 73 80 74 72 75
REMARK SMILES IDX 73 76 79 77 81 78 74 79 75 80 76 81 77 82 78 83 54 84 55 85
REMARK SMILES IDX 64 86 56 87 57 88 63 89 65 90 58 91 59 92 60 93 61 94 62 95
REMARK H PARENT 5 12 86 45 52 56
REMARK Flexibility Score: inf
ROOT
ATOM      1  C   UNL A   1      39.121  21.833  26.108  1.00  0.00     0.202 C 
ENDROOT
BRANCH   1   2
ATOM      2  C   UNL A   1      37.838  21.526  25.340  1.00  0.00     0.261 C 
BRANCH   2   3
ATOM      3  O   UNL A   1      36.673  22.019  26.015  1.00  0.00    -0.463 OA
BRANCH   3   4
ATOM      4  C   UNL A   1      36.036  23.146  25.636  1.00  0.00     0.307 C 
ATOM      5  O   UNL A   1      36.639  24.020  25.018  1.00  0.00    -0.252 OA
BRANCH   4   6
ATOM      6  C   UNL A   1      34.603  23.335  26.035  1.00  0.00     0.146 C 
BRANCH   6   7
ATOM      7  C   UNL A   1      33.527  22.584  25.265  1.00  0.00     0.043 C 
ATOM      8  C   UNL A   1      33.937  21.838  23.964  1.00  0.00     0.024 C 
ATOM      9  C   UNL A   1      33.251  21.178  25.913  1.00  0.00     0.024 C 
ATOM     10  C   UNL A   1      33.664  20.482  24.620  1.00  0.00     0.004 C 
BRANCH   7  11
ATOM     11  N   UNL A   1      32.260  23.416  25.230  1.00  0.00    -0.208 NA
ATOM     12  H   UNL A   1      31.793  23.134  24.369  1.00  0.00     0.141 HD
BRANCH  11  13
ATOM     13  S   UNL A   1      31.036  23.503  26.360  1.00  0.00     0.214 S 
ATOM     14  O   UNL A   1      30.185  22.353  26.158  1.00  0.00    -0.212 OA
ATOM     15  O   UNL A   1      31.720  23.676  27.625  1.00  0.00    -0.212 OA
BRANCH  13  16
ATOM     16  C   UNL A   1      30.092  24.986  26.030  1.00  0.00     0.185 C 
BRANCH  16  17
ATOM     17  C   UNL A   1      30.804  26.287  25.665  1.00  0.00     0.134 C 
ATOM     18  C   UNL A   1      31.750  26.971  26.639  1.00  0.00     0.035 C 
ATOM     19  O   UNL A   1      31.512  26.164  24.414  1.00  0.00    -0.377 OA
ATOM     20  C   UNL A   1      33.109  26.835  25.994  1.00  0.00     0.031 C 
ATOM     21  C   UNL A   1      32.776  26.827  24.523  1.00  0.00     0.160 C 
ENDBRANCH  16  17
ENDBRANCH  13  16
ENDBRANCH  11  13
ENDBRANCH   7  11
ENDBRANCH   6   7
ENDBRANCH   4   6
ENDBRANCH   3   4
ENDBRANCH   2   3
ENDBRANCH   1   2
BRANCH   1  22
ATOM     22  O   UNL A   1      40.123  20.814  26.079  1.00  0.00    -0.374 OA
BRANCH  22  23
ATOM     23  C   UNL A   1      41.338  21.139  26.771  1.00  0.00     0.202 C 
BRANCH  23  24
ATOM     24  C   UNL A   1      42.215  22.126  25.995  1.00  0.00     0.261 C 
BRANCH  24  25
ATOM     25  O   UNL A   1      42.626  23.184  26.868  1.00  0.00    -0.460 OA
BRANCH  25  26
ATOM     26  C   UNL A   1      42.759  24.394  26.271  1.00  0.00     0.338 C 
ATOM     27  O   UNL A   1      43.094  24.614  25.119  1.00  0.00    -0.246 OA
BRANCH  26  28
ATOM     28  C   UNL A   1      42.171  25.416  27.168  1.00  0.00     0.060 A 
ATOM     29  C   UNL A   1      42.751  26.694  27.158  1.00  0.00     0.016 A 
ATOM     30  C   UNL A   1      41.019  25.169  27.923  1.00  0.00     0.016 A 
ATOM     31  C   UNL A   1      42.225  27.706  27.951  1.00  0.00     0.010 A 
ATOM     32  C   UNL A   1      40.497  26.178  28.731  1.00  0.00     0.010 A 
ATOM     33  C   UNL A   1      41.138  27.426  28.788  1.00  0.00    -0.014 A 
BRANCH  33  34
ATOM     34  C   UNL A   1      40.901  28.311  29.947  1.00  0.00     0.031 A 
ATOM     35  C   UNL A   1      41.810  28.130  31.133  1.00  0.00     0.074 A 
ATOM     36  C   UNL A   1      39.955  29.263  29.927  1.00  0.00     0.049 A 
ATOM     37  N   UNL A   1      41.831  28.766  32.272  1.00  0.00    -0.248 NA
ATOM     38  C   UNL A   1      42.836  27.076  31.015  1.00  0.00     0.031 C 
ATOM     39  C   UNL A   1      39.054  29.544  28.811  1.00  0.00     0.029 A 
ATOM     40  N   UNL A   1      39.600  30.176  30.886  1.00  0.00    -0.354 N 
ATOM     41  C   UNL A   1      42.859  28.184  33.006  1.00  0.00     0.074 A 
ATOM     42  C   UNL A   1      43.415  27.120  32.202  1.00  0.00     0.031 C 
ATOM     43  C   UNL A   1      38.246  30.564  29.150  1.00  0.00     0.029 A 
ATOM     44  C   UNL A   1      38.557  30.989  30.514  1.00  0.00     0.049 A 
ATOM     45  H   UNL A   1      40.050  30.243  31.758  1.00  0.00     0.167 HD
ATOM     46  C   UNL A   1      43.307  28.516  34.238  1.00  0.00     0.037 A 
ATOM     47  C   UNL A   1      37.930  31.957  31.210  1.00  0.00     0.037 A 
ATOM     48  C   UNL A   1      42.741  29.578  35.022  1.00  0.00     0.049 A 
ATOM     49  C   UNL A   1      38.412  32.274  32.604  1.00  0.00     0.074 A 
ATOM     50  C   UNL A   1      43.119  30.018  36.275  1.00  0.00     0.029 A 
ATOM     51  N   UNL A   1      41.666  30.359  34.624  1.00  0.00    -0.354 N 
ATOM     52  N   UNL A   1      39.402  31.738  33.279  1.00  0.00    -0.248 NA
ATOM     53  C   UNL A   1      37.695  33.332  33.327  1.00  0.00     0.031 C 
ATOM     54  C   UNL A   1      42.237  31.035  36.658  1.00  0.00     0.029 A 
ATOM     55  C   UNL A   1      41.348  31.266  35.619  1.00  0.00     0.049 A 
ATOM     56  H   UNL A   1      41.197  30.280  33.762  1.00  0.00     0.167 HD
ATOM     57  C   UNL A   1      39.451  32.417  34.493  1.00  0.00     0.074 A 
ATOM     58  C   UNL A   1      38.392  33.406  34.453  1.00  0.00     0.031 C 
ATOM     59  C   UNL A   1      40.292  32.245  35.543  1.00  0.00     0.037 A 
BRANCH  46  60
ATOM     60  C   UNL A   1      44.427  27.692  34.811  1.00  0.00     0.058 A 
ATOM     61  C   UNL A   1      44.190  26.520  35.548  1.00  0.00     0.135 A 
ATOM     62  C   UNL A   1      45.760  28.093  34.632  1.00  0.00     0.135 A 
ATOM     63  F   UNL A   1      42.933  26.107  35.775  1.00  0.00    -0.206 F 
ATOM     64  C   UNL A   1      45.233  25.791  36.112  1.00  0.00     0.059 A 
ATOM     65  C   UNL A   1      46.820  27.363  35.161  1.00  0.00     0.059 A 
ATOM     66  F   UNL A   1      46.044  29.213  33.948  1.00  0.00    -0.206 F 
ATOM     67  C   UNL A   1      46.544  26.223  35.913  1.00  0.00     0.060 A 
BRANCH  67  68
ATOM     68  S   UNL A   1      47.888  25.269  36.654  1.00  0.00     0.124 S 
ATOM     69  O   UNL A   1      47.738  23.983  35.977  1.00  0.00    -0.237 OA
ATOM     70  O   UNL A   1      49.065  26.047  36.282  1.00  0.00    -0.237 OA
ATOM     71  O   UNL A   1      47.561  25.271  38.076  1.00  0.00    -0.744 OA
ENDBRANCH  67  68
ENDBRANCH  46  60
BRANCH  47  72
ATOM     72  C   UNL A   1      36.799  32.706  30.599  1.00  0.00     0.058 A 
ATOM     73  C   UNL A   1      35.470  32.402  30.925  1.00  0.00     0.135 A 
ATOM     74  C   UNL A   1      37.024  33.745  29.681  1.00  0.00     0.135 A 
ATOM     75  F   UNL A   1      35.200  31.412  31.790  1.00  0.00    -0.206 F 
ATOM     76  C   UNL A   1      34.402  33.089  30.354  1.00  0.00     0.059 A 
ATOM     77  C   UNL A   1      35.975  34.463  29.116  1.00  0.00     0.059 A 
ATOM     78  F   UNL A   1      38.278  34.083  29.342  1.00  0.00    -0.206 F 
ATOM     79  C   UNL A   1      34.666  34.121  29.453  1.00  0.00     0.060 A 
BRANCH  79  80
ATOM     80  S   UNL A   1      33.273  35.040  28.760  1.00  0.00     0.124 S 
ATOM     81  O   UNL A   1      33.944  36.184  28.156  1.00  0.00    -0.237 OA
ATOM     82  O   UNL A   1      32.701  34.071  27.831  1.00  0.00    -0.237 OA
ATOM     83  O   UNL A   1      32.451  35.334  29.931  1.00  0.00    -0.744 OA
ENDBRANCH  79  80
ENDBRANCH  47  72
BRANCH  59  84
ATOM     84  C   UNL A   1      40.134  33.179  36.711  1.00  0.00     0.058 A 
ATOM     85  C   UNL A   1      39.177  32.959  37.712  1.00  0.00     0.135 A 
ATOM     86  C   UNL A   1      40.989  34.286  36.850  1.00  0.00     0.135 A 
ATOM     87  F   UNL A   1      38.335  31.917  37.626  1.00  0.00    -0.206 F 
ATOM     88  C   UNL A   1      39.048  33.824  38.794  1.00  0.00     0.059 A 
ATOM     89  C   UNL A   1      40.899  35.145  37.939  1.00  0.00     0.059 A 
ATOM     90  F   UNL A   1      41.934  34.530  35.928  1.00  0.00    -0.206 F 
ATOM     91  C   UNL A   1      39.913  34.915  38.897  1.00  0.00     0.060 A 
BRANCH  91  92
ATOM     92  S   UNL A   1      39.745  36.023  40.311  1.00  0.00     0.124 S 
ATOM     93  O   UNL A   1      39.336  37.265  39.664  1.00  0.00    -0.237 OA
ATOM     94  O   UNL A   1      38.721  35.357  41.110  1.00  0.00    -0.237 OA
ATOM     95  O   UNL A   1      41.083  36.032  40.897  1.00  0.00    -0.744 OA
ENDBRANCH  91  92
ENDBRANCH  59  84
ENDBRANCH  33  34
ENDBRANCH  26  28
ENDBRANCH  25  26
ENDBRANCH  24  25
ENDBRANCH  23  24
ENDBRANCH  22  23
ENDBRANCH   1  22
TORSDOF 22
ENDMDL
