MODEL 1
REMARK VINA RESULT:     -10.1      0.000      0.000
REMARK SMILES CCC[N@H+](CC(=O)OCCOCCOC(=O)c1ccc(-c2c3nc(c(-c4c(F)cc(S(=O)(=O)[O-])cc4F)c4ccc([nH]4)c(-c4c(F)cc(S(=O)(=O)[O-])cc4F)c4nc(c(-c5c(F)cc(S(=O)(=O)[O-])cc5F)c5ccc2[nH]5)C=C4)C=C3)cc1)[C@H]1CCOC2(CCCCC2)C1
REMARK SMILES IDX 11 1 10 2 9 3 8 4 6 5 7 6 5 7 4 8 3 10 2 11 1 12 83 13 84 14
REMARK SMILES IDX 93 15 85 16 87 17 86 18 88 19 92 20 89 21 91 22 90 23 12 24
REMARK SMILES IDX 13 25 14 26 15 27 16 28 17 29 18 30 82 31 19 32 81 33 20 34
REMARK SMILES IDX 21 35 22 36 75 37 23 38 80 39 74 40 76 41 24 42 79 43 73 44
REMARK SMILES IDX 72 45 25 47 59 48 38 49 58 50 39 51 42 52 57 53 77 54 40 55
REMARK SMILES IDX 41 56 56 58 78 59 43 60 26 61 27 62 36 63 28 64 29 65 35 66
REMARK SMILES IDX 37 67 30 68 31 69 32 70 33 71 34 72 60 73 61 74 70 75 62 76
REMARK SMILES IDX 63 77 69 78 71 79 64 80 65 81 66 82 67 83 68 84 44 85 45 86
REMARK SMILES IDX 54 87 46 88 47 89 53 90 55 91 48 92 49 93 50 94 51 95 52 96
REMARK H PARENT 4 9 76 46 42 57
REMARK Flexibility Score: inf
ROOT
ATOM      1  O   UNL A   1      38.532  21.316  25.223  1.00  0.00    -0.374 OA
ENDROOT
BRANCH   1   2
ATOM      2  C   UNL A   1      37.343  22.018  24.854  1.00  0.00     0.202 C 
BRANCH   2   3
ATOM      3  C   UNL A   1      36.091  21.642  25.652  1.00  0.00     0.261 C 
BRANCH   3   4
ATOM      4  O   UNL A   1      35.764  22.654  26.623  1.00  0.00    -0.459 OA
BRANCH   4   5
ATOM      5  C   UNL A   1      34.445  22.876  26.848  1.00  0.00     0.361 C 
ATOM      6  O   UNL A   1      33.882  22.689  27.924  1.00  0.00    -0.245 OA
BRANCH   5   7
ATOM      7  C   UNL A   1      33.684  23.305  25.600  1.00  0.00     0.386 C 
BRANCH   7   8
ATOM      8  N   UNL A   1      34.060  24.622  24.946  1.00  0.00    -0.323 N 
ATOM      9  H   UNL A   1      34.772  25.162  25.440  1.00  0.00     0.348 HD
BRANCH   8  10
ATOM     10  C   UNL A   1      34.711  24.357  23.640  1.00  0.00     0.262 C 
BRANCH  10  11
ATOM     11  C   UNL A   1      34.317  23.162  22.743  1.00  0.00     0.058 C 
ATOM     12  C   UNL A   1      32.922  23.183  22.141  1.00  0.00     0.010 C 
ENDBRANCH  10  11
ENDBRANCH   8  10
BRANCH   8  13
ATOM     13  C   UNL A   1      32.822  25.462  24.957  1.00  0.00     0.189 C 
ATOM     14  C   UNL A   1      32.613  26.006  26.383  1.00  0.00     0.093 C 
ATOM     15  C   UNL A   1      32.690  26.640  23.993  1.00  0.00     0.100 C 
ATOM     16  C   UNL A   1      31.300  26.772  26.484  1.00  0.00     0.167 C 
ATOM     17  C   UNL A   1      31.358  27.397  24.145  1.00  0.00     0.074 C 
ATOM     18  O   UNL A   1      31.188  27.808  25.509  1.00  0.00    -0.375 OA
ATOM     19  C   UNL A   1      30.165  26.550  23.649  1.00  0.00     0.036 C 
ATOM     20  C   UNL A   1      31.471  28.691  23.301  1.00  0.00     0.036 C 
ATOM     21  C   UNL A   1      28.866  27.348  23.567  1.00  0.00     0.003 C 
ATOM     22  C   UNL A   1      30.160  29.467  23.205  1.00  0.00     0.003 C 
ATOM     23  C   UNL A   1      29.032  28.582  22.691  1.00  0.00     0.000 C 
ENDBRANCH   8  13
ENDBRANCH   7   8
ENDBRANCH   5   7
ENDBRANCH   4   5
ENDBRANCH   3   4
ENDBRANCH   2   3
ENDBRANCH   1   2
BRANCH   1  24
ATOM     24  C   UNL A   1      39.233  21.794  26.372  1.00  0.00     0.202 C 
BRANCH  24  25
ATOM     25  C   UNL A   1      40.247  22.905  26.097  1.00  0.00     0.261 C 
BRANCH  25  26
ATOM     26  O   UNL A   1      39.759  24.178  26.561  1.00  0.00    -0.460 OA
BRANCH  26  27
ATOM     27  C   UNL A   1      40.596  25.223  26.384  1.00  0.00     0.338 C 
ATOM     28  O   UNL A   1      41.127  25.576  25.341  1.00  0.00    -0.246 OA
BRANCH  27  29
ATOM     29  C   UNL A   1      40.677  26.012  27.626  1.00  0.00     0.060 A 
ATOM     30  C   UNL A   1      39.650  25.850  28.559  1.00  0.00     0.016 A 
ATOM     31  C   UNL A   1      41.686  26.957  27.841  1.00  0.00     0.016 A 
ATOM     32  C   UNL A   1      39.599  26.667  29.687  1.00  0.00     0.010 A 
ATOM     33  C   UNL A   1      41.636  27.772  28.979  1.00  0.00     0.010 A 
ATOM     34  C   UNL A   1      40.570  27.657  29.888  1.00  0.00    -0.014 A 
BRANCH  34  35
ATOM     35  C   UNL A   1      40.384  28.642  30.984  1.00  0.00     0.031 A 
ATOM     36  C   UNL A   1      41.247  28.549  32.216  1.00  0.00     0.074 A 
ATOM     37  C   UNL A   1      39.499  29.648  30.854  1.00  0.00     0.049 A 
ATOM     38  N   UNL A   1      41.283  29.334  33.261  1.00  0.00    -0.248 NA
ATOM     39  C   UNL A   1      42.193  27.423  32.278  1.00  0.00     0.031 C 
ATOM     40  C   UNL A   1      38.616  29.852  29.706  1.00  0.00     0.029 A 
ATOM     41  N   UNL A   1      39.202  30.690  31.697  1.00  0.00    -0.354 N 
ATOM     42  C   UNL A   1      42.260  28.808  34.099  1.00  0.00     0.074 A 
ATOM     43  C   UNL A   1      42.763  27.611  33.461  1.00  0.00     0.031 C 
ATOM     44  C   UNL A   1      37.875  30.955  29.918  1.00  0.00     0.029 A 
ATOM     45  C   UNL A   1      38.219  31.523  31.219  1.00  0.00     0.049 A 
ATOM     46  H   UNL A   1      39.651  30.827  32.562  1.00  0.00     0.167 HD
ATOM     47  C   UNL A   1      42.710  29.288  35.283  1.00  0.00     0.037 A 
ATOM     48  C   UNL A   1      37.656  32.615  31.772  1.00  0.00     0.037 A 
ATOM     49  C   UNL A   1      42.214  30.481  35.917  1.00  0.00     0.049 A 
ATOM     50  C   UNL A   1      38.146  33.104  33.111  1.00  0.00     0.074 A 
ATOM     51  C   UNL A   1      42.620  31.055  37.110  1.00  0.00     0.029 A 
ATOM     52  N   UNL A   1      41.203  31.284  35.414  1.00  0.00    -0.354 N 
ATOM     53  N   UNL A   1      39.094  32.611  33.873  1.00  0.00    -0.248 NA
ATOM     54  C   UNL A   1      37.498  34.304  33.659  1.00  0.00     0.031 C 
ATOM     55  C   UNL A   1      41.829  32.185  37.346  1.00  0.00     0.029 A 
ATOM     56  C   UNL A   1      40.958  32.337  36.279  1.00  0.00     0.049 A 
ATOM     57  H   UNL A   1      40.728  31.129  34.566  1.00  0.00     0.167 HD
ATOM     58  C   UNL A   1      39.167  33.453  34.979  1.00  0.00     0.074 A 
ATOM     59  C   UNL A   1      38.183  34.495  34.778  1.00  0.00     0.031 C 
ATOM     60  C   UNL A   1      39.975  33.369  36.066  1.00  0.00     0.037 A 
BRANCH  47  61
ATOM     61  C   UNL A   1      43.802  28.522  35.976  1.00  0.00     0.058 A 
ATOM     62  C   UNL A   1      43.514  27.427  36.807  1.00  0.00     0.135 A 
ATOM     63  C   UNL A   1      45.151  28.848  35.764  1.00  0.00     0.135 A 
ATOM     64  F   UNL A   1      42.241  27.085  37.057  1.00  0.00    -0.206 F 
ATOM     65  C   UNL A   1      44.526  26.688  37.411  1.00  0.00     0.059 A 
ATOM     66  C   UNL A   1      46.180  28.109  36.341  1.00  0.00     0.059 A 
ATOM     67  F   UNL A   1      45.479  29.888  34.982  1.00  0.00    -0.206 F 
ATOM     68  C   UNL A   1      45.856  27.036  37.170  1.00  0.00     0.060 A 
BRANCH  68  69
ATOM     69  S   UNL A   1      47.159  26.049  37.939  1.00  0.00     0.124 S 
ATOM     70  O   UNL A   1      46.869  26.239  39.358  1.00  0.00    -0.237 OA
ATOM     71  O   UNL A   1      46.893  24.715  37.411  1.00  0.00    -0.237 OA
ATOM     72  O   UNL A   1      48.387  26.676  37.460  1.00  0.00    -0.744 OA
ENDBRANCH  68  69
ENDBRANCH  47  61
BRANCH  48  73
ATOM     73  C   UNL A   1      36.554  33.324  31.070  1.00  0.00     0.058 A 
ATOM     74  C   UNL A   1      35.223  33.207  31.496  1.00  0.00     0.135 A 
ATOM     75  C   UNL A   1      36.812  34.114  29.938  1.00  0.00     0.135 A 
ATOM     76  F   UNL A   1      34.926  32.456  32.567  1.00  0.00    -0.206 F 
ATOM     77  C   UNL A   1      34.182  33.827  30.812  1.00  0.00     0.059 A 
ATOM     78  C   UNL A   1      35.792  34.764  29.252  1.00  0.00     0.059 A 
ATOM     79  F   UNL A   1      38.071  34.268  29.498  1.00  0.00    -0.206 F 
ATOM     80  C   UNL A   1      34.478  34.601  29.688  1.00  0.00     0.060 A 
BRANCH  80  81
ATOM     81  S   UNL A   1      33.127  35.427  28.818  1.00  0.00     0.124 S 
ATOM     82  O   UNL A   1      33.855  36.357  27.964  1.00  0.00    -0.237 OA
ATOM     83  O   UNL A   1      32.471  34.314  28.139  1.00  0.00    -0.237 OA
ATOM     84  O   UNL A   1      32.356  36.032  29.900  1.00  0.00    -0.744 OA
ENDBRANCH  80  81
ENDBRANCH  48  73
BRANCH  60  85
ATOM     85  C   UNL A   1      39.841  34.444  37.107  1.00  0.00     0.058 A 
ATOM     86  C   UNL A   1      40.522  35.667  36.994  1.00  0.00     0.135 A 
ATOM     87  C   UNL A   1      39.000  34.262  38.217  1.00  0.00     0.135 A 
ATOM     88  F   UNL A   1      41.342  35.889  35.955  1.00  0.00    -0.206 F 
ATOM     89  C   UNL A   1      40.403  36.657  37.964  1.00  0.00     0.059 A 
ATOM     90  C   UNL A   1      38.846  35.250  39.186  1.00  0.00     0.059 A 
ATOM     91  F   UNL A   1      38.315  33.118  38.366  1.00  0.00    -0.206 F 
ATOM     92  C   UNL A   1      39.566  36.436  39.060  1.00  0.00     0.060 A 
BRANCH  92  93
ATOM     93  S   UNL A   1      39.412  37.731  40.309  1.00  0.00     0.124 S 
ATOM     94  O   UNL A   1      39.014  36.960  41.482  1.00  0.00    -0.237 OA
ATOM     95  O   UNL A   1      40.759  38.294  40.348  1.00  0.00    -0.237 OA
ATOM     96  O   UNL A   1      38.388  38.614  39.758  1.00  0.00    -0.744 OA
ENDBRANCH  92  93
ENDBRANCH  60  85
ENDBRANCH  34  35
ENDBRANCH  27  29
ENDBRANCH  26  27
ENDBRANCH  25  26
ENDBRANCH  24  25
ENDBRANCH   1  24
TORSDOF 21
ENDMDL
MODEL 2
REMARK VINA RESULT:      -9.5      6.446      8.633
REMARK SMILES CCC[N@H+](CC(=O)OCCOCCOC(=O)c1ccc(-c2c3nc(c(-c4c(F)cc(S(=O)(=O)[O-])cc4F)c4ccc([nH]4)c(-c4c(F)cc(S(=O)(=O)[O-])cc4F)c4nc(c(-c5c(F)cc(S(=O)(=O)[O-])cc5F)c5ccc2[nH]5)C=C4)C=C3)cc1)[C@H]1CCOC2(CCCCC2)C1
REMARK SMILES IDX 11 1 10 2 9 3 8 4 6 5 7 6 5 7 4 8 3 10 2 11 1 12 83 13 84 14
REMARK SMILES IDX 93 15 85 16 87 17 86 18 88 19 92 20 89 21 91 22 90 23 12 24
REMARK SMILES IDX 13 25 14 26 15 27 16 28 17 29 18 30 82 31 19 32 81 33 20 34
REMARK SMILES IDX 21 35 22 36 75 37 23 38 80 39 74 40 76 41 24 42 79 43 73 44
REMARK SMILES IDX 72 45 25 47 59 48 38 49 58 50 39 51 42 52 57 53 77 54 40 55
REMARK SMILES IDX 41 56 56 58 78 59 43 60 26 61 27 62 36 63 28 64 29 65 35 66
REMARK SMILES IDX 37 67 30 68 31 69 32 70 33 71 34 72 60 73 61 74 70 75 62 76
REMARK SMILES IDX 63 77 69 78 71 79 64 80 65 81 66 82 67 83 68 84 44 85 45 86
REMARK SMILES IDX 54 87 46 88 47 89 53 90 55 91 48 92 49 93 50 94 51 95 52 96
REMARK H PARENT 4 9 76 46 42 57
REMARK Flexibility Score: inf
ROOT
ATOM      1  O   UNL A   1      38.449  21.157  25.344  1.00  0.00    -0.374 OA
ENDROOT
BRANCH   1   2
ATOM      2  C   UNL A   1      37.388  21.921  24.766  1.00  0.00     0.202 C 
BRANCH   2   3
ATOM      3  C   UNL A   1      36.733  22.939  25.704  1.00  0.00     0.261 C 
BRANCH   3   4
ATOM      4  O   UNL A   1      35.558  23.521  25.108  1.00  0.00    -0.459 OA
BRANCH   4   5
ATOM      5  C   UNL A   1      34.368  22.959  25.439  1.00  0.00     0.361 C 
ATOM      6  O   UNL A   1      34.181  21.753  25.572  1.00  0.00    -0.245 OA
BRANCH   5   7
ATOM      7  C   UNL A   1      33.235  23.971  25.551  1.00  0.00     0.386 C 
BRANCH   7   8
ATOM      8  N   UNL A   1      32.327  24.169  24.351  1.00  0.00    -0.323 N 
ATOM      9  H   UNL A   1      32.675  23.774  23.476  1.00  0.00     0.348 HD
BRANCH   8  10
ATOM     10  C   UNL A   1      31.064  23.421  24.557  1.00  0.00     0.262 C 
BRANCH  10  11
ATOM     11  C   UNL A   1      30.738  22.689  25.879  1.00  0.00     0.058 C 
ATOM     12  C   UNL A   1      29.862  23.428  26.877  1.00  0.00     0.010 C 
ENDBRANCH  10  11
ENDBRANCH   8  10
BRANCH   8  13
ATOM     13  C   UNL A   1      32.242  25.647  24.132  1.00  0.00     0.189 C 
ATOM     14  C   UNL A   1      33.437  26.082  23.265  1.00  0.00     0.093 C 
ATOM     15  C   UNL A   1      30.983  26.256  23.516  1.00  0.00     0.100 C 
ATOM     16  C   UNL A   1      33.469  27.599  23.108  1.00  0.00     0.167 C 
ATOM     17  C   UNL A   1      31.068  27.785  23.356  1.00  0.00     0.074 C 
ATOM     18  O   UNL A   1      32.243  28.128  22.608  1.00  0.00    -0.375 OA
ATOM     19  C   UNL A   1      31.031  28.499  24.725  1.00  0.00     0.036 C 
ATOM     20  C   UNL A   1      29.852  28.223  22.502  1.00  0.00     0.036 C 
ATOM     21  C   UNL A   1      30.880  30.014  24.598  1.00  0.00     0.003 C 
ATOM     22  C   UNL A   1      29.696  29.738  22.403  1.00  0.00     0.003 C 
ATOM     23  C   UNL A   1      29.646  30.378  23.785  1.00  0.00     0.000 C 
ENDBRANCH   8  13
ENDBRANCH   7   8
ENDBRANCH   5   7
ENDBRANCH   4   5
ENDBRANCH   3   4
ENDBRANCH   2   3
ENDBRANCH   1   2
BRANCH   1  24
ATOM     24  C   UNL A   1      38.451  19.754  25.079  1.00  0.00     0.202 C 
BRANCH  24  25
ATOM     25  C   UNL A   1      39.587  18.970  25.738  1.00  0.00     0.261 C 
BRANCH  25  26
ATOM     26  O   UNL A   1      40.473  19.847  26.456  1.00  0.00    -0.460 OA
BRANCH  26  27
ATOM     27  C   UNL A   1      41.792  19.644  26.247  1.00  0.00     0.338 C 
ATOM     28  O   UNL A   1      42.326  18.624  25.835  1.00  0.00    -0.246 OA
BRANCH  27  29
ATOM     29  C   UNL A   1      42.528  20.906  26.443  1.00  0.00     0.060 A 
ATOM     30  C   UNL A   1      42.684  21.362  27.755  1.00  0.00     0.016 A 
ATOM     31  C   UNL A   1      42.982  21.675  25.368  1.00  0.00     0.016 A 
ATOM     32  C   UNL A   1      43.248  22.614  27.994  1.00  0.00     0.010 A 
ATOM     33  C   UNL A   1      43.556  22.930  25.611  1.00  0.00     0.010 A 
ATOM     34  C   UNL A   1      43.656  23.422  26.923  1.00  0.00    -0.014 A 
BRANCH  34  35
ATOM     35  C   UNL A   1      44.066  24.824  27.190  1.00  0.00     0.031 A 
ATOM     36  C   UNL A   1      45.501  25.229  26.972  1.00  0.00     0.074 A 
ATOM     37  C   UNL A   1      43.155  25.742  27.561  1.00  0.00     0.049 A 
ATOM     38  N   UNL A   1      46.055  26.408  27.095  1.00  0.00    -0.248 NA
ATOM     39  C   UNL A   1      46.433  24.167  26.561  1.00  0.00     0.031 C 
ATOM     40  C   UNL A   1      41.735  25.477  27.794  1.00  0.00     0.029 A 
ATOM     41  N   UNL A   1      43.290  27.087  27.804  1.00  0.00    -0.354 N 
ATOM     42  C   UNL A   1      47.395  26.233  26.766  1.00  0.00     0.074 A 
ATOM     43  C   UNL A   1      47.581  24.827  26.481  1.00  0.00     0.031 C 
ATOM     44  C   UNL A   1      41.130  26.625  28.146  1.00  0.00     0.029 A 
ATOM     45  C   UNL A   1      42.118  27.700  28.179  1.00  0.00     0.049 A 
ATOM     46  H   UNL A   1      44.145  27.566  27.718  1.00  0.00     0.167 HD
ATOM     47  C   UNL A   1      48.378  27.163  26.691  1.00  0.00     0.037 A 
ATOM     48  C   UNL A   1      41.874  28.981  28.517  1.00  0.00     0.037 A 
ATOM     49  C   UNL A   1      48.194  28.563  26.971  1.00  0.00     0.049 A 
ATOM     50  C   UNL A   1      42.994  29.988  28.466  1.00  0.00     0.074 A 
ATOM     51  C   UNL A   1      49.127  29.584  26.906  1.00  0.00     0.029 A 
ATOM     52  N   UNL A   1      46.999  29.142  27.369  1.00  0.00    -0.354 N 
ATOM     53  N   UNL A   1      44.248  29.811  28.122  1.00  0.00    -0.248 NA
ATOM     54  C   UNL A   1      42.664  31.370  28.840  1.00  0.00     0.031 C 
ATOM     55  C   UNL A   1      48.505  30.774  27.302  1.00  0.00     0.029 A 
ATOM     56  C   UNL A   1      47.174  30.501  27.572  1.00  0.00     0.049 A 
ATOM     57  H   UNL A   1      46.150  28.658  27.491  1.00  0.00     0.167 HD
ATOM     58  C   UNL A   1      44.849  31.063  28.219  1.00  0.00     0.074 A 
ATOM     59  C   UNL A   1      43.818  31.990  28.634  1.00  0.00     0.031 C 
ATOM     60  C   UNL A   1      46.139  31.413  27.986  1.00  0.00     0.037 A 
BRANCH  47  61
ATOM     61  C   UNL A   1      49.748  26.699  26.287  1.00  0.00     0.058 A 
ATOM     62  C   UNL A   1      50.198  26.808  24.961  1.00  0.00     0.135 A 
ATOM     63  C   UNL A   1      50.643  26.193  27.243  1.00  0.00     0.135 A 
ATOM     64  F   UNL A   1      49.375  27.268  24.004  1.00  0.00    -0.206 F 
ATOM     65  C   UNL A   1      51.483  26.422  24.595  1.00  0.00     0.059 A 
ATOM     66  C   UNL A   1      51.941  25.821  26.904  1.00  0.00     0.059 A 
ATOM     67  F   UNL A   1      50.262  26.064  28.523  1.00  0.00    -0.206 F 
ATOM     68  C   UNL A   1      52.348  25.932  25.574  1.00  0.00     0.060 A 
BRANCH  68  69
ATOM     69  S   UNL A   1      54.023  25.463  25.089  1.00  0.00     0.124 S 
ATOM     70  O   UNL A   1      54.828  26.306  25.968  1.00  0.00    -0.237 OA
ATOM     71  O   UNL A   1      54.046  24.034  25.385  1.00  0.00    -0.237 OA
ATOM     72  O   UNL A   1      54.075  25.807  23.671  1.00  0.00    -0.744 OA
ENDBRANCH  68  69
ENDBRANCH  47  61
BRANCH  48  73
ATOM     73  C   UNL A   1      40.511  29.394  28.946  1.00  0.00     0.058 A 
ATOM     74  C   UNL A   1      39.473  29.559  28.018  1.00  0.00     0.135 A 
ATOM     75  C   UNL A   1      40.231  29.657  30.296  1.00  0.00     0.135 A 
ATOM     76  F   UNL A   1      39.695  29.329  26.715  1.00  0.00    -0.206 F 
ATOM     77  C   UNL A   1      38.210  29.995  28.408  1.00  0.00     0.059 A 
ATOM     78  C   UNL A   1      38.970  30.069  30.713  1.00  0.00     0.059 A 
ATOM     79  F   UNL A   1      41.187  29.501  31.225  1.00  0.00    -0.206 F 
ATOM     80  C   UNL A   1      37.970  30.251  29.759  1.00  0.00     0.060 A 
BRANCH  80  81
ATOM     81  S   UNL A   1      36.322  30.789  30.266  1.00  0.00     0.124 S 
ATOM     82  O   UNL A   1      35.641  30.896  28.981  1.00  0.00    -0.237 OA
ATOM     83  O   UNL A   1      35.891  29.694  31.129  1.00  0.00    -0.237 OA
ATOM     84  O   UNL A   1      36.582  32.052  30.952  1.00  0.00    -0.744 OA
ENDBRANCH  80  81
ENDBRANCH  48  73
BRANCH  60  85
ATOM     85  C   UNL A   1      46.499  32.862  28.156  1.00  0.00     0.058 A 
ATOM     86  C   UNL A   1      47.054  33.347  29.351  1.00  0.00     0.135 A 
ATOM     87  C   UNL A   1      46.311  33.772  27.103  1.00  0.00     0.135 A 
ATOM     88  F   UNL A   1      47.250  32.518  30.389  1.00  0.00    -0.206 F 
ATOM     89  C   UNL A   1      47.378  34.690  29.509  1.00  0.00     0.059 A 
ATOM     90  C   UNL A   1      46.652  35.115  27.231  1.00  0.00     0.059 A 
ATOM     91  F   UNL A   1      45.796  33.359  25.935  1.00  0.00    -0.206 F 
ATOM     92  C   UNL A   1      47.168  35.569  28.444  1.00  0.00     0.060 A 
BRANCH  92  93
ATOM     93  S   UNL A   1      47.599  37.310  28.656  1.00  0.00     0.124 S 
ATOM     94  O   UNL A   1      46.659  37.957  27.746  1.00  0.00    -0.237 OA
ATOM     95  O   UNL A   1      47.353  37.524  30.080  1.00  0.00    -0.237 OA
ATOM     96  O   UNL A   1      49.001  37.363  28.256  1.00  0.00    -0.744 OA
ENDBRANCH  92  93
ENDBRANCH  60  85
ENDBRANCH  34  35
ENDBRANCH  27  29
ENDBRANCH  26  27
ENDBRANCH  25  26
ENDBRANCH  24  25
ENDBRANCH   1  24
TORSDOF 21
ENDMDL
MODEL 3
REMARK VINA RESULT:      -9.5      1.331      8.344
REMARK SMILES CCC[N@H+](CC(=O)OCCOCCOC(=O)c1ccc(-c2c3nc(c(-c4c(F)cc(S(=O)(=O)[O-])cc4F)c4ccc([nH]4)c(-c4c(F)cc(S(=O)(=O)[O-])cc4F)c4nc(c(-c5c(F)cc(S(=O)(=O)[O-])cc5F)c5ccc2[nH]5)C=C4)C=C3)cc1)[C@H]1CCOC2(CCCCC2)C1
REMARK SMILES IDX 11 1 10 2 9 3 8 4 6 5 7 6 5 7 4 8 3 10 2 11 1 12 83 13 84 14
REMARK SMILES IDX 93 15 85 16 87 17 86 18 88 19 92 20 89 21 91 22 90 23 12 24
REMARK SMILES IDX 13 25 14 26 15 27 16 28 17 29 18 30 82 31 19 32 81 33 20 34
REMARK SMILES IDX 21 35 22 36 75 37 23 38 80 39 74 40 76 41 24 42 79 43 73 44
REMARK SMILES IDX 72 45 25 47 59 48 38 49 58 50 39 51 42 52 57 53 77 54 40 55
REMARK SMILES IDX 41 56 56 58 78 59 43 60 26 61 27 62 36 63 28 64 29 65 35 66
REMARK SMILES IDX 37 67 30 68 31 69 32 70 33 71 34 72 60 73 61 74 70 75 62 76
REMARK SMILES IDX 63 77 69 78 71 79 64 80 65 81 66 82 67 83 68 84 44 85 45 86
REMARK SMILES IDX 54 87 46 88 47 89 53 90 55 91 48 92 49 93 50 94 51 95 52 96
REMARK H PARENT 4 9 76 46 42 57
REMARK Flexibility Score: inf
ROOT
ATOM      1  O   UNL A   1      39.973  21.464  26.087  1.00  0.00    -0.374 OA
ENDROOT
BRANCH   1   2
ATOM      2  C   UNL A   1      38.737  22.174  25.983  1.00  0.00     0.202 C 
BRANCH   2   3
ATOM      3  C   UNL A   1      37.689  21.527  25.073  1.00  0.00     0.261 C 
BRANCH   3   4
ATOM      4  O   UNL A   1      36.381  21.560  25.674  1.00  0.00    -0.459 OA
BRANCH   4   5
ATOM      5  C   UNL A   1      35.744  22.758  25.679  1.00  0.00     0.361 C 
ATOM      6  O   UNL A   1      36.305  23.844  25.549  1.00  0.00    -0.245 OA
BRANCH   5   7
ATOM      7  C   UNL A   1      34.250  22.646  25.951  1.00  0.00     0.386 C 
BRANCH   7   8
ATOM      8  N   UNL A   1      33.333  22.289  24.795  1.00  0.00    -0.323 N 
ATOM      9  H   UNL A   1      33.764  21.726  24.061  1.00  0.00     0.348 HD
BRANCH   8  10
ATOM     10  C   UNL A   1      32.246  21.406  25.280  1.00  0.00     0.262 C 
BRANCH  10  11
ATOM     11  C   UNL A   1      32.301  19.868  25.142  1.00  0.00     0.058 C 
ATOM     12  C   UNL A   1      32.676  19.313  23.777  1.00  0.00     0.010 C 
ENDBRANCH  10  11
ENDBRANCH   8  10
BRANCH   8  13
ATOM     13  C   UNL A   1      32.952  23.585  24.151  1.00  0.00     0.189 C 
ATOM     14  C   UNL A   1      33.042  23.417  22.623  1.00  0.00     0.093 C 
ATOM     15  C   UNL A   1      31.599  24.223  24.463  1.00  0.00     0.100 C 
ATOM     16  C   UNL A   1      32.779  24.741  21.915  1.00  0.00     0.167 C 
ATOM     17  C   UNL A   1      31.367  25.546  23.711  1.00  0.00     0.074 C 
ATOM     18  O   UNL A   1      31.543  25.339  22.302  1.00  0.00    -0.375 OA
ATOM     19  C   UNL A   1      32.287  26.668  24.243  1.00  0.00     0.036 C 
ATOM     20  C   UNL A   1      29.884  25.938  23.922  1.00  0.00     0.036 C 
ATOM     21  C   UNL A   1      31.927  28.043  23.685  1.00  0.00     0.003 C 
ATOM     22  C   UNL A   1      29.542  27.324  23.384  1.00  0.00     0.003 C 
ATOM     23  C   UNL A   1      30.469  28.385  23.962  1.00  0.00     0.000 C 
ENDBRANCH   8  13
ENDBRANCH   7   8
ENDBRANCH   5   7
ENDBRANCH   4   5
ENDBRANCH   3   4
ENDBRANCH   2   3
ENDBRANCH   1   2
BRANCH   1  24
ATOM     24  C   UNL A   1      40.938  21.981  27.004  1.00  0.00     0.202 C 
BRANCH  24  25
ATOM     25  C   UNL A   1      42.071  22.788  26.368  1.00  0.00     0.261 C 
BRANCH  25  26
ATOM     26  O   UNL A   1      41.695  24.168  26.204  1.00  0.00    -0.460 OA
BRANCH  26  27
ATOM     27  C   UNL A   1      42.654  25.072  26.498  1.00  0.00     0.338 C 
ATOM     28  O   UNL A   1      43.745  25.194  25.959  1.00  0.00    -0.246 OA
BRANCH  27  29
ATOM     29  C   UNL A   1      42.144  26.034  27.491  1.00  0.00     0.060 A 
ATOM     30  C   UNL A   1      42.715  27.310  27.503  1.00  0.00     0.016 A 
ATOM     31  C   UNL A   1      41.190  25.677  28.449  1.00  0.00     0.016 A 
ATOM     32  C   UNL A   1      42.373  28.216  28.505  1.00  0.00     0.010 A 
ATOM     33  C   UNL A   1      40.843  26.593  29.451  1.00  0.00     0.010 A 
ATOM     34  C   UNL A   1      41.461  27.853  29.507  1.00  0.00    -0.014 A 
BRANCH  34  35
ATOM     35  C   UNL A   1      41.266  28.756  30.669  1.00  0.00     0.031 A 
ATOM     36  C   UNL A   1      40.161  29.780  30.632  1.00  0.00     0.074 A 
ATOM     37  C   UNL A   1      42.025  28.621  31.773  1.00  0.00     0.049 A 
ATOM     38  N   UNL A   1      39.788  30.627  31.557  1.00  0.00    -0.248 NA
ATOM     39  C   UNL A   1      39.374  29.860  29.391  1.00  0.00     0.031 C 
ATOM     40  C   UNL A   1      43.117  27.661  31.935  1.00  0.00     0.029 A 
ATOM     41  N   UNL A   1      41.987  29.293  32.969  1.00  0.00    -0.354 N 
ATOM     42  C   UNL A   1      38.717  31.331  31.017  1.00  0.00     0.074 A 
ATOM     43  C   UNL A   1      38.528  30.844  29.668  1.00  0.00     0.031 C 
ATOM     44  C   UNL A   1      43.645  27.807  33.162  1.00  0.00     0.029 A 
ATOM     45  C   UNL A   1      42.943  28.877  33.865  1.00  0.00     0.049 A 
ATOM     46  H   UNL A   1      41.338  30.006  33.166  1.00  0.00     0.167 HD
ATOM     47  C   UNL A   1      37.950  32.284  31.598  1.00  0.00     0.037 A 
ATOM     48  C   UNL A   1      43.223  29.316  35.109  1.00  0.00     0.037 A 
ATOM     49  C   UNL A   1      38.134  32.768  32.941  1.00  0.00     0.049 A 
ATOM     50  C   UNL A   1      42.380  30.408  35.716  1.00  0.00     0.074 A 
ATOM     51  C   UNL A   1      37.396  33.721  33.622  1.00  0.00     0.029 A 
ATOM     52  N   UNL A   1      39.126  32.339  33.809  1.00  0.00    -0.354 N 
ATOM     53  N   UNL A   1      41.352  31.039  35.202  1.00  0.00    -0.248 NA
ATOM     54  C   UNL A   1      42.731  30.839  37.077  1.00  0.00     0.031 C 
ATOM     55  C   UNL A   1      37.965  33.895  34.889  1.00  0.00     0.029 A 
ATOM     56  C   UNL A   1      39.031  33.020  35.011  1.00  0.00     0.049 A 
ATOM     57  H   UNL A   1      39.799  31.652  33.601  1.00  0.00     0.167 HD
ATOM     58  C   UNL A   1      40.921  31.927  36.184  1.00  0.00     0.074 A 
ATOM     59  C   UNL A   1      41.787  31.736  37.328  1.00  0.00     0.031 C 
ATOM     60  C   UNL A   1      39.901  32.820  36.142  1.00  0.00     0.037 A 
BRANCH  47  61
ATOM     61  C   UNL A   1      36.832  32.872  30.783  1.00  0.00     0.058 A 
ATOM     62  C   UNL A   1      37.058  33.923  29.880  1.00  0.00     0.135 A 
ATOM     63  C   UNL A   1      35.534  32.343  30.862  1.00  0.00     0.135 A 
ATOM     64  F   UNL A   1      38.276  34.477  29.779  1.00  0.00    -0.206 F 
ATOM     65  C   UNL A   1      36.034  34.436  29.091  1.00  0.00     0.059 A 
ATOM     66  C   UNL A   1      34.499  32.826  30.067  1.00  0.00     0.059 A 
ATOM     67  F   UNL A   1      35.264  31.340  31.713  1.00  0.00    -0.206 F 
ATOM     68  C   UNL A   1      34.758  33.879  29.190  1.00  0.00     0.060 A 
BRANCH  68  69
ATOM     69  S   UNL A   1      33.445  34.537  28.138  1.00  0.00     0.124 S 
ATOM     70  O   UNL A   1      34.204  34.991  26.976  1.00  0.00    -0.237 OA
ATOM     71  O   UNL A   1      32.599  33.367  27.925  1.00  0.00    -0.237 OA
ATOM     72  O   UNL A   1      32.855  35.594  28.953  1.00  0.00    -0.744 OA
ENDBRANCH  68  69
ENDBRANCH  47  61
BRANCH  48  73
ATOM     73  C   UNL A   1      44.360  28.733  35.868  1.00  0.00     0.058 A 
ATOM     74  C   UNL A   1      44.171  27.669  36.762  1.00  0.00     0.135 A 
ATOM     75  C   UNL A   1      45.658  29.251  35.732  1.00  0.00     0.135 A 
ATOM     76  F   UNL A   1      42.948  27.146  36.933  1.00  0.00    -0.206 F 
ATOM     77  C   UNL A   1      45.223  27.154  37.513  1.00  0.00     0.059 A 
ATOM     78  C   UNL A   1      46.729  28.737  36.453  1.00  0.00     0.059 A 
ATOM     79  F   UNL A   1      45.893  30.261  34.879  1.00  0.00    -0.206 F 
ATOM     80  C   UNL A   1      46.499  27.698  37.353  1.00  0.00     0.060 A 
BRANCH  80  81
ATOM     81  S   UNL A   1      47.867  27.009  38.310  1.00  0.00     0.124 S 
ATOM     82  O   UNL A   1      48.927  27.973  38.042  1.00  0.00    -0.237 OA
ATOM     83  O   UNL A   1      47.328  27.012  39.667  1.00  0.00    -0.237 OA
ATOM     84  O   UNL A   1      48.051  25.686  37.721  1.00  0.00    -0.744 OA
ENDBRANCH  80  81
ENDBRANCH  48  73
BRANCH  60  85
ATOM     85  C   UNL A   1      39.657  33.643  37.376  1.00  0.00     0.058 A 
ATOM     86  C   UNL A   1      40.299  34.875  37.579  1.00  0.00     0.135 A 
ATOM     87  C   UNL A   1      38.750  33.206  38.357  1.00  0.00     0.135 A 
ATOM     88  F   UNL A   1      41.178  35.334  36.675  1.00  0.00    -0.206 F 
ATOM     89  C   UNL A   1      40.078  35.629  38.726  1.00  0.00     0.059 A 
ATOM     90  C   UNL A   1      38.494  33.958  39.500  1.00  0.00     0.059 A 
ATOM     91  F   UNL A   1      38.099  32.043  38.206  1.00  0.00    -0.206 F 
ATOM     92  C   UNL A   1      39.177  35.159  39.685  1.00  0.00     0.060 A 
BRANCH  92  93
ATOM     93  S   UNL A   1      38.891  36.149  41.167  1.00  0.00     0.124 S 
ATOM     94  O   UNL A   1      37.712  35.500  41.730  1.00  0.00    -0.237 OA
ATOM     95  O   UNL A   1      40.133  35.967  41.913  1.00  0.00    -0.237 OA
ATOM     96  O   UNL A   1      38.677  37.494  40.640  1.00  0.00    -0.744 OA
ENDBRANCH  92  93
ENDBRANCH  60  85
ENDBRANCH  34  35
ENDBRANCH  27  29
ENDBRANCH  26  27
ENDBRANCH  25  26
ENDBRANCH  24  25
ENDBRANCH   1  24
TORSDOF 21
ENDMDL
