MODEL 1
REMARK VINA RESULT:      -9.0      0.000      0.000
REMARK SMILES CCCCCCNC(=O)Oc1cccc(-c2ccc([C@@H](C)C(=O)OCCOCCOC(=O)c3ccc(-c4c5nc(c(-c6c(F)cc(S(=O)(=O)[O-])cc6F)c6ccc([nH]6)c(-c6c(F)cc(S(=O)(=O)[O-])cc6F)c6nc(c(-c7c(F)cc(S(=O)(=O)[O-])cc7F)c7ccc4[nH]7)C=C6)C=C5)cc3)cc2C(F)(F)F)c1
REMARK SMILES IDX 24 1 22 2 23 3 20 4 21 5 19 6 16 7 17 8 100 9 18 10 99 11
REMARK SMILES IDX 15 12 11 13 12 14 105 15 13 16 14 17 10 18 8 19 7 20 9 22
REMARK SMILES IDX 6 23 5 24 4 25 3 26 2 27 1 28 101 29 102 30 103 31 104 32
REMARK SMILES IDX 25 33 26 34 27 35 28 36 29 37 30 38 31 39 32 40 33 41 34 42
REMARK SMILES IDX 98 43 35 44 97 45 36 46 37 47 38 48 91 49 39 50 96 51 90 52
REMARK SMILES IDX 92 53 40 54 95 55 89 56 88 57 41 59 75 60 54 61 74 62 55 63
REMARK SMILES IDX 58 64 73 65 93 66 56 67 57 68 72 70 94 71 59 72 42 73 43 74
REMARK SMILES IDX 52 75 44 76 45 77 51 78 53 79 46 80 47 81 48 82 49 83 50 84
REMARK SMILES IDX 76 85 77 86 86 87 78 88 79 89 85 90 87 91 80 92 81 93 82 94
REMARK SMILES IDX 83 95 84 96 60 97 61 98 70 99 62 100 63 101 69 102 71 103
REMARK SMILES IDX 64 104 65 105 66 106 67 107 68 108
REMARK H PARENT 7 21 92 58 58 69
REMARK Flexibility Score: inf
ROOT
ATOM      1  O   UNL A   1      42.552  24.640  27.427  1.00  0.00    -0.463 OA
ENDROOT
BRANCH   1   2
ATOM      2  C   UNL A   1      42.283  23.396  27.900  1.00  0.00     0.313 C 
ATOM      3  O   UNL A   1      42.651  22.972  28.992  1.00  0.00    -0.252 OA
BRANCH   2   4
ATOM      4  C   UNL A   1      41.494  22.527  26.934  1.00  0.00     0.126 C 
ATOM      5  C   UNL A   1      42.231  22.452  25.601  1.00  0.00     0.025 C 
BRANCH   4   6
ATOM      6  C   UNL A   1      40.006  22.814  26.752  1.00  0.00    -0.033 A 
ATOM      7  C   UNL A   1      37.249  23.335  26.185  1.00  0.00    -0.006 A 
ATOM      8  C   UNL A   1      38.035  24.228  26.941  1.00  0.00     0.009 A 
ATOM      9  C   UNL A   1      37.862  22.157  25.710  1.00  0.00     0.064 A 
ATOM     10  C   UNL A   1      39.389  23.978  27.214  1.00  0.00     0.005 A 
ATOM     11  C   UNL A   1      39.220  21.907  26.021  1.00  0.00     0.018 A 
BRANCH   7  12
ATOM     12  C   UNL A   1      35.850  23.688  25.874  1.00  0.00    -0.014 A 
ATOM     13  C   UNL A   1      34.205  24.958  24.617  1.00  0.00     0.133 A 
ATOM     14  C   UNL A   1      33.180  24.495  25.439  1.00  0.00     0.047 A 
ATOM     15  C   UNL A   1      35.529  24.558  24.819  1.00  0.00     0.056 A 
ATOM     16  C   UNL A   1      33.478  23.604  26.466  1.00  0.00     0.004 A 
ATOM     17  C   UNL A   1      34.802  23.208  26.682  1.00  0.00     0.009 A 
BRANCH  13  18
ATOM     18  O   UNL A   1      33.860  25.958  23.688  1.00  0.00    -0.410 OA
BRANCH  18  19
ATOM     19  C   UNL A   1      33.468  27.207  24.139  1.00  0.00     0.412 C 
ATOM     20  N   UNL A   1      32.176  27.516  23.823  1.00  0.00    -0.321 N 
ATOM     21  H   UNL A   1      31.858  28.406  24.099  1.00  0.00     0.167 HD
ATOM     22  O   UNL A   1      34.172  27.999  24.763  1.00  0.00    -0.224 OA
BRANCH  20  23
ATOM     23  C   UNL A   1      31.220  26.677  23.127  1.00  0.00     0.119 C 
BRANCH  23  24
ATOM     24  C   UNL A   1      29.838  27.328  23.043  1.00  0.00     0.021 C 
BRANCH  24  25
ATOM     25  C   UNL A   1      29.809  28.831  23.352  1.00  0.00     0.002 C 
BRANCH  25  26
ATOM     26  C   UNL A   1      29.296  29.730  22.220  1.00  0.00    -0.000 C 
BRANCH  26  27
ATOM     27  C   UNL A   1      28.872  31.138  22.641  1.00  0.00    -0.003 C 
ATOM     28  C   UNL A   1      27.678  31.152  23.583  1.00  0.00     0.004 C 
ENDBRANCH  26  27
ENDBRANCH  25  26
ENDBRANCH  24  25
ENDBRANCH  23  24
ENDBRANCH  20  23
ENDBRANCH  18  19
ENDBRANCH  13  18
ENDBRANCH   7  12
BRANCH   9  29
ATOM     29  C   UNL A   1      37.137  21.120  24.875  1.00  0.00     0.417 C 
ATOM     30  F   UNL A   1      36.631  21.648  23.719  1.00  0.00    -0.166 F 
ATOM     31  F   UNL A   1      37.965  20.113  24.476  1.00  0.00    -0.166 F 
ATOM     32  F   UNL A   1      36.071  20.524  25.474  1.00  0.00    -0.166 F 
ENDBRANCH   9  29
ENDBRANCH   4   6
ENDBRANCH   2   4
ENDBRANCH   1   2
BRANCH   1  33
ATOM     33  C   UNL A   1      43.890  25.122  27.646  1.00  0.00     0.261 C 
BRANCH  33  34
ATOM     34  C   UNL A   1      44.030  26.592  27.243  1.00  0.00     0.202 C 
BRANCH  34  35
ATOM     35  O   UNL A   1      43.343  27.543  28.057  1.00  0.00    -0.374 OA
BRANCH  35  36
ATOM     36  C   UNL A   1      42.119  28.081  27.556  1.00  0.00     0.202 C 
BRANCH  36  37
ATOM     37  C   UNL A   1      40.826  27.685  28.279  1.00  0.00     0.261 C 
BRANCH  37  38
ATOM     38  O   UNL A   1      39.849  28.739  28.294  1.00  0.00    -0.460 OA
BRANCH  38  39
ATOM     39  C   UNL A   1      39.484  29.147  29.536  1.00  0.00     0.338 C 
ATOM     40  O   UNL A   1      38.900  28.489  30.382  1.00  0.00    -0.246 OA
BRANCH  39  41
ATOM     41  C   UNL A   1      40.071  30.468  29.833  1.00  0.00     0.060 A 
ATOM     42  C   UNL A   1      41.438  30.502  30.139  1.00  0.00     0.016 A 
ATOM     43  C   UNL A   1      39.301  31.631  29.902  1.00  0.00     0.016 A 
ATOM     44  C   UNL A   1      42.026  31.684  30.579  1.00  0.00     0.010 A 
ATOM     45  C   UNL A   1      39.895  32.820  30.347  1.00  0.00     0.010 A 
ATOM     46  C   UNL A   1      41.249  32.840  30.729  1.00  0.00    -0.014 A 
BRANCH  46  47
ATOM     47  C   UNL A   1      41.832  34.009  31.438  1.00  0.00     0.031 A 
ATOM     48  C   UNL A   1      41.746  34.068  32.941  1.00  0.00     0.074 A 
ATOM     49  C   UNL A   1      42.488  34.969  30.761  1.00  0.00     0.049 A 
ATOM     50  N   UNL A   1      42.206  34.976  33.763  1.00  0.00    -0.248 NA
ATOM     51  C   UNL A   1      41.054  32.952  33.605  1.00  0.00     0.031 C 
ATOM     52  C   UNL A   1      42.676  35.001  29.312  1.00  0.00     0.029 A 
ATOM     53  N   UNL A   1      43.126  36.099  31.209  1.00  0.00    -0.354 N 
ATOM     54  C   UNL A   1      41.858  34.544  35.038  1.00  0.00     0.074 A 
ATOM     55  C   UNL A   1      41.118  33.311  34.879  1.00  0.00     0.031 C 
ATOM     56  C   UNL A   1      43.383  36.098  28.988  1.00  0.00     0.029 A 
ATOM     57  C   UNL A   1      43.673  36.859  30.203  1.00  0.00     0.049 A 
ATOM     58  H   UNL A   1      43.185  36.343  32.160  1.00  0.00     0.167 HD
ATOM     59  C   UNL A   1      42.140  35.115  36.234  1.00  0.00     0.037 A 
ATOM     60  C   UNL A   1      44.324  38.038  30.254  1.00  0.00     0.037 A 
ATOM     61  C   UNL A   1      42.879  36.342  36.390  1.00  0.00     0.049 A 
ATOM     62  C   UNL A   1      44.571  38.688  31.592  1.00  0.00     0.074 A 
ATOM     63  C   UNL A   1      43.223  36.997  37.559  1.00  0.00     0.029 A 
ATOM     64  N   UNL A   1      43.383  37.101  35.344  1.00  0.00    -0.354 N 
ATOM     65  N   UNL A   1      44.249  38.260  32.790  1.00  0.00    -0.248 NA
ATOM     66  C   UNL A   1      45.276  39.977  31.585  1.00  0.00     0.031 C 
ATOM     67  C   UNL A   1      43.896  38.176  37.218  1.00  0.00     0.029 A 
ATOM     68  C   UNL A   1      44.017  38.230  35.839  1.00  0.00     0.049 A 
ATOM     69  H   UNL A   1      43.303  36.872  34.389  1.00  0.00     0.167 HD
ATOM     70  C   UNL A   1      44.739  39.211  33.679  1.00  0.00     0.074 A 
ATOM     71  C   UNL A   1      45.386  40.233  32.881  1.00  0.00     0.031 C 
ATOM     72  C   UNL A   1      44.664  39.235  35.033  1.00  0.00     0.037 A 
BRANCH  59  73
ATOM     73  C   UNL A   1      41.626  34.429  37.470  1.00  0.00     0.058 A 
ATOM     74  C   UNL A   1      42.405  33.503  38.182  1.00  0.00     0.135 A 
ATOM     75  C   UNL A   1      40.344  34.721  37.965  1.00  0.00     0.135 A 
ATOM     76  F   UNL A   1      43.630  33.173  37.744  1.00  0.00    -0.206 F 
ATOM     77  C   UNL A   1      41.921  32.869  39.323  1.00  0.00     0.059 A 
ATOM     78  C   UNL A   1      39.851  34.121  39.120  1.00  0.00     0.059 A 
ATOM     79  F   UNL A   1      39.556  35.599  37.324  1.00  0.00    -0.206 F 
ATOM     80  C   UNL A   1      40.641  33.184  39.783  1.00  0.00     0.060 A 
BRANCH  80  81
ATOM     81  S   UNL A   1      40.028  32.355  41.265  1.00  0.00     0.124 S 
ATOM     82  O   UNL A   1      38.780  31.774  40.780  1.00  0.00    -0.237 OA
ATOM     83  O   UNL A   1      41.097  31.406  41.559  1.00  0.00    -0.237 OA
ATOM     84  O   UNL A   1      39.879  33.444  42.227  1.00  0.00    -0.744 OA
ENDBRANCH  80  81
ENDBRANCH  59  73
BRANCH  60  85
ATOM     85  C   UNL A   1      44.787  38.686  28.998  1.00  0.00     0.058 A 
ATOM     86  C   UNL A   1      46.066  38.436  28.480  1.00  0.00     0.135 A 
ATOM     87  C   UNL A   1      43.958  39.571  28.291  1.00  0.00     0.135 A 
ATOM     88  F   UNL A   1      46.901  37.607  29.125  1.00  0.00    -0.206 F 
ATOM     89  C   UNL A   1      46.512  39.049  27.313  1.00  0.00     0.059 A 
ATOM     90  C   UNL A   1      44.371  40.176  27.110  1.00  0.00     0.059 A 
ATOM     91  F   UNL A   1      42.722  39.837  28.740  1.00  0.00    -0.206 F 
ATOM     92  C   UNL A   1      45.655  39.916  26.633  1.00  0.00     0.060 A 
BRANCH  92  93
ATOM     93  S   UNL A   1      46.224  40.667  25.091  1.00  0.00     0.124 S 
ATOM     94  O   UNL A   1      46.768  39.514  24.385  1.00  0.00    -0.237 OA
ATOM     95  O   UNL A   1      44.988  41.225  24.549  1.00  0.00    -0.237 OA
ATOM     96  O   UNL A   1      47.203  41.654  25.542  1.00  0.00    -0.744 OA
ENDBRANCH  92  93
ENDBRANCH  60  85
BRANCH  72  97
ATOM     97  C   UNL A   1      45.331  40.381  35.745  1.00  0.00     0.058 A 
ATOM     98  C   UNL A   1      46.645  40.290  36.229  1.00  0.00     0.135 A 
ATOM     99  C   UNL A   1      44.657  41.604  35.908  1.00  0.00     0.135 A 
ATOM    100  F   UNL A   1      47.333  39.144  36.105  1.00  0.00    -0.206 F 
ATOM    101  C   UNL A   1      47.258  41.359  36.875  1.00  0.00     0.059 A 
ATOM    102  C   UNL A   1      45.261  42.695  36.525  1.00  0.00     0.059 A 
ATOM    103  F   UNL A   1      43.403  41.750  35.452  1.00  0.00    -0.206 F 
ATOM    104  C   UNL A   1      46.557  42.559  37.019  1.00  0.00     0.060 A 
BRANCH 104 105
ATOM    105  S   UNL A   1      47.370  43.946  37.839  1.00  0.00     0.124 S 
ATOM    106  O   UNL A   1      48.348  44.350  36.833  1.00  0.00    -0.237 OA
ATOM    107  O   UNL A   1      46.266  44.874  38.058  1.00  0.00    -0.237 OA
ATOM    108  O   UNL A   1      47.926  43.347  39.049  1.00  0.00    -0.744 OA
ENDBRANCH 104 105
ENDBRANCH  72  97
ENDBRANCH  46  47
ENDBRANCH  39  41
ENDBRANCH  38  39
ENDBRANCH  37  38
ENDBRANCH  36  37
ENDBRANCH  35  36
ENDBRANCH  34  35
ENDBRANCH  33  34
ENDBRANCH   1  33
TORSDOF 27
ENDMDL
MODEL 2
REMARK VINA RESULT:      -8.6      6.664     16.319
REMARK SMILES CCCCCCNC(=O)Oc1cccc(-c2ccc([C@@H](C)C(=O)OCCOCCOC(=O)c3ccc(-c4c5nc(c(-c6c(F)cc(S(=O)(=O)[O-])cc6F)c6ccc([nH]6)c(-c6c(F)cc(S(=O)(=O)[O-])cc6F)c6nc(c(-c7c(F)cc(S(=O)(=O)[O-])cc7F)c7ccc4[nH]7)C=C6)C=C5)cc3)cc2C(F)(F)F)c1
REMARK SMILES IDX 24 1 22 2 23 3 20 4 21 5 19 6 16 7 17 8 100 9 18 10 99 11
REMARK SMILES IDX 15 12 11 13 12 14 105 15 13 16 14 17 10 18 8 19 7 20 9 22
REMARK SMILES IDX 6 23 5 24 4 25 3 26 2 27 1 28 101 29 102 30 103 31 104 32
REMARK SMILES IDX 25 33 26 34 27 35 28 36 29 37 30 38 31 39 32 40 33 41 34 42
REMARK SMILES IDX 98 43 35 44 97 45 36 46 37 47 38 48 91 49 39 50 96 51 90 52
REMARK SMILES IDX 92 53 40 54 95 55 89 56 88 57 41 59 75 60 54 61 74 62 55 63
REMARK SMILES IDX 58 64 73 65 93 66 56 67 57 68 72 70 94 71 59 72 42 73 43 74
REMARK SMILES IDX 52 75 44 76 45 77 51 78 53 79 46 80 47 81 48 82 49 83 50 84
REMARK SMILES IDX 76 85 77 86 86 87 78 88 79 89 85 90 87 91 80 92 81 93 82 94
REMARK SMILES IDX 83 95 84 96 60 97 61 98 70 99 62 100 63 101 69 102 71 103
REMARK SMILES IDX 64 104 65 105 66 106 67 107 68 108
REMARK H PARENT 7 21 92 58 58 69
REMARK Flexibility Score: inf
ROOT
ATOM      1  O   UNL A   1      45.404  43.859  31.448  1.00  0.00    -0.463 OA
ENDROOT
BRANCH   1   2
ATOM      2  C   UNL A   1      44.351  43.816  30.592  1.00  0.00     0.313 C 
ATOM      3  O   UNL A   1      43.566  44.740  30.406  1.00  0.00    -0.252 OA
BRANCH   2   4
ATOM      4  C   UNL A   1      44.193  42.483  29.878  1.00  0.00     0.126 C 
ATOM      5  C   UNL A   1      44.835  41.380  30.714  1.00  0.00     0.025 C 
BRANCH   4   6
ATOM      6  C   UNL A   1      44.595  42.396  28.408  1.00  0.00    -0.033 A 
ATOM      7  C   UNL A   1      45.290  42.453  25.632  1.00  0.00    -0.006 A 
ATOM      8  C   UNL A   1      44.354  41.533  26.146  1.00  0.00     0.009 A 
ATOM      9  C   UNL A   1      45.890  43.358  26.534  1.00  0.00     0.064 A 
ATOM     10  C   UNL A   1      44.006  41.509  27.505  1.00  0.00     0.005 A 
ATOM     11  C   UNL A   1      45.549  43.297  27.906  1.00  0.00     0.018 A 
BRANCH   7  12
ATOM     12  C   UNL A   1      45.562  42.474  24.182  1.00  0.00    -0.014 A 
ATOM     13  C   UNL A   1      44.937  43.053  21.907  1.00  0.00     0.133 A 
ATOM     14  C   UNL A   1      46.007  42.323  21.398  1.00  0.00     0.047 A 
ATOM     15  C   UNL A   1      44.712  43.142  23.284  1.00  0.00     0.056 A 
ATOM     16  C   UNL A   1      46.879  41.687  22.277  1.00  0.00     0.004 A 
ATOM     17  C   UNL A   1      46.655  41.760  23.655  1.00  0.00     0.009 A 
BRANCH  13  18
ATOM     18  O   UNL A   1      44.018  43.557  20.967  1.00  0.00    -0.410 OA
BRANCH  18  19
ATOM     19  C   UNL A   1      43.146  42.691  20.329  1.00  0.00     0.412 C 
ATOM     20  N   UNL A   1      43.010  42.946  18.994  1.00  0.00    -0.321 N 
ATOM     21  H   UNL A   1      42.379  42.374  18.501  1.00  0.00     0.167 HD
ATOM     22  O   UNL A   1      42.529  41.771  20.862  1.00  0.00    -0.224 OA
BRANCH  20  23
ATOM     23  C   UNL A   1      43.694  43.967  18.223  1.00  0.00     0.119 C 
BRANCH  23  24
ATOM     24  C   UNL A   1      42.963  44.286  16.918  1.00  0.00     0.021 C 
BRANCH  24  25
ATOM     25  C   UNL A   1      41.927  45.415  17.014  1.00  0.00     0.002 C 
BRANCH  25  26
ATOM     26  C   UNL A   1      42.351  46.755  16.401  1.00  0.00    -0.000 C 
BRANCH  26  27
ATOM     27  C   UNL A   1      41.851  48.000  17.137  1.00  0.00    -0.003 C 
ATOM     28  C   UNL A   1      42.970  48.944  17.553  1.00  0.00     0.004 C 
ENDBRANCH  26  27
ENDBRANCH  25  26
ENDBRANCH  24  25
ENDBRANCH  23  24
ENDBRANCH  20  23
ENDBRANCH  18  19
ENDBRANCH  13  18
ENDBRANCH   7  12
BRANCH   9  29
ATOM     29  C   UNL A   1      46.900  44.405  26.113  1.00  0.00     0.417 C 
ATOM     30  F   UNL A   1      46.304  45.570  25.715  1.00  0.00    -0.166 F 
ATOM     31  F   UNL A   1      47.728  44.760  27.138  1.00  0.00    -0.166 F 
ATOM     32  F   UNL A   1      47.706  44.060  25.073  1.00  0.00    -0.166 F 
ENDBRANCH   9  29
ENDBRANCH   4   6
ENDBRANCH   2   4
ENDBRANCH   1   2
BRANCH   1  33
ATOM     33  C   UNL A   1      45.115  44.331  32.777  1.00  0.00     0.261 C 
BRANCH  33  34
ATOM     34  C   UNL A   1      45.654  43.371  33.842  1.00  0.00     0.202 C 
BRANCH  34  35
ATOM     35  O   UNL A   1      47.011  42.953  33.694  1.00  0.00    -0.374 OA
BRANCH  35  36
ATOM     36  C   UNL A   1      48.030  43.932  33.896  1.00  0.00     0.202 C 
BRANCH  36  37
ATOM     37  C   UNL A   1      48.259  44.426  35.330  1.00  0.00     0.261 C 
BRANCH  37  38
ATOM     38  O   UNL A   1      48.931  43.459  36.154  1.00  0.00    -0.460 OA
BRANCH  38  39
ATOM     39  C   UNL A   1      48.359  43.264  37.368  1.00  0.00     0.338 C 
ATOM     40  O   UNL A   1      48.503  43.952  38.366  1.00  0.00    -0.246 OA
BRANCH  39  41
ATOM     41  C   UNL A   1      47.347  42.192  37.291  1.00  0.00     0.060 A 
ATOM     42  C   UNL A   1      47.821  40.875  37.235  1.00  0.00     0.016 A 
ATOM     43  C   UNL A   1      45.980  42.458  37.188  1.00  0.00     0.016 A 
ATOM     44  C   UNL A   1      46.937  39.824  37.007  1.00  0.00     0.010 A 
ATOM     45  C   UNL A   1      45.092  41.399  36.957  1.00  0.00     0.010 A 
ATOM     46  C   UNL A   1      45.572  40.083  36.822  1.00  0.00    -0.014 A 
BRANCH  46  47
ATOM     47  C   UNL A   1      44.695  38.990  36.329  1.00  0.00     0.031 A 
ATOM     48  C   UNL A   1      44.820  38.545  34.895  1.00  0.00     0.074 A 
ATOM     49  C   UNL A   1      43.850  38.355  37.162  1.00  0.00     0.049 A 
ATOM     50  N   UNL A   1      44.175  37.599  34.262  1.00  0.00    -0.248 NA
ATOM     51  C   UNL A   1      45.803  39.261  34.067  1.00  0.00     0.031 C 
ATOM     52  C   UNL A   1      43.672  38.664  38.579  1.00  0.00     0.029 A 
ATOM     53  N   UNL A   1      42.989  37.312  36.933  1.00  0.00    -0.354 N 
ATOM     54  C   UNL A   1      44.674  37.605  32.963  1.00  0.00     0.074 A 
ATOM     55  C   UNL A   1      45.647  38.673  32.889  1.00  0.00     0.031 C 
ATOM     56  C   UNL A   1      42.755  37.827  39.096  1.00  0.00     0.029 A 
ATOM     57  C   UNL A   1      42.263  36.942  38.041  1.00  0.00     0.049 A 
ATOM     58  H   UNL A   1      42.897  36.870  36.059  1.00  0.00     0.167 HD
ATOM     59  C   UNL A   1      44.358  36.788  31.929  1.00  0.00     0.037 A 
ATOM     60  C   UNL A   1      41.304  36.006  38.185  1.00  0.00     0.037 A 
ATOM     61  C   UNL A   1      43.391  35.724  32.006  1.00  0.00     0.049 A 
ATOM     62  C   UNL A   1      40.924  35.150  37.003  1.00  0.00     0.074 A 
ATOM     63  C   UNL A   1      43.007  34.836  31.016  1.00  0.00     0.029 A 
ATOM     64  N   UNL A   1      42.649  35.407  33.135  1.00  0.00    -0.354 N 
ATOM     65  N   UNL A   1      41.414  35.159  35.786  1.00  0.00    -0.248 NA
ATOM     66  C   UNL A   1      39.866  34.153  37.217  1.00  0.00     0.031 C 
ATOM     67  C   UNL A   1      42.001  34.012  31.533  1.00  0.00     0.029 A 
ATOM     68  C   UNL A   1      41.795  34.351  32.861  1.00  0.00     0.049 A 
ATOM     69  H   UNL A   1      42.720  35.865  34.004  1.00  0.00     0.167 HD
ATOM     70  C   UNL A   1      40.746  34.149  35.099  1.00  0.00     0.074 A 
ATOM     71  C   UNL A   1      39.823  33.547  36.039  1.00  0.00     0.031 C 
ATOM     72  C   UNL A   1      40.886  33.756  33.809  1.00  0.00     0.037 A 
BRANCH  59  73
ATOM     73  C   UNL A   1      45.052  37.030  30.617  1.00  0.00     0.058 A 
ATOM     74  C   UNL A   1      44.517  37.890  29.643  1.00  0.00     0.135 A 
ATOM     75  C   UNL A   1      46.283  36.414  30.338  1.00  0.00     0.135 A 
ATOM     76  F   UNL A   1      43.336  38.492  29.849  1.00  0.00    -0.206 F 
ATOM     77  C   UNL A   1      45.163  38.107  28.429  1.00  0.00     0.059 A 
ATOM     78  C   UNL A   1      46.960  36.638  29.142  1.00  0.00     0.059 A 
ATOM     79  F   UNL A   1      46.840  35.581  31.232  1.00  0.00    -0.206 F 
ATOM     80  C   UNL A   1      46.384  37.474  28.188  1.00  0.00     0.060 A 
BRANCH  80  81
ATOM     81  S   UNL A   1      47.211  37.766  26.610  1.00  0.00     0.124 S 
ATOM     82  O   UNL A   1      46.383  38.822  26.037  1.00  0.00    -0.237 OA
ATOM     83  O   UNL A   1      48.551  38.170  27.028  1.00  0.00    -0.237 OA
ATOM     84  O   UNL A   1      47.131  36.472  25.938  1.00  0.00    -0.744 OA
ENDBRANCH  80  81
ENDBRANCH  59  73
BRANCH  60  85
ATOM     85  C   UNL A   1      40.631  35.828  39.500  1.00  0.00     0.058 A 
ATOM     86  C   UNL A   1      41.111  34.908  40.443  1.00  0.00     0.135 A 
ATOM     87  C   UNL A   1      39.491  36.575  39.836  1.00  0.00     0.135 A 
ATOM     88  F   UNL A   1      42.191  34.161  40.164  1.00  0.00    -0.206 F 
ATOM     89  C   UNL A   1      40.479  34.726  41.669  1.00  0.00     0.059 A 
ATOM     90  C   UNL A   1      38.858  36.429  41.065  1.00  0.00     0.059 A 
ATOM     91  F   UNL A   1      38.998  37.474  38.971  1.00  0.00    -0.206 F 
ATOM     92  C   UNL A   1      39.354  35.494  41.972  1.00  0.00     0.060 A 
BRANCH  92  93
ATOM     93  S   UNL A   1      38.570  35.287  43.587  1.00  0.00     0.124 S 
ATOM     94  O   UNL A   1      38.844  36.574  44.214  1.00  0.00    -0.237 OA
ATOM     95  O   UNL A   1      37.179  35.036  43.222  1.00  0.00    -0.237 OA
ATOM     96  O   UNL A   1      39.276  34.142  44.157  1.00  0.00    -0.744 OA
ENDBRANCH  92  93
ENDBRANCH  60  85
BRANCH  72  97
ATOM     97  C   UNL A   1      40.052  32.592  33.344  1.00  0.00     0.058 A 
ATOM     98  C   UNL A   1      38.874  32.773  32.602  1.00  0.00     0.135 A 
ATOM     99  C   UNL A   1      40.463  31.274  33.609  1.00  0.00     0.135 A 
ATOM    100  F   UNL A   1      38.434  34.010  32.325  1.00  0.00    -0.206 F 
ATOM    101  C   UNL A   1      38.117  31.690  32.166  1.00  0.00     0.059 A 
ATOM    102  C   UNL A   1      39.736  30.177  33.158  1.00  0.00     0.059 A 
ATOM    103  F   UNL A   1      41.589  31.044  34.303  1.00  0.00    -0.206 F 
ATOM    104  C   UNL A   1      38.556  30.395  32.449  1.00  0.00     0.060 A 
BRANCH 104 105
ATOM    105  S   UNL A   1      37.576  28.999  31.858  1.00  0.00     0.124 S 
ATOM    106  O   UNL A   1      38.421  28.478  30.788  1.00  0.00    -0.237 OA
ATOM    107  O   UNL A   1      37.474  28.160  33.048  1.00  0.00    -0.237 OA
ATOM    108  O   UNL A   1      36.326  29.619  31.427  1.00  0.00    -0.744 OA
ENDBRANCH 104 105
ENDBRANCH  72  97
ENDBRANCH  46  47
ENDBRANCH  39  41
ENDBRANCH  38  39
ENDBRANCH  37  38
ENDBRANCH  36  37
ENDBRANCH  35  36
ENDBRANCH  34  35
ENDBRANCH  33  34
ENDBRANCH   1  33
TORSDOF 27
ENDMDL
MODEL 3
REMARK VINA RESULT:      -8.6      6.343     14.316
REMARK SMILES CCCCCCNC(=O)Oc1cccc(-c2ccc([C@@H](C)C(=O)OCCOCCOC(=O)c3ccc(-c4c5nc(c(-c6c(F)cc(S(=O)(=O)[O-])cc6F)c6ccc([nH]6)c(-c6c(F)cc(S(=O)(=O)[O-])cc6F)c6nc(c(-c7c(F)cc(S(=O)(=O)[O-])cc7F)c7ccc4[nH]7)C=C6)C=C5)cc3)cc2C(F)(F)F)c1
REMARK SMILES IDX 24 1 22 2 23 3 20 4 21 5 19 6 16 7 17 8 100 9 18 10 99 11
REMARK SMILES IDX 15 12 11 13 12 14 105 15 13 16 14 17 10 18 8 19 7 20 9 22
REMARK SMILES IDX 6 23 5 24 4 25 3 26 2 27 1 28 101 29 102 30 103 31 104 32
REMARK SMILES IDX 25 33 26 34 27 35 28 36 29 37 30 38 31 39 32 40 33 41 34 42
REMARK SMILES IDX 98 43 35 44 97 45 36 46 37 47 38 48 91 49 39 50 96 51 90 52
REMARK SMILES IDX 92 53 40 54 95 55 89 56 88 57 41 59 75 60 54 61 74 62 55 63
REMARK SMILES IDX 58 64 73 65 93 66 56 67 57 68 72 70 94 71 59 72 42 73 43 74
REMARK SMILES IDX 52 75 44 76 45 77 51 78 53 79 46 80 47 81 48 82 49 83 50 84
REMARK SMILES IDX 76 85 77 86 86 87 78 88 79 89 85 90 87 91 80 92 81 93 82 94
REMARK SMILES IDX 83 95 84 96 60 97 61 98 70 99 62 100 63 101 69 102 71 103
REMARK SMILES IDX 64 104 65 105 66 106 67 107 68 108
REMARK H PARENT 7 21 92 58 58 69
REMARK Flexibility Score: inf
ROOT
ATOM      1  O   UNL A   1      45.407  43.877  32.538  1.00  0.00    -0.463 OA
ENDROOT
BRANCH   1   2
ATOM      2  C   UNL A   1      44.422  43.905  31.605  1.00  0.00     0.313 C 
ATOM      3  O   UNL A   1      43.583  44.796  31.505  1.00  0.00    -0.252 OA
BRANCH   2   4
ATOM      4  C   UNL A   1      44.413  42.698  30.680  1.00  0.00     0.126 C 
ATOM      5  C   UNL A   1      45.420  41.668  31.182  1.00  0.00     0.025 C 
BRANCH   4   6
ATOM      6  C   UNL A   1      44.535  42.936  29.177  1.00  0.00    -0.033 A 
ATOM      7  C   UNL A   1      44.864  43.177  26.344  1.00  0.00    -0.006 A 
ATOM      8  C   UNL A   1      45.381  44.136  27.238  1.00  0.00     0.009 A 
ATOM      9  C   UNL A   1      44.165  42.078  26.888  1.00  0.00     0.064 A 
ATOM     10  C   UNL A   1      45.228  44.016  28.627  1.00  0.00     0.005 A 
ATOM     11  C   UNL A   1      43.993  41.990  28.290  1.00  0.00     0.018 A 
BRANCH   7  12
ATOM     12  C   UNL A   1      45.118  43.324  24.898  1.00  0.00    -0.014 A 
ATOM     13  C   UNL A   1      44.336  43.659  22.623  1.00  0.00     0.133 A 
ATOM     14  C   UNL A   1      45.608  43.401  22.119  1.00  0.00     0.047 A 
ATOM     15  C   UNL A   1      44.084  43.632  23.998  1.00  0.00     0.056 A 
ATOM     16  C   UNL A   1      46.650  43.131  23.001  1.00  0.00     0.004 A 
ATOM     17  C   UNL A   1      46.405  43.090  24.378  1.00  0.00     0.009 A 
BRANCH  13  18
ATOM     18  O   UNL A   1      43.302  43.790  21.677  1.00  0.00    -0.410 OA
BRANCH  18  19
ATOM     19  C   UNL A   1      43.000  42.729  20.840  1.00  0.00     0.412 C 
ATOM     20  N   UNL A   1      43.047  43.054  19.514  1.00  0.00    -0.321 N 
ATOM     21  H   UNL A   1      42.814  42.340  18.879  1.00  0.00     0.167 HD
ATOM     22  O   UNL A   1      42.711  41.589  21.200  1.00  0.00    -0.224 OA
BRANCH  20  23
ATOM     23  C   UNL A   1      43.403  44.337  18.940  1.00  0.00     0.119 C 
BRANCH  23  24
ATOM     24  C   UNL A   1      43.804  44.216  17.468  1.00  0.00     0.021 C 
BRANCH  24  25
ATOM     25  C   UNL A   1      42.688  44.537  16.464  1.00  0.00     0.002 C 
BRANCH  25  26
ATOM     26  C   UNL A   1      41.877  45.804  16.760  1.00  0.00    -0.000 C 
BRANCH  26  27
ATOM     27  C   UNL A   1      42.602  47.125  16.495  1.00  0.00    -0.003 C 
ATOM     28  C   UNL A   1      41.663  48.268  16.139  1.00  0.00     0.004 C 
ENDBRANCH  26  27
ENDBRANCH  25  26
ENDBRANCH  24  25
ENDBRANCH  23  24
ENDBRANCH  20  23
ENDBRANCH  18  19
ENDBRANCH  13  18
ENDBRANCH   7  12
BRANCH   9  29
ATOM     29  C   UNL A   1      43.570  40.970  26.043  1.00  0.00     0.417 C 
ATOM     30  F   UNL A   1      42.459  41.380  25.359  1.00  0.00    -0.166 F 
ATOM     31  F   UNL A   1      44.438  40.535  25.084  1.00  0.00    -0.166 F 
ATOM     32  F   UNL A   1      43.166  39.864  26.723  1.00  0.00    -0.166 F 
ENDBRANCH   9  29
ENDBRANCH   4   6
ENDBRANCH   2   4
ENDBRANCH   1   2
BRANCH   1  33
ATOM     33  C   UNL A   1      45.100  44.500  33.798  1.00  0.00     0.261 C 
BRANCH  33  34
ATOM     34  C   UNL A   1      45.570  43.643  34.977  1.00  0.00     0.202 C 
BRANCH  34  35
ATOM     35  O   UNL A   1      46.900  43.129  34.899  1.00  0.00    -0.374 OA
BRANCH  35  36
ATOM     36  C   UNL A   1      47.961  43.971  35.352  1.00  0.00     0.202 C 
BRANCH  36  37
ATOM     37  C   UNL A   1      48.149  44.115  36.868  1.00  0.00     0.261 C 
BRANCH  37  38
ATOM     38  O   UNL A   1      48.730  42.948  37.472  1.00  0.00    -0.460 OA
BRANCH  38  39
ATOM     39  C   UNL A   1      48.086  42.514  38.585  1.00  0.00     0.338 C 
ATOM     40  O   UNL A   1      48.154  42.993  39.705  1.00  0.00    -0.246 OA
BRANCH  39  41
ATOM     41  C   UNL A   1      47.099  41.474  38.233  1.00  0.00     0.060 A 
ATOM     42  C   UNL A   1      47.587  40.175  38.043  1.00  0.00     0.016 A 
ATOM     43  C   UNL A   1      45.752  41.765  38.007  1.00  0.00     0.016 A 
ATOM     44  C   UNL A   1      46.745  39.176  37.562  1.00  0.00     0.010 A 
ATOM     45  C   UNL A   1      44.907  40.759  37.520  1.00  0.00     0.010 A 
ATOM     46  C   UNL A   1      45.411  39.471  37.255  1.00  0.00    -0.014 A 
BRANCH  46  47
ATOM     47  C   UNL A   1      44.608  38.469  36.506  1.00  0.00     0.031 A 
ATOM     48  C   UNL A   1      43.524  37.716  37.231  1.00  0.00     0.074 A 
ATOM     49  C   UNL A   1      44.794  38.284  35.186  1.00  0.00     0.049 A 
ATOM     50  N   UNL A   1      42.689  36.818  36.772  1.00  0.00    -0.248 NA
ATOM     51  C   UNL A   1      43.356  38.015  38.662  1.00  0.00     0.031 C 
ATOM     52  C   UNL A   1      45.780  38.985  34.367  1.00  0.00     0.029 A 
ATOM     53  N   UNL A   1      44.151  37.453  34.304  1.00  0.00    -0.354 N 
ATOM     54  C   UNL A   1      41.900  36.447  37.854  1.00  0.00     0.074 A 
ATOM     55  C   UNL A   1      42.378  37.187  39.001  1.00  0.00     0.031 C 
ATOM     56  C   UNL A   1      45.677  38.553  33.098  1.00  0.00     0.029 A 
ATOM     57  C   UNL A   1      44.638  37.528  33.021  1.00  0.00     0.049 A 
ATOM     58  H   UNL A   1      43.412  36.859  34.564  1.00  0.00     0.167 HD
ATOM     59  C   UNL A   1      40.862  35.575  37.889  1.00  0.00     0.037 A 
ATOM     60  C   UNL A   1      44.294  36.840  31.914  1.00  0.00     0.037 A 
ATOM     61  C   UNL A   1      40.386  34.841  36.745  1.00  0.00     0.049 A 
ATOM     62  C   UNL A   1      43.178  35.829  31.990  1.00  0.00     0.074 A 
ATOM     63  C   UNL A   1      39.336  33.940  36.676  1.00  0.00     0.029 A 
ATOM     64  N   UNL A   1      40.931  34.915  35.472  1.00  0.00    -0.354 N 
ATOM     65  N   UNL A   1      42.431  35.499  33.017  1.00  0.00    -0.248 NA
ATOM     66  C   UNL A   1      42.853  35.103  30.754  1.00  0.00     0.031 C 
ATOM     67  C   UNL A   1      39.276  33.438  35.371  1.00  0.00     0.029 A 
ATOM     68  C   UNL A   1      40.254  34.063  34.614  1.00  0.00     0.049 A 
ATOM     69  H   UNL A   1      41.688  35.490  35.214  1.00  0.00     0.167 HD
ATOM     70  C   UNL A   1      41.529  34.551  32.544  1.00  0.00     0.074 A 
ATOM     71  C   UNL A   1      41.819  34.367  31.137  1.00  0.00     0.031 C 
ATOM     72  C   UNL A   1      40.548  33.895  33.213  1.00  0.00     0.037 A 
BRANCH  59  73
ATOM     73  C   UNL A   1      40.186  35.353  39.213  1.00  0.00     0.058 A 
ATOM     74  C   UNL A   1      39.235  36.254  39.720  1.00  0.00     0.135 A 
ATOM     75  C   UNL A   1      40.473  34.209  39.976  1.00  0.00     0.135 A 
ATOM     76  F   UNL A   1      38.934  37.372  39.042  1.00  0.00    -0.206 F 
ATOM     77  C   UNL A   1      38.615  36.044  40.949  1.00  0.00     0.059 A 
ATOM     78  C   UNL A   1      39.845  33.964  41.194  1.00  0.00     0.059 A 
ATOM     79  F   UNL A   1      41.374  33.315  39.540  1.00  0.00    -0.206 F 
ATOM     80  C   UNL A   1      38.928  34.896  41.680  1.00  0.00     0.060 A 
BRANCH  80  81
ATOM     81  S   UNL A   1      38.115  34.635  43.270  1.00  0.00     0.124 S 
ATOM     82  O   UNL A   1      36.737  34.999  42.957  1.00  0.00    -0.237 OA
ATOM     83  O   UNL A   1      38.355  33.216  43.516  1.00  0.00    -0.237 OA
ATOM     84  O   UNL A   1      38.817  35.550  44.166  1.00  0.00    -0.744 OA
ENDBRANCH  80  81
ENDBRANCH  59  73
BRANCH  60  85
ATOM     85  C   UNL A   1      45.015  37.081  30.635  1.00  0.00     0.058 A 
ATOM     86  C   UNL A   1      44.645  38.128  29.778  1.00  0.00     0.135 A 
ATOM     87  C   UNL A   1      46.089  36.265  30.245  1.00  0.00     0.135 A 
ATOM     88  F   UNL A   1      43.618  38.928  30.100  1.00  0.00    -0.206 F 
ATOM     89  C   UNL A   1      45.306  38.350  28.574  1.00  0.00     0.059 A 
ATOM     90  C   UNL A   1      46.780  36.483  29.059  1.00  0.00     0.059 A 
ATOM     91  F   UNL A   1      46.487  35.255  31.034  1.00  0.00    -0.206 F 
ATOM     92  C   UNL A   1      46.375  37.524  28.225  1.00  0.00     0.060 A 
BRANCH  92  93
ATOM     93  S   UNL A   1      47.260  37.853  26.684  1.00  0.00     0.124 S 
ATOM     94  O   UNL A   1      48.635  37.966  27.153  1.00  0.00    -0.237 OA
ATOM     95  O   UNL A   1      46.949  36.665  25.893  1.00  0.00    -0.237 OA
ATOM     96  O   UNL A   1      46.649  39.091  26.206  1.00  0.00    -0.744 OA
ENDBRANCH  92  93
ENDBRANCH  60  85
BRANCH  72  97
ATOM     97  C   UNL A   1      39.687  32.945  32.425  1.00  0.00     0.058 A 
ATOM     98  C   UNL A   1      39.984  31.576  32.334  1.00  0.00     0.135 A 
ATOM     99  C   UNL A   1      38.523  33.406  31.787  1.00  0.00     0.135 A 
ATOM    100  F   UNL A   1      41.086  31.083  32.920  1.00  0.00    -0.206 F 
ATOM    101  C   UNL A   1      39.174  30.703  31.614  1.00  0.00     0.059 A 
ATOM    102  C   UNL A   1      37.683  32.546  31.086  1.00  0.00     0.059 A 
ATOM    103  F   UNL A   1      38.184  34.704  31.853  1.00  0.00    -0.206 F 
ATOM    104  C   UNL A   1      38.025  31.198  30.992  1.00  0.00     0.060 A 
BRANCH 104 105
ATOM    105  S   UNL A   1      36.971  30.051  30.079  1.00  0.00     0.124 S 
ATOM    106  O   UNL A   1      36.829  28.958  31.035  1.00  0.00    -0.237 OA
ATOM    107  O   UNL A   1      35.771  30.847  29.844  1.00  0.00    -0.237 OA
ATOM    108  O   UNL A   1      37.756  29.745  28.886  1.00  0.00    -0.744 OA
ENDBRANCH 104 105
ENDBRANCH  72  97
ENDBRANCH  46  47
ENDBRANCH  39  41
ENDBRANCH  38  39
ENDBRANCH  37  38
ENDBRANCH  36  37
ENDBRANCH  35  36
ENDBRANCH  34  35
ENDBRANCH  33  34
ENDBRANCH   1  33
TORSDOF 27
ENDMDL
