MODEL 1
REMARK VINA RESULT:     -11.0      0.000      0.000
REMARK SMILES O=C(OCCOCCOC(=O)[C@@H]1[C@H](C(=O)NCc2ccncc2)[C@H]2C=C[C@@H]1O2)c1ccc(-c2c3nc(c(-c4c(F)cc(S(=O)(=O)[O-])cc4F)c4ccc([nH]4)c(-c4c(F)cc(S(=O)(=O)[O-])cc4F)c4nc(c(-c5c(F)cc(S(=O)(=O)[O-])cc5F)c5ccc2[nH]5)C=C4)C=C3)cc1
REMARK SMILES IDX 6 1 5 2 4 3 3 4 2 5 1 6 29 7 30 8 94 9 31 10 93 11 32 12
REMARK SMILES IDX 33 13 34 14 87 15 35 16 92 17 86 18 88 19 36 20 91 21 85 22
REMARK SMILES IDX 84 23 37 25 71 26 50 27 70 28 51 29 54 30 69 31 89 32 52 33
REMARK SMILES IDX 53 34 68 36 90 37 55 38 38 39 39 40 48 41 40 42 41 43 47 44
REMARK SMILES IDX 49 45 42 46 43 47 44 48 45 49 46 50 72 51 73 52 82 53 74 54
REMARK SMILES IDX 75 55 81 56 83 57 76 58 77 59 78 60 79 61 80 62 56 63 57 64
REMARK SMILES IDX 66 65 58 66 59 67 65 68 67 69 60 70 61 71 62 72 63 73 64 74
REMARK SMILES IDX 7 75 8 76 9 77 10 78 11 79 12 80 13 81 27 82 24 83 26 84
REMARK SMILES IDX 28 85 25 86 14 87 15 88 16 89 17 91 18 92 19 93 23 94 20 95
REMARK SMILES IDX 22 96 21 97
REMARK H PARENT 88 24 54 35 16 90
REMARK Flexibility Score: inf
ROOT
ATOM      1  O   UNL A   1      38.537  21.191  25.536  1.00  0.00    -0.374 OA
ENDROOT
BRANCH   1   2
ATOM      2  C   UNL A   1      39.822  21.521  26.073  1.00  0.00     0.202 C 
BRANCH   2   3
ATOM      3  C   UNL A   1      39.902  22.805  26.911  1.00  0.00     0.261 C 
BRANCH   3   4
ATOM      4  O   UNL A   1      41.113  23.531  26.661  1.00  0.00    -0.460 OA
BRANCH   4   5
ATOM      5  C   UNL A   1      41.254  24.873  26.513  1.00  0.00     0.338 C 
ATOM      6  O   UNL A   1      41.606  25.309  25.419  1.00  0.00    -0.246 OA
BRANCH   5   7
ATOM      7  C   UNL A   1      40.982  25.852  27.609  1.00  0.00     0.060 A 
ATOM      8  C   UNL A   1      41.693  27.032  27.813  1.00  0.00     0.016 A 
ATOM      9  C   UNL A   1      39.890  25.589  28.454  1.00  0.00     0.016 A 
ATOM     10  C   UNL A   1      41.401  27.888  28.853  1.00  0.00     0.010 A 
ATOM     11  C   UNL A   1      39.553  26.474  29.486  1.00  0.00     0.010 A 
ATOM     12  C   UNL A   1      40.326  27.618  29.692  1.00  0.00    -0.014 A 
BRANCH  12  13
ATOM     13  C   UNL A   1      40.165  28.533  30.832  1.00  0.00     0.031 A 
ATOM     14  C   UNL A   1      41.190  28.492  31.915  1.00  0.00     0.074 A 
ATOM     15  C   UNL A   1      39.266  29.530  30.730  1.00  0.00     0.049 A 
ATOM     16  N   UNL A   1      41.286  29.239  32.977  1.00  0.00    -0.248 NA
ATOM     17  C   UNL A   1      42.256  27.481  31.784  1.00  0.00     0.031 C 
ATOM     18  C   UNL A   1      38.313  29.673  29.628  1.00  0.00     0.029 A 
ATOM     19  N   UNL A   1      39.050  30.638  31.498  1.00  0.00    -0.354 N 
ATOM     20  C   UNL A   1      42.394  28.767  33.663  1.00  0.00     0.074 A 
ATOM     21  C   UNL A   1      42.946  27.673  32.898  1.00  0.00     0.031 C 
ATOM     22  C   UNL A   1      37.677  30.849  29.741  1.00  0.00     0.029 A 
ATOM     23  C   UNL A   1      38.087  31.481  30.987  1.00  0.00     0.049 A 
ATOM     24  H   UNL A   1      39.536  30.818  32.334  1.00  0.00     0.167 HD
ATOM     25  C   UNL A   1      42.884  29.212  34.841  1.00  0.00     0.037 A 
ATOM     26  C   UNL A   1      37.565  32.607  31.511  1.00  0.00     0.037 A 
ATOM     27  C   UNL A   1      42.291  30.304  35.565  1.00  0.00     0.049 A 
ATOM     28  C   UNL A   1      38.084  33.034  32.859  1.00  0.00     0.074 A 
ATOM     29  C   UNL A   1      42.610  30.787  36.819  1.00  0.00     0.029 A 
ATOM     30  N   UNL A   1      41.252  31.092  35.079  1.00  0.00    -0.354 N 
ATOM     31  N   UNL A   1      39.058  32.507  33.570  1.00  0.00    -0.248 NA
ATOM     32  C   UNL A   1      37.417  34.172  33.499  1.00  0.00     0.031 C 
ATOM     33  C   UNL A   1      41.736  31.843  37.107  1.00  0.00     0.029 A 
ATOM     34  C   UNL A   1      40.913  32.056  36.011  1.00  0.00     0.049 A 
ATOM     35  H   UNL A   1      40.821  30.980  34.201  1.00  0.00     0.167 HD
ATOM     36  C   UNL A   1      39.113  33.243  34.745  1.00  0.00     0.074 A 
ATOM     37  C   UNL A   1      38.108  34.283  34.625  1.00  0.00     0.031 C 
ATOM     38  C   UNL A   1      39.901  33.071  35.837  1.00  0.00     0.037 A 
BRANCH  25  39
ATOM     39  C   UNL A   1      44.041  28.461  35.429  1.00  0.00     0.058 A 
ATOM     40  C   UNL A   1      43.861  27.346  36.263  1.00  0.00     0.135 A 
ATOM     41  C   UNL A   1      45.356  28.885  35.177  1.00  0.00     0.135 A 
ATOM     42  F   UNL A   1      42.624  26.926  36.574  1.00  0.00    -0.206 F 
ATOM     43  C   UNL A   1      44.944  26.688  36.839  1.00  0.00     0.059 A 
ATOM     44  C   UNL A   1      46.454  28.226  35.721  1.00  0.00     0.059 A 
ATOM     45  F   UNL A   1      45.583  29.961  34.407  1.00  0.00    -0.206 F 
ATOM     46  C   UNL A   1      46.237  27.134  36.559  1.00  0.00     0.060 A 
BRANCH  46  47
ATOM     47  S   UNL A   1      47.630  26.261  37.303  1.00  0.00     0.124 S 
ATOM     48  O   UNL A   1      48.499  26.058  36.147  1.00  0.00    -0.237 OA
ATOM     49  O   UNL A   1      48.106  27.222  38.292  1.00  0.00    -0.237 OA
ATOM     50  O   UNL A   1      47.022  25.052  37.849  1.00  0.00    -0.744 OA
ENDBRANCH  46  47
ENDBRANCH  25  39
BRANCH  26  51
ATOM     51  C   UNL A   1      36.441  33.322  30.838  1.00  0.00     0.058 A 
ATOM     52  C   UNL A   1      36.656  34.191  29.757  1.00  0.00     0.135 A 
ATOM     53  C   UNL A   1      35.119  33.180  31.294  1.00  0.00     0.135 A 
ATOM     54  F   UNL A   1      37.897  34.376  29.280  1.00  0.00    -0.206 F 
ATOM     55  C   UNL A   1      35.613  34.914  29.178  1.00  0.00     0.059 A 
ATOM     56  C   UNL A   1      34.056  33.857  30.706  1.00  0.00     0.059 A 
ATOM     57  F   UNL A   1      34.845  32.365  32.325  1.00  0.00    -0.206 F 
ATOM     58  C   UNL A   1      34.316  34.741  29.664  1.00  0.00     0.060 A 
BRANCH  58  59
ATOM     59  S   UNL A   1      32.967  35.687  28.921  1.00  0.00     0.124 S 
ATOM     60  O   UNL A   1      33.696  36.768  28.266  1.00  0.00    -0.237 OA
ATOM     61  O   UNL A   1      32.352  34.705  28.035  1.00  0.00    -0.237 OA
ATOM     62  O   UNL A   1      32.158  36.080  30.069  1.00  0.00    -0.744 OA
ENDBRANCH  58  59
ENDBRANCH  26  51
BRANCH  38  63
ATOM     63  C   UNL A   1      39.711  34.048  36.960  1.00  0.00     0.058 A 
ATOM     64  C   UNL A   1      40.377  35.283  36.981  1.00  0.00     0.135 A 
ATOM     65  C   UNL A   1      38.828  33.753  38.009  1.00  0.00     0.135 A 
ATOM     66  F   UNL A   1      41.236  35.607  36.001  1.00  0.00    -0.206 F 
ATOM     67  C   UNL A   1      40.202  36.178  38.028  1.00  0.00     0.059 A 
ATOM     68  C   UNL A   1      38.612  34.648  39.048  1.00  0.00     0.059 A 
ATOM     69  F   UNL A   1      38.158  32.590  38.024  1.00  0.00    -0.206 F 
ATOM     70  C   UNL A   1      39.317  35.850  39.058  1.00  0.00     0.060 A 
BRANCH  70  71
ATOM     71  S   UNL A   1      39.088  37.027  40.406  1.00  0.00     0.124 S 
ATOM     72  O   UNL A   1      40.454  37.491  40.623  1.00  0.00    -0.237 OA
ATOM     73  O   UNL A   1      38.173  38.000  39.818  1.00  0.00    -0.237 OA
ATOM     74  O   UNL A   1      38.523  36.210  41.475  1.00  0.00    -0.744 OA
ENDBRANCH  70  71
ENDBRANCH  38  63
ENDBRANCH  12  13
ENDBRANCH   5   7
ENDBRANCH   4   5
ENDBRANCH   3   4
ENDBRANCH   2   3
ENDBRANCH   1   2
BRANCH   1  75
ATOM     75  C   UNL A   1      37.585  22.262  25.504  1.00  0.00     0.202 C 
BRANCH  75  76
ATOM     76  C   UNL A   1      36.990  22.393  24.112  1.00  0.00     0.261 C 
BRANCH  76  77
ATOM     77  O   UNL A   1      36.221  23.604  24.125  1.00  0.00    -0.463 OA
BRANCH  77  78
ATOM     78  C   UNL A   1      34.873  23.425  24.059  1.00  0.00     0.312 C 
ATOM     79  O   UNL A   1      34.294  22.882  23.140  1.00  0.00    -0.252 OA
BRANCH  78  80
ATOM     80  C   UNL A   1      34.211  24.156  25.180  1.00  0.00     0.147 C 
ATOM     81  C   UNL A   1      33.496  23.428  26.343  1.00  0.00     0.128 C 
ATOM     82  C   UNL A   1      33.058  24.945  24.549  1.00  0.00     0.157 C 
ATOM     83  C   UNL A   1      32.049  23.907  26.171  1.00  0.00     0.155 C 
ATOM     84  C   UNL A   1      32.617  26.016  25.502  1.00  0.00     0.004 C 
ATOM     85  O   UNL A   1      31.961  24.011  24.730  1.00  0.00    -0.365 OA
ATOM     86  C   UNL A   1      31.985  25.379  26.500  1.00  0.00     0.004 C 
BRANCH  81  87
ATOM     87  C   UNL A   1      33.590  21.962  26.739  1.00  0.00     0.227 C 
ATOM     88  O   UNL A   1      34.066  21.717  27.862  1.00  0.00    -0.275 OA
ATOM     89  N   UNL A   1      33.157  20.877  26.084  1.00  0.00    -0.352 N 
ATOM     90  H   UNL A   1      33.328  20.045  26.581  1.00  0.00     0.163 HD
BRANCH  89  91
ATOM     91  C   UNL A   1      32.496  20.636  24.816  1.00  0.00     0.151 C 
BRANCH  91  92
ATOM     92  C   UNL A   1      32.895  19.320  24.191  1.00  0.00    -0.026 A 
ATOM     93  C   UNL A   1      32.154  18.829  23.108  1.00  0.00     0.025 A 
ATOM     94  C   UNL A   1      33.990  18.565  24.618  1.00  0.00     0.025 A 
ATOM     95  C   UNL A   1      32.603  17.706  22.432  1.00  0.00     0.111 A 
ATOM     96  C   UNL A   1      34.352  17.447  23.882  1.00  0.00     0.111 A 
ATOM     97  N   UNL A   1      33.703  17.013  22.784  1.00  0.00    -0.265 NA
ENDBRANCH  91  92
ENDBRANCH  89  91
ENDBRANCH  81  87
ENDBRANCH  78  80
ENDBRANCH  77  78
ENDBRANCH  76  77
ENDBRANCH  75  76
ENDBRANCH   1  75
TORSDOF 20
ENDMDL
MODEL 2
REMARK VINA RESULT:     -11.0      4.524     10.165
REMARK SMILES O=C(OCCOCCOC(=O)[C@@H]1[C@H](C(=O)NCc2ccncc2)[C@H]2C=C[C@@H]1O2)c1ccc(-c2c3nc(c(-c4c(F)cc(S(=O)(=O)[O-])cc4F)c4ccc([nH]4)c(-c4c(F)cc(S(=O)(=O)[O-])cc4F)c4nc(c(-c5c(F)cc(S(=O)(=O)[O-])cc5F)c5ccc2[nH]5)C=C4)C=C3)cc1
REMARK SMILES IDX 6 1 5 2 4 3 3 4 2 5 1 6 29 7 30 8 94 9 31 10 93 11 32 12
REMARK SMILES IDX 33 13 34 14 87 15 35 16 92 17 86 18 88 19 36 20 91 21 85 22
REMARK SMILES IDX 84 23 37 25 71 26 50 27 70 28 51 29 54 30 69 31 89 32 52 33
REMARK SMILES IDX 53 34 68 36 90 37 55 38 38 39 39 40 48 41 40 42 41 43 47 44
REMARK SMILES IDX 49 45 42 46 43 47 44 48 45 49 46 50 72 51 73 52 82 53 74 54
REMARK SMILES IDX 75 55 81 56 83 57 76 58 77 59 78 60 79 61 80 62 56 63 57 64
REMARK SMILES IDX 66 65 58 66 59 67 65 68 67 69 60 70 61 71 62 72 63 73 64 74
REMARK SMILES IDX 7 75 8 76 9 77 10 78 11 79 12 80 13 81 27 82 24 83 26 84
REMARK SMILES IDX 28 85 25 86 14 87 15 88 16 89 17 91 18 92 19 93 23 94 20 95
REMARK SMILES IDX 22 96 21 97
REMARK H PARENT 88 24 54 35 16 90
REMARK Flexibility Score: inf
ROOT
ATOM      1  O   UNL A   1      31.802  28.148  24.080  1.00  0.00    -0.374 OA
ENDROOT
BRANCH   1   2
ATOM      2  C   UNL A   1      32.079  28.127  25.485  1.00  0.00     0.202 C 
BRANCH   2   3
ATOM      3  C   UNL A   1      33.533  28.395  25.898  1.00  0.00     0.261 C 
BRANCH   3   4
ATOM      4  O   UNL A   1      33.631  28.805  27.269  1.00  0.00    -0.460 OA
BRANCH   4   5
ATOM      5  C   UNL A   1      34.398  29.802  27.777  1.00  0.00     0.338 C 
ATOM      6  O   UNL A   1      33.858  30.865  28.076  1.00  0.00    -0.246 OA
BRANCH   5   7
ATOM      7  C   UNL A   1      35.868  29.666  28.015  1.00  0.00     0.060 A 
ATOM      8  C   UNL A   1      36.853  29.938  27.068  1.00  0.00     0.016 A 
ATOM      9  C   UNL A   1      36.283  29.299  29.306  1.00  0.00     0.016 A 
ATOM     10  C   UNL A   1      38.194  29.779  27.345  1.00  0.00     0.010 A 
ATOM     11  C   UNL A   1      37.644  29.180  29.615  1.00  0.00     0.010 A 
ATOM     12  C   UNL A   1      38.598  29.405  28.621  1.00  0.00    -0.014 A 
BRANCH  12  13
ATOM     13  C   UNL A   1      40.039  29.160  28.784  1.00  0.00     0.031 A 
ATOM     14  C   UNL A   1      40.834  30.148  29.570  1.00  0.00     0.074 A 
ATOM     15  C   UNL A   1      40.523  27.950  28.449  1.00  0.00     0.049 A 
ATOM     16  N   UNL A   1      42.095  30.109  29.892  1.00  0.00    -0.248 NA
ATOM     17  C   UNL A   1      40.115  31.334  30.068  1.00  0.00     0.031 C 
ATOM     18  C   UNL A   1      39.748  26.907  27.775  1.00  0.00     0.029 A 
ATOM     19  N   UNL A   1      41.732  27.359  28.686  1.00  0.00    -0.354 N 
ATOM     20  C   UNL A   1      42.334  31.280  30.594  1.00  0.00     0.074 A 
ATOM     21  C   UNL A   1      41.088  32.010  30.661  1.00  0.00     0.031 C 
ATOM     22  C   UNL A   1      40.468  25.775  27.734  1.00  0.00     0.029 A 
ATOM     23  C   UNL A   1      41.796  26.050  28.264  1.00  0.00     0.049 A 
ATOM     24  H   UNL A   1      42.484  27.824  29.119  1.00  0.00     0.167 HD
ATOM     25  C   UNL A   1      43.506  31.701  31.117  1.00  0.00     0.037 A 
ATOM     26  C   UNL A   1      42.839  25.197  28.261  1.00  0.00     0.037 A 
ATOM     27  C   UNL A   1      44.720  30.936  31.018  1.00  0.00     0.049 A 
ATOM     28  C   UNL A   1      44.149  25.724  28.786  1.00  0.00     0.074 A 
ATOM     29  C   UNL A   1      46.000  31.288  31.399  1.00  0.00     0.029 A 
ATOM     30  N   UNL A   1      44.791  29.647  30.501  1.00  0.00    -0.354 N 
ATOM     31  N   UNL A   1      44.403  26.890  29.343  1.00  0.00    -0.248 NA
ATOM     32  C   UNL A   1      45.319  24.853  28.650  1.00  0.00     0.031 C 
ATOM     33  C   UNL A   1      46.851  30.225  31.076  1.00  0.00     0.029 A 
ATOM     34  C   UNL A   1      46.095  29.189  30.548  1.00  0.00     0.049 A 
ATOM     35  H   UNL A   1      44.026  29.135  30.152  1.00  0.00     0.167 HD
ATOM     36  C   UNL A   1      45.764  26.894  29.613  1.00  0.00     0.074 A 
ATOM     37  C   UNL A   1      46.267  25.594  29.204  1.00  0.00     0.031 C 
ATOM     38  C   UNL A   1      46.540  27.881  30.128  1.00  0.00     0.037 A 
BRANCH  25  39
ATOM     39  C   UNL A   1      43.526  33.063  31.746  1.00  0.00     0.058 A 
ATOM     40  C   UNL A   1      43.770  34.227  31.000  1.00  0.00     0.135 A 
ATOM     41  C   UNL A   1      43.326  33.202  33.129  1.00  0.00     0.135 A 
ATOM     42  F   UNL A   1      44.012  34.146  29.681  1.00  0.00    -0.206 F 
ATOM     43  C   UNL A   1      43.831  35.478  31.605  1.00  0.00     0.059 A 
ATOM     44  C   UNL A   1      43.357  34.445  33.751  1.00  0.00     0.059 A 
ATOM     45  F   UNL A   1      43.115  32.119  33.893  1.00  0.00    -0.206 F 
ATOM     46  C   UNL A   1      43.620  35.578  32.982  1.00  0.00     0.060 A 
BRANCH  46  47
ATOM     47  S   UNL A   1      43.689  37.210  33.749  1.00  0.00     0.124 S 
ATOM     48  O   UNL A   1      44.959  37.142  34.465  1.00  0.00    -0.237 OA
ATOM     49  O   UNL A   1      43.662  38.097  32.592  1.00  0.00    -0.237 OA
ATOM     50  O   UNL A   1      42.496  37.242  34.589  1.00  0.00    -0.744 OA
ENDBRANCH  46  47
ENDBRANCH  25  39
BRANCH  26  51
ATOM     51  C   UNL A   1      42.724  23.839  27.654  1.00  0.00     0.058 A 
ATOM     52  C   UNL A   1      42.406  22.707  28.422  1.00  0.00     0.135 A 
ATOM     53  C   UNL A   1      42.971  23.637  26.285  1.00  0.00     0.135 A 
ATOM     54  F   UNL A   1      42.168  22.833  29.736  1.00  0.00    -0.206 F 
ATOM     55  C   UNL A   1      42.373  21.429  27.865  1.00  0.00     0.059 A 
ATOM     56  C   UNL A   1      42.901  22.378  25.698  1.00  0.00     0.059 A 
ATOM     57  F   UNL A   1      43.281  24.677  25.495  1.00  0.00    -0.206 F 
ATOM     58  C   UNL A   1      42.625  21.276  26.500  1.00  0.00     0.060 A 
BRANCH  58  59
ATOM     59  S   UNL A   1      42.592  19.618  25.782  1.00  0.00     0.124 S 
ATOM     60  O   UNL A   1      43.501  19.772  24.652  1.00  0.00    -0.237 OA
ATOM     61  O   UNL A   1      43.078  18.794  26.884  1.00  0.00    -0.237 OA
ATOM     62  O   UNL A   1      41.187  19.428  25.438  1.00  0.00    -0.744 OA
ENDBRANCH  58  59
ENDBRANCH  26  51
BRANCH  38  63
ATOM     63  C   UNL A   1      47.998  27.568  30.295  1.00  0.00     0.058 A 
ATOM     64  C   UNL A   1      48.487  26.931  31.446  1.00  0.00     0.135 A 
ATOM     65  C   UNL A   1      48.908  27.882  29.275  1.00  0.00     0.135 A 
ATOM     66  F   UNL A   1      47.654  26.616  32.451  1.00  0.00    -0.206 F 
ATOM     67  C   UNL A   1      49.839  26.652  31.597  1.00  0.00     0.059 A 
ATOM     68  C   UNL A   1      50.258  27.581  29.390  1.00  0.00     0.059 A 
ATOM     69  F   UNL A   1      48.485  28.478  28.149  1.00  0.00    -0.206 F 
ATOM     70  C   UNL A   1      50.717  26.982  30.562  1.00  0.00     0.060 A 
BRANCH  70  71
ATOM     71  S   UNL A   1      52.469  26.603  30.764  1.00  0.00     0.124 S 
ATOM     72  O   UNL A   1      52.425  25.553  31.776  1.00  0.00    -0.237 OA
ATOM     73  O   UNL A   1      52.852  26.177  29.421  1.00  0.00    -0.237 OA
ATOM     74  O   UNL A   1      53.042  27.873  31.199  1.00  0.00    -0.744 OA
ENDBRANCH  70  71
ENDBRANCH  38  63
ENDBRANCH  12  13
ENDBRANCH   5   7
ENDBRANCH   4   5
ENDBRANCH   3   4
ENDBRANCH   2   3
ENDBRANCH   1   2
BRANCH   1  75
ATOM     75  C   UNL A   1      32.232  26.995  23.346  1.00  0.00     0.202 C 
BRANCH  75  76
ATOM     76  C   UNL A   1      32.036  25.739  24.180  1.00  0.00     0.261 C 
BRANCH  76  77
ATOM     77  O   UNL A   1      33.167  24.902  23.903  1.00  0.00    -0.463 OA
BRANCH  77  78
ATOM     78  C   UNL A   1      33.503  24.047  24.907  1.00  0.00     0.312 C 
ATOM     79  O   UNL A   1      33.153  24.169  26.064  1.00  0.00    -0.252 OA
BRANCH  78  80
ATOM     80  C   UNL A   1      34.508  23.058  24.413  1.00  0.00     0.147 C 
ATOM     81  C   UNL A   1      34.864  21.771  25.195  1.00  0.00     0.128 C 
ATOM     82  C   UNL A   1      35.852  23.794  24.392  1.00  0.00     0.157 C 
ATOM     83  C   UNL A   1      36.349  21.995  25.507  1.00  0.00     0.155 C 
ATOM     84  C   UNL A   1      36.813  23.035  23.527  1.00  0.00     0.004 C 
ATOM     85  O   UNL A   1      36.380  23.430  25.695  1.00  0.00    -0.365 OA
ATOM     86  C   UNL A   1      37.130  21.928  24.216  1.00  0.00     0.004 C 
BRANCH  81  87
ATOM     87  C   UNL A   1      34.109  21.126  26.347  1.00  0.00     0.227 C 
ATOM     88  O   UNL A   1      34.382  21.532  27.490  1.00  0.00    -0.275 OA
ATOM     89  N   UNL A   1      33.118  20.224  26.312  1.00  0.00    -0.352 N 
ATOM     90  H   UNL A   1      32.791  19.990  27.211  1.00  0.00     0.163 HD
BRANCH  89  91
ATOM     91  C   UNL A   1      32.412  19.511  25.266  1.00  0.00     0.151 C 
BRANCH  91  92
ATOM     92  C   UNL A   1      33.008  18.152  24.982  1.00  0.00    -0.026 A 
ATOM     93  C   UNL A   1      32.483  17.029  25.635  1.00  0.00     0.025 A 
ATOM     94  C   UNL A   1      34.048  17.943  24.074  1.00  0.00     0.025 A 
ATOM     95  C   UNL A   1      32.916  15.766  25.266  1.00  0.00     0.111 A 
ATOM     96  C   UNL A   1      34.421  16.639  23.782  1.00  0.00     0.111 A 
ATOM     97  N   UNL A   1      33.864  15.544  24.335  1.00  0.00    -0.265 NA
ENDBRANCH  91  92
ENDBRANCH  89  91
ENDBRANCH  81  87
ENDBRANCH  78  80
ENDBRANCH  77  78
ENDBRANCH  76  77
ENDBRANCH  75  76
ENDBRANCH   1  75
TORSDOF 20
ENDMDL
MODEL 3
REMARK VINA RESULT:     -10.8      0.611      8.227
REMARK SMILES O=C(OCCOCCOC(=O)[C@@H]1[C@H](C(=O)NCc2ccncc2)[C@H]2C=C[C@@H]1O2)c1ccc(-c2c3nc(c(-c4c(F)cc(S(=O)(=O)[O-])cc4F)c4ccc([nH]4)c(-c4c(F)cc(S(=O)(=O)[O-])cc4F)c4nc(c(-c5c(F)cc(S(=O)(=O)[O-])cc5F)c5ccc2[nH]5)C=C4)C=C3)cc1
REMARK SMILES IDX 6 1 5 2 4 3 3 4 2 5 1 6 29 7 30 8 94 9 31 10 93 11 32 12
REMARK SMILES IDX 33 13 34 14 87 15 35 16 92 17 86 18 88 19 36 20 91 21 85 22
REMARK SMILES IDX 84 23 37 25 71 26 50 27 70 28 51 29 54 30 69 31 89 32 52 33
REMARK SMILES IDX 53 34 68 36 90 37 55 38 38 39 39 40 48 41 40 42 41 43 47 44
REMARK SMILES IDX 49 45 42 46 43 47 44 48 45 49 46 50 72 51 73 52 82 53 74 54
REMARK SMILES IDX 75 55 81 56 83 57 76 58 77 59 78 60 79 61 80 62 56 63 57 64
REMARK SMILES IDX 66 65 58 66 59 67 65 68 67 69 60 70 61 71 62 72 63 73 64 74
REMARK SMILES IDX 7 75 8 76 9 77 10 78 11 79 12 80 13 81 27 82 24 83 26 84
REMARK SMILES IDX 28 85 25 86 14 87 15 88 16 89 17 91 18 92 19 93 23 94 20 95
REMARK SMILES IDX 22 96 21 97
REMARK H PARENT 88 24 54 35 16 90
REMARK Flexibility Score: inf
ROOT
ATOM      1  O   UNL A   1      37.853  21.652  25.374  1.00  0.00    -0.374 OA
ENDROOT
BRANCH   1   2
ATOM      2  C   UNL A   1      39.013  22.017  26.129  1.00  0.00     0.202 C 
BRANCH   2   3
ATOM      3  C   UNL A   1      39.133  23.496  26.523  1.00  0.00     0.261 C 
BRANCH   3   4
ATOM      4  O   UNL A   1      40.498  23.937  26.531  1.00  0.00    -0.460 OA
BRANCH   4   5
ATOM      5  C   UNL A   1      40.954  25.209  26.403  1.00  0.00     0.338 C 
ATOM      6  O   UNL A   1      41.452  25.549  25.332  1.00  0.00    -0.246 OA
BRANCH   5   7
ATOM      7  C   UNL A   1      40.862  26.227  27.494  1.00  0.00     0.060 A 
ATOM      8  C   UNL A   1      41.481  27.475  27.469  1.00  0.00     0.016 A 
ATOM      9  C   UNL A   1      40.041  25.924  28.593  1.00  0.00     0.016 A 
ATOM     10  C   UNL A   1      41.368  28.365  28.515  1.00  0.00     0.010 A 
ATOM     11  C   UNL A   1      39.880  26.839  29.641  1.00  0.00     0.010 A 
ATOM     12  C   UNL A   1      40.563  28.055  29.604  1.00  0.00    -0.014 A 
BRANCH  12  13
ATOM     13  C   UNL A   1      40.595  29.022  30.712  1.00  0.00     0.031 A 
ATOM     14  C   UNL A   1      39.523  30.058  30.771  1.00  0.00     0.074 A 
ATOM     15  C   UNL A   1      41.417  28.779  31.750  1.00  0.00     0.049 A 
ATOM     16  N   UNL A   1      39.317  30.968  31.678  1.00  0.00    -0.248 NA
ATOM     17  C   UNL A   1      38.548  30.069  29.665  1.00  0.00     0.031 C 
ATOM     18  C   UNL A   1      42.410  27.703  31.783  1.00  0.00     0.029 A 
ATOM     19  N   UNL A   1      41.508  29.347  32.988  1.00  0.00    -0.354 N 
ATOM     20  C   UNL A   1      38.216  31.687  31.238  1.00  0.00     0.074 A 
ATOM     21  C   UNL A   1      37.789  31.107  29.985  1.00  0.00     0.031 C 
ATOM     22  C   UNL A   1      42.946  27.631  33.010  1.00  0.00     0.029 A 
ATOM     23  C   UNL A   1      42.426  28.732  33.810  1.00  0.00     0.049 A 
ATOM     24  H   UNL A   1      40.968  30.122  33.267  1.00  0.00     0.167 HD
ATOM     25  C   UNL A   1      37.635  32.750  31.835  1.00  0.00     0.037 A 
ATOM     26  C   UNL A   1      42.832  29.067  35.049  1.00  0.00     0.037 A 
ATOM     27  C   UNL A   1      38.104  33.292  33.083  1.00  0.00     0.049 A 
ATOM     28  C   UNL A   1      42.215  30.301  35.656  1.00  0.00     0.074 A 
ATOM     29  C   UNL A   1      37.686  34.430  33.745  1.00  0.00     0.029 A 
ATOM     30  N   UNL A   1      39.101  32.713  33.861  1.00  0.00    -0.354 N 
ATOM     31  N   UNL A   1      41.250  31.057  35.178  1.00  0.00    -0.248 NA
ATOM     32  C   UNL A   1      42.758  30.754  36.940  1.00  0.00     0.031 C 
ATOM     33  C   UNL A   1      38.459  34.559  34.905  1.00  0.00     0.029 A 
ATOM     34  C   UNL A   1      39.317  33.473  34.996  1.00  0.00     0.049 A 
ATOM     35  H   UNL A   1      39.583  31.884  33.637  1.00  0.00     0.167 HD
ATOM     36  C   UNL A   1      41.079  32.082  36.098  1.00  0.00     0.074 A 
ATOM     37  C   UNL A   1      42.006  31.818  37.184  1.00  0.00     0.031 C 
ATOM     38  C   UNL A   1      40.254  33.159  36.049  1.00  0.00     0.037 A 
BRANCH  25  39
ATOM     39  C   UNL A   1      36.511  33.420  31.101  1.00  0.00     0.058 A 
ATOM     40  C   UNL A   1      36.723  34.154  29.923  1.00  0.00     0.135 A 
ATOM     41  C   UNL A   1      35.202  33.350  31.603  1.00  0.00     0.135 A 
ATOM     42  F   UNL A   1      37.962  34.291  29.424  1.00  0.00    -0.206 F 
ATOM     43  C   UNL A   1      35.678  34.808  29.278  1.00  0.00     0.059 A 
ATOM     44  C   UNL A   1      34.138  33.974  30.961  1.00  0.00     0.059 A 
ATOM     45  F   UNL A   1      34.949  32.683  32.740  1.00  0.00    -0.206 F 
ATOM     46  C   UNL A   1      34.387  34.710  29.803  1.00  0.00     0.060 A 
BRANCH  46  47
ATOM     47  S   UNL A   1      33.041  35.553  28.947  1.00  0.00     0.124 S 
ATOM     48  O   UNL A   1      32.236  36.031  30.067  1.00  0.00    -0.237 OA
ATOM     49  O   UNL A   1      33.750  36.581  28.193  1.00  0.00    -0.237 OA
ATOM     50  O   UNL A   1      32.433  34.496  28.144  1.00  0.00    -0.744 OA
ENDBRANCH  46  47
ENDBRANCH  25  39
BRANCH  26  51
ATOM     51  C   UNL A   1      43.929  28.320  35.731  1.00  0.00     0.058 A 
ATOM     52  C   UNL A   1      45.282  28.603  35.490  1.00  0.00     0.135 A 
ATOM     53  C   UNL A   1      43.641  27.267  36.618  1.00  0.00     0.135 A 
ATOM     54  F   UNL A   1      45.622  29.591  34.647  1.00  0.00    -0.206 F 
ATOM     55  C   UNL A   1      46.304  27.854  36.073  1.00  0.00     0.059 A 
ATOM     56  C   UNL A   1      44.643  26.533  37.245  1.00  0.00     0.059 A 
ATOM     57  F   UNL A   1      42.368  26.944  36.892  1.00  0.00    -0.206 F 
ATOM     58  C   UNL A   1      45.972  26.817  36.947  1.00  0.00     0.060 A 
BRANCH  58  59
ATOM     59  S   UNL A   1      47.296  25.840  37.693  1.00  0.00     0.124 S 
ATOM     60  O   UNL A   1      46.580  24.632  38.089  1.00  0.00    -0.237 OA
ATOM     61  O   UNL A   1      48.233  25.690  36.584  1.00  0.00    -0.237 OA
ATOM     62  O   UNL A   1      47.762  26.683  38.789  1.00  0.00    -0.744 OA
ENDBRANCH  58  59
ENDBRANCH  26  51
BRANCH  38  63
ATOM     63  C   UNL A   1      40.311  34.099  37.217  1.00  0.00     0.058 A 
ATOM     64  C   UNL A   1      41.171  35.207  37.229  1.00  0.00     0.135 A 
ATOM     65  C   UNL A   1      39.469  33.901  38.323  1.00  0.00     0.135 A 
ATOM     66  F   UNL A   1      41.998  35.434  36.196  1.00  0.00    -0.206 F 
ATOM     67  C   UNL A   1      41.223  36.067  38.318  1.00  0.00     0.059 A 
ATOM     68  C   UNL A   1      39.480  34.768  39.406  1.00  0.00     0.059 A 
ATOM     69  F   UNL A   1      38.618  32.862  38.349  1.00  0.00    -0.206 F 
ATOM     70  C   UNL A   1      40.374  35.838  39.403  1.00  0.00     0.060 A 
BRANCH  70  71
ATOM     71  S   UNL A   1      40.441  36.970  40.806  1.00  0.00     0.124 S 
ATOM     72  O   UNL A   1      41.559  36.424  41.568  1.00  0.00    -0.237 OA
ATOM     73  O   UNL A   1      40.682  38.256  40.158  1.00  0.00    -0.237 OA
ATOM     74  O   UNL A   1      39.127  36.823  41.423  1.00  0.00    -0.744 OA
ENDBRANCH  70  71
ENDBRANCH  38  63
ENDBRANCH  12  13
ENDBRANCH   5   7
ENDBRANCH   4   5
ENDBRANCH   3   4
ENDBRANCH   2   3
ENDBRANCH   1   2
BRANCH   1  75
ATOM     75  C   UNL A   1      36.967  22.728  25.041  1.00  0.00     0.202 C 
BRANCH  75  76
ATOM     76  C   UNL A   1      36.186  22.395  23.780  1.00  0.00     0.261 C 
BRANCH  76  77
ATOM     77  O   UNL A   1      35.426  23.570  23.466  1.00  0.00    -0.463 OA
BRANCH  77  78
ATOM     78  C   UNL A   1      34.078  23.425  23.578  1.00  0.00     0.312 C 
ATOM     79  O   UNL A   1      33.367  22.906  22.740  1.00  0.00    -0.252 OA
BRANCH  78  80
ATOM     80  C   UNL A   1      33.589  24.159  24.784  1.00  0.00     0.147 C 
ATOM     81  C   UNL A   1      33.220  23.441  26.103  1.00  0.00     0.128 C 
ATOM     82  C   UNL A   1      32.250  24.787  24.383  1.00  0.00     0.157 C 
ATOM     83  C   UNL A   1      31.725  23.762  26.228  1.00  0.00     0.155 C 
ATOM     84  C   UNL A   1      31.903  25.869  25.362  1.00  0.00     0.004 C 
ATOM     85  O   UNL A   1      31.325  23.764  24.836  1.00  0.00    -0.365 OA
ATOM     86  C   UNL A   1      31.570  25.240  26.500  1.00  0.00     0.004 C 
BRANCH  81  87
ATOM     87  C   UNL A   1      33.556  22.021  26.533  1.00  0.00     0.227 C 
ATOM     88  O   UNL A   1      34.246  21.896  27.560  1.00  0.00    -0.275 OA
ATOM     89  N   UNL A   1      33.148  20.857  26.007  1.00  0.00    -0.352 N 
ATOM     90  H   UNL A   1      33.502  20.080  26.497  1.00  0.00     0.163 HD
BRANCH  89  91
ATOM     91  C   UNL A   1      32.311  20.470  24.889  1.00  0.00     0.151 C 
BRANCH  91  92
ATOM     92  C   UNL A   1      32.862  19.286  24.129  1.00  0.00    -0.026 A 
ATOM     93  C   UNL A   1      34.052  18.691  24.568  1.00  0.00     0.025 A 
ATOM     94  C   UNL A   1      32.234  18.728  23.014  1.00  0.00     0.025 A 
ATOM     95  C   UNL A   1      34.480  17.514  23.973  1.00  0.00     0.111 A 
ATOM     96  C   UNL A   1      32.749  17.556  22.480  1.00  0.00     0.111 A 
ATOM     97  N   UNL A   1      33.841  16.920  22.948  1.00  0.00    -0.265 NA
ENDBRANCH  91  92
ENDBRANCH  89  91
ENDBRANCH  81  87
ENDBRANCH  78  80
ENDBRANCH  77  78
ENDBRANCH  76  77
ENDBRANCH  75  76
ENDBRANCH   1  75
TORSDOF 20
ENDMDL
