MODEL 1
REMARK VINA RESULT:     -11.0      0.000      0.000
REMARK SMILES O=C(C[C@H]1S/C(=[NH+]\N=C\c2cc(Br)ccc2OCc2ccccc2)NC1=O)OCCOCCOC(=O)c1ccc(-c2c3nc(c(-c4c(F)cc(S(=O)(=O)[O-])cc4F)c4ccc([nH]4)c(-c4c(F)cc(S(=O)(=O)[O-])cc4F)c4nc(c(-c5c(F)cc(S(=O)(=O)[O-])cc5F)c5ccc2[nH]5)C=C4)C=C3)cc1
REMARK SMILES IDX 29 1 28 2 2 3 1 4 3 5 4 6 5 7 26 8 6 9 25 10 27 11 7 12 8 15
REMARK SMILES IDX 9 16 10 17 11 18 16 19 12 20 15 21 13 22 14 23 17 24 18 25
REMARK SMILES IDX 19 26 20 27 24 28 21 29 23 30 22 31 30 32 31 33 32 34 33 35
REMARK SMILES IDX 34 36 35 37 36 38 37 39 38 40 102 41 39 42 101 43 40 44
REMARK SMILES IDX 41 45 42 46 95 47 43 48 100 49 94 50 96 51 44 52 99 53 93 54
REMARK SMILES IDX 92 55 45 57 79 58 58 59 78 60 59 61 62 62 77 63 97 64 60 65
REMARK SMILES IDX 61 66 76 68 98 69 63 70 46 71 47 72 56 73 48 74 49 75 55 76
REMARK SMILES IDX 57 77 50 78 51 79 52 80 53 81 54 82 80 83 81 84 90 85 82 86
REMARK SMILES IDX 83 87 89 88 91 89 84 90 85 91 86 92 87 93 88 94 64 95 65 96
REMARK SMILES IDX 74 97 66 98 67 99 73 100 75 101 68 102 69 103 70 104 71 105
REMARK SMILES IDX 72 106
REMARK H PARENT 25 13 7 14 96 56 62 67
REMARK Flexibility Score: inf
ROOT
ATOM      1  C   UNL A   1      38.004  21.298  25.033  1.00  0.00     0.261 C 
ENDROOT
BRANCH   1   2
ATOM      2  O   UNL A   1      36.753  21.689  25.601  1.00  0.00    -0.463 OA
BRANCH   2   3
ATOM      3  C   UNL A   1      36.196  22.910  25.493  1.00  0.00     0.307 C 
ATOM      4  O   UNL A   1      36.891  23.913  25.662  1.00  0.00    -0.252 OA
BRANCH   3   5
ATOM      5  C   UNL A   1      34.703  23.068  25.344  1.00  0.00     0.150 C 
BRANCH   5   6
ATOM      6  C   UNL A   1      33.834  22.522  26.462  1.00  0.00     0.184 C 
ATOM      7  S   UNL A   1      32.542  23.765  26.812  1.00  0.00    -0.020 SA
ATOM      8  C   UNL A   1      33.055  21.342  25.930  1.00  0.00     0.322 C 
ATOM      9  C   UNL A   1      31.576  23.066  25.559  1.00  0.00     0.337 C 
ATOM     10  N   UNL A   1      31.916  21.778  25.334  1.00  0.00    -0.202 N 
ATOM     11  O   UNL A   1      33.437  20.183  25.933  1.00  0.00    -0.246 OA
ATOM     12  N   UNL A   1      30.635  23.588  24.871  1.00  0.00    -0.142 N 
ATOM     13  H   UNL A   1      31.368  21.187  24.768  1.00  0.00     0.316 HD
ATOM     14  H   UNL A   1      30.189  23.079  24.157  1.00  0.00     0.343 HD
BRANCH  12  15
ATOM     15  N   UNL A   1      30.256  24.892  25.154  1.00  0.00    -0.093 NA
ATOM     16  C   UNL A   1      30.227  25.553  24.039  1.00  0.00     0.170 C 
BRANCH  16  17
ATOM     17  C   UNL A   1      30.237  27.005  23.960  1.00  0.00     0.040 A 
ATOM     18  C   UNL A   1      29.138  27.612  23.324  1.00  0.00     0.029 A 
ATOM     19  C   UNL A   1      31.297  27.766  24.469  1.00  0.00     0.128 A 
ATOM     20  C   UNL A   1      29.125  28.987  23.132  1.00  0.00     0.018 A 
ATOM     21  C   UNL A   1      31.271  29.147  24.216  1.00  0.00     0.048 A 
ATOM     22  Br  UNL A   1      27.650  29.810  22.285  1.00  0.00    -0.051 Br
ATOM     23  C   UNL A   1      30.200  29.758  23.554  1.00  0.00     0.019 A 
BRANCH  19  24
ATOM     24  O   UNL A   1      32.398  27.415  25.197  1.00  0.00    -0.488 OA
BRANCH  24  25
ATOM     25  C   UNL A   1      32.597  27.634  26.599  1.00  0.00     0.265 C 
BRANCH  25  26
ATOM     26  C   UNL A   1      33.400  28.853  26.988  1.00  0.00    -0.011 A 
ATOM     27  C   UNL A   1      32.793  30.082  27.258  1.00  0.00     0.007 A 
ATOM     28  C   UNL A   1      34.796  28.790  27.047  1.00  0.00     0.007 A 
ATOM     29  C   UNL A   1      33.564  31.180  27.659  1.00  0.00     0.000 A 
ATOM     30  C   UNL A   1      35.562  29.852  27.523  1.00  0.00     0.000 A 
ATOM     31  C   UNL A   1      34.942  31.054  27.831  1.00  0.00     0.000 A 
ENDBRANCH  25  26
ENDBRANCH  24  25
ENDBRANCH  19  24
ENDBRANCH  16  17
ENDBRANCH  12  15
ENDBRANCH   5   6
ENDBRANCH   3   5
ENDBRANCH   2   3
ENDBRANCH   1   2
BRANCH   1  32
ATOM     32  C   UNL A   1      39.155  21.061  26.014  1.00  0.00     0.202 C 
BRANCH  32  33
ATOM     33  O   UNL A   1      39.635  22.133  26.812  1.00  0.00    -0.374 OA
BRANCH  33  34
ATOM     34  C   UNL A   1      40.951  22.041  27.372  1.00  0.00     0.202 C 
BRANCH  34  35
ATOM     35  C   UNL A   1      41.970  23.116  27.004  1.00  0.00     0.261 C 
BRANCH  35  36
ATOM     36  O   UNL A   1      41.322  24.306  26.545  1.00  0.00    -0.460 OA
BRANCH  36  37
ATOM     37  C   UNL A   1      42.108  25.406  26.495  1.00  0.00     0.338 C 
ATOM     38  O   UNL A   1      42.930  25.691  25.635  1.00  0.00    -0.246 OA
BRANCH  37  39
ATOM     39  C   UNL A   1      41.627  26.354  27.512  1.00  0.00     0.060 A 
ATOM     40  C   UNL A   1      42.380  27.515  27.754  1.00  0.00     0.016 A 
ATOM     41  C   UNL A   1      40.453  26.096  28.219  1.00  0.00     0.016 A 
ATOM     42  C   UNL A   1      41.989  28.400  28.751  1.00  0.00     0.010 A 
ATOM     43  C   UNL A   1      40.073  26.971  29.229  1.00  0.00     0.010 A 
ATOM     44  C   UNL A   1      40.866  28.094  29.526  1.00  0.00    -0.014 A 
BRANCH  44  45
ATOM     45  C   UNL A   1      40.635  28.787  30.807  1.00  0.00     0.031 A 
ATOM     46  C   UNL A   1      39.561  29.833  30.842  1.00  0.00     0.074 A 
ATOM     47  C   UNL A   1      41.406  28.537  31.877  1.00  0.00     0.049 A 
ATOM     48  N   UNL A   1      39.298  30.724  31.758  1.00  0.00    -0.248 NA
ATOM     49  C   UNL A   1      38.681  29.900  29.661  1.00  0.00     0.031 C 
ATOM     50  C   UNL A   1      42.443  27.510  31.949  1.00  0.00     0.029 A 
ATOM     51  N   UNL A   1      41.456  29.163  33.093  1.00  0.00    -0.354 N 
ATOM     52  C   UNL A   1      38.246  31.479  31.251  1.00  0.00     0.074 A 
ATOM     53  C   UNL A   1      37.936  30.957  29.939  1.00  0.00     0.031 C 
ATOM     54  C   UNL A   1      43.060  27.604  33.139  1.00  0.00     0.029 A 
ATOM     55  C   UNL A   1      42.489  28.725  33.885  1.00  0.00     0.049 A 
ATOM     56  H   UNL A   1      40.816  29.857  33.373  1.00  0.00     0.167 HD
ATOM     57  C   UNL A   1      37.605  32.518  31.833  1.00  0.00     0.037 A 
ATOM     58  C   UNL A   1      42.946  29.211  35.055  1.00  0.00     0.037 A 
ATOM     59  C   UNL A   1      37.943  33.021  33.138  1.00  0.00     0.049 A 
ATOM     60  C   UNL A   1      42.254  30.400  35.669  1.00  0.00     0.074 A 
ATOM     61  C   UNL A   1      37.351  34.048  33.845  1.00  0.00     0.029 A 
ATOM     62  N   UNL A   1      38.981  32.536  33.924  1.00  0.00    -0.354 N 
ATOM     63  N   UNL A   1      41.249  31.101  35.199  1.00  0.00    -0.248 NA
ATOM     64  C   UNL A   1      42.753  30.862  36.970  1.00  0.00     0.031 C 
ATOM     65  C   UNL A   1      38.068  34.226  35.033  1.00  0.00     0.029 A 
ATOM     66  C   UNL A   1      39.062  33.260  35.100  1.00  0.00     0.049 A 
ATOM     67  H   UNL A   1      39.573  31.787  33.680  1.00  0.00     0.167 HD
ATOM     68  C   UNL A   1      40.968  32.064  36.164  1.00  0.00     0.074 A 
ATOM     69  C   UNL A   1      41.917  31.857  37.240  1.00  0.00     0.031 C 
ATOM     70  C   UNL A   1      40.008  33.023  36.165  1.00  0.00     0.037 A 
BRANCH  57  71
ATOM     71  C   UNL A   1      36.523  33.198  31.039  1.00  0.00     0.058 A 
ATOM     72  C   UNL A   1      36.810  34.032  29.945  1.00  0.00     0.135 A 
ATOM     73  C   UNL A   1      35.173  33.026  31.390  1.00  0.00     0.135 A 
ATOM     74  F   UNL A   1      38.082  34.249  29.575  1.00  0.00    -0.206 F 
ATOM     75  C   UNL A   1      35.804  34.708  29.262  1.00  0.00     0.059 A 
ATOM     76  C   UNL A   1      34.149  33.664  30.698  1.00  0.00     0.059 A 
ATOM     77  F   UNL A   1      34.839  32.244  32.428  1.00  0.00    -0.206 F 
ATOM     78  C   UNL A   1      34.477  34.522  29.649  1.00  0.00     0.060 A 
BRANCH  78  79
ATOM     79  S   UNL A   1      33.187  35.428  28.772  1.00  0.00     0.124 S 
ATOM     80  O   UNL A   1      33.978  36.343  27.955  1.00  0.00    -0.237 OA
ATOM     81  O   UNL A   1      32.498  34.365  28.046  1.00  0.00    -0.237 OA
ATOM     82  O   UNL A   1      32.417  36.051  29.845  1.00  0.00    -0.744 OA
ENDBRANCH  78  79
ENDBRANCH  57  71
BRANCH  58  83
ATOM     83  C   UNL A   1      44.117  28.567  35.702  1.00  0.00     0.058 A 
ATOM     84  C   UNL A   1      45.422  28.993  35.417  1.00  0.00     0.135 A 
ATOM     85  C   UNL A   1      43.954  27.561  36.669  1.00  0.00     0.135 A 
ATOM     86  F   UNL A   1      45.630  29.945  34.494  1.00  0.00    -0.206 F 
ATOM     87  C   UNL A   1      46.523  28.454  36.073  1.00  0.00     0.059 A 
ATOM     88  C   UNL A   1      45.037  27.024  37.357  1.00  0.00     0.059 A 
ATOM     89  F   UNL A   1      42.724  27.128  36.986  1.00  0.00    -0.206 F 
ATOM     90  C   UNL A   1      46.320  27.478  37.051  1.00  0.00     0.060 A 
BRANCH  90  91
ATOM     91  S   UNL A   1      47.752  26.857  37.960  1.00  0.00     0.124 S 
ATOM     92  O   UNL A   1      47.330  25.500  38.285  1.00  0.00    -0.237 OA
ATOM     93  O   UNL A   1      48.815  26.975  36.967  1.00  0.00    -0.237 OA
ATOM     94  O   UNL A   1      47.856  27.774  39.091  1.00  0.00    -0.744 OA
ENDBRANCH  90  91
ENDBRANCH  58  83
BRANCH  70  95
ATOM     95  C   UNL A   1      39.881  33.887  37.389  1.00  0.00     0.058 A 
ATOM     96  C   UNL A   1      40.546  35.117  37.508  1.00  0.00     0.135 A 
ATOM     97  C   UNL A   1      38.997  33.517  38.417  1.00  0.00     0.135 A 
ATOM     98  F   UNL A   1      41.407  35.514  36.558  1.00  0.00    -0.206 F 
ATOM     99  C   UNL A   1      40.344  35.946  38.606  1.00  0.00     0.059 A 
ATOM    100  C   UNL A   1      38.757  34.343  39.508  1.00  0.00     0.059 A 
ATOM    101  F   UNL A   1      38.329  32.354  38.347  1.00  0.00    -0.206 F 
ATOM    102  C   UNL A   1      39.438  35.556  39.597  1.00  0.00     0.060 A 
BRANCH 102 103
ATOM    103  S   UNL A   1      39.135  36.672  40.981  1.00  0.00     0.124 S 
ATOM    104  O   UNL A   1      38.193  35.899  41.784  1.00  0.00    -0.237 OA
ATOM    105  O   UNL A   1      40.470  36.833  41.550  1.00  0.00    -0.237 OA
ATOM    106  O   UNL A   1      38.584  37.864  40.344  1.00  0.00    -0.744 OA
ENDBRANCH 102 103
ENDBRANCH  70  95
ENDBRANCH  44  45
ENDBRANCH  37  39
ENDBRANCH  36  37
ENDBRANCH  35  36
ENDBRANCH  34  35
ENDBRANCH  33  34
ENDBRANCH  32  33
ENDBRANCH   1  32
TORSDOF 23
ENDMDL
MODEL 2
REMARK VINA RESULT:     -10.6      0.980      7.966
REMARK SMILES O=C(C[C@H]1S/C(=[NH+]\N=C\c2cc(Br)ccc2OCc2ccccc2)NC1=O)OCCOCCOC(=O)c1ccc(-c2c3nc(c(-c4c(F)cc(S(=O)(=O)[O-])cc4F)c4ccc([nH]4)c(-c4c(F)cc(S(=O)(=O)[O-])cc4F)c4nc(c(-c5c(F)cc(S(=O)(=O)[O-])cc5F)c5ccc2[nH]5)C=C4)C=C3)cc1
REMARK SMILES IDX 29 1 28 2 2 3 1 4 3 5 4 6 5 7 26 8 6 9 25 10 27 11 7 12 8 15
REMARK SMILES IDX 9 16 10 17 11 18 16 19 12 20 15 21 13 22 14 23 17 24 18 25
REMARK SMILES IDX 19 26 20 27 24 28 21 29 23 30 22 31 30 32 31 33 32 34 33 35
REMARK SMILES IDX 34 36 35 37 36 38 37 39 38 40 102 41 39 42 101 43 40 44
REMARK SMILES IDX 41 45 42 46 95 47 43 48 100 49 94 50 96 51 44 52 99 53 93 54
REMARK SMILES IDX 92 55 45 57 79 58 58 59 78 60 59 61 62 62 77 63 97 64 60 65
REMARK SMILES IDX 61 66 76 68 98 69 63 70 46 71 47 72 56 73 48 74 49 75 55 76
REMARK SMILES IDX 57 77 50 78 51 79 52 80 53 81 54 82 80 83 81 84 90 85 82 86
REMARK SMILES IDX 83 87 89 88 91 89 84 90 85 91 86 92 87 93 88 94 64 95 65 96
REMARK SMILES IDX 74 97 66 98 67 99 73 100 75 101 68 102 69 103 70 104 71 105
REMARK SMILES IDX 72 106
REMARK H PARENT 25 13 7 14 96 56 62 67
REMARK Flexibility Score: inf
ROOT
ATOM      1  C   UNL A   1      37.146  21.783  24.075  1.00  0.00     0.261 C 
ENDROOT
BRANCH   1   2
ATOM      2  O   UNL A   1      36.428  22.611  23.158  1.00  0.00    -0.463 OA
BRANCH   2   3
ATOM      3  C   UNL A   1      35.136  22.968  23.278  1.00  0.00     0.307 C 
ATOM      4  O   UNL A   1      34.809  24.140  23.090  1.00  0.00    -0.252 OA
BRANCH   3   5
ATOM      5  C   UNL A   1      34.112  21.995  23.807  1.00  0.00     0.150 C 
BRANCH   5   6
ATOM      6  C   UNL A   1      33.922  21.940  25.312  1.00  0.00     0.184 C 
ATOM      7  S   UNL A   1      33.187  23.529  25.833  1.00  0.00    -0.020 SA
ATOM      8  C   UNL A   1      32.840  20.931  25.621  1.00  0.00     0.322 C 
ATOM      9  C   UNL A   1      31.620  22.879  25.492  1.00  0.00     0.337 C 
ATOM     10  N   UNL A   1      31.624  21.529  25.546  1.00  0.00    -0.202 N 
ATOM     11  O   UNL A   1      33.018  19.737  25.800  1.00  0.00    -0.246 OA
ATOM     12  N   UNL A   1      30.530  23.486  25.219  1.00  0.00    -0.142 N 
ATOM     13  H   UNL A   1      30.789  21.006  25.531  1.00  0.00     0.316 HD
ATOM     14  H   UNL A   1      29.711  22.982  25.009  1.00  0.00     0.343 HD
BRANCH  12  15
ATOM     15  N   UNL A   1      30.528  24.872  25.226  1.00  0.00    -0.093 NA
ATOM     16  C   UNL A   1      30.040  25.280  24.096  1.00  0.00     0.170 C 
BRANCH  16  17
ATOM     17  C   UNL A   1      30.211  26.628  23.582  1.00  0.00     0.040 A 
ATOM     18  C   UNL A   1      29.046  27.406  23.441  1.00  0.00     0.029 A 
ATOM     19  C   UNL A   1      31.469  27.127  23.217  1.00  0.00     0.128 A 
ATOM     20  C   UNL A   1      29.123  28.669  22.871  1.00  0.00     0.018 A 
ATOM     21  C   UNL A   1      31.502  28.390  22.602  1.00  0.00     0.048 A 
ATOM     22  Br  UNL A   1      27.564  29.721  22.686  1.00  0.00    -0.051 Br
ATOM     23  C   UNL A   1      30.345  29.157  22.427  1.00  0.00     0.019 A 
BRANCH  19  24
ATOM     24  O   UNL A   1      32.724  26.607  23.351  1.00  0.00    -0.488 OA
BRANCH  24  25
ATOM     25  C   UNL A   1      33.625  26.827  24.443  1.00  0.00     0.265 C 
BRANCH  25  26
ATOM     26  C   UNL A   1      33.184  27.816  25.497  1.00  0.00    -0.011 A 
ATOM     27  C   UNL A   1      33.597  29.151  25.476  1.00  0.00     0.007 A 
ATOM     28  C   UNL A   1      32.374  27.402  26.560  1.00  0.00     0.007 A 
ATOM     29  C   UNL A   1      33.134  30.050  26.444  1.00  0.00     0.000 A 
ATOM     30  C   UNL A   1      31.844  28.306  27.478  1.00  0.00     0.000 A 
ATOM     31  C   UNL A   1      32.227  29.638  27.419  1.00  0.00     0.000 A 
ENDBRANCH  25  26
ENDBRANCH  24  25
ENDBRANCH  19  24
ENDBRANCH  16  17
ENDBRANCH  12  15
ENDBRANCH   5   6
ENDBRANCH   3   5
ENDBRANCH   2   3
ENDBRANCH   1   2
BRANCH   1  32
ATOM     32  C   UNL A   1      37.319  22.327  25.495  1.00  0.00     0.202 C 
BRANCH  32  33
ATOM     33  O   UNL A   1      37.572  23.710  25.695  1.00  0.00    -0.374 OA
BRANCH  33  34
ATOM     34  C   UNL A   1      38.619  24.097  26.594  1.00  0.00     0.202 C 
BRANCH  34  35
ATOM     35  C   UNL A   1      39.842  23.192  26.711  1.00  0.00     0.261 C 
BRANCH  35  36
ATOM     36  O   UNL A   1      41.051  23.928  26.506  1.00  0.00    -0.460 OA
BRANCH  36  37
ATOM     37  C   UNL A   1      41.851  24.036  27.592  1.00  0.00     0.338 C 
ATOM     38  O   UNL A   1      42.793  23.316  27.894  1.00  0.00    -0.246 OA
BRANCH  37  39
ATOM     39  C   UNL A   1      41.574  25.331  28.232  1.00  0.00     0.060 A 
ATOM     40  C   UNL A   1      42.600  26.291  28.270  1.00  0.00     0.016 A 
ATOM     41  C   UNL A   1      40.323  25.592  28.788  1.00  0.00     0.016 A 
ATOM     42  C   UNL A   1      42.395  27.501  28.920  1.00  0.00     0.010 A 
ATOM     43  C   UNL A   1      40.124  26.794  29.456  1.00  0.00     0.010 A 
ATOM     44  C   UNL A   1      41.174  27.725  29.563  1.00  0.00    -0.014 A 
BRANCH  44  45
ATOM     45  C   UNL A   1      41.044  28.804  30.560  1.00  0.00     0.031 A 
ATOM     46  C   UNL A   1      41.916  28.725  31.778  1.00  0.00     0.074 A 
ATOM     47  C   UNL A   1      40.130  29.774  30.413  1.00  0.00     0.049 A 
ATOM     48  N   UNL A   1      41.857  29.409  32.888  1.00  0.00    -0.248 NA
ATOM     49  C   UNL A   1      42.986  27.712  31.747  1.00  0.00     0.031 C 
ATOM     50  C   UNL A   1      39.270  29.955  29.246  1.00  0.00     0.029 A 
ATOM     51  N   UNL A   1      39.750  30.766  31.276  1.00  0.00    -0.354 N 
ATOM     52  C   UNL A   1      42.856  28.886  33.700  1.00  0.00     0.074 A 
ATOM     53  C   UNL A   1      43.490  27.814  32.965  1.00  0.00     0.031 C 
ATOM     54  C   UNL A   1      38.428  30.975  29.484  1.00  0.00     0.029 A 
ATOM     55  C   UNL A   1      38.665  31.482  30.835  1.00  0.00     0.049 A 
ATOM     56  H   UNL A   1      40.209  30.949  32.128  1.00  0.00     0.167 HD
ATOM     57  C   UNL A   1      43.204  29.268  34.950  1.00  0.00     0.037 A 
ATOM     58  C   UNL A   1      37.921  32.405  31.474  1.00  0.00     0.037 A 
ATOM     59  C   UNL A   1      42.548  30.333  35.659  1.00  0.00     0.049 A 
ATOM     60  C   UNL A   1      38.289  32.787  32.884  1.00  0.00     0.074 A 
ATOM     61  C   UNL A   1      42.826  30.831  36.917  1.00  0.00     0.029 A 
ATOM     62  N   UNL A   1      41.466  31.055  35.171  1.00  0.00    -0.354 N 
ATOM     63  N   UNL A   1      39.245  32.307  33.645  1.00  0.00    -0.248 NA
ATOM     64  C   UNL A   1      37.484  33.836  33.522  1.00  0.00     0.031 C 
ATOM     65  C   UNL A   1      41.875  31.812  37.215  1.00  0.00     0.029 A 
ATOM     66  C   UNL A   1      41.049  31.978  36.113  1.00  0.00     0.049 A 
ATOM     67  H   UNL A   1      41.055  30.928  34.284  1.00  0.00     0.167 HD
ATOM     68  C   UNL A   1      39.182  33.020  34.838  1.00  0.00     0.074 A 
ATOM     69  C   UNL A   1      38.087  33.960  34.698  1.00  0.00     0.031 C 
ATOM     70  C   UNL A   1      39.964  32.916  35.942  1.00  0.00     0.037 A 
BRANCH  57  71
ATOM     71  C   UNL A   1      44.301  28.495  35.631  1.00  0.00     0.058 A 
ATOM     72  C   UNL A   1      45.657  28.834  35.485  1.00  0.00     0.135 A 
ATOM     73  C   UNL A   1      43.990  27.383  36.431  1.00  0.00     0.135 A 
ATOM     74  F   UNL A   1      46.016  29.875  34.717  1.00  0.00    -0.206 F 
ATOM     75  C   UNL A   1      46.665  28.070  36.065  1.00  0.00     0.059 A 
ATOM     76  C   UNL A   1      44.980  26.626  37.051  1.00  0.00     0.059 A 
ATOM     77  F   UNL A   1      42.713  27.010  36.604  1.00  0.00    -0.206 F 
ATOM     78  C   UNL A   1      46.317  26.964  36.842  1.00  0.00     0.060 A 
BRANCH  78  79
ATOM     79  S   UNL A   1      47.636  25.967  37.564  1.00  0.00     0.124 S 
ATOM     80  O   UNL A   1      47.249  24.624  37.143  1.00  0.00    -0.237 OA
ATOM     81  O   UNL A   1      48.827  26.514  36.921  1.00  0.00    -0.237 OA
ATOM     82  O   UNL A   1      47.521  26.233  38.995  1.00  0.00    -0.744 OA
ENDBRANCH  78  79
ENDBRANCH  57  71
BRANCH  58  83
ATOM     83  C   UNL A   1      36.761  33.016  30.775  1.00  0.00     0.058 A 
ATOM     84  C   UNL A   1      35.448  32.675  31.128  1.00  0.00     0.135 A 
ATOM     85  C   UNL A   1      36.940  34.002  29.792  1.00  0.00     0.135 A 
ATOM     86  F   UNL A   1      35.226  31.732  32.056  1.00  0.00    -0.206 F 
ATOM     87  C   UNL A   1      34.352  33.296  30.538  1.00  0.00     0.059 A 
ATOM     88  C   UNL A   1      35.860  34.655  29.205  1.00  0.00     0.059 A 
ATOM     89  F   UNL A   1      38.177  34.372  29.429  1.00  0.00    -0.206 F 
ATOM     90  C   UNL A   1      34.569  34.294  29.586  1.00  0.00     0.060 A 
BRANCH  90  91
ATOM     91  S   UNL A   1      33.137  35.155  28.900  1.00  0.00     0.124 S 
ATOM     92  O   UNL A   1      32.308  35.340  30.086  1.00  0.00    -0.237 OA
ATOM     93  O   UNL A   1      33.743  36.362  28.350  1.00  0.00    -0.237 OA
ATOM     94  O   UNL A   1      32.621  34.214  27.910  1.00  0.00    -0.744 OA
ENDBRANCH  90  91
ENDBRANCH  58  83
BRANCH  70  95
ATOM     95  C   UNL A   1      39.717  33.880  37.069  1.00  0.00     0.058 A 
ATOM     96  C   UNL A   1      38.982  33.524  38.210  1.00  0.00     0.135 A 
ATOM     97  C   UNL A   1      40.316  35.151  37.046  1.00  0.00     0.135 A 
ATOM     98  F   UNL A   1      38.382  32.324  38.281  1.00  0.00    -0.206 F 
ATOM     99  C   UNL A   1      38.842  34.397  39.284  1.00  0.00     0.059 A 
ATOM    100  C   UNL A   1      40.216  36.027  38.119  1.00  0.00     0.059 A 
ATOM    101  F   UNL A   1      41.039  35.537  35.981  1.00  0.00    -0.206 F 
ATOM    102  C   UNL A   1      39.473  35.643  39.234  1.00  0.00     0.060 A 
BRANCH 102 103
ATOM    103  S   UNL A   1      39.341  36.738  40.662  1.00  0.00     0.124 S 
ATOM    104  O   UNL A   1      40.715  36.755  41.149  1.00  0.00    -0.237 OA
ATOM    105  O   UNL A   1      38.865  37.980  40.059  1.00  0.00    -0.237 OA
ATOM    106  O   UNL A   1      38.378  36.059  41.524  1.00  0.00    -0.744 OA
ENDBRANCH 102 103
ENDBRANCH  70  95
ENDBRANCH  44  45
ENDBRANCH  37  39
ENDBRANCH  36  37
ENDBRANCH  35  36
ENDBRANCH  34  35
ENDBRANCH  33  34
ENDBRANCH  32  33
ENDBRANCH   1  32
TORSDOF 23
ENDMDL
MODEL 3
REMARK VINA RESULT:     -10.6      1.558      8.217
REMARK SMILES O=C(C[C@H]1S/C(=[NH+]\N=C\c2cc(Br)ccc2OCc2ccccc2)NC1=O)OCCOCCOC(=O)c1ccc(-c2c3nc(c(-c4c(F)cc(S(=O)(=O)[O-])cc4F)c4ccc([nH]4)c(-c4c(F)cc(S(=O)(=O)[O-])cc4F)c4nc(c(-c5c(F)cc(S(=O)(=O)[O-])cc5F)c5ccc2[nH]5)C=C4)C=C3)cc1
REMARK SMILES IDX 29 1 28 2 2 3 1 4 3 5 4 6 5 7 26 8 6 9 25 10 27 11 7 12 8 15
REMARK SMILES IDX 9 16 10 17 11 18 16 19 12 20 15 21 13 22 14 23 17 24 18 25
REMARK SMILES IDX 19 26 20 27 24 28 21 29 23 30 22 31 30 32 31 33 32 34 33 35
REMARK SMILES IDX 34 36 35 37 36 38 37 39 38 40 102 41 39 42 101 43 40 44
REMARK SMILES IDX 41 45 42 46 95 47 43 48 100 49 94 50 96 51 44 52 99 53 93 54
REMARK SMILES IDX 92 55 45 57 79 58 58 59 78 60 59 61 62 62 77 63 97 64 60 65
REMARK SMILES IDX 61 66 76 68 98 69 63 70 46 71 47 72 56 73 48 74 49 75 55 76
REMARK SMILES IDX 57 77 50 78 51 79 52 80 53 81 54 82 80 83 81 84 90 85 82 86
REMARK SMILES IDX 83 87 89 88 91 89 84 90 85 91 86 92 87 93 88 94 64 95 65 96
REMARK SMILES IDX 74 97 66 98 67 99 73 100 75 101 68 102 69 103 70 104 71 105
REMARK SMILES IDX 72 106
REMARK H PARENT 25 13 7 14 96 56 62 67
REMARK Flexibility Score: inf
ROOT
ATOM      1  C   UNL A   1      37.413  21.133  24.677  1.00  0.00     0.261 C 
ENDROOT
BRANCH   1   2
ATOM      2  O   UNL A   1      36.757  22.403  24.677  1.00  0.00    -0.463 OA
BRANCH   2   3
ATOM      3  C   UNL A   1      35.565  22.664  24.109  1.00  0.00     0.307 C 
ATOM      4  O   UNL A   1      35.333  23.793  23.673  1.00  0.00    -0.252 OA
BRANCH   3   5
ATOM      5  C   UNL A   1      34.449  21.651  24.155  1.00  0.00     0.150 C 
BRANCH   5   6
ATOM      6  C   UNL A   1      33.815  21.379  25.508  1.00  0.00     0.184 C 
ATOM      7  S   UNL A   1      33.914  22.921  26.482  1.00  0.00    -0.020 SA
ATOM      8  C   UNL A   1      32.331  21.181  25.309  1.00  0.00     0.322 C 
ATOM      9  C   UNL A   1      32.430  23.436  25.757  1.00  0.00     0.337 C 
ATOM     10  N   UNL A   1      31.704  22.384  25.321  1.00  0.00    -0.202 N 
ATOM     11  O   UNL A   1      31.786  20.116  25.064  1.00  0.00    -0.246 OA
ATOM     12  N   UNL A   1      31.968  24.617  25.604  1.00  0.00    -0.142 N 
ATOM     13  H   UNL A   1      30.769  22.486  25.026  1.00  0.00     0.316 HD
ATOM     14  H   UNL A   1      31.116  24.768  25.136  1.00  0.00     0.343 HD
BRANCH  12  15
ATOM     15  N   UNL A   1      32.697  25.682  26.111  1.00  0.00    -0.093 NA
ATOM     16  C   UNL A   1      31.912  26.712  26.177  1.00  0.00     0.170 C 
BRANCH  16  17
ATOM     17  C   UNL A   1      32.383  28.081  26.303  1.00  0.00     0.040 A 
ATOM     18  C   UNL A   1      33.566  28.278  27.040  1.00  0.00     0.029 A 
ATOM     19  C   UNL A   1      31.685  29.159  25.742  1.00  0.00     0.128 A 
ATOM     20  C   UNL A   1      34.025  29.567  27.278  1.00  0.00     0.018 A 
ATOM     21  C   UNL A   1      32.153  30.449  26.042  1.00  0.00     0.048 A 
ATOM     22  Br  UNL A   1      35.616  29.839  28.260  1.00  0.00    -0.051 Br
ATOM     23  C   UNL A   1      33.309  30.657  26.802  1.00  0.00     0.019 A 
BRANCH  19  24
ATOM     24  O   UNL A   1      30.594  29.204  24.923  1.00  0.00    -0.488 OA
BRANCH  24  25
ATOM     25  C   UNL A   1      30.599  29.113  23.493  1.00  0.00     0.265 C 
BRANCH  25  26
ATOM     26  C   UNL A   1      31.500  28.065  22.882  1.00  0.00    -0.011 A 
ATOM     27  C   UNL A   1      32.836  28.328  22.574  1.00  0.00     0.007 A 
ATOM     28  C   UNL A   1      30.996  26.798  22.567  1.00  0.00     0.007 A 
ATOM     29  C   UNL A   1      33.655  27.321  22.050  1.00  0.00     0.000 A 
ATOM     30  C   UNL A   1      31.822  25.767  22.122  1.00  0.00     0.000 A 
ATOM     31  C   UNL A   1      33.159  26.031  21.863  1.00  0.00     0.000 A 
ENDBRANCH  25  26
ENDBRANCH  24  25
ENDBRANCH  19  24
ENDBRANCH  16  17
ENDBRANCH  12  15
ENDBRANCH   5   6
ENDBRANCH   3   5
ENDBRANCH   2   3
ENDBRANCH   1   2
BRANCH   1  32
ATOM     32  C   UNL A   1      38.562  20.959  25.674  1.00  0.00     0.202 C 
BRANCH  32  33
ATOM     33  O   UNL A   1      39.217  22.102  26.204  1.00  0.00    -0.374 OA
BRANCH  33  34
ATOM     34  C   UNL A   1      40.425  21.920  26.952  1.00  0.00     0.202 C 
BRANCH  34  35
ATOM     35  C   UNL A   1      41.730  22.441  26.356  1.00  0.00     0.261 C 
BRANCH  35  36
ATOM     36  O   UNL A   1      41.721  23.868  26.261  1.00  0.00    -0.460 OA
BRANCH  36  37
ATOM     37  C   UNL A   1      42.794  24.488  26.804  1.00  0.00     0.338 C 
ATOM     38  O   UNL A   1      43.973  24.296  26.542  1.00  0.00    -0.246 OA
BRANCH  37  39
ATOM     39  C   UNL A   1      42.307  25.636  27.585  1.00  0.00     0.060 A 
ATOM     40  C   UNL A   1      42.950  26.874  27.425  1.00  0.00     0.016 A 
ATOM     41  C   UNL A   1      41.235  25.488  28.464  1.00  0.00     0.016 A 
ATOM     42  C   UNL A   1      42.558  27.964  28.192  1.00  0.00     0.010 A 
ATOM     43  C   UNL A   1      40.855  26.573  29.245  1.00  0.00     0.010 A 
ATOM     44  C   UNL A   1      41.548  27.793  29.144  1.00  0.00    -0.014 A 
BRANCH  44  45
ATOM     45  C   UNL A   1      41.359  28.788  30.216  1.00  0.00     0.031 A 
ATOM     46  C   UNL A   1      42.211  28.651  31.442  1.00  0.00     0.074 A 
ATOM     47  C   UNL A   1      40.410  29.733  30.122  1.00  0.00     0.049 A 
ATOM     48  N   UNL A   1      42.106  29.247  32.598  1.00  0.00    -0.248 NA
ATOM     49  C   UNL A   1      43.320  27.684  31.358  1.00  0.00     0.031 C 
ATOM     50  C   UNL A   1      39.565  29.968  28.954  1.00  0.00     0.029 A 
ATOM     51  N   UNL A   1      39.977  30.642  31.049  1.00  0.00    -0.354 N 
ATOM     52  C   UNL A   1      43.110  28.702  33.390  1.00  0.00     0.074 A 
ATOM     53  C   UNL A   1      43.798  27.713  32.590  1.00  0.00     0.031 C 
ATOM     54  C   UNL A   1      38.680  30.936  29.250  1.00  0.00     0.029 A 
ATOM     55  C   UNL A   1      38.873  31.348  30.640  1.00  0.00     0.049 A 
ATOM     56  H   UNL A   1      40.413  30.777  31.921  1.00  0.00     0.167 HD
ATOM     57  C   UNL A   1      43.421  29.002  34.671  1.00  0.00     0.037 A 
ATOM     58  C   UNL A   1      38.083  32.192  31.331  1.00  0.00     0.037 A 
ATOM     59  C   UNL A   1      42.711  29.986  35.444  1.00  0.00     0.049 A 
ATOM     60  C   UNL A   1      38.410  32.481  32.773  1.00  0.00     0.074 A 
ATOM     61  C   UNL A   1      42.948  30.397  36.742  1.00  0.00     0.029 A 
ATOM     62  N   UNL A   1      41.610  30.701  34.989  1.00  0.00    -0.354 N 
ATOM     63  N   UNL A   1      39.371  31.980  33.515  1.00  0.00    -0.248 NA
ATOM     64  C   UNL A   1      37.554  33.447  33.470  1.00  0.00     0.031 C 
ATOM     65  C   UNL A   1      41.954  31.317  37.091  1.00  0.00     0.029 A 
ATOM     66  C   UNL A   1      41.142  31.535  35.988  1.00  0.00     0.049 A 
ATOM     67  H   UNL A   1      41.221  30.626  34.087  1.00  0.00     0.167 HD
ATOM     68  C   UNL A   1      39.258  32.599  34.756  1.00  0.00     0.074 A 
ATOM     69  C   UNL A   1      38.131  33.506  34.664  1.00  0.00     0.031 C 
ATOM     70  C   UNL A   1      40.024  32.442  35.865  1.00  0.00     0.037 A 
BRANCH  57  71
ATOM     71  C   UNL A   1      44.534  28.221  35.316  1.00  0.00     0.058 A 
ATOM     72  C   UNL A   1      45.887  28.554  35.129  1.00  0.00     0.135 A 
ATOM     73  C   UNL A   1      44.243  27.108  36.121  1.00  0.00     0.135 A 
ATOM     74  F   UNL A   1      46.227  29.597  34.354  1.00  0.00    -0.206 F 
ATOM     75  C   UNL A   1      46.908  27.784  35.675  1.00  0.00     0.059 A 
ATOM     76  C   UNL A   1      45.248  26.344  36.707  1.00  0.00     0.059 A 
ATOM     77  F   UNL A   1      42.970  26.740  36.332  1.00  0.00    -0.206 F 
ATOM     78  C   UNL A   1      46.579  26.677  36.459  1.00  0.00     0.060 A 
BRANCH  78  79
ATOM     79  S   UNL A   1      47.915  25.671  37.135  1.00  0.00     0.124 S 
ATOM     80  O   UNL A   1      48.857  25.650  36.021  1.00  0.00    -0.237 OA
ATOM     81  O   UNL A   1      48.329  26.446  38.301  1.00  0.00    -0.237 OA
ATOM     82  O   UNL A   1      47.266  24.397  37.432  1.00  0.00    -0.744 OA
ENDBRANCH  78  79
ENDBRANCH  57  71
BRANCH  58  83
ATOM     83  C   UNL A   1      36.912  32.810  30.655  1.00  0.00     0.058 A 
ATOM     84  C   UNL A   1      35.609  32.382  30.940  1.00  0.00     0.135 A 
ATOM     85  C   UNL A   1      37.069  33.886  29.766  1.00  0.00     0.135 A 
ATOM     86  F   UNL A   1      35.408  31.352  31.776  1.00  0.00    -0.206 F 
ATOM     87  C   UNL A   1      34.499  33.002  30.376  1.00  0.00     0.059 A 
ATOM     88  C   UNL A   1      35.974  34.540  29.209  1.00  0.00     0.059 A 
ATOM     89  F   UNL A   1      38.296  34.341  29.472  1.00  0.00    -0.206 F 
ATOM     90  C   UNL A   1      34.692  34.090  29.520  1.00  0.00     0.060 A 
BRANCH  90  91
ATOM     91  S   UNL A   1      33.238  34.943  28.872  1.00  0.00     0.124 S 
ATOM     92  O   UNL A   1      32.696  33.948  27.954  1.00  0.00    -0.237 OA
ATOM     93  O   UNL A   1      32.462  35.184  30.084  1.00  0.00    -0.237 OA
ATOM     94  O   UNL A   1      33.800  36.137  28.248  1.00  0.00    -0.744 OA
ENDBRANCH  90  91
ENDBRANCH  58  83
BRANCH  70  95
ATOM     95  C   UNL A   1      39.720  33.309  37.056  1.00  0.00     0.058 A 
ATOM     96  C   UNL A   1      38.808  32.921  38.049  1.00  0.00     0.135 A 
ATOM     97  C   UNL A   1      40.433  34.504  37.251  1.00  0.00     0.135 A 
ATOM     98  F   UNL A   1      38.095  31.792  37.909  1.00  0.00    -0.206 F 
ATOM     99  C   UNL A   1      38.609  33.691  39.190  1.00  0.00     0.059 A 
ATOM    100  C   UNL A   1      40.273  35.273  38.397  1.00  0.00     0.059 A 
ATOM    101  F   UNL A   1      41.326  34.914  36.334  1.00  0.00    -0.206 F 
ATOM    102  C   UNL A   1      39.355  34.861  39.360  1.00  0.00     0.060 A 
BRANCH 102 103
ATOM    103  S   UNL A   1      39.136  35.815  40.876  1.00  0.00     0.124 S 
ATOM    104  O   UNL A   1      37.901  35.246  41.407  1.00  0.00    -0.237 OA
ATOM    105  O   UNL A   1      40.351  35.499  41.621  1.00  0.00    -0.237 OA
ATOM    106  O   UNL A   1      39.039  37.192  40.401  1.00  0.00    -0.744 OA
ENDBRANCH 102 103
ENDBRANCH  70  95
ENDBRANCH  44  45
ENDBRANCH  37  39
ENDBRANCH  36  37
ENDBRANCH  35  36
ENDBRANCH  34  35
ENDBRANCH  33  34
ENDBRANCH  32  33
ENDBRANCH   1  32
TORSDOF 23
ENDMDL
