MODEL 1
REMARK VINA RESULT:     -11.1      0.000      0.000
REMARK SMILES O=C(Cn1c(SCCc2ccccc2)nc2ccccc21)OCCOCCOC(=O)c1ccc(-c2c3nc(c(-c4c(F)cc(S(=O)(=O)[O-])cc4F)c4ccc([nH]4)c(-c4c(F)cc(S(=O)(=O)[O-])cc4F)c4nc(c(-c5c(F)cc(S(=O)(=O)[O-])cc5F)c5ccc2[nH]5)C=C4)C=C3)cc1
REMARK SMILES IDX 24 1 23 2 22 3 2 4 1 5 3 6 4 7 5 8 21 9 15 10 16 11 20 12
REMARK SMILES IDX 17 13 19 14 18 15 6 16 7 17 8 18 9 19 10 20 14 21 11 22
REMARK SMILES IDX 13 23 12 24 25 25 26 26 27 27 28 28 29 29 30 30 31 31 32 32
REMARK SMILES IDX 96 33 33 34 95 35 34 36 35 37 36 38 89 39 37 40 94 41 88 42
REMARK SMILES IDX 90 43 38 44 93 45 87 46 86 47 39 49 73 50 52 51 72 52 53 53
REMARK SMILES IDX 56 54 71 55 91 56 54 57 55 58 70 60 92 61 57 62 40 63 41 64
REMARK SMILES IDX 50 65 42 66 43 67 49 68 51 69 44 70 45 71 46 72 47 73 48 74
REMARK SMILES IDX 74 75 75 76 84 77 76 78 77 79 83 80 85 81 78 82 79 83 80 84
REMARK SMILES IDX 81 85 82 86 58 87 59 88 68 89 60 90 61 91 67 92 69 93 62 94
REMARK SMILES IDX 63 95 64 96 65 97 66 98
REMARK H PARENT 90 48 56 59
REMARK Flexibility Score: inf
ROOT
ATOM      1  C   UNL A   1      35.614  22.711  26.489  1.00  0.00     0.202 C 
ENDROOT
BRANCH   1   2
ATOM      2  C   UNL A   1      34.184  22.476  26.979  1.00  0.00     0.261 C 
BRANCH   2   3
ATOM      3  O   UNL A   1      33.350  23.375  26.236  1.00  0.00    -0.462 OA
BRANCH   3   4
ATOM      4  C   UNL A   1      32.055  23.472  26.620  1.00  0.00     0.326 C 
ATOM      5  O   UNL A   1      31.612  24.374  27.316  1.00  0.00    -0.250 OA
BRANCH   4   6
ATOM      6  C   UNL A   1      31.259  22.299  26.068  1.00  0.00     0.247 C 
BRANCH   6   7
ATOM      7  N   UNL A   1      31.702  21.845  24.755  1.00  0.00    -0.308 N 
ATOM      8  C   UNL A   1      31.564  22.482  23.529  1.00  0.00     0.169 A 
ATOM      9  C   UNL A   1      32.189  20.568  24.504  1.00  0.00     0.069 A 
ATOM     10  N   UNL A   1      31.899  21.688  22.539  1.00  0.00    -0.222 NA
ATOM     11  C   UNL A   1      32.211  20.479  23.114  1.00  0.00     0.090 A 
ATOM     12  C   UNL A   1      32.526  19.480  25.326  1.00  0.00     0.028 A 
ATOM     13  C   UNL A   1      32.473  19.243  22.507  1.00  0.00     0.030 A 
ATOM     14  C   UNL A   1      32.765  18.250  24.706  1.00  0.00     0.002 A 
ATOM     15  C   UNL A   1      32.699  18.130  23.321  1.00  0.00     0.002 A 
BRANCH   8  16
ATOM     16  S   UNL A   1      31.072  24.133  23.254  1.00  0.00    -0.088 SA
BRANCH  16  17
ATOM     17  C   UNL A   1      32.515  25.124  22.661  1.00  0.00     0.083 C 
BRANCH  17  18
ATOM     18  C   UNL A   1      33.716  25.536  23.557  1.00  0.00     0.047 C 
BRANCH  18  19
ATOM     19  C   UNL A   1      33.580  26.804  24.342  1.00  0.00    -0.047 A 
ATOM     20  C   UNL A   1      33.196  28.019  23.768  1.00  0.00     0.004 A 
ATOM     21  C   UNL A   1      33.860  26.780  25.696  1.00  0.00     0.004 A 
ATOM     22  C   UNL A   1      33.155  29.163  24.554  1.00  0.00     0.000 A 
ATOM     23  C   UNL A   1      33.628  27.851  26.515  1.00  0.00     0.000 A 
ATOM     24  C   UNL A   1      33.427  29.051  25.907  1.00  0.00     0.000 A 
ENDBRANCH  18  19
ENDBRANCH  17  18
ENDBRANCH  16  17
ENDBRANCH   8  16
ENDBRANCH   6   7
ENDBRANCH   4   6
ENDBRANCH   3   4
ENDBRANCH   2   3
ENDBRANCH   1   2
BRANCH   1  25
ATOM     25  O   UNL A   1      35.893  22.372  25.138  1.00  0.00    -0.374 OA
BRANCH  25  26
ATOM     26  C   UNL A   1      36.538  21.125  24.960  1.00  0.00     0.202 C 
BRANCH  26  27
ATOM     27  C   UNL A   1      38.075  21.168  25.045  1.00  0.00     0.261 C 
BRANCH  27  28
ATOM     28  O   UNL A   1      38.567  21.558  26.349  1.00  0.00    -0.460 OA
BRANCH  28  29
ATOM     29  C   UNL A   1      39.878  21.976  26.397  1.00  0.00     0.338 C 
ATOM     30  O   UNL A   1      40.799  21.487  25.789  1.00  0.00    -0.246 OA
BRANCH  29  31
ATOM     31  C   UNL A   1      39.955  23.311  27.095  1.00  0.00     0.060 A 
ATOM     32  C   UNL A   1      38.992  24.311  26.922  1.00  0.00     0.016 A 
ATOM     33  C   UNL A   1      41.150  23.630  27.762  1.00  0.00     0.016 A 
ATOM     34  C   UNL A   1      39.238  25.618  27.387  1.00  0.00     0.010 A 
ATOM     35  C   UNL A   1      41.388  24.937  28.231  1.00  0.00     0.010 A 
ATOM     36  C   UNL A   1      40.443  25.960  28.037  1.00  0.00    -0.014 A 
BRANCH  36  37
ATOM     37  C   UNL A   1      40.526  27.249  28.793  1.00  0.00     0.031 A 
ATOM     38  C   UNL A   1      41.669  28.028  28.267  1.00  0.00     0.074 A 
ATOM     39  C   UNL A   1      39.827  27.876  29.786  1.00  0.00     0.049 A 
ATOM     40  N   UNL A   1      42.762  28.237  28.918  1.00  0.00    -0.248 NA
ATOM     41  C   UNL A   1      41.694  28.446  26.862  1.00  0.00     0.031 C 
ATOM     42  C   UNL A   1      38.680  27.450  30.582  1.00  0.00     0.029 A 
ATOM     43  N   UNL A   1      39.981  29.166  30.266  1.00  0.00    -0.354 N 
ATOM     44  C   UNL A   1      43.532  29.026  28.091  1.00  0.00     0.074 A 
ATOM     45  C   UNL A   1      42.915  28.979  26.787  1.00  0.00     0.031 C 
ATOM     46  C   UNL A   1      38.027  28.494  31.126  1.00  0.00     0.029 A 
ATOM     47  C   UNL A   1      38.877  29.650  30.968  1.00  0.00     0.049 A 
ATOM     48  H   UNL A   1      40.798  29.696  30.124  1.00  0.00     0.167 HD
ATOM     49  C   UNL A   1      44.473  29.852  28.611  1.00  0.00     0.037 A 
ATOM     50  C   UNL A   1      38.665  30.823  31.609  1.00  0.00     0.037 A 
ATOM     51  C   UNL A   1      44.827  29.497  29.964  1.00  0.00     0.049 A 
ATOM     52  C   UNL A   1      39.979  31.329  32.046  1.00  0.00     0.074 A 
ATOM     53  C   UNL A   1      45.258  28.334  30.574  1.00  0.00     0.029 A 
ATOM     54  N   UNL A   1      44.442  30.329  30.986  1.00  0.00    -0.354 N 
ATOM     55  N   UNL A   1      40.675  30.817  33.024  1.00  0.00    -0.248 NA
ATOM     56  C   UNL A   1      40.715  32.187  31.139  1.00  0.00     0.031 C 
ATOM     57  C   UNL A   1      44.682  28.353  31.875  1.00  0.00     0.029 A 
ATOM     58  C   UNL A   1      43.982  29.552  32.023  1.00  0.00     0.049 A 
ATOM     59  H   UNL A   1      44.486  31.312  30.978  1.00  0.00     0.167 HD
ATOM     60  C   UNL A   1      41.984  30.885  32.587  1.00  0.00     0.074 A 
ATOM     61  C   UNL A   1      41.957  31.864  31.502  1.00  0.00     0.031 C 
ATOM     62  C   UNL A   1      42.914  29.943  32.937  1.00  0.00     0.037 A 
BRANCH  49  63
ATOM     63  C   UNL A   1      44.787  31.181  27.996  1.00  0.00     0.058 A 
ATOM     64  C   UNL A   1      46.078  31.431  27.502  1.00  0.00     0.135 A 
ATOM     65  C   UNL A   1      43.933  32.302  28.109  1.00  0.00     0.135 A 
ATOM     66  F   UNL A   1      46.972  30.436  27.396  1.00  0.00    -0.206 F 
ATOM     67  C   UNL A   1      46.505  32.717  27.180  1.00  0.00     0.059 A 
ATOM     68  C   UNL A   1      44.316  33.580  27.734  1.00  0.00     0.059 A 
ATOM     69  F   UNL A   1      42.724  32.223  28.683  1.00  0.00    -0.206 F 
ATOM     70  C   UNL A   1      45.618  33.784  27.311  1.00  0.00     0.060 A 
BRANCH  70  71
ATOM     71  S   UNL A   1      46.201  35.458  27.002  1.00  0.00     0.124 S 
ATOM     72  O   UNL A   1      45.112  36.247  27.567  1.00  0.00    -0.237 OA
ATOM     73  O   UNL A   1      47.460  35.480  27.739  1.00  0.00    -0.237 OA
ATOM     74  O   UNL A   1      46.329  35.504  25.550  1.00  0.00    -0.744 OA
ENDBRANCH  70  71
ENDBRANCH  49  63
BRANCH  50  75
ATOM     75  C   UNL A   1      37.390  31.571  31.735  1.00  0.00     0.058 A 
ATOM     76  C   UNL A   1      36.831  31.880  32.987  1.00  0.00     0.135 A 
ATOM     77  C   UNL A   1      36.842  32.250  30.625  1.00  0.00     0.135 A 
ATOM     78  F   UNL A   1      37.283  31.278  34.096  1.00  0.00    -0.206 F 
ATOM     79  C   UNL A   1      35.852  32.868  33.140  1.00  0.00     0.059 A 
ATOM     80  C   UNL A   1      35.860  33.232  30.752  1.00  0.00     0.059 A 
ATOM     81  F   UNL A   1      37.321  32.046  29.388  1.00  0.00    -0.206 F 
ATOM     82  C   UNL A   1      35.401  33.566  32.020  1.00  0.00     0.060 A 
BRANCH  82  83
ATOM     83  S   UNL A   1      34.340  35.013  32.247  1.00  0.00     0.124 S 
ATOM     84  O   UNL A   1      34.114  35.446  30.873  1.00  0.00    -0.237 OA
ATOM     85  O   UNL A   1      33.186  34.441  32.933  1.00  0.00    -0.237 OA
ATOM     86  O   UNL A   1      35.157  35.911  33.059  1.00  0.00    -0.744 OA
ENDBRANCH  82  83
ENDBRANCH  50  75
BRANCH  62  87
ATOM     87  C   UNL A   1      42.720  29.067  34.171  1.00  0.00     0.058 A 
ATOM     88  C   UNL A   1      41.830  27.986  34.303  1.00  0.00     0.135 A 
ATOM     89  C   UNL A   1      43.621  29.252  35.246  1.00  0.00     0.135 A 
ATOM     90  F   UNL A   1      40.991  27.635  33.317  1.00  0.00    -0.206 F 
ATOM     91  C   UNL A   1      41.839  27.150  35.427  1.00  0.00     0.059 A 
ATOM     92  C   UNL A   1      43.703  28.376  36.329  1.00  0.00     0.059 A 
ATOM     93  F   UNL A   1      44.501  30.267  35.221  1.00  0.00    -0.206 F 
ATOM     94  C   UNL A   1      42.819  27.310  36.401  1.00  0.00     0.060 A 
BRANCH  94  95
ATOM     95  S   UNL A   1      42.976  26.073  37.706  1.00  0.00     0.124 S 
ATOM     96  O   UNL A   1      43.612  24.954  37.020  1.00  0.00    -0.237 OA
ATOM     97  O   UNL A   1      43.808  26.777  38.680  1.00  0.00    -0.237 OA
ATOM     98  O   UNL A   1      41.596  25.841  38.122  1.00  0.00    -0.744 OA
ENDBRANCH  94  95
ENDBRANCH  62  87
ENDBRANCH  36  37
ENDBRANCH  29  31
ENDBRANCH  28  29
ENDBRANCH  27  28
ENDBRANCH  26  27
ENDBRANCH  25  26
ENDBRANCH   1  25
TORSDOF 22
ENDMDL
MODEL 2
REMARK VINA RESULT:     -10.7      1.706      3.782
REMARK SMILES O=C(Cn1c(SCCc2ccccc2)nc2ccccc21)OCCOCCOC(=O)c1ccc(-c2c3nc(c(-c4c(F)cc(S(=O)(=O)[O-])cc4F)c4ccc([nH]4)c(-c4c(F)cc(S(=O)(=O)[O-])cc4F)c4nc(c(-c5c(F)cc(S(=O)(=O)[O-])cc5F)c5ccc2[nH]5)C=C4)C=C3)cc1
REMARK SMILES IDX 24 1 23 2 22 3 2 4 1 5 3 6 4 7 5 8 21 9 15 10 16 11 20 12
REMARK SMILES IDX 17 13 19 14 18 15 6 16 7 17 8 18 9 19 10 20 14 21 11 22
REMARK SMILES IDX 13 23 12 24 25 25 26 26 27 27 28 28 29 29 30 30 31 31 32 32
REMARK SMILES IDX 96 33 33 34 95 35 34 36 35 37 36 38 89 39 37 40 94 41 88 42
REMARK SMILES IDX 90 43 38 44 93 45 87 46 86 47 39 49 73 50 52 51 72 52 53 53
REMARK SMILES IDX 56 54 71 55 91 56 54 57 55 58 70 60 92 61 57 62 40 63 41 64
REMARK SMILES IDX 50 65 42 66 43 67 49 68 51 69 44 70 45 71 46 72 47 73 48 74
REMARK SMILES IDX 74 75 75 76 84 77 76 78 77 79 83 80 85 81 78 82 79 83 80 84
REMARK SMILES IDX 81 85 82 86 58 87 59 88 68 89 60 90 61 91 67 92 69 93 62 94
REMARK SMILES IDX 63 95 64 96 65 97 66 98
REMARK H PARENT 90 48 56 59
REMARK Flexibility Score: inf
ROOT
ATOM      1  C   UNL A   1      35.629  23.970  25.214  1.00  0.00     0.202 C 
ENDROOT
BRANCH   1   2
ATOM      2  C   UNL A   1      34.468  24.727  24.569  1.00  0.00     0.261 C 
BRANCH   2   3
ATOM      3  O   UNL A   1      34.389  25.993  25.237  1.00  0.00    -0.462 OA
BRANCH   3   4
ATOM      4  C   UNL A   1      33.159  26.545  25.367  1.00  0.00     0.326 C 
ATOM      5  O   UNL A   1      32.592  26.713  26.436  1.00  0.00    -0.250 OA
BRANCH   4   6
ATOM      6  C   UNL A   1      32.605  26.907  23.997  1.00  0.00     0.247 C 
BRANCH   6   7
ATOM      7  N   UNL A   1      31.150  26.862  23.913  1.00  0.00    -0.308 N 
ATOM      8  C   UNL A   1      30.330  25.755  23.740  1.00  0.00     0.169 A 
ATOM      9  C   UNL A   1      30.348  27.991  23.808  1.00  0.00     0.069 A 
ATOM     10  N   UNL A   1      29.088  26.114  23.507  1.00  0.00    -0.222 NA
ATOM     11  C   UNL A   1      29.094  27.487  23.466  1.00  0.00     0.090 A 
ATOM     12  C   UNL A   1      30.599  29.371  23.893  1.00  0.00     0.028 A 
ATOM     13  C   UNL A   1      28.075  28.374  23.091  1.00  0.00     0.030 A 
ATOM     14  C   UNL A   1      29.579  30.240  23.498  1.00  0.00     0.002 A 
ATOM     15  C   UNL A   1      28.352  29.743  23.066  1.00  0.00     0.002 A 
BRANCH   8  16
ATOM     16  S   UNL A   1      30.791  24.077  23.857  1.00  0.00    -0.088 SA
BRANCH  16  17
ATOM     17  C   UNL A   1      30.647  23.510  25.611  1.00  0.00     0.083 C 
BRANCH  17  18
ATOM     18  C   UNL A   1      31.815  22.889  26.425  1.00  0.00     0.047 C 
BRANCH  18  19
ATOM     19  C   UNL A   1      32.524  21.717  25.817  1.00  0.00    -0.047 A 
ATOM     20  C   UNL A   1      33.744  21.233  26.293  1.00  0.00     0.004 A 
ATOM     21  C   UNL A   1      31.954  21.092  24.723  1.00  0.00     0.004 A 
ATOM     22  C   UNL A   1      34.366  20.182  25.633  1.00  0.00     0.000 A 
ATOM     23  C   UNL A   1      32.454  19.934  24.194  1.00  0.00     0.000 A 
ATOM     24  C   UNL A   1      33.719  19.593  24.559  1.00  0.00     0.000 A 
ENDBRANCH  18  19
ENDBRANCH  17  18
ENDBRANCH  16  17
ENDBRANCH   8  16
ENDBRANCH   6   7
ENDBRANCH   4   6
ENDBRANCH   3   4
ENDBRANCH   2   3
ENDBRANCH   1   2
BRANCH   1  25
ATOM     25  O   UNL A   1      36.754  23.697  24.389  1.00  0.00    -0.374 OA
BRANCH  25  26
ATOM     26  C   UNL A   1      36.836  22.365  23.918  1.00  0.00     0.202 C 
BRANCH  26  27
ATOM     27  C   UNL A   1      37.648  21.407  24.810  1.00  0.00     0.261 C 
BRANCH  27  28
ATOM     28  O   UNL A   1      37.974  21.966  26.105  1.00  0.00    -0.460 OA
BRANCH  28  29
ATOM     29  C   UNL A   1      39.313  22.010  26.421  1.00  0.00     0.338 C 
ATOM     30  O   UNL A   1      40.155  21.233  26.042  1.00  0.00    -0.246 OA
BRANCH  29  31
ATOM     31  C   UNL A   1      39.631  23.331  27.076  1.00  0.00     0.060 A 
ATOM     32  C   UNL A   1      38.806  24.454  26.953  1.00  0.00     0.016 A 
ATOM     33  C   UNL A   1      40.909  23.489  27.639  1.00  0.00     0.016 A 
ATOM     34  C   UNL A   1      39.268  25.720  27.364  1.00  0.00     0.010 A 
ATOM     35  C   UNL A   1      41.364  24.756  28.054  1.00  0.00     0.010 A 
ATOM     36  C   UNL A   1      40.558  25.898  27.908  1.00  0.00    -0.014 A 
BRANCH  36  37
ATOM     37  C   UNL A   1      40.880  27.174  28.623  1.00  0.00     0.031 A 
ATOM     38  C   UNL A   1      42.071  27.778  27.987  1.00  0.00     0.074 A 
ATOM     39  C   UNL A   1      40.359  27.907  29.652  1.00  0.00     0.049 A 
ATOM     40  N   UNL A   1      43.233  27.842  28.542  1.00  0.00    -0.248 NA
ATOM     41  C   UNL A   1      42.037  28.169  26.574  1.00  0.00     0.031 C 
ATOM     42  C   UNL A   1      39.234  27.656  30.548  1.00  0.00     0.029 A 
ATOM     43  N   UNL A   1      40.728  29.169  30.085  1.00  0.00    -0.354 N 
ATOM     44  C   UNL A   1      44.033  28.504  27.636  1.00  0.00     0.074 A 
ATOM     45  C   UNL A   1      43.309  28.526  26.388  1.00  0.00     0.031 C 
ATOM     46  C   UNL A   1      38.779  28.788  31.117  1.00  0.00     0.029 A 
ATOM     47  C   UNL A   1      39.764  29.812  30.861  1.00  0.00     0.049 A 
ATOM     48  H   UNL A   1      41.597  29.578  29.865  1.00  0.00     0.167 HD
ATOM     49  C   UNL A   1      45.119  29.198  28.057  1.00  0.00     0.037 A 
ATOM     50  C   UNL A   1      39.770  31.012  31.487  1.00  0.00     0.037 A 
ATOM     51  C   UNL A   1      45.532  28.817  29.386  1.00  0.00     0.049 A 
ATOM     52  C   UNL A   1      41.173  31.336  31.804  1.00  0.00     0.074 A 
ATOM     53  C   UNL A   1      45.848  27.613  29.989  1.00  0.00     0.029 A 
ATOM     54  N   UNL A   1      45.352  29.709  30.415  1.00  0.00    -0.354 N 
ATOM     55  N   UNL A   1      41.870  30.745  32.736  1.00  0.00    -0.248 NA
ATOM     56  C   UNL A   1      41.942  32.070  30.819  1.00  0.00     0.031 C 
ATOM     57  C   UNL A   1      45.390  27.731  31.331  1.00  0.00     0.029 A 
ATOM     58  C   UNL A   1      44.877  29.018  31.504  1.00  0.00     0.049 A 
ATOM     59  H   UNL A   1      45.530  30.676  30.378  1.00  0.00     0.167 HD
ATOM     60  C   UNL A   1      43.136  30.624  32.193  1.00  0.00     0.074 A 
ATOM     61  C   UNL A   1      43.153  31.582  31.089  1.00  0.00     0.031 C 
ATOM     62  C   UNL A   1      43.953  29.567  32.491  1.00  0.00     0.037 A 
BRANCH  49  63
ATOM     63  C   UNL A   1      45.561  30.462  27.386  1.00  0.00     0.058 A 
ATOM     64  C   UNL A   1      46.897  30.600  26.974  1.00  0.00     0.135 A 
ATOM     65  C   UNL A   1      44.775  31.637  27.364  1.00  0.00     0.135 A 
ATOM     66  F   UNL A   1      47.730  29.548  26.998  1.00  0.00    -0.206 F 
ATOM     67  C   UNL A   1      47.428  31.833  26.605  1.00  0.00     0.059 A 
ATOM     68  C   UNL A   1      45.266  32.862  26.940  1.00  0.00     0.059 A 
ATOM     69  F   UNL A   1      43.527  31.669  27.850  1.00  0.00    -0.206 F 
ATOM     70  C   UNL A   1      46.605  32.958  26.602  1.00  0.00     0.060 A 
BRANCH  70  71
ATOM     71  S   UNL A   1      47.315  34.570  26.234  1.00  0.00     0.124 S 
ATOM     72  O   UNL A   1      48.462  34.194  25.415  1.00  0.00    -0.237 OA
ATOM     73  O   UNL A   1      46.217  35.232  25.539  1.00  0.00    -0.237 OA
ATOM     74  O   UNL A   1      47.628  35.106  27.555  1.00  0.00    -0.744 OA
ENDBRANCH  70  71
ENDBRANCH  49  63
BRANCH  50  75
ATOM     75  C   UNL A   1      38.625  31.932  31.696  1.00  0.00     0.058 A 
ATOM     76  C   UNL A   1      38.235  32.865  30.720  1.00  0.00     0.135 A 
ATOM     77  C   UNL A   1      37.710  31.714  32.748  1.00  0.00     0.135 A 
ATOM     78  F   UNL A   1      39.045  33.143  29.688  1.00  0.00    -0.206 F 
ATOM     79  C   UNL A   1      36.976  33.476  30.737  1.00  0.00     0.059 A 
ATOM     80  C   UNL A   1      36.453  32.317  32.791  1.00  0.00     0.059 A 
ATOM     81  F   UNL A   1      37.974  30.824  33.718  1.00  0.00    -0.206 F 
ATOM     82  C   UNL A   1      36.077  33.165  31.757  1.00  0.00     0.060 A 
BRANCH  82  83
ATOM     83  S   UNL A   1      34.367  33.743  31.636  1.00  0.00     0.124 S 
ATOM     84  O   UNL A   1      34.041  33.444  30.246  1.00  0.00    -0.237 OA
ATOM     85  O   UNL A   1      33.696  32.922  32.639  1.00  0.00    -0.237 OA
ATOM     86  O   UNL A   1      34.464  35.163  31.963  1.00  0.00    -0.744 OA
ENDBRANCH  82  83
ENDBRANCH  50  75
BRANCH  62  87
ATOM     87  C   UNL A   1      43.743  28.744  33.758  1.00  0.00     0.058 A 
ATOM     88  C   UNL A   1      42.745  27.777  33.978  1.00  0.00     0.135 A 
ATOM     89  C   UNL A   1      44.730  28.843  34.767  1.00  0.00     0.135 A 
ATOM     90  F   UNL A   1      41.806  27.508  33.059  1.00  0.00    -0.206 F 
ATOM     91  C   UNL A   1      42.734  26.968  35.122  1.00  0.00     0.059 A 
ATOM     92  C   UNL A   1      44.784  27.985  35.866  1.00  0.00     0.059 A 
ATOM     93  F   UNL A   1      45.718  29.747  34.656  1.00  0.00    -0.206 F 
ATOM     94  C   UNL A   1      43.789  27.031  36.024  1.00  0.00     0.060 A 
BRANCH  94  95
ATOM     95  S   UNL A   1      43.892  25.810  37.350  1.00  0.00     0.124 S 
ATOM     96  O   UNL A   1      43.489  26.572  38.526  1.00  0.00    -0.237 OA
ATOM     97  O   UNL A   1      42.942  24.798  36.892  1.00  0.00    -0.237 OA
ATOM     98  O   UNL A   1      45.293  25.401  37.327  1.00  0.00    -0.744 OA
ENDBRANCH  94  95
ENDBRANCH  62  87
ENDBRANCH  36  37
ENDBRANCH  29  31
ENDBRANCH  28  29
ENDBRANCH  27  28
ENDBRANCH  26  27
ENDBRANCH  25  26
ENDBRANCH   1  25
TORSDOF 22
ENDMDL
MODEL 3
REMARK VINA RESULT:     -10.4      3.501      8.731
REMARK SMILES O=C(Cn1c(SCCc2ccccc2)nc2ccccc21)OCCOCCOC(=O)c1ccc(-c2c3nc(c(-c4c(F)cc(S(=O)(=O)[O-])cc4F)c4ccc([nH]4)c(-c4c(F)cc(S(=O)(=O)[O-])cc4F)c4nc(c(-c5c(F)cc(S(=O)(=O)[O-])cc5F)c5ccc2[nH]5)C=C4)C=C3)cc1
REMARK SMILES IDX 24 1 23 2 22 3 2 4 1 5 3 6 4 7 5 8 21 9 15 10 16 11 20 12
REMARK SMILES IDX 17 13 19 14 18 15 6 16 7 17 8 18 9 19 10 20 14 21 11 22
REMARK SMILES IDX 13 23 12 24 25 25 26 26 27 27 28 28 29 29 30 30 31 31 32 32
REMARK SMILES IDX 96 33 33 34 95 35 34 36 35 37 36 38 89 39 37 40 94 41 88 42
REMARK SMILES IDX 90 43 38 44 93 45 87 46 86 47 39 49 73 50 52 51 72 52 53 53
REMARK SMILES IDX 56 54 71 55 91 56 54 57 55 58 70 60 92 61 57 62 40 63 41 64
REMARK SMILES IDX 50 65 42 66 43 67 49 68 51 69 44 70 45 71 46 72 47 73 48 74
REMARK SMILES IDX 74 75 75 76 84 77 76 78 77 79 83 80 85 81 78 82 79 83 80 84
REMARK SMILES IDX 81 85 82 86 58 87 59 88 68 89 60 90 61 91 67 92 69 93 62 94
REMARK SMILES IDX 63 95 64 96 65 97 66 98
REMARK H PARENT 90 48 56 59
REMARK Flexibility Score: inf
ROOT
ATOM      1  C   UNL A   1      33.630  23.656  26.427  1.00  0.00     0.202 C 
ENDROOT
BRANCH   1   2
ATOM      2  C   UNL A   1      32.311  23.018  26.864  1.00  0.00     0.261 C 
BRANCH   2   3
ATOM      3  O   UNL A   1      31.432  24.098  27.204  1.00  0.00    -0.462 OA
BRANCH   3   4
ATOM      4  C   UNL A   1      31.664  25.292  26.607  1.00  0.00     0.326 C 
ATOM      5  O   UNL A   1      32.529  26.079  26.962  1.00  0.00    -0.250 OA
BRANCH   4   6
ATOM      6  C   UNL A   1      30.694  25.494  25.454  1.00  0.00     0.247 C 
BRANCH   6   7
ATOM      7  N   UNL A   1      31.334  25.616  24.150  1.00  0.00    -0.308 N 
ATOM      8  C   UNL A   1      31.562  24.625  23.204  1.00  0.00     0.169 A 
ATOM      9  C   UNL A   1      32.001  26.757  23.721  1.00  0.00     0.069 A 
ATOM     10  N   UNL A   1      32.341  25.057  22.240  1.00  0.00    -0.222 NA
ATOM     11  C   UNL A   1      32.687  26.342  22.581  1.00  0.00     0.090 A 
ATOM     12  C   UNL A   1      32.137  28.054  24.243  1.00  0.00     0.028 A 
ATOM     13  C   UNL A   1      33.624  27.202  21.991  1.00  0.00     0.030 A 
ATOM     14  C   UNL A   1      33.090  28.891  23.655  1.00  0.00     0.002 A 
ATOM     15  C   UNL A   1      33.847  28.453  22.573  1.00  0.00     0.002 A 
BRANCH   8  16
ATOM     16  S   UNL A   1      30.895  23.014  23.190  1.00  0.00    -0.088 SA
BRANCH  16  17
ATOM     17  C   UNL A   1      32.248  21.779  22.947  1.00  0.00     0.083 C 
BRANCH  17  18
ATOM     18  C   UNL A   1      32.030  20.345  22.390  1.00  0.00     0.047 C 
BRANCH  18  19
ATOM     19  C   UNL A   1      32.466  19.202  23.254  1.00  0.00    -0.047 A 
ATOM     20  C   UNL A   1      32.944  17.995  22.740  1.00  0.00     0.004 A 
ATOM     21  C   UNL A   1      32.379  19.339  24.628  1.00  0.00     0.004 A 
ATOM     22  C   UNL A   1      33.267  16.962  23.609  1.00  0.00     0.000 A 
ATOM     23  C   UNL A   1      32.884  18.408  25.494  1.00  0.00     0.000 A 
ATOM     24  C   UNL A   1      33.176  17.186  24.973  1.00  0.00     0.000 A 
ENDBRANCH  18  19
ENDBRANCH  17  18
ENDBRANCH  16  17
ENDBRANCH   8  16
ENDBRANCH   6   7
ENDBRANCH   4   6
ENDBRANCH   3   4
ENDBRANCH   2   3
ENDBRANCH   1   2
BRANCH   1  25
ATOM     25  O   UNL A   1      34.820  22.945  26.739  1.00  0.00    -0.374 OA
BRANCH  25  26
ATOM     26  C   UNL A   1      34.929  21.671  26.132  1.00  0.00     0.202 C 
BRANCH  26  27
ATOM     27  C   UNL A   1      35.318  21.690  24.641  1.00  0.00     0.261 C 
BRANCH  27  28
ATOM     28  O   UNL A   1      36.711  22.012  24.416  1.00  0.00    -0.460 OA
BRANCH  28  29
ATOM     29  C   UNL A   1      37.625  21.209  25.059  1.00  0.00     0.338 C 
ATOM     30  O   UNL A   1      37.859  20.053  24.798  1.00  0.00    -0.246 OA
BRANCH  29  31
ATOM     31  C   UNL A   1      38.500  22.056  25.949  1.00  0.00     0.060 A 
ATOM     32  C   UNL A   1      38.342  23.440  26.068  1.00  0.00     0.016 A 
ATOM     33  C   UNL A   1      39.646  21.456  26.498  1.00  0.00     0.016 A 
ATOM     34  C   UNL A   1      39.333  24.214  26.704  1.00  0.00     0.010 A 
ATOM     35  C   UNL A   1      40.632  22.233  27.139  1.00  0.00     0.010 A 
ATOM     36  C   UNL A   1      40.501  23.629  27.238  1.00  0.00    -0.014 A 
BRANCH  36  37
ATOM     37  C   UNL A   1      41.354  24.424  28.178  1.00  0.00     0.031 A 
ATOM     38  C   UNL A   1      40.714  25.742  28.387  1.00  0.00     0.074 A 
ATOM     39  C   UNL A   1      42.509  24.241  28.884  1.00  0.00     0.049 A 
ATOM     40  N   UNL A   1      41.182  26.854  27.929  1.00  0.00    -0.248 NA
ATOM     41  C   UNL A   1      39.374  25.829  28.974  1.00  0.00     0.031 C 
ATOM     42  C   UNL A   1      43.447  23.124  28.934  1.00  0.00     0.029 A 
ATOM     43  N   UNL A   1      43.078  25.069  29.837  1.00  0.00    -0.354 N 
ATOM     44  C   UNL A   1      40.314  27.825  28.378  1.00  0.00     0.074 A 
ATOM     45  C   UNL A   1      39.140  27.137  28.857  1.00  0.00     0.031 C 
ATOM     46  C   UNL A   1      44.196  23.142  30.053  1.00  0.00     0.029 A 
ATOM     47  C   UNL A   1      44.005  24.436  30.664  1.00  0.00     0.049 A 
ATOM     48  H   UNL A   1      42.848  26.023  29.923  1.00  0.00     0.167 HD
ATOM     49  C   UNL A   1      40.740  29.102  28.546  1.00  0.00     0.037 A 
ATOM     50  C   UNL A   1      44.784  24.909  31.665  1.00  0.00     0.037 A 
ATOM     51  C   UNL A   1      41.969  29.367  27.839  1.00  0.00     0.049 A 
ATOM     52  C   UNL A   1      45.033  26.336  31.393  1.00  0.00     0.074 A 
ATOM     53  C   UNL A   1      42.379  29.217  26.528  1.00  0.00     0.029 A 
ATOM     54  N   UNL A   1      43.119  29.559  28.566  1.00  0.00    -0.354 N 
ATOM     55  N   UNL A   1      45.820  26.778  30.450  1.00  0.00    -0.248 NA
ATOM     56  C   UNL A   1      44.098  27.305  31.931  1.00  0.00     0.031 C 
ATOM     57  C   UNL A   1      43.756  28.865  26.600  1.00  0.00     0.029 A 
ATOM     58  C   UNL A   1      44.139  28.881  27.942  1.00  0.00     0.049 A 
ATOM     59  H   UNL A   1      43.199  30.089  29.391  1.00  0.00     0.167 HD
ATOM     60  C   UNL A   1      45.170  27.892  29.953  1.00  0.00     0.074 A 
ATOM     61  C   UNL A   1      44.206  28.247  30.993  1.00  0.00     0.031 C 
ATOM     62  C   UNL A   1      45.259  28.254  28.636  1.00  0.00     0.037 A 
BRANCH  49  63
ATOM     63  C   UNL A   1      40.211  29.975  29.643  1.00  0.00     0.058 A 
ATOM     64  C   UNL A   1      40.623  29.754  30.967  1.00  0.00     0.135 A 
ATOM     65  C   UNL A   1      39.120  30.856  29.466  1.00  0.00     0.135 A 
ATOM     66  F   UNL A   1      41.626  28.904  31.236  1.00  0.00    -0.206 F 
ATOM     67  C   UNL A   1      39.967  30.337  32.047  1.00  0.00     0.059 A 
ATOM     68  C   UNL A   1      38.493  31.497  30.522  1.00  0.00     0.059 A 
ATOM     69  F   UNL A   1      38.548  31.053  28.269  1.00  0.00    -0.206 F 
ATOM     70  C   UNL A   1      38.897  31.199  31.812  1.00  0.00     0.060 A 
BRANCH  70  71
ATOM     71  S   UNL A   1      37.978  31.865  33.208  1.00  0.00     0.124 S 
ATOM     72  O   UNL A   1      36.974  32.675  32.527  1.00  0.00    -0.237 OA
ATOM     73  O   UNL A   1      37.494  30.652  33.857  1.00  0.00    -0.237 OA
ATOM     74  O   UNL A   1      38.992  32.606  33.952  1.00  0.00    -0.744 OA
ENDBRANCH  70  71
ENDBRANCH  49  63
BRANCH  50  75
ATOM     75  C   UNL A   1      45.202  24.202  32.901  1.00  0.00     0.058 A 
ATOM     76  C   UNL A   1      44.422  23.182  33.472  1.00  0.00     0.135 A 
ATOM     77  C   UNL A   1      46.523  24.319  33.384  1.00  0.00     0.135 A 
ATOM     78  F   UNL A   1      43.153  23.000  33.080  1.00  0.00    -0.206 F 
ATOM     79  C   UNL A   1      44.948  22.276  34.400  1.00  0.00     0.059 A 
ATOM     80  C   UNL A   1      47.066  23.434  34.314  1.00  0.00     0.059 A 
ATOM     81  F   UNL A   1      47.359  25.245  32.887  1.00  0.00    -0.206 F 
ATOM     82  C   UNL A   1      46.284  22.387  34.786  1.00  0.00     0.060 A 
BRANCH  82  83
ATOM     83  S   UNL A   1      47.033  21.069  35.772  1.00  0.00     0.124 S 
ATOM     84  O   UNL A   1      46.541  19.869  35.104  1.00  0.00    -0.237 OA
ATOM     85  O   UNL A   1      48.458  21.345  35.619  1.00  0.00    -0.237 OA
ATOM     86  O   UNL A   1      46.500  21.301  37.112  1.00  0.00    -0.744 OA
ENDBRANCH  82  83
ENDBRANCH  50  75
BRANCH  62  87
ATOM     87  C   UNL A   1      46.417  27.775  27.765  1.00  0.00     0.058 A 
ATOM     88  C   UNL A   1      46.536  26.521  27.140  1.00  0.00     0.135 A 
ATOM     89  C   UNL A   1      47.406  28.726  27.422  1.00  0.00     0.135 A 
ATOM     90  F   UNL A   1      45.613  25.561  27.299  1.00  0.00    -0.206 F 
ATOM     91  C   UNL A   1      47.568  26.236  26.237  1.00  0.00     0.059 A 
ATOM     92  C   UNL A   1      48.386  28.489  26.457  1.00  0.00     0.059 A 
ATOM     93  F   UNL A   1      47.387  29.949  27.977  1.00  0.00    -0.206 F 
ATOM     94  C   UNL A   1      48.447  27.243  25.851  1.00  0.00     0.060 A 
BRANCH  94  95
ATOM     95  S   UNL A   1      49.604  26.934  24.501  1.00  0.00     0.124 S 
ATOM     96  O   UNL A   1      50.069  28.273  24.157  1.00  0.00    -0.237 OA
ATOM     97  O   UNL A   1      50.586  26.066  25.147  1.00  0.00    -0.237 OA
ATOM     98  O   UNL A   1      48.777  26.287  23.486  1.00  0.00    -0.744 OA
ENDBRANCH  94  95
ENDBRANCH  62  87
ENDBRANCH  36  37
ENDBRANCH  29  31
ENDBRANCH  28  29
ENDBRANCH  27  28
ENDBRANCH  26  27
ENDBRANCH  25  26
ENDBRANCH   1  25
TORSDOF 22
ENDMDL
