MODEL 1
REMARK VINA RESULT:     -11.2      0.000      0.000
REMARK SMILES C[C@H]1[C@@H](C(=O)OCCOCCOC(=O)c2ccc(-c3c4nc(c(-c5c(F)cc(S(=O)(=O)[O-])cc5F)c5ccc([nH]5)c(-c5c(F)cc(S(=O)(=O)[O-])cc5F)c5nc(c(-c6c(F)cc(S(=O)(=O)[O-])cc6F)c6ccc3[nH]6)C=C5)C=C4)cc2)CCN1C(=O)N1CCn2cnnc2C1
REMARK SMILES IDX 10 1 9 2 8 3 7 4 6 5 4 6 5 7 3 8 1 9 2 10 83 11 81 12 82 13
REMARK SMILES IDX 84 14 85 15 86 16 87 17 94 18 88 19 93 20 89 21 92 22 90 23
REMARK SMILES IDX 91 24 11 25 12 26 13 27 14 28 15 29 16 30 80 31 17 32 79 33
REMARK SMILES IDX 18 34 19 35 20 36 73 37 21 38 78 39 72 40 74 41 22 42 77 43
REMARK SMILES IDX 71 44 70 45 23 47 57 48 36 49 56 50 37 51 40 52 55 53 75 54
REMARK SMILES IDX 38 55 39 56 54 58 76 59 41 60 24 61 25 62 34 63 26 64 27 65
REMARK SMILES IDX 33 66 35 67 28 68 29 69 30 70 31 71 32 72 58 73 59 74 68 75
REMARK SMILES IDX 60 76 61 77 67 78 69 79 62 80 63 81 64 82 65 83 66 84 42 85
REMARK SMILES IDX 43 86 52 87 44 88 45 89 51 90 53 91 46 92 47 93 48 94 49 95
REMARK SMILES IDX 50 96
REMARK H PARENT 74 46 40 57
REMARK Flexibility Score: inf
ROOT
ATOM      1  C   UNL A   1      39.698  21.978  26.368  1.00  0.00     0.202 C 
ENDROOT
BRANCH   1   2
ATOM      2  O   UNL A   1      38.311  22.241  26.161  1.00  0.00    -0.374 OA
BRANCH   2   3
ATOM      3  C   UNL A   1      37.747  21.771  24.931  1.00  0.00     0.202 C 
BRANCH   3   4
ATOM      4  C   UNL A   1      36.770  20.603  25.086  1.00  0.00     0.261 C 
BRANCH   4   5
ATOM      5  O   UNL A   1      35.554  21.073  25.704  1.00  0.00    -0.463 OA
BRANCH   5   6
ATOM      6  C   UNL A   1      34.388  20.647  25.182  1.00  0.00     0.311 C 
ATOM      7  O   UNL A   1      34.201  19.518  24.738  1.00  0.00    -0.252 OA
BRANCH   6   8
ATOM      8  C   UNL A   1      33.258  21.660  25.257  1.00  0.00     0.123 C 
ATOM      9  C   UNL A   1      34.046  22.969  23.098  1.00  0.00     0.032 C 
ATOM     10  C   UNL A   1      33.108  22.861  24.298  1.00  0.00     0.098 C 
ATOM     11  N   UNL A   1      33.195  24.048  25.155  1.00  0.00    -0.321 N 
ATOM     12  C   UNL A   1      33.212  22.272  26.673  1.00  0.00     0.039 C 
ATOM     13  C   UNL A   1      33.567  23.737  26.508  1.00  0.00     0.122 C 
BRANCH  11  14
ATOM     14  C   UNL A   1      33.100  25.352  24.741  1.00  0.00     0.320 C 
ATOM     15  O   UNL A   1      34.077  26.095  24.689  1.00  0.00    -0.248 OA
BRANCH  14  16
ATOM     16  N   UNL A   1      31.809  25.796  24.480  1.00  0.00    -0.315 N 
ATOM     17  C   UNL A   1      31.624  26.818  23.436  1.00  0.00     0.144 C 
ATOM     18  C   UNL A   1      30.888  25.882  25.624  1.00  0.00     0.199 C 
ATOM     19  C   UNL A   1      31.195  28.198  23.977  1.00  0.00     0.146 C 
ATOM     20  C   UNL A   1      31.150  27.215  26.229  1.00  0.00     0.152 A 
ATOM     21  N   UNL A   1      31.353  28.289  25.408  1.00  0.00    -0.314 N 
ATOM     22  N   UNL A   1      31.404  27.572  27.469  1.00  0.00    -0.134 NA
ATOM     23  C   UNL A   1      31.808  29.295  26.185  1.00  0.00     0.226 A 
ATOM     24  N   UNL A   1      31.813  28.894  27.440  1.00  0.00    -0.139 NA
ENDBRANCH  14  16
ENDBRANCH  11  14
ENDBRANCH   6   8
ENDBRANCH   5   6
ENDBRANCH   4   5
ENDBRANCH   3   4
ENDBRANCH   2   3
ENDBRANCH   1   2
BRANCH   1  25
ATOM     25  C   UNL A   1      40.591  23.210  26.540  1.00  0.00     0.261 C 
BRANCH  25  26
ATOM     26  O   UNL A   1      39.845  24.426  26.384  1.00  0.00    -0.460 OA
BRANCH  26  27
ATOM     27  C   UNL A   1      40.612  25.534  26.285  1.00  0.00     0.338 C 
ATOM     28  O   UNL A   1      41.037  26.044  25.253  1.00  0.00    -0.246 OA
BRANCH  27  29
ATOM     29  C   UNL A   1      40.763  26.184  27.596  1.00  0.00     0.060 A 
ATOM     30  C   UNL A   1      39.774  25.909  28.548  1.00  0.00     0.016 A 
ATOM     31  C   UNL A   1      41.773  27.112  27.868  1.00  0.00     0.016 A 
ATOM     32  C   UNL A   1      39.734  26.630  29.736  1.00  0.00     0.010 A 
ATOM     33  C   UNL A   1      41.732  27.837  29.066  1.00  0.00     0.010 A 
ATOM     34  C   UNL A   1      40.677  27.637  29.976  1.00  0.00    -0.014 A 
BRANCH  34  35
ATOM     35  C   UNL A   1      40.414  28.584  31.087  1.00  0.00     0.031 A 
ATOM     36  C   UNL A   1      41.278  28.512  32.320  1.00  0.00     0.074 A 
ATOM     37  C   UNL A   1      39.501  29.561  30.952  1.00  0.00     0.049 A 
ATOM     38  N   UNL A   1      41.307  29.306  33.359  1.00  0.00    -0.248 NA
ATOM     39  C   UNL A   1      42.241  27.401  32.388  1.00  0.00     0.031 C 
ATOM     40  C   UNL A   1      38.630  29.747  29.792  1.00  0.00     0.029 A 
ATOM     41  N   UNL A   1      39.171  30.595  31.790  1.00  0.00    -0.354 N 
ATOM     42  C   UNL A   1      42.291  28.796  34.198  1.00  0.00     0.074 A 
ATOM     43  C   UNL A   1      42.808  27.601  33.568  1.00  0.00     0.031 C 
ATOM     44  C   UNL A   1      37.869  30.838  29.989  1.00  0.00     0.029 A 
ATOM     45  C   UNL A   1      38.191  31.419  31.291  1.00  0.00     0.049 A 
ATOM     46  H   UNL A   1      39.597  30.734  32.668  1.00  0.00     0.167 HD
ATOM     47  C   UNL A   1      42.738  29.289  35.378  1.00  0.00     0.037 A 
ATOM     48  C   UNL A   1      37.624  32.519  31.823  1.00  0.00     0.037 A 
ATOM     49  C   UNL A   1      42.227  30.484  35.997  1.00  0.00     0.049 A 
ATOM     50  C   UNL A   1      38.115  33.030  33.152  1.00  0.00     0.074 A 
ATOM     51  C   UNL A   1      42.617  31.072  37.187  1.00  0.00     0.029 A 
ATOM     52  N   UNL A   1      41.212  31.271  35.476  1.00  0.00    -0.354 N 
ATOM     53  N   UNL A   1      39.063  32.550  33.922  1.00  0.00    -0.248 NA
ATOM     54  C   UNL A   1      37.469  34.241  33.677  1.00  0.00     0.031 C 
ATOM     55  C   UNL A   1      41.810  32.195  37.404  1.00  0.00     0.029 A 
ATOM     56  C   UNL A   1      40.949  32.331  36.327  1.00  0.00     0.049 A 
ATOM     57  H   UNL A   1      40.745  31.102  34.625  1.00  0.00     0.167 HD
ATOM     58  C   UNL A   1      39.145  33.413  35.010  1.00  0.00     0.074 A 
ATOM     59  C   UNL A   1      38.159  34.452  34.790  1.00  0.00     0.031 C 
ATOM     60  C   UNL A   1      39.962  33.355  36.091  1.00  0.00     0.037 A 
BRANCH  47  61
ATOM     61  C   UNL A   1      43.823  28.523  36.082  1.00  0.00     0.058 A 
ATOM     62  C   UNL A   1      43.535  27.418  36.900  1.00  0.00     0.135 A 
ATOM     63  C   UNL A   1      45.169  28.885  35.922  1.00  0.00     0.135 A 
ATOM     64  F   UNL A   1      42.263  27.040  37.103  1.00  0.00    -0.206 F 
ATOM     65  C   UNL A   1      44.543  26.717  37.556  1.00  0.00     0.059 A 
ATOM     66  C   UNL A   1      46.194  28.184  36.549  1.00  0.00     0.059 A 
ATOM     67  F   UNL A   1      45.500  29.936  35.154  1.00  0.00    -0.206 F 
ATOM     68  C   UNL A   1      45.870  27.109  37.376  1.00  0.00     0.060 A 
BRANCH  68  69
ATOM     69  S   UNL A   1      47.169  26.193  38.233  1.00  0.00     0.124 S 
ATOM     70  O   UNL A   1      46.497  24.927  38.509  1.00  0.00    -0.237 OA
ATOM     71  O   UNL A   1      48.229  26.143  37.232  1.00  0.00    -0.237 OA
ATOM     72  O   UNL A   1      47.453  27.020  39.402  1.00  0.00    -0.744 OA
ENDBRANCH  68  69
ENDBRANCH  47  61
BRANCH  48  73
ATOM     73  C   UNL A   1      36.534  33.216  31.092  1.00  0.00     0.058 A 
ATOM     74  C   UNL A   1      35.200  33.136  31.521  1.00  0.00     0.135 A 
ATOM     75  C   UNL A   1      36.809  33.984  29.950  1.00  0.00     0.135 A 
ATOM     76  F   UNL A   1      34.887  32.406  32.603  1.00  0.00    -0.206 F 
ATOM     77  C   UNL A   1      34.175  33.782  30.836  1.00  0.00     0.059 A 
ATOM     78  C   UNL A   1      35.806  34.658  29.263  1.00  0.00     0.059 A 
ATOM     79  F   UNL A   1      38.071  34.102  29.507  1.00  0.00    -0.206 F 
ATOM     80  C   UNL A   1      34.490  34.543  29.708  1.00  0.00     0.060 A 
BRANCH  80  81
ATOM     81  S   UNL A   1      33.162  35.423  28.855  1.00  0.00     0.124 S 
ATOM     82  O   UNL A   1      33.910  36.421  28.100  1.00  0.00    -0.237 OA
ATOM     83  O   UNL A   1      32.543  34.359  28.070  1.00  0.00    -0.237 OA
ATOM     84  O   UNL A   1      32.347  35.938  29.950  1.00  0.00    -0.744 OA
ENDBRANCH  80  81
ENDBRANCH  48  73
BRANCH  60  85
ATOM     85  C   UNL A   1      39.842  34.461  37.103  1.00  0.00     0.058 A 
ATOM     86  C   UNL A   1      40.504  35.687  36.939  1.00  0.00     0.135 A 
ATOM     87  C   UNL A   1      39.030  34.300  38.239  1.00  0.00     0.135 A 
ATOM     88  F   UNL A   1      41.294  35.891  35.872  1.00  0.00    -0.206 F 
ATOM     89  C   UNL A   1      40.395  36.703  37.883  1.00  0.00     0.059 A 
ATOM     90  C   UNL A   1      38.886  35.313  39.181  1.00  0.00     0.059 A 
ATOM     91  F   UNL A   1      38.363  33.152  38.437  1.00  0.00    -0.206 F 
ATOM     92  C   UNL A   1      39.588  36.505  39.004  1.00  0.00     0.060 A 
BRANCH  92  93
ATOM     93  S   UNL A   1      39.450  37.831  40.220  1.00  0.00     0.124 S 
ATOM     94  O   UNL A   1      38.342  38.611  39.678  1.00  0.00    -0.237 OA
ATOM     95  O   UNL A   1      39.168  37.100  41.452  1.00  0.00    -0.237 OA
ATOM     96  O   UNL A   1      40.758  38.476  40.168  1.00  0.00    -0.744 OA
ENDBRANCH  92  93
ENDBRANCH  60  85
ENDBRANCH  34  35
ENDBRANCH  27  29
ENDBRANCH  26  27
ENDBRANCH  25  26
ENDBRANCH   1  25
TORSDOF 19
ENDMDL
MODEL 2
REMARK VINA RESULT:     -11.0      6.751     12.289
REMARK SMILES C[C@H]1[C@@H](C(=O)OCCOCCOC(=O)c2ccc(-c3c4nc(c(-c5c(F)cc(S(=O)(=O)[O-])cc5F)c5ccc([nH]5)c(-c5c(F)cc(S(=O)(=O)[O-])cc5F)c5nc(c(-c6c(F)cc(S(=O)(=O)[O-])cc6F)c6ccc3[nH]6)C=C5)C=C4)cc2)CCN1C(=O)N1CCn2cnnc2C1
REMARK SMILES IDX 10 1 9 2 8 3 7 4 6 5 4 6 5 7 3 8 1 9 2 10 83 11 81 12 82 13
REMARK SMILES IDX 84 14 85 15 86 16 87 17 94 18 88 19 93 20 89 21 92 22 90 23
REMARK SMILES IDX 91 24 11 25 12 26 13 27 14 28 15 29 16 30 80 31 17 32 79 33
REMARK SMILES IDX 18 34 19 35 20 36 73 37 21 38 78 39 72 40 74 41 22 42 77 43
REMARK SMILES IDX 71 44 70 45 23 47 57 48 36 49 56 50 37 51 40 52 55 53 75 54
REMARK SMILES IDX 38 55 39 56 54 58 76 59 41 60 24 61 25 62 34 63 26 64 27 65
REMARK SMILES IDX 33 66 35 67 28 68 29 69 30 70 31 71 32 72 58 73 59 74 68 75
REMARK SMILES IDX 60 76 61 77 67 78 69 79 62 80 63 81 64 82 65 83 66 84 42 85
REMARK SMILES IDX 43 86 52 87 44 88 45 89 51 90 53 91 46 92 47 93 48 94 49 95
REMARK SMILES IDX 50 96
REMARK H PARENT 74 46 40 57
REMARK Flexibility Score: inf
ROOT
ATOM      1  C   UNL A   1      34.684  31.615  27.742  1.00  0.00     0.202 C 
ENDROOT
BRANCH   1   2
ATOM      2  O   UNL A   1      33.368  31.113  27.519  1.00  0.00    -0.374 OA
BRANCH   2   3
ATOM      3  C   UNL A   1      33.265  29.899  26.767  1.00  0.00     0.202 C 
BRANCH   3   4
ATOM      4  C   UNL A   1      31.830  29.449  26.479  1.00  0.00     0.261 C 
BRANCH   4   5
ATOM      5  O   UNL A   1      31.727  29.019  25.107  1.00  0.00    -0.463 OA
BRANCH   5   6
ATOM      6  C   UNL A   1      31.221  27.791  24.877  1.00  0.00     0.311 C 
ATOM      7  O   UNL A   1      30.662  27.457  23.837  1.00  0.00    -0.252 OA
BRANCH   6   8
ATOM      8  C   UNL A   1      31.468  26.790  25.994  1.00  0.00     0.123 C 
ATOM      9  C   UNL A   1      33.936  26.251  25.211  1.00  0.00     0.032 C 
ATOM     10  C   UNL A   1      32.759  25.957  26.139  1.00  0.00     0.098 C 
ATOM     11  N   UNL A   1      32.326  24.559  26.029  1.00  0.00    -0.321 N 
ATOM     12  C   UNL A   1      30.321  25.759  26.019  1.00  0.00     0.039 C 
ATOM     13  C   UNL A   1      30.947  24.428  25.649  1.00  0.00     0.122 C 
BRANCH  11  14
ATOM     14  C   UNL A   1      33.135  23.454  26.112  1.00  0.00     0.320 C 
ATOM     15  O   UNL A   1      33.959  23.312  27.011  1.00  0.00    -0.248 OA
BRANCH  14  16
ATOM     16  N   UNL A   1      33.020  22.559  25.055  1.00  0.00    -0.315 N 
ATOM     17  C   UNL A   1      32.834  21.133  25.371  1.00  0.00     0.144 C 
ATOM     18  C   UNL A   1      33.811  22.844  23.849  1.00  0.00     0.199 C 
ATOM     19  C   UNL A   1      34.048  20.247  25.019  1.00  0.00     0.146 C 
ATOM     20  C   UNL A   1      35.149  22.251  24.116  1.00  0.00     0.152 A 
ATOM     21  N   UNL A   1      35.224  21.034  24.733  1.00  0.00    -0.314 N 
ATOM     22  N   UNL A   1      36.358  22.758  24.022  1.00  0.00    -0.134 NA
ATOM     23  C   UNL A   1      36.516  20.848  25.075  1.00  0.00     0.226 A 
ATOM     24  N   UNL A   1      37.225  21.862  24.624  1.00  0.00    -0.139 NA
ENDBRANCH  14  16
ENDBRANCH  11  14
ENDBRANCH   6   8
ENDBRANCH   5   6
ENDBRANCH   4   5
ENDBRANCH   3   4
ENDBRANCH   2   3
ENDBRANCH   1   2
BRANCH   1  25
ATOM     25  C   UNL A   1      35.275  31.341  29.128  1.00  0.00     0.261 C 
BRANCH  25  26
ATOM     26  O   UNL A   1      35.813  30.014  29.218  1.00  0.00    -0.460 OA
BRANCH  26  27
ATOM     27  C   UNL A   1      36.629  29.820  30.276  1.00  0.00     0.338 C 
ATOM     28  O   UNL A   1      36.295  29.503  31.414  1.00  0.00    -0.246 OA
BRANCH  27  29
ATOM     29  C   UNL A   1      38.041  29.880  29.866  1.00  0.00     0.060 A 
ATOM     30  C   UNL A   1      38.293  29.880  28.489  1.00  0.00     0.016 A 
ATOM     31  C   UNL A   1      39.097  29.836  30.781  1.00  0.00     0.016 A 
ATOM     32  C   UNL A   1      39.593  29.738  28.021  1.00  0.00     0.010 A 
ATOM     33  C   UNL A   1      40.408  29.694  30.308  1.00  0.00     0.010 A 
ATOM     34  C   UNL A   1      40.651  29.586  28.927  1.00  0.00    -0.014 A 
BRANCH  34  35
ATOM     35  C   UNL A   1      41.957  29.123  28.397  1.00  0.00     0.031 A 
ATOM     36  C   UNL A   1      43.105  30.098  28.347  1.00  0.00     0.074 A 
ATOM     37  C   UNL A   1      42.147  27.832  28.078  1.00  0.00     0.049 A 
ATOM     38  N   UNL A   1      44.358  29.888  28.035  1.00  0.00    -0.248 NA
ATOM     39  C   UNL A   1      42.802  31.494  28.702  1.00  0.00     0.031 C 
ATOM     40  C   UNL A   1      41.118  26.793  28.117  1.00  0.00     0.029 A 
ATOM     41  N   UNL A   1      43.279  27.170  27.677  1.00  0.00    -0.354 N 
ATOM     42  C   UNL A   1      44.991  31.119  28.162  1.00  0.00     0.074 A 
ATOM     43  C   UNL A   1      43.978  32.081  28.538  1.00  0.00     0.031 C 
ATOM     44  C   UNL A   1      41.671  25.619  27.763  1.00  0.00     0.029 A 
ATOM     45  C   UNL A   1      43.086  25.826  27.462  1.00  0.00     0.049 A 
ATOM     46  H   UNL A   1      44.149  27.615  27.556  1.00  0.00     0.167 HD
ATOM     47  C   UNL A   1      46.302  31.419  27.997  1.00  0.00     0.037 A 
ATOM     48  C   UNL A   1      43.954  24.873  27.072  1.00  0.00     0.037 A 
ATOM     49  C   UNL A   1      47.309  30.458  27.630  1.00  0.00     0.049 A 
ATOM     50  C   UNL A   1      45.401  25.236  26.863  1.00  0.00     0.074 A 
ATOM     51  C   UNL A   1      48.665  30.658  27.447  1.00  0.00     0.029 A 
ATOM     52  N   UNL A   1      47.066  29.114  27.389  1.00  0.00    -0.354 N 
ATOM     53  N   UNL A   1      45.989  26.401  27.010  1.00  0.00    -0.248 NA
ATOM     54  C   UNL A   1      46.305  24.154  26.451  1.00  0.00     0.031 C 
ATOM     55  C   UNL A   1      49.237  29.441  27.056  1.00  0.00     0.029 A 
ATOM     56  C   UNL A   1      48.244  28.474  27.041  1.00  0.00     0.049 A 
ATOM     57  H   UNL A   1      46.186  28.677  27.455  1.00  0.00     0.167 HD
ATOM     58  C   UNL A   1      47.335  26.186  26.733  1.00  0.00     0.074 A 
ATOM     59  C   UNL A   1      47.475  24.777  26.423  1.00  0.00     0.031 C 
ATOM     60  C   UNL A   1      48.363  27.071  26.736  1.00  0.00     0.037 A 
BRANCH  47  61
ATOM     61  C   UNL A   1      46.715  32.851  28.196  1.00  0.00     0.058 A 
ATOM     62  C   UNL A   1      47.187  33.318  29.433  1.00  0.00     0.135 A 
ATOM     63  C   UNL A   1      46.655  33.763  27.131  1.00  0.00     0.135 A 
ATOM     64  F   UNL A   1      47.246  32.493  30.490  1.00  0.00    -0.206 F 
ATOM     65  C   UNL A   1      47.561  34.647  29.614  1.00  0.00     0.059 A 
ATOM     66  C   UNL A   1      47.046  35.090  27.283  1.00  0.00     0.059 A 
ATOM     67  F   UNL A   1      46.207  33.369  25.928  1.00  0.00    -0.206 F 
ATOM     68  C   UNL A   1      47.484  35.526  28.532  1.00  0.00     0.060 A 
BRANCH  68  69
ATOM     69  S   UNL A   1      47.970  37.248  28.779  1.00  0.00     0.124 S 
ATOM     70  O   UNL A   1      46.927  37.717  29.685  1.00  0.00    -0.237 OA
ATOM     71  O   UNL A   1      49.303  37.117  29.360  1.00  0.00    -0.237 OA
ATOM     72  O   UNL A   1      47.929  37.808  27.432  1.00  0.00    -0.744 OA
ENDBRANCH  68  69
ENDBRANCH  47  61
BRANCH  48  73
ATOM     73  C   UNL A   1      43.479  23.480  26.862  1.00  0.00     0.058 A 
ATOM     74  C   UNL A   1      43.266  22.968  25.573  1.00  0.00     0.135 A 
ATOM     75  C   UNL A   1      43.235  22.631  27.953  1.00  0.00     0.135 A 
ATOM     76  F   UNL A   1      43.477  23.745  24.500  1.00  0.00    -0.206 F 
ATOM     77  C   UNL A   1      42.815  21.667  25.372  1.00  0.00     0.059 A 
ATOM     78  C   UNL A   1      42.807  21.320  27.776  1.00  0.00     0.059 A 
ATOM     79  F   UNL A   1      43.436  23.070  29.205  1.00  0.00    -0.206 F 
ATOM     80  C   UNL A   1      42.590  20.850  26.482  1.00  0.00     0.060 A 
BRANCH  80  81
ATOM     81  S   UNL A   1      42.057  19.145  26.213  1.00  0.00     0.124 S 
ATOM     82  O   UNL A   1      40.660  19.329  25.841  1.00  0.00    -0.237 OA
ATOM     83  O   UNL A   1      42.951  18.708  25.145  1.00  0.00    -0.237 OA
ATOM     84  O   UNL A   1      42.289  18.515  27.509  1.00  0.00    -0.744 OA
ENDBRANCH  80  81
ENDBRANCH  48  73
BRANCH  60  85
ATOM     85  C   UNL A   1      49.732  26.535  26.421  1.00  0.00     0.058 A 
ATOM     86  C   UNL A   1      50.534  25.936  27.404  1.00  0.00     0.135 A 
ATOM     87  C   UNL A   1      50.236  26.596  25.111  1.00  0.00     0.135 A 
ATOM     88  F   UNL A   1      50.100  25.854  28.673  1.00  0.00    -0.206 F 
ATOM     89  C   UNL A   1      51.803  25.449  27.109  1.00  0.00     0.059 A 
ATOM     90  C   UNL A   1      51.491  26.091  24.788  1.00  0.00     0.059 A 
ATOM     91  F   UNL A   1      49.504  27.145  24.129  1.00  0.00    -0.206 F 
ATOM     92  C   UNL A   1      52.276  25.535  25.799  1.00  0.00     0.060 A 
BRANCH  92  93
ATOM     93  S   UNL A   1      53.922  24.896  25.424  1.00  0.00     0.124 S 
ATOM     94  O   UNL A   1      54.265  25.657  24.227  1.00  0.00    -0.237 OA
ATOM     95  O   UNL A   1      54.673  25.237  26.629  1.00  0.00    -0.237 OA
ATOM     96  O   UNL A   1      53.692  23.469  25.219  1.00  0.00    -0.744 OA
ENDBRANCH  92  93
ENDBRANCH  60  85
ENDBRANCH  34  35
ENDBRANCH  27  29
ENDBRANCH  26  27
ENDBRANCH  25  26
ENDBRANCH   1  25
TORSDOF 19
ENDMDL
MODEL 3
REMARK VINA RESULT:     -11.0      4.939      9.861
REMARK SMILES C[C@H]1[C@@H](C(=O)OCCOCCOC(=O)c2ccc(-c3c4nc(c(-c5c(F)cc(S(=O)(=O)[O-])cc5F)c5ccc([nH]5)c(-c5c(F)cc(S(=O)(=O)[O-])cc5F)c5nc(c(-c6c(F)cc(S(=O)(=O)[O-])cc6F)c6ccc3[nH]6)C=C5)C=C4)cc2)CCN1C(=O)N1CCn2cnnc2C1
REMARK SMILES IDX 10 1 9 2 8 3 7 4 6 5 4 6 5 7 3 8 1 9 2 10 83 11 81 12 82 13
REMARK SMILES IDX 84 14 85 15 86 16 87 17 94 18 88 19 93 20 89 21 92 22 90 23
REMARK SMILES IDX 91 24 11 25 12 26 13 27 14 28 15 29 16 30 80 31 17 32 79 33
REMARK SMILES IDX 18 34 19 35 20 36 73 37 21 38 78 39 72 40 74 41 22 42 77 43
REMARK SMILES IDX 71 44 70 45 23 47 57 48 36 49 56 50 37 51 40 52 55 53 75 54
REMARK SMILES IDX 38 55 39 56 54 58 76 59 41 60 24 61 25 62 34 63 26 64 27 65
REMARK SMILES IDX 33 66 35 67 28 68 29 69 30 70 31 71 32 72 58 73 59 74 68 75
REMARK SMILES IDX 60 76 61 77 67 78 69 79 62 80 63 81 64 82 65 83 66 84 42 85
REMARK SMILES IDX 43 86 52 87 44 88 45 89 51 90 53 91 46 92 47 93 48 94 49 95
REMARK SMILES IDX 50 96
REMARK H PARENT 74 46 40 57
REMARK Flexibility Score: inf
ROOT
ATOM      1  C   UNL A   1      31.813  30.102  25.833  1.00  0.00     0.202 C 
ENDROOT
BRANCH   1   2
ATOM      2  O   UNL A   1      31.458  28.858  25.231  1.00  0.00    -0.374 OA
BRANCH   2   3
ATOM      3  C   UNL A   1      30.991  28.912  23.878  1.00  0.00     0.202 C 
BRANCH   3   4
ATOM      4  C   UNL A   1      32.023  28.482  22.832  1.00  0.00     0.261 C 
BRANCH   4   5
ATOM      5  O   UNL A   1      31.781  27.112  22.453  1.00  0.00    -0.463 OA
BRANCH   5   6
ATOM      6  C   UNL A   1      32.853  26.308  22.311  1.00  0.00     0.311 C 
ATOM      7  O   UNL A   1      33.868  26.612  21.691  1.00  0.00    -0.252 OA
BRANCH   6   8
ATOM      8  C   UNL A   1      32.754  24.990  23.061  1.00  0.00     0.123 C 
ATOM      9  C   UNL A   1      33.737  25.986  25.306  1.00  0.00     0.032 C 
ATOM     10  C   UNL A   1      33.256  24.778  24.506  1.00  0.00     0.098 C 
ATOM     11  N   UNL A   1      34.300  23.753  24.401  1.00  0.00    -0.321 N 
ATOM     12  C   UNL A   1      33.435  23.879  22.235  1.00  0.00     0.039 C 
ATOM     13  C   UNL A   1      34.639  23.435  23.042  1.00  0.00     0.122 C 
BRANCH  11  14
ATOM     14  C   UNL A   1      35.026  23.229  25.441  1.00  0.00     0.320 C 
ATOM     15  O   UNL A   1      36.080  23.732  25.822  1.00  0.00    -0.248 OA
BRANCH  14  16
ATOM     16  N   UNL A   1      34.533  22.039  25.965  1.00  0.00    -0.315 N 
ATOM     17  C   UNL A   1      33.890  21.089  25.041  1.00  0.00     0.144 C 
ATOM     18  C   UNL A   1      33.967  22.090  27.321  1.00  0.00     0.199 C 
ATOM     19  C   UNL A   1      32.366  20.948  25.246  1.00  0.00     0.146 C 
ATOM     20  C   UNL A   1      32.553  22.513  27.133  1.00  0.00     0.152 A 
ATOM     21  N   UNL A   1      31.837  21.991  26.091  1.00  0.00    -0.314 N 
ATOM     22  N   UNL A   1      31.849  23.468  27.699  1.00  0.00    -0.134 NA
ATOM     23  C   UNL A   1      30.699  22.711  26.000  1.00  0.00     0.226 A 
ATOM     24  N   UNL A   1      30.670  23.586  26.984  1.00  0.00    -0.139 NA
ENDBRANCH  14  16
ENDBRANCH  11  14
ENDBRANCH   6   8
ENDBRANCH   5   6
ENDBRANCH   4   5
ENDBRANCH   3   4
ENDBRANCH   2   3
ENDBRANCH   1   2
BRANCH   1  25
ATOM     25  C   UNL A   1      32.641  30.008  27.117  1.00  0.00     0.261 C 
BRANCH  25  26
ATOM     26  O   UNL A   1      34.030  30.271  26.868  1.00  0.00    -0.460 OA
BRANCH  26  27
ATOM     27  C   UNL A   1      34.702  30.746  27.938  1.00  0.00     0.338 C 
ATOM     28  O   UNL A   1      34.289  31.550  28.769  1.00  0.00    -0.246 OA
BRANCH  27  29
ATOM     29  C   UNL A   1      35.989  30.049  28.100  1.00  0.00     0.060 A 
ATOM     30  C   UNL A   1      36.310  29.623  29.394  1.00  0.00     0.016 A 
ATOM     31  C   UNL A   1      36.905  29.900  27.054  1.00  0.00     0.016 A 
ATOM     32  C   UNL A   1      37.582  29.135  29.668  1.00  0.00     0.010 A 
ATOM     33  C   UNL A   1      38.186  29.408  27.332  1.00  0.00     0.010 A 
ATOM     34  C   UNL A   1      38.545  29.080  28.652  1.00  0.00    -0.014 A 
BRANCH  34  35
ATOM     35  C   UNL A   1      39.958  28.861  29.046  1.00  0.00     0.031 A 
ATOM     36  C   UNL A   1      40.608  27.544  28.712  1.00  0.00     0.074 A 
ATOM     37  C   UNL A   1      40.680  29.859  29.586  1.00  0.00     0.049 A 
ATOM     38  N   UNL A   1      41.855  27.176  28.853  1.00  0.00    -0.248 NA
ATOM     39  C   UNL A   1      39.739  26.506  28.135  1.00  0.00     0.031 C 
ATOM     40  C   UNL A   1      40.164  31.185  29.926  1.00  0.00     0.029 A 
ATOM     41  N   UNL A   1      42.007  29.916  29.924  1.00  0.00    -0.354 N 
ATOM     42  C   UNL A   1      41.921  25.870  28.379  1.00  0.00     0.074 A 
ATOM     43  C   UNL A   1      40.581  25.495  27.984  1.00  0.00     0.031 C 
ATOM     44  C   UNL A   1      41.170  31.930  30.416  1.00  0.00     0.029 A 
ATOM     45  C   UNL A   1      42.394  31.131  30.436  1.00  0.00     0.049 A 
ATOM     46  H   UNL A   1      42.626  29.158  29.811  1.00  0.00     0.167 HD
ATOM     47  C   UNL A   1      43.003  25.063  28.265  1.00  0.00     0.037 A 
ATOM     48  C   UNL A   1      43.600  31.551  30.866  1.00  0.00     0.037 A 
ATOM     49  C   UNL A   1      44.336  25.443  28.652  1.00  0.00     0.049 A 
ATOM     50  C   UNL A   1      44.783  30.625  30.760  1.00  0.00     0.074 A 
ATOM     51  C   UNL A   1      45.502  24.702  28.570  1.00  0.00     0.029 A 
ATOM     52  N   UNL A   1      44.680  26.671  29.197  1.00  0.00    -0.354 N 
ATOM     53  N   UNL A   1      44.833  29.401  30.287  1.00  0.00    -0.248 NA
ATOM     54  C   UNL A   1      46.075  31.140  31.232  1.00  0.00     0.031 C 
ATOM     55  C   UNL A   1      46.545  25.469  29.101  1.00  0.00     0.029 A 
ATOM     56  C   UNL A   1      46.037  26.705  29.473  1.00  0.00     0.049 A 
ATOM     57  H   UNL A   1      44.053  27.412  29.364  1.00  0.00     0.167 HD
ATOM     58  C   UNL A   1      46.165  29.010  30.381  1.00  0.00     0.074 A 
ATOM     59  C   UNL A   1      46.888  30.133  30.944  1.00  0.00     0.031 C 
ATOM     60  C   UNL A   1      46.739  27.831  30.033  1.00  0.00     0.037 A 
BRANCH  47  61
ATOM     61  C   UNL A   1      42.781  23.681  27.716  1.00  0.00     0.058 A 
ATOM     62  C   UNL A   1      42.461  22.598  28.550  1.00  0.00     0.135 A 
ATOM     63  C   UNL A   1      42.871  23.440  26.337  1.00  0.00     0.135 A 
ATOM     64  F   UNL A   1      42.381  22.768  29.880  1.00  0.00    -0.206 F 
ATOM     65  C   UNL A   1      42.264  21.318  28.038  1.00  0.00     0.059 A 
ATOM     66  C   UNL A   1      42.655  22.175  25.800  1.00  0.00     0.059 A 
ATOM     67  F   UNL A   1      43.179  24.441  25.495  1.00  0.00    -0.206 F 
ATOM     68  C   UNL A   1      42.366  21.117  26.660  1.00  0.00     0.060 A 
BRANCH  68  69
ATOM     69  S   UNL A   1      42.110  19.453  26.006  1.00  0.00     0.124 S 
ATOM     70  O   UNL A   1      42.623  18.631  27.098  1.00  0.00    -0.237 OA
ATOM     71  O   UNL A   1      40.665  19.413  25.808  1.00  0.00    -0.237 OA
ATOM     72  O   UNL A   1      42.908  19.442  24.784  1.00  0.00    -0.744 OA
ENDBRANCH  68  69
ENDBRANCH  47  61
BRANCH  48  73
ATOM     73  C   UNL A   1      43.750  32.919  31.428  1.00  0.00     0.058 A 
ATOM     74  C   UNL A   1      43.616  33.163  32.803  1.00  0.00     0.135 A 
ATOM     75  C   UNL A   1      44.038  34.012  30.595  1.00  0.00     0.135 A 
ATOM     76  F   UNL A   1      43.332  32.151  33.638  1.00  0.00    -0.206 F 
ATOM     77  C   UNL A   1      43.749  34.443  33.332  1.00  0.00     0.059 A 
ATOM     78  C   UNL A   1      44.199  35.296  31.103  1.00  0.00     0.059 A 
ATOM     79  F   UNL A   1      44.188  33.829  29.274  1.00  0.00    -0.206 F 
ATOM     80  C   UNL A   1      44.043  35.503  32.473  1.00  0.00     0.060 A 
BRANCH  80  81
ATOM     81  S   UNL A   1      44.269  37.153  33.173  1.00  0.00     0.124 S 
ATOM     82  O   UNL A   1      44.479  37.954  31.974  1.00  0.00    -0.237 OA
ATOM     83  O   UNL A   1      43.005  37.366  33.871  1.00  0.00    -0.237 OA
ATOM     84  O   UNL A   1      45.433  36.992  34.038  1.00  0.00    -0.744 OA
ENDBRANCH  80  81
ENDBRANCH  48  73
BRANCH  60  85
ATOM     85  C   UNL A   1      48.225  27.709  30.225  1.00  0.00     0.058 A 
ATOM     86  C   UNL A   1      48.777  27.218  31.418  1.00  0.00     0.135 A 
ATOM     87  C   UNL A   1      49.107  28.060  29.189  1.00  0.00     0.135 A 
ATOM     88  F   UNL A   1      47.977  26.871  32.440  1.00  0.00    -0.206 F 
ATOM     89  C   UNL A   1      50.153  27.115  31.593  1.00  0.00     0.059 A 
ATOM     90  C   UNL A   1      50.485  27.939  29.333  1.00  0.00     0.059 A 
ATOM     91  F   UNL A   1      48.631  28.519  28.022  1.00  0.00    -0.206 F 
ATOM     92  C   UNL A   1      51.000  27.482  30.547  1.00  0.00     0.060 A 
BRANCH  92  93
ATOM     93  S   UNL A   1      52.784  27.340  30.781  1.00  0.00     0.124 S 
ATOM     94  O   UNL A   1      53.008  28.264  31.888  1.00  0.00    -0.237 OA
ATOM     95  O   UNL A   1      52.949  25.924  31.094  1.00  0.00    -0.237 OA
ATOM     96  O   UNL A   1      53.329  27.758  29.493  1.00  0.00    -0.744 OA
ENDBRANCH  92  93
ENDBRANCH  60  85
ENDBRANCH  34  35
ENDBRANCH  27  29
ENDBRANCH  26  27
ENDBRANCH  25  26
ENDBRANCH   1  25
TORSDOF 19
ENDMDL
