MODEL 1
REMARK VINA RESULT:     -11.6      0.000      0.000
REMARK SMILES CCOc1ccc(-c2ccc(C)cc2C(=O)OCCOCCOC(=O)c2ccc(-c3c4nc(c(-c5c(F)cc(S(=O)(=O)[O-])cc5F)c5ccc([nH]5)c(-c5c(F)cc(S(=O)(=O)[O-])cc5F)c5nc(c(-c6c(F)cc(S(=O)(=O)[O-])cc6F)c6ccc3[nH]6)C=C5)C=C4)cc2)c(Cl)c1
REMARK SMILES IDX 20 1 19 2 18 3 17 4 15 5 16 6 14 7 8 8 9 9 10 10 13 11 11 12
REMARK SMILES IDX 12 13 7 14 4 15 5 16 94 17 6 18 92 19 93 20 3 21 2 22 1 23
REMARK SMILES IDX 21 24 22 25 23 26 24 27 25 28 26 29 27 30 91 31 28 32 90 33
REMARK SMILES IDX 29 34 30 35 31 36 84 37 32 38 89 39 83 40 85 41 33 42 88 43
REMARK SMILES IDX 82 44 81 45 34 47 68 48 47 49 67 50 48 51 51 52 66 53 86 54
REMARK SMILES IDX 49 55 50 56 65 58 87 59 52 60 35 61 36 62 45 63 37 64 38 65
REMARK SMILES IDX 44 66 46 67 39 68 40 69 41 70 42 71 43 72 69 73 70 74 79 75
REMARK SMILES IDX 71 76 72 77 78 78 80 79 73 80 74 81 75 82 76 83 77 84 53 85
REMARK SMILES IDX 54 86 63 87 55 88 56 89 62 90 64 91 57 92 58 93 59 94 60 95
REMARK SMILES IDX 61 96
REMARK H PARENT 85 46 51 57
REMARK Flexibility Score: inf
ROOT
ATOM      1  O   UNL A   1      32.444  26.225  26.421  1.00  0.00    -0.374 OA
ENDROOT
BRANCH   1   2
ATOM      2  C   UNL A   1      31.455  25.239  26.144  1.00  0.00     0.202 C 
BRANCH   2   3
ATOM      3  C   UNL A   1      31.873  24.026  26.907  1.00  0.00     0.261 C 
BRANCH   3   4
ATOM      4  O   UNL A   1      33.193  23.623  26.522  1.00  0.00    -0.460 OA
BRANCH   4   5
ATOM      5  C   UNL A   1      33.308  22.519  25.760  1.00  0.00     0.338 C 
ATOM      6  O   UNL A   1      32.515  21.606  25.684  1.00  0.00    -0.246 OA
BRANCH   5   7
ATOM      7  C   UNL A   1      34.533  22.557  24.946  1.00  0.00     0.068 A 
ATOM      8  C   UNL A   1      34.753  23.337  23.787  1.00  0.00    -0.002 A 
ATOM      9  C   UNL A   1      36.001  23.152  23.158  1.00  0.00     0.010 A 
ATOM     10  C   UNL A   1      36.976  22.263  23.664  1.00  0.00     0.004 A 
ATOM     11  C   UNL A   1      35.520  21.686  25.454  1.00  0.00     0.019 A 
ATOM     12  C   UNL A   1      36.746  21.532  24.827  1.00  0.00    -0.050 A 
ATOM     13  C   UNL A   1      37.738  20.591  25.443  1.00  0.00     0.044 C 
BRANCH   8  14
ATOM     14  C   UNL A   1      33.774  24.317  23.222  1.00  0.00     0.001 A 
ATOM     15  C   UNL A   1      31.789  26.252  22.459  1.00  0.00     0.120 A 
ATOM     16  C   UNL A   1      33.034  26.667  22.925  1.00  0.00     0.047 A 
ATOM     17  C   UNL A   1      31.581  24.880  22.269  1.00  0.00     0.067 A 
ATOM     18  C   UNL A   1      34.000  25.708  23.329  1.00  0.00     0.014 A 
ATOM     19  C   UNL A   1      32.559  23.931  22.620  1.00  0.00     0.052 A 
ATOM     20  Cl  UNL A   1      32.183  22.261  22.338  1.00  0.00    -0.084 Cl
BRANCH  15  21
ATOM     21  O   UNL A   1      30.666  27.018  22.299  1.00  0.00    -0.494 OA
BRANCH  21  22
ATOM     22  C   UNL A   1      30.412  28.199  23.063  1.00  0.00     0.226 C 
ATOM     23  C   UNL A   1      30.266  29.490  22.269  1.00  0.00     0.049 C 
ENDBRANCH  21  22
ENDBRANCH  15  21
ENDBRANCH   8  14
ENDBRANCH   5   7
ENDBRANCH   4   5
ENDBRANCH   3   4
ENDBRANCH   2   3
ENDBRANCH   1   2
BRANCH   1  24
ATOM     24  C   UNL A   1      32.011  27.560  26.311  1.00  0.00     0.202 C 
BRANCH  24  25
ATOM     25  C   UNL A   1      32.459  28.448  27.477  1.00  0.00     0.261 C 
BRANCH  25  26
ATOM     26  O   UNL A   1      33.897  28.598  27.520  1.00  0.00    -0.460 OA
BRANCH  26  27
ATOM     27  C   UNL A   1      34.390  29.872  27.444  1.00  0.00     0.338 C 
ATOM     28  O   UNL A   1      33.742  30.825  27.049  1.00  0.00    -0.246 OA
BRANCH  27  29
ATOM     29  C   UNL A   1      35.760  29.946  28.021  1.00  0.00     0.060 A 
ATOM     30  C   UNL A   1      36.880  30.250  27.225  1.00  0.00     0.016 A 
ATOM     31  C   UNL A   1      35.931  29.554  29.348  1.00  0.00     0.016 A 
ATOM     32  C   UNL A   1      38.170  30.044  27.728  1.00  0.00     0.010 A 
ATOM     33  C   UNL A   1      37.191  29.243  29.798  1.00  0.00     0.010 A 
ATOM     34  C   UNL A   1      38.311  29.476  28.989  1.00  0.00    -0.014 A 
BRANCH  34  35
ATOM     35  C   UNL A   1      39.564  29.092  29.623  1.00  0.00     0.031 A 
ATOM     36  C   UNL A   1      40.106  27.776  29.290  1.00  0.00     0.074 A 
ATOM     37  C   UNL A   1      40.318  30.031  30.224  1.00  0.00     0.049 A 
ATOM     38  N   UNL A   1      41.141  27.263  29.847  1.00  0.00    -0.248 NA
ATOM     39  C   UNL A   1      39.466  26.875  28.331  1.00  0.00     0.031 C 
ATOM     40  C   UNL A   1      41.754  30.124  30.476  1.00  0.00     0.029 A 
ATOM     41  N   UNL A   1      39.823  31.139  30.895  1.00  0.00    -0.354 N 
ATOM     42  C   UNL A   1      41.540  26.239  29.027  1.00  0.00     0.074 A 
ATOM     43  C   UNL A   1      40.353  25.880  28.300  1.00  0.00     0.031 C 
ATOM     44  C   UNL A   1      41.958  30.985  31.496  1.00  0.00     0.029 A 
ATOM     45  C   UNL A   1      40.635  31.321  32.008  1.00  0.00     0.049 A 
ATOM     46  H   UNL A   1      39.050  31.690  30.633  1.00  0.00     0.167 HD
ATOM     47  C   UNL A   1      42.880  26.013  28.912  1.00  0.00     0.037 A 
ATOM     48  C   UNL A   1      40.080  31.042  33.219  1.00  0.00     0.037 A 
ATOM     49  C   UNL A   1      43.616  26.804  29.924  1.00  0.00     0.049 A 
ATOM     50  C   UNL A   1      40.882  29.961  33.861  1.00  0.00     0.074 A 
ATOM     51  C   UNL A   1      44.519  27.856  29.895  1.00  0.00     0.029 A 
ATOM     52  N   UNL A   1      43.195  26.727  31.248  1.00  0.00    -0.354 N 
ATOM     53  N   UNL A   1      41.532  29.065  33.168  1.00  0.00    -0.248 NA
ATOM     54  C   UNL A   1      41.159  29.882  35.286  1.00  0.00     0.031 C 
ATOM     55  C   UNL A   1      44.615  28.401  31.219  1.00  0.00     0.029 A 
ATOM     56  C   UNL A   1      43.768  27.686  32.053  1.00  0.00     0.049 A 
ATOM     57  H   UNL A   1      42.554  26.056  31.576  1.00  0.00     0.167 HD
ATOM     58  C   UNL A   1      42.437  28.445  33.970  1.00  0.00     0.074 A 
ATOM     59  C   UNL A   1      42.061  28.883  35.311  1.00  0.00     0.031 C 
ATOM     60  C   UNL A   1      43.460  27.680  33.480  1.00  0.00     0.037 A 
BRANCH  47  61
ATOM     61  C   UNL A   1      43.542  25.251  27.768  1.00  0.00     0.058 A 
ATOM     62  C   UNL A   1      43.605  23.841  27.801  1.00  0.00     0.135 A 
ATOM     63  C   UNL A   1      44.175  25.818  26.635  1.00  0.00     0.135 A 
ATOM     64  F   UNL A   1      43.061  23.140  28.806  1.00  0.00    -0.206 F 
ATOM     65  C   UNL A   1      44.234  23.073  26.811  1.00  0.00     0.059 A 
ATOM     66  C   UNL A   1      44.787  25.075  25.624  1.00  0.00     0.059 A 
ATOM     67  F   UNL A   1      44.271  27.131  26.429  1.00  0.00    -0.206 F 
ATOM     68  C   UNL A   1      44.813  23.699  25.718  1.00  0.00     0.060 A 
BRANCH  68  69
ATOM     69  S   UNL A   1      45.575  22.712  24.420  1.00  0.00     0.124 S 
ATOM     70  O   UNL A   1      44.423  22.337  23.607  1.00  0.00    -0.237 OA
ATOM     71  O   UNL A   1      46.499  23.665  23.817  1.00  0.00    -0.237 OA
ATOM     72  O   UNL A   1      46.203  21.613  25.150  1.00  0.00    -0.744 OA
ENDBRANCH  68  69
ENDBRANCH  47  61
BRANCH  48  73
ATOM     73  C   UNL A   1      38.613  31.378  33.287  1.00  0.00     0.058 A 
ATOM     74  C   UNL A   1      38.308  32.752  33.340  1.00  0.00     0.135 A 
ATOM     75  C   UNL A   1      37.527  30.559  32.987  1.00  0.00     0.135 A 
ATOM     76  F   UNL A   1      39.324  33.607  33.412  1.00  0.00    -0.206 F 
ATOM     77  C   UNL A   1      37.050  33.313  33.156  1.00  0.00     0.059 A 
ATOM     78  C   UNL A   1      36.254  31.101  32.674  1.00  0.00     0.059 A 
ATOM     79  F   UNL A   1      37.701  29.238  32.853  1.00  0.00    -0.206 F 
ATOM     80  C   UNL A   1      36.038  32.483  32.729  1.00  0.00     0.060 A 
BRANCH  80  81
ATOM     81  S   UNL A   1      34.602  33.289  31.964  1.00  0.00     0.124 S 
ATOM     82  O   UNL A   1      34.415  32.496  30.754  1.00  0.00    -0.237 OA
ATOM     83  O   UNL A   1      33.568  33.123  32.986  1.00  0.00    -0.237 OA
ATOM     84  O   UNL A   1      35.062  34.658  31.769  1.00  0.00    -0.744 OA
ENDBRANCH  80  81
ENDBRANCH  48  73
BRANCH  60  85
ATOM     85  C   UNL A   1      44.169  26.707  34.360  1.00  0.00     0.058 A 
ATOM     86  C   UNL A   1      45.508  26.828  34.740  1.00  0.00     0.135 A 
ATOM     87  C   UNL A   1      43.440  25.642  34.934  1.00  0.00     0.135 A 
ATOM     88  F   UNL A   1      46.324  27.697  34.124  1.00  0.00    -0.206 F 
ATOM     89  C   UNL A   1      46.031  26.074  35.784  1.00  0.00     0.059 A 
ATOM     90  C   UNL A   1      43.962  24.832  35.922  1.00  0.00     0.059 A 
ATOM     91  F   UNL A   1      42.169  25.381  34.605  1.00  0.00    -0.206 F 
ATOM     92  C   UNL A   1      45.234  25.103  36.390  1.00  0.00     0.060 A 
BRANCH  92  93
ATOM     93  S   UNL A   1      45.858  24.197  37.806  1.00  0.00     0.124 S 
ATOM     94  O   UNL A   1      47.209  24.731  37.944  1.00  0.00    -0.237 OA
ATOM     95  O   UNL A   1      44.910  24.593  38.842  1.00  0.00    -0.237 OA
ATOM     96  O   UNL A   1      45.778  22.803  37.380  1.00  0.00    -0.744 OA
ENDBRANCH  92  93
ENDBRANCH  60  85
ENDBRANCH  34  35
ENDBRANCH  27  29
ENDBRANCH  26  27
ENDBRANCH  25  26
ENDBRANCH  24  25
ENDBRANCH   1  24
TORSDOF 20
ENDMDL
MODEL 2
REMARK VINA RESULT:     -11.5      3.974     10.085
REMARK SMILES CCOc1ccc(-c2ccc(C)cc2C(=O)OCCOCCOC(=O)c2ccc(-c3c4nc(c(-c5c(F)cc(S(=O)(=O)[O-])cc5F)c5ccc([nH]5)c(-c5c(F)cc(S(=O)(=O)[O-])cc5F)c5nc(c(-c6c(F)cc(S(=O)(=O)[O-])cc6F)c6ccc3[nH]6)C=C5)C=C4)cc2)c(Cl)c1
REMARK SMILES IDX 20 1 19 2 18 3 17 4 15 5 16 6 14 7 8 8 9 9 10 10 13 11 11 12
REMARK SMILES IDX 12 13 7 14 4 15 5 16 94 17 6 18 92 19 93 20 3 21 2 22 1 23
REMARK SMILES IDX 21 24 22 25 23 26 24 27 25 28 26 29 27 30 91 31 28 32 90 33
REMARK SMILES IDX 29 34 30 35 31 36 84 37 32 38 89 39 83 40 85 41 33 42 88 43
REMARK SMILES IDX 82 44 81 45 34 47 68 48 47 49 67 50 48 51 51 52 66 53 86 54
REMARK SMILES IDX 49 55 50 56 65 58 87 59 52 60 35 61 36 62 45 63 37 64 38 65
REMARK SMILES IDX 44 66 46 67 39 68 40 69 41 70 42 71 43 72 69 73 70 74 79 75
REMARK SMILES IDX 71 76 72 77 78 78 80 79 73 80 74 81 75 82 76 83 77 84 53 85
REMARK SMILES IDX 54 86 63 87 55 88 56 89 62 90 64 91 57 92 58 93 59 94 60 95
REMARK SMILES IDX 61 96
REMARK H PARENT 85 46 51 57
REMARK Flexibility Score: inf
ROOT
ATOM      1  O   UNL A   1      36.261  21.647  25.068  1.00  0.00    -0.374 OA
ENDROOT
BRANCH   1   2
ATOM      2  C   UNL A   1      35.687  22.183  23.881  1.00  0.00     0.202 C 
BRANCH   2   3
ATOM      3  C   UNL A   1      36.186  23.587  23.791  1.00  0.00     0.261 C 
BRANCH   3   4
ATOM      4  O   UNL A   1      35.353  24.465  24.559  1.00  0.00    -0.460 OA
BRANCH   4   5
ATOM      5  C   UNL A   1      34.308  25.036  23.932  1.00  0.00     0.338 C 
ATOM      6  O   UNL A   1      34.156  25.148  22.734  1.00  0.00    -0.246 OA
BRANCH   5   7
ATOM      7  C   UNL A   1      33.291  25.489  24.893  1.00  0.00     0.068 A 
ATOM      8  C   UNL A   1      32.449  24.670  25.680  1.00  0.00    -0.002 A 
ATOM      9  C   UNL A   1      31.518  25.355  26.488  1.00  0.00     0.010 A 
ATOM     10  C   UNL A   1      31.447  26.765  26.526  1.00  0.00     0.004 A 
ATOM     11  C   UNL A   1      33.225  26.897  24.951  1.00  0.00     0.019 A 
ATOM     12  C   UNL A   1      32.312  27.549  25.765  1.00  0.00    -0.050 A 
ATOM     13  C   UNL A   1      32.319  29.048  25.771  1.00  0.00     0.044 C 
BRANCH   8  14
ATOM     14  C   UNL A   1      32.498  23.175  25.707  1.00  0.00     0.001 A 
ATOM     15  C   UNL A   1      32.914  20.331  25.642  1.00  0.00     0.120 A 
ATOM     16  C   UNL A   1      33.371  21.086  26.721  1.00  0.00     0.047 A 
ATOM     17  C   UNL A   1      32.155  20.979  24.660  1.00  0.00     0.067 A 
ATOM     18  C   UNL A   1      33.190  22.493  26.734  1.00  0.00     0.014 A 
ATOM     19  C   UNL A   1      31.930  22.368  24.701  1.00  0.00     0.052 A 
ATOM     20  Cl  UNL A   1      30.976  23.056  23.425  1.00  0.00    -0.084 Cl
BRANCH  15  21
ATOM     21  O   UNL A   1      33.243  19.038  25.336  1.00  0.00    -0.494 OA
BRANCH  21  22
ATOM     22  C   UNL A   1      32.636  18.313  24.265  1.00  0.00     0.226 C 
ATOM     23  C   UNL A   1      33.568  17.443  23.433  1.00  0.00     0.049 C 
ENDBRANCH  21  22
ENDBRANCH  15  21
ENDBRANCH   8  14
ENDBRANCH   5   7
ENDBRANCH   4   5
ENDBRANCH   3   4
ENDBRANCH   2   3
ENDBRANCH   1   2
BRANCH   1  24
ATOM     24  C   UNL A   1      36.643  20.295  24.995  1.00  0.00     0.202 C 
BRANCH  24  25
ATOM     25  C   UNL A   1      38.160  20.084  25.022  1.00  0.00     0.261 C 
BRANCH  25  26
ATOM     26  O   UNL A   1      38.867  21.287  25.399  1.00  0.00    -0.460 OA
BRANCH  26  27
ATOM     27  C   UNL A   1      39.722  21.197  26.463  1.00  0.00     0.338 C 
ATOM     28  O   UNL A   1      40.276  20.165  26.799  1.00  0.00    -0.246 OA
BRANCH  27  29
ATOM     29  C   UNL A   1      39.972  22.537  27.060  1.00  0.00     0.060 A 
ATOM     30  C   UNL A   1      39.222  23.666  26.679  1.00  0.00     0.016 A 
ATOM     31  C   UNL A   1      41.076  22.683  27.898  1.00  0.00     0.016 A 
ATOM     32  C   UNL A   1      39.654  24.947  27.044  1.00  0.00     0.010 A 
ATOM     33  C   UNL A   1      41.561  23.941  28.156  1.00  0.00     0.010 A 
ATOM     34  C   UNL A   1      40.860  25.074  27.722  1.00  0.00    -0.014 A 
BRANCH  34  35
ATOM     35  C   UNL A   1      41.515  26.324  28.083  1.00  0.00     0.031 A 
ATOM     36  C   UNL A   1      40.672  27.513  28.197  1.00  0.00     0.074 A 
ATOM     37  C   UNL A   1      42.763  26.297  28.586  1.00  0.00     0.049 A 
ATOM     38  N   UNL A   1      41.121  28.695  28.404  1.00  0.00    -0.248 NA
ATOM     39  C   UNL A   1      39.222  27.476  28.006  1.00  0.00     0.031 C 
ATOM     40  C   UNL A   1      43.481  27.203  29.481  1.00  0.00     0.029 A 
ATOM     41  N   UNL A   1      43.747  25.390  28.225  1.00  0.00    -0.354 N 
ATOM     42  C   UNL A   1      40.045  29.439  28.819  1.00  0.00     0.074 A 
ATOM     43  C   UNL A   1      38.904  28.738  28.295  1.00  0.00     0.031 C 
ATOM     44  C   UNL A   1      44.808  27.014  29.311  1.00  0.00     0.029 A 
ATOM     45  C   UNL A   1      44.941  26.098  28.185  1.00  0.00     0.049 A 
ATOM     46  H   UNL A   1      43.624  24.431  28.036  1.00  0.00     0.167 HD
ATOM     47  C   UNL A   1      40.273  30.404  29.754  1.00  0.00     0.037 A 
ATOM     48  C   UNL A   1      45.481  26.315  26.954  1.00  0.00     0.037 A 
ATOM     49  C   UNL A   1      41.729  30.595  29.941  1.00  0.00     0.049 A 
ATOM     50  C   UNL A   1      45.579  27.787  26.741  1.00  0.00     0.074 A 
ATOM     51  C   UNL A   1      42.630  30.392  30.974  1.00  0.00     0.029 A 
ATOM     52  N   UNL A   1      42.515  30.784  28.808  1.00  0.00    -0.354 N 
ATOM     53  N   UNL A   1      44.755  28.633  27.302  1.00  0.00    -0.248 NA
ATOM     54  C   UNL A   1      46.670  28.443  26.039  1.00  0.00     0.031 C 
ATOM     55  C   UNL A   1      43.958  30.455  30.430  1.00  0.00     0.029 A 
ATOM     56  C   UNL A   1      43.864  30.691  29.067  1.00  0.00     0.049 A 
ATOM     57  H   UNL A   1      42.145  30.965  27.914  1.00  0.00     0.167 HD
ATOM     58  C   UNL A   1      45.278  29.885  27.230  1.00  0.00     0.074 A 
ATOM     59  C   UNL A   1      46.397  29.735  26.303  1.00  0.00     0.031 C 
ATOM     60  C   UNL A   1      44.805  30.930  27.976  1.00  0.00     0.037 A 
BRANCH  47  61
ATOM     61  C   UNL A   1      39.202  31.025  30.646  1.00  0.00     0.058 A 
ATOM     62  C   UNL A   1      38.788  32.358  30.432  1.00  0.00     0.135 A 
ATOM     63  C   UNL A   1      38.568  30.409  31.753  1.00  0.00     0.135 A 
ATOM     64  F   UNL A   1      39.292  33.092  29.429  1.00  0.00    -0.206 F 
ATOM     65  C   UNL A   1      37.844  33.012  31.234  1.00  0.00     0.059 A 
ATOM     66  C   UNL A   1      37.608  31.030  32.553  1.00  0.00     0.059 A 
ATOM     67  F   UNL A   1      38.844  29.170  32.160  1.00  0.00    -0.206 F 
ATOM     68  C   UNL A   1      37.249  32.335  32.288  1.00  0.00     0.060 A 
BRANCH  68  69
ATOM     69  S   UNL A   1      35.997  33.157  33.287  1.00  0.00     0.124 S 
ATOM     70  O   UNL A   1      34.760  32.669  32.687  1.00  0.00    -0.237 OA
ATOM     71  O   UNL A   1      36.300  32.657  34.623  1.00  0.00    -0.237 OA
ATOM     72  O   UNL A   1      36.270  34.577  33.078  1.00  0.00    -0.744 OA
ENDBRANCH  68  69
ENDBRANCH  47  61
BRANCH  48  73
ATOM     73  C   UNL A   1      45.241  25.176  25.997  1.00  0.00     0.058 A 
ATOM     74  C   UNL A   1      46.189  24.136  26.043  1.00  0.00     0.135 A 
ATOM     75  C   UNL A   1      44.070  24.857  25.315  1.00  0.00     0.135 A 
ATOM     76  F   UNL A   1      47.236  24.291  26.850  1.00  0.00    -0.206 F 
ATOM     77  C   UNL A   1      46.054  22.886  25.454  1.00  0.00     0.059 A 
ATOM     78  C   UNL A   1      43.843  23.554  24.802  1.00  0.00     0.059 A 
ATOM     79  F   UNL A   1      43.070  25.744  25.249  1.00  0.00    -0.206 F 
ATOM     80  C   UNL A   1      44.831  22.567  24.908  1.00  0.00     0.060 A 
BRANCH  80  81
ATOM     81  S   UNL A   1      44.490  20.800  24.665  1.00  0.00     0.124 S 
ATOM     82  O   UNL A   1      43.169  20.658  25.266  1.00  0.00    -0.237 OA
ATOM     83  O   UNL A   1      44.533  20.671  23.208  1.00  0.00    -0.237 OA
ATOM     84  O   UNL A   1      45.589  20.156  25.374  1.00  0.00    -0.744 OA
ENDBRANCH  80  81
ENDBRANCH  48  73
BRANCH  60  85
ATOM     85  C   UNL A   1      45.111  32.337  27.591  1.00  0.00     0.058 A 
ATOM     86  C   UNL A   1      44.447  33.032  26.577  1.00  0.00     0.135 A 
ATOM     87  C   UNL A   1      46.059  33.065  28.343  1.00  0.00     0.135 A 
ATOM     88  F   UNL A   1      43.659  32.389  25.701  1.00  0.00    -0.206 F 
ATOM     89  C   UNL A   1      44.559  34.412  26.458  1.00  0.00     0.059 A 
ATOM     90  C   UNL A   1      46.241  34.425  28.193  1.00  0.00     0.059 A 
ATOM     91  F   UNL A   1      46.805  32.500  29.300  1.00  0.00    -0.206 F 
ATOM     92  C   UNL A   1      45.434  35.101  27.298  1.00  0.00     0.060 A 
BRANCH  92  93
ATOM     93  S   UNL A   1      45.510  36.891  27.228  1.00  0.00     0.124 S 
ATOM     94  O   UNL A   1      46.658  37.118  26.357  1.00  0.00    -0.237 OA
ATOM     95  O   UNL A   1      44.206  37.213  26.657  1.00  0.00    -0.237 OA
ATOM     96  O   UNL A   1      45.699  37.278  28.623  1.00  0.00    -0.744 OA
ENDBRANCH  92  93
ENDBRANCH  60  85
ENDBRANCH  34  35
ENDBRANCH  27  29
ENDBRANCH  26  27
ENDBRANCH  25  26
ENDBRANCH  24  25
ENDBRANCH   1  24
TORSDOF 20
ENDMDL
MODEL 3
REMARK VINA RESULT:     -11.4      3.917     10.044
REMARK SMILES CCOc1ccc(-c2ccc(C)cc2C(=O)OCCOCCOC(=O)c2ccc(-c3c4nc(c(-c5c(F)cc(S(=O)(=O)[O-])cc5F)c5ccc([nH]5)c(-c5c(F)cc(S(=O)(=O)[O-])cc5F)c5nc(c(-c6c(F)cc(S(=O)(=O)[O-])cc6F)c6ccc3[nH]6)C=C5)C=C4)cc2)c(Cl)c1
REMARK SMILES IDX 20 1 19 2 18 3 17 4 15 5 16 6 14 7 8 8 9 9 10 10 13 11 11 12
REMARK SMILES IDX 12 13 7 14 4 15 5 16 94 17 6 18 92 19 93 20 3 21 2 22 1 23
REMARK SMILES IDX 21 24 22 25 23 26 24 27 25 28 26 29 27 30 91 31 28 32 90 33
REMARK SMILES IDX 29 34 30 35 31 36 84 37 32 38 89 39 83 40 85 41 33 42 88 43
REMARK SMILES IDX 82 44 81 45 34 47 68 48 47 49 67 50 48 51 51 52 66 53 86 54
REMARK SMILES IDX 49 55 50 56 65 58 87 59 52 60 35 61 36 62 45 63 37 64 38 65
REMARK SMILES IDX 44 66 46 67 39 68 40 69 41 70 42 71 43 72 69 73 70 74 79 75
REMARK SMILES IDX 71 76 72 77 78 78 80 79 73 80 74 81 75 82 76 83 77 84 53 85
REMARK SMILES IDX 54 86 63 87 55 88 56 89 62 90 64 91 57 92 58 93 59 94 60 95
REMARK SMILES IDX 61 96
REMARK H PARENT 85 46 51 57
REMARK Flexibility Score: inf
ROOT
ATOM      1  O   UNL A   1      35.408  22.983  22.750  1.00  0.00    -0.374 OA
ENDROOT
BRANCH   1   2
ATOM      2  C   UNL A   1      34.194  23.521  23.266  1.00  0.00     0.202 C 
BRANCH   2   3
ATOM      3  C   UNL A   1      34.127  24.922  22.756  1.00  0.00     0.261 C 
BRANCH   3   4
ATOM      4  O   UNL A   1      34.006  25.845  23.845  1.00  0.00    -0.460 OA
BRANCH   4   5
ATOM      5  C   UNL A   1      33.064  26.803  23.745  1.00  0.00     0.338 C 
ATOM      6  O   UNL A   1      32.610  27.266  22.721  1.00  0.00    -0.246 OA
BRANCH   5   7
ATOM      7  C   UNL A   1      32.580  27.216  25.071  1.00  0.00     0.068 A 
ATOM      8  C   UNL A   1      31.993  26.385  26.052  1.00  0.00    -0.002 A 
ATOM      9  C   UNL A   1      31.563  27.039  27.225  1.00  0.00     0.010 A 
ATOM     10  C   UNL A   1      31.729  28.429  27.416  1.00  0.00     0.004 A 
ATOM     11  C   UNL A   1      32.757  28.600  25.278  1.00  0.00     0.019 A 
ATOM     12  C   UNL A   1      32.341  29.220  26.446  1.00  0.00    -0.050 A 
ATOM     13  C   UNL A   1      32.579  30.694  26.584  1.00  0.00     0.044 C 
BRANCH   8  14
ATOM     14  C   UNL A   1      31.819  24.905  25.922  1.00  0.00     0.001 A 
ATOM     15  C   UNL A   1      31.786  22.060  25.501  1.00  0.00     0.120 A 
ATOM     16  C   UNL A   1      32.522  22.609  26.549  1.00  0.00     0.047 A 
ATOM     17  C   UNL A   1      30.983  22.920  24.741  1.00  0.00     0.067 A 
ATOM     18  C   UNL A   1      32.560  24.016  26.734  1.00  0.00     0.014 A 
ATOM     19  C   UNL A   1      30.979  24.310  24.959  1.00  0.00     0.052 A 
ATOM     20  Cl  UNL A   1      29.943  25.269  23.951  1.00  0.00    -0.084 Cl
BRANCH  15  21
ATOM     21  O   UNL A   1      31.861  20.784  25.014  1.00  0.00    -0.494 OA
BRANCH  21  22
ATOM     22  C   UNL A   1      32.894  19.868  25.384  1.00  0.00     0.226 C 
ATOM     23  C   UNL A   1      33.412  18.961  24.276  1.00  0.00     0.049 C 
ENDBRANCH  21  22
ENDBRANCH  15  21
ENDBRANCH   8  14
ENDBRANCH   5   7
ENDBRANCH   4   5
ENDBRANCH   3   4
ENDBRANCH   2   3
ENDBRANCH   1   2
BRANCH   1  24
ATOM     24  C   UNL A   1      36.571  23.326  23.464  1.00  0.00     0.202 C 
BRANCH  24  25
ATOM     25  C   UNL A   1      36.479  23.028  24.964  1.00  0.00     0.261 C 
BRANCH  25  26
ATOM     26  O   UNL A   1      37.353  23.880  25.740  1.00  0.00    -0.460 OA
BRANCH  26  27
ATOM     27  C   UNL A   1      38.451  23.293  26.304  1.00  0.00     0.338 C 
ATOM     28  O   UNL A   1      38.725  22.112  26.181  1.00  0.00    -0.246 OA
BRANCH  27  29
ATOM     29  C   UNL A   1      39.313  24.308  26.971  1.00  0.00     0.060 A 
ATOM     30  C   UNL A   1      39.290  24.492  28.366  1.00  0.00     0.016 A 
ATOM     31  C   UNL A   1      40.034  25.184  26.162  1.00  0.00     0.016 A 
ATOM     32  C   UNL A   1      39.894  25.623  28.930  1.00  0.00     0.010 A 
ATOM     33  C   UNL A   1      40.523  26.348  26.702  1.00  0.00     0.010 A 
ATOM     34  C   UNL A   1      40.446  26.576  28.082  1.00  0.00    -0.014 A 
BRANCH  34  35
ATOM     35  C   UNL A   1      41.013  27.856  28.482  1.00  0.00     0.031 A 
ATOM     36  C   UNL A   1      40.091  28.982  28.624  1.00  0.00     0.074 A 
ATOM     37  C   UNL A   1      42.258  27.899  28.992  1.00  0.00     0.049 A 
ATOM     38  N   UNL A   1      40.459  30.185  28.868  1.00  0.00    -0.248 NA
ATOM     39  C   UNL A   1      38.648  28.853  28.424  1.00  0.00     0.031 C 
ATOM     40  C   UNL A   1      42.910  28.824  29.916  1.00  0.00     0.029 A 
ATOM     41  N   UNL A   1      43.303  27.070  28.612  1.00  0.00    -0.354 N 
ATOM     42  C   UNL A   1      39.334  30.843  29.297  1.00  0.00     0.074 A 
ATOM     43  C   UNL A   1      38.245  30.083  28.746  1.00  0.00     0.031 C 
ATOM     44  C   UNL A   1      44.246  28.730  29.750  1.00  0.00     0.029 A 
ATOM     45  C   UNL A   1      44.446  27.858  28.599  1.00  0.00     0.049 A 
ATOM     46  H   UNL A   1      43.245  26.111  28.394  1.00  0.00     0.167 HD
ATOM     47  C   UNL A   1      39.492  31.794  30.261  1.00  0.00     0.037 A 
ATOM     48  C   UNL A   1      44.975  28.146  27.378  1.00  0.00     0.037 A 
ATOM     49  C   UNL A   1      40.931  32.077  30.463  1.00  0.00     0.049 A 
ATOM     50  C   UNL A   1      44.975  29.627  27.207  1.00  0.00     0.074 A 
ATOM     51  C   UNL A   1      41.840  31.905  31.495  1.00  0.00     0.029 A 
ATOM     52  N   UNL A   1      41.707  32.351  29.340  1.00  0.00    -0.354 N 
ATOM     53  N   UNL A   1      44.094  30.399  27.787  1.00  0.00    -0.248 NA
ATOM     54  C   UNL A   1      46.022  30.375  26.531  1.00  0.00     0.031 C 
ATOM     55  C   UNL A   1      43.162  32.073  30.961  1.00  0.00     0.029 A 
ATOM     56  C   UNL A   1      43.059  32.341  29.604  1.00  0.00     0.049 A 
ATOM     57  H   UNL A   1      41.329  32.533  28.450  1.00  0.00     0.167 HD
ATOM     58  C   UNL A   1      44.531  31.685  27.754  1.00  0.00     0.074 A 
ATOM     59  C   UNL A   1      45.662  31.638  26.830  1.00  0.00     0.031 C 
ATOM     60  C   UNL A   1      43.986  32.674  28.527  1.00  0.00     0.037 A 
BRANCH  47  61
ATOM     61  C   UNL A   1      38.378  32.315  31.164  1.00  0.00     0.058 A 
ATOM     62  C   UNL A   1      38.162  33.705  31.290  1.00  0.00     0.135 A 
ATOM     63  C   UNL A   1      37.514  31.535  31.970  1.00  0.00     0.135 A 
ATOM     64  F   UNL A   1      38.896  34.591  30.601  1.00  0.00    -0.206 F 
ATOM     65  C   UNL A   1      37.190  34.262  32.131  1.00  0.00     0.059 A 
ATOM     66  C   UNL A   1      36.523  32.065  32.798  1.00  0.00     0.059 A 
ATOM     67  F   UNL A   1      37.576  30.205  32.039  1.00  0.00    -0.206 F 
ATOM     68  C   UNL A   1      36.365  33.432  32.875  1.00  0.00     0.060 A 
BRANCH  68  69
ATOM     69  S   UNL A   1      35.081  34.145  33.915  1.00  0.00     0.124 S 
ATOM     70  O   UNL A   1      33.883  33.474  33.423  1.00  0.00    -0.237 OA
ATOM     71  O   UNL A   1      35.525  33.761  35.250  1.00  0.00    -0.237 OA
ATOM     72  O   UNL A   1      35.157  35.574  33.623  1.00  0.00    -0.744 OA
ENDBRANCH  68  69
ENDBRANCH  47  61
BRANCH  48  73
ATOM     73  C   UNL A   1      44.817  27.022  26.387  1.00  0.00     0.058 A 
ATOM     74  C   UNL A   1      45.647  25.905  26.601  1.00  0.00     0.135 A 
ATOM     75  C   UNL A   1      43.767  26.797  25.501  1.00  0.00     0.135 A 
ATOM     76  F   UNL A   1      46.538  25.978  27.587  1.00  0.00    -0.206 F 
ATOM     77  C   UNL A   1      45.513  24.664  25.990  1.00  0.00     0.059 A 
ATOM     78  C   UNL A   1      43.526  25.513  24.948  1.00  0.00     0.059 A 
ATOM     79  F   UNL A   1      42.876  27.767  25.257  1.00  0.00    -0.206 F 
ATOM     80  C   UNL A   1      44.388  24.446  25.228  1.00  0.00     0.060 A 
BRANCH  80  81
ATOM     81  S   UNL A   1      43.945  22.712  24.918  1.00  0.00     0.124 S 
ATOM     82  O   UNL A   1      44.887  21.999  25.774  1.00  0.00    -0.237 OA
ATOM     83  O   UNL A   1      42.548  22.665  25.348  1.00  0.00    -0.237 OA
ATOM     84  O   UNL A   1      44.154  22.575  23.482  1.00  0.00    -0.744 OA
ENDBRANCH  80  81
ENDBRANCH  48  73
BRANCH  60  85
ATOM     85  C   UNL A   1      44.198  34.109  28.184  1.00  0.00     0.058 A 
ATOM     86  C   UNL A   1      43.743  34.707  27.006  1.00  0.00     0.135 A 
ATOM     87  C   UNL A   1      44.809  34.959  29.131  1.00  0.00     0.135 A 
ATOM     88  F   UNL A   1      43.306  33.962  25.978  1.00  0.00    -0.206 F 
ATOM     89  C   UNL A   1      43.703  36.089  26.869  1.00  0.00     0.059 A 
ATOM     90  C   UNL A   1      44.847  36.331  28.984  1.00  0.00     0.059 A 
ATOM     91  F   UNL A   1      45.342  34.501  30.271  1.00  0.00    -0.206 F 
ATOM     92  C   UNL A   1      44.226  36.891  27.884  1.00  0.00     0.060 A 
BRANCH  92  93
ATOM     93  S   UNL A   1      44.085  38.675  27.770  1.00  0.00     0.124 S 
ATOM     94  O   UNL A   1      44.639  39.110  29.048  1.00  0.00    -0.237 OA
ATOM     95  O   UNL A   1      44.903  38.955  26.595  1.00  0.00    -0.237 OA
ATOM     96  O   UNL A   1      42.651  38.893  27.606  1.00  0.00    -0.744 OA
ENDBRANCH  92  93
ENDBRANCH  60  85
ENDBRANCH  34  35
ENDBRANCH  27  29
ENDBRANCH  26  27
ENDBRANCH  25  26
ENDBRANCH  24  25
ENDBRANCH   1  24
TORSDOF 20
ENDMDL
