MODEL 1
REMARK VINA RESULT:     -10.5      0.000      0.000
REMARK SMILES C/C(=N/OCc1ccccc1Nc1c(Cl)cccc1Cl)C(=O)OCCOCCOC(=O)c1ccc(-c2c3nc(c(-c4c(F)cc(S(=O)(=O)[O-])cc4F)c4ccc([nH]4)c(-c4c(F)cc(S(=O)(=O)[O-])cc4F)c4nc(c(-c5c(F)cc(S(=O)(=O)[O-])cc5F)c5ccc2[nH]5)C=C4)C=C3)cc1
REMARK SMILES IDX 25 1 24 2 23 3 21 4 22 5 2 6 1 7 3 8 4 9 5 10 6 11 7 12
REMARK SMILES IDX 11 13 8 14 10 15 9 16 12 17 13 19 14 20 19 21 15 22 16 23
REMARK SMILES IDX 18 24 20 25 17 26 26 27 27 28 28 29 29 30 30 31 31 32 32 33
REMARK SMILES IDX 33 34 97 35 34 36 96 37 35 38 36 39 37 40 90 41 38 42 95 43
REMARK SMILES IDX 89 44 91 45 39 46 94 47 88 48 87 49 40 51 74 52 53 53 73 54
REMARK SMILES IDX 54 55 57 56 72 57 92 58 55 59 56 60 71 62 93 63 58 64 41 65
REMARK SMILES IDX 42 66 51 67 43 68 44 69 50 70 52 71 45 72 46 73 47 74 48 75
REMARK SMILES IDX 49 76 75 77 76 78 85 79 77 80 78 81 84 82 86 83 79 84 80 85
REMARK SMILES IDX 81 86 82 87 83 88 59 89 60 90 69 91 61 92 62 93 68 94 70 95
REMARK SMILES IDX 63 96 64 97 65 98 66 99 67 100
REMARK H PARENT 12 18 91 50 57 61
REMARK Flexibility Score: inf
ROOT
ATOM      1  C   UNL A   1      40.252  21.542  26.353  1.00  0.00     0.202 C 
ENDROOT
BRANCH   1   2
ATOM      2  C   UNL A   1      39.288  22.691  26.675  1.00  0.00     0.261 C 
BRANCH   2   3
ATOM      3  O   UNL A   1      38.564  23.013  25.478  1.00  0.00    -0.459 OA
BRANCH   3   4
ATOM      4  C   UNL A   1      37.227  23.110  25.592  1.00  0.00     0.355 C 
ATOM      5  O   UNL A   1      36.582  23.895  26.262  1.00  0.00    -0.245 OA
BRANCH   4   6
ATOM      6  C   UNL A   1      36.598  22.329  24.452  1.00  0.00     0.161 C 
ATOM      7  C   UNL A   1      36.957  22.820  23.075  1.00  0.00     0.079 C 
ATOM      8  N   UNL A   1      35.826  21.288  24.571  1.00  0.00    -0.084 NA
BRANCH   8   9
ATOM      9  O   UNL A   1      35.497  21.041  25.916  1.00  0.00    -0.390 OA
BRANCH   9  10
ATOM     10  C   UNL A   1      34.092  21.259  26.122  1.00  0.00     0.302 C 
BRANCH  10  11
ATOM     11  C   UNL A   1      33.319  21.227  24.816  1.00  0.00     0.016 A 
ATOM     12  C   UNL A   1      32.993  19.971  24.270  1.00  0.00     0.009 A 
ATOM     13  C   UNL A   1      32.937  22.401  24.119  1.00  0.00     0.045 A 
ATOM     14  C   UNL A   1      32.288  19.872  23.070  1.00  0.00     0.001 A 
ATOM     15  C   UNL A   1      32.224  22.276  22.918  1.00  0.00     0.026 A 
ATOM     16  C   UNL A   1      31.898  21.023  22.399  1.00  0.00     0.002 A 
BRANCH  13  17
ATOM     17  N   UNL A   1      33.295  23.672  24.604  1.00  0.00    -0.353 N 
ATOM     18  H   UNL A   1      34.235  23.735  24.891  1.00  0.00     0.167 HD
BRANCH  17  19
ATOM     19  C   UNL A   1      32.574  24.878  24.764  1.00  0.00     0.076 A 
ATOM     20  C   UNL A   1      31.640  24.973  25.820  1.00  0.00     0.066 A 
ATOM     21  C   UNL A   1      32.602  25.939  23.836  1.00  0.00     0.066 A 
ATOM     22  Cl  UNL A   1      31.445  23.679  26.960  1.00  0.00    -0.082 Cl
ATOM     23  C   UNL A   1      30.809  26.088  25.973  1.00  0.00     0.023 A 
ATOM     24  C   UNL A   1      31.769  27.058  23.994  1.00  0.00     0.023 A 
ATOM     25  Cl  UNL A   1      33.544  25.895  22.385  1.00  0.00    -0.082 Cl
ATOM     26  C   UNL A   1      30.877  27.135  25.063  1.00  0.00     0.003 A 
ENDBRANCH  17  19
ENDBRANCH  13  17
ENDBRANCH  10  11
ENDBRANCH   9  10
ENDBRANCH   8   9
ENDBRANCH   4   6
ENDBRANCH   3   4
ENDBRANCH   2   3
ENDBRANCH   1   2
BRANCH   1  27
ATOM     27  O   UNL A   1      41.438  21.932  25.647  1.00  0.00    -0.374 OA
BRANCH  27  28
ATOM     28  C   UNL A   1      42.687  21.702  26.297  1.00  0.00     0.202 C 
BRANCH  28  29
ATOM     29  C   UNL A   1      43.734  22.814  26.193  1.00  0.00     0.261 C 
BRANCH  29  30
ATOM     30  O   UNL A   1      43.412  23.931  27.033  1.00  0.00    -0.460 OA
BRANCH  30  31
ATOM     31  C   UNL A   1      43.000  25.026  26.353  1.00  0.00     0.338 C 
ATOM     32  O   UNL A   1      43.031  25.197  25.145  1.00  0.00    -0.246 OA
BRANCH  31  33
ATOM     33  C   UNL A   1      42.336  25.973  27.269  1.00  0.00     0.060 A 
ATOM     34  C   UNL A   1      42.885  27.257  27.355  1.00  0.00     0.016 A 
ATOM     35  C   UNL A   1      41.260  25.599  28.080  1.00  0.00     0.016 A 
ATOM     36  C   UNL A   1      42.404  28.154  28.302  1.00  0.00     0.010 A 
ATOM     37  C   UNL A   1      40.783  26.500  29.037  1.00  0.00     0.010 A 
ATOM     38  C   UNL A   1      41.384  27.764  29.179  1.00  0.00    -0.014 A 
BRANCH  38  39
ATOM     39  C   UNL A   1      41.083  28.629  30.344  1.00  0.00     0.031 A 
ATOM     40  C   UNL A   1      41.927  28.495  31.583  1.00  0.00     0.074 A 
ATOM     41  C   UNL A   1      40.119  29.564  30.273  1.00  0.00     0.049 A 
ATOM     42  N   UNL A   1      41.879  29.178  32.696  1.00  0.00    -0.248 NA
ATOM     43  C   UNL A   1      42.966  27.450  31.563  1.00  0.00     0.031 C 
ATOM     44  C   UNL A   1      39.255  29.801  29.119  1.00  0.00     0.029 A 
ATOM     45  N   UNL A   1      39.712  30.493  31.196  1.00  0.00    -0.354 N 
ATOM     46  C   UNL A   1      42.875  28.649  33.508  1.00  0.00     0.074 A 
ATOM     47  C   UNL A   1      43.494  27.569  32.772  1.00  0.00     0.031 C 
ATOM     48  C   UNL A   1      38.410  30.807  29.406  1.00  0.00     0.029 A 
ATOM     49  C   UNL A   1      38.667  31.275  30.766  1.00  0.00     0.049 A 
ATOM     50  H   UNL A   1      40.129  30.590  32.083  1.00  0.00     0.167 HD
ATOM     51  C   UNL A   1      43.248  29.036  34.751  1.00  0.00     0.037 A 
ATOM     52  C   UNL A   1      37.994  32.253  31.403  1.00  0.00     0.037 A 
ATOM     53  C   UNL A   1      42.635  30.118  35.477  1.00  0.00     0.049 A 
ATOM     54  C   UNL A   1      38.415  32.652  32.793  1.00  0.00     0.074 A 
ATOM     55  C   UNL A   1      42.953  30.600  36.735  1.00  0.00     0.029 A 
ATOM     56  N   UNL A   1      41.578  30.883  35.010  1.00  0.00    -0.354 N 
ATOM     57  N   UNL A   1      39.381  32.164  33.535  1.00  0.00    -0.248 NA
ATOM     58  C   UNL A   1      37.664  33.746  33.427  1.00  0.00     0.031 C 
ATOM     59  C   UNL A   1      42.065  31.636  37.042  1.00  0.00     0.029 A 
ATOM     60  C   UNL A   1      41.220  31.826  35.959  1.00  0.00     0.049 A 
ATOM     61  H   UNL A   1      41.145  30.774  34.133  1.00  0.00     0.167 HD
ATOM     62  C   UNL A   1      39.370  32.909  34.711  1.00  0.00     0.074 A 
ATOM     63  C   UNL A   1      38.309  33.886  34.577  1.00  0.00     0.031 C 
ATOM     64  C   UNL A   1      40.168  32.796  35.802  1.00  0.00     0.037 A 
BRANCH  51  65
ATOM     65  C   UNL A   1      44.361  28.275  35.412  1.00  0.00     0.058 A 
ATOM     66  C   UNL A   1      45.702  28.672  35.287  1.00  0.00     0.135 A 
ATOM     67  C   UNL A   1      44.079  27.153  36.208  1.00  0.00     0.135 A 
ATOM     68  F   UNL A   1      46.026  29.725  34.521  1.00  0.00    -0.206 F 
ATOM     69  C   UNL A   1      46.727  27.974  35.917  1.00  0.00     0.059 A 
ATOM     70  C   UNL A   1      45.087  26.453  36.864  1.00  0.00     0.059 A 
ATOM     71  F   UNL A   1      42.815  26.729  36.354  1.00  0.00    -0.206 F 
ATOM     72  C   UNL A   1      46.409  26.865  36.703  1.00  0.00     0.060 A 
BRANCH  72  73
ATOM     73  S   UNL A   1      47.748  25.976  37.527  1.00  0.00     0.124 S 
ATOM     74  O   UNL A   1      48.390  25.307  36.400  1.00  0.00    -0.237 OA
ATOM     75  O   UNL A   1      48.512  27.058  38.141  1.00  0.00    -0.237 OA
ATOM     76  O   UNL A   1      47.048  25.100  38.462  1.00  0.00    -0.744 OA
ENDBRANCH  72  73
ENDBRANCH  51  65
BRANCH  52  77
ATOM     77  C   UNL A   1      36.847  32.921  30.735  1.00  0.00     0.058 A 
ATOM     78  C   UNL A   1      37.047  33.919  29.769  1.00  0.00     0.135 A 
ATOM     79  C   UNL A   1      35.525  32.578  31.059  1.00  0.00     0.135 A 
ATOM     80  F   UNL A   1      38.292  34.287  29.433  1.00  0.00    -0.206 F 
ATOM     81  C   UNL A   1      35.976  34.568  29.163  1.00  0.00     0.059 A 
ATOM     82  C   UNL A   1      34.440  33.196  30.449  1.00  0.00     0.059 A 
ATOM     83  F   UNL A   1      35.283  31.619  31.967  1.00  0.00    -0.206 F 
ATOM     84  C   UNL A   1      34.675  34.201  29.511  1.00  0.00     0.060 A 
BRANCH  84  85
ATOM     85  S   UNL A   1      33.289  35.021  28.693  1.00  0.00     0.124 S 
ATOM     86  O   UNL A   1      33.976  36.018  27.883  1.00  0.00    -0.237 OA
ATOM     87  O   UNL A   1      32.667  33.921  27.964  1.00  0.00    -0.237 OA
ATOM     88  O   UNL A   1      32.506  35.543  29.810  1.00  0.00    -0.744 OA
ENDBRANCH  84  85
ENDBRANCH  52  77
BRANCH  64  89
ATOM     89  C   UNL A   1      39.949  33.779  36.919  1.00  0.00     0.058 A 
ATOM     90  C   UNL A   1      40.572  35.035  36.928  1.00  0.00     0.135 A 
ATOM     91  C   UNL A   1      39.076  33.471  37.974  1.00  0.00     0.135 A 
ATOM     92  F   UNL A   1      41.417  35.377  35.942  1.00  0.00    -0.206 F 
ATOM     93  C   UNL A   1      40.363  35.942  37.961  1.00  0.00     0.059 A 
ATOM     94  C   UNL A   1      38.833  34.371  39.006  1.00  0.00     0.059 A 
ATOM     95  F   UNL A   1      38.444  32.286  38.005  1.00  0.00    -0.206 F 
ATOM     96  C   UNL A   1      39.494  35.599  39.000  1.00  0.00     0.060 A 
BRANCH  96  97
ATOM     97  S   UNL A   1      39.217  36.785  40.331  1.00  0.00     0.124 S 
ATOM     98  O   UNL A   1      40.580  37.030  40.793  1.00  0.00    -0.237 OA
ATOM     99  O   UNL A   1      38.573  37.896  39.638  1.00  0.00    -0.237 OA
ATOM    100  O   UNL A   1      38.359  36.055  41.261  1.00  0.00    -0.744 OA
ENDBRANCH  96  97
ENDBRANCH  64  89
ENDBRANCH  38  39
ENDBRANCH  31  33
ENDBRANCH  30  31
ENDBRANCH  29  30
ENDBRANCH  28  29
ENDBRANCH  27  28
ENDBRANCH   1  27
TORSDOF 22
ENDMDL
MODEL 2
REMARK VINA RESULT:     -10.3      5.788     11.454
REMARK SMILES C/C(=N/OCc1ccccc1Nc1c(Cl)cccc1Cl)C(=O)OCCOCCOC(=O)c1ccc(-c2c3nc(c(-c4c(F)cc(S(=O)(=O)[O-])cc4F)c4ccc([nH]4)c(-c4c(F)cc(S(=O)(=O)[O-])cc4F)c4nc(c(-c5c(F)cc(S(=O)(=O)[O-])cc5F)c5ccc2[nH]5)C=C4)C=C3)cc1
REMARK SMILES IDX 25 1 24 2 23 3 21 4 22 5 2 6 1 7 3 8 4 9 5 10 6 11 7 12
REMARK SMILES IDX 11 13 8 14 10 15 9 16 12 17 13 19 14 20 19 21 15 22 16 23
REMARK SMILES IDX 18 24 20 25 17 26 26 27 27 28 28 29 29 30 30 31 31 32 32 33
REMARK SMILES IDX 33 34 97 35 34 36 96 37 35 38 36 39 37 40 90 41 38 42 95 43
REMARK SMILES IDX 89 44 91 45 39 46 94 47 88 48 87 49 40 51 74 52 53 53 73 54
REMARK SMILES IDX 54 55 57 56 72 57 92 58 55 59 56 60 71 62 93 63 58 64 41 65
REMARK SMILES IDX 42 66 51 67 43 68 44 69 50 70 52 71 45 72 46 73 47 74 48 75
REMARK SMILES IDX 49 76 75 77 76 78 85 79 77 80 78 81 84 82 86 83 79 84 80 85
REMARK SMILES IDX 81 86 82 87 83 88 59 89 60 90 69 91 61 92 62 93 68 94 70 95
REMARK SMILES IDX 63 96 64 97 65 98 66 99 67 100
REMARK H PARENT 12 18 91 50 57 61
REMARK Flexibility Score: inf
ROOT
ATOM      1  C   UNL A   1      34.363  31.635  27.911  1.00  0.00     0.202 C 
ENDROOT
BRANCH   1   2
ATOM      2  C   UNL A   1      35.042  30.372  27.366  1.00  0.00     0.261 C 
BRANCH   2   3
ATOM      3  O   UNL A   1      34.132  29.274  27.525  1.00  0.00    -0.459 OA
BRANCH   3   4
ATOM      4  C   UNL A   1      33.321  29.010  26.484  1.00  0.00     0.355 C 
ATOM      5  O   UNL A   1      33.341  29.498  25.369  1.00  0.00    -0.245 OA
BRANCH   4   6
ATOM      6  C   UNL A   1      32.589  27.711  26.773  1.00  0.00     0.161 C 
ATOM      7  C   UNL A   1      31.333  27.860  27.589  1.00  0.00     0.079 C 
ATOM      8  N   UNL A   1      32.937  26.528  26.357  1.00  0.00    -0.084 NA
BRANCH   8   9
ATOM      9  O   UNL A   1      34.189  26.553  25.718  1.00  0.00    -0.390 OA
BRANCH   9  10
ATOM     10  C   UNL A   1      34.095  25.912  24.435  1.00  0.00     0.302 C 
BRANCH  10  11
ATOM     11  C   UNL A   1      34.280  24.409  24.542  1.00  0.00     0.016 A 
ATOM     12  C   UNL A   1      35.367  23.927  25.295  1.00  0.00     0.009 A 
ATOM     13  C   UNL A   1      33.423  23.481  23.899  1.00  0.00     0.045 A 
ATOM     14  C   UNL A   1      35.597  22.558  25.430  1.00  0.00     0.001 A 
ATOM     15  C   UNL A   1      33.670  22.109  24.054  1.00  0.00     0.026 A 
ATOM     16  C   UNL A   1      34.745  21.650  24.815  1.00  0.00     0.002 A 
BRANCH  13  17
ATOM     17  N   UNL A   1      32.360  23.925  23.092  1.00  0.00    -0.353 N 
ATOM     18  H   UNL A   1      32.240  23.396  22.270  1.00  0.00     0.167 HD
BRANCH  17  19
ATOM     19  C   UNL A   1      31.430  24.982  23.225  1.00  0.00     0.076 A 
ATOM     20  C   UNL A   1      31.441  26.017  22.263  1.00  0.00     0.066 A 
ATOM     21  C   UNL A   1      30.597  25.160  24.348  1.00  0.00     0.066 A 
ATOM     22  Cl  UNL A   1      32.504  25.953  20.893  1.00  0.00    -0.082 Cl
ATOM     23  C   UNL A   1      30.630  27.151  22.389  1.00  0.00     0.023 A 
ATOM     24  C   UNL A   1      29.783  26.296  24.470  1.00  0.00     0.023 A 
ATOM     25  Cl  UNL A   1      30.607  24.086  25.706  1.00  0.00    -0.082 Cl
ATOM     26  C   UNL A   1      29.795  27.288  23.491  1.00  0.00     0.003 A 
ENDBRANCH  17  19
ENDBRANCH  13  17
ENDBRANCH  10  11
ENDBRANCH   9  10
ENDBRANCH   8   9
ENDBRANCH   4   6
ENDBRANCH   3   4
ENDBRANCH   2   3
ENDBRANCH   1   2
BRANCH   1  27
ATOM     27  O   UNL A   1      35.131  32.839  27.772  1.00  0.00    -0.374 OA
BRANCH  27  28
ATOM     28  C   UNL A   1      34.967  33.834  28.780  1.00  0.00     0.202 C 
BRANCH  28  29
ATOM     29  C   UNL A   1      35.205  33.394  30.227  1.00  0.00     0.261 C 
BRANCH  29  30
ATOM     30  O   UNL A   1      36.578  33.051  30.463  1.00  0.00    -0.460 OA
BRANCH  30  31
ATOM     31  C   UNL A   1      36.743  31.908  31.168  1.00  0.00     0.338 C 
ATOM     32  O   UNL A   1      36.045  31.499  32.082  1.00  0.00    -0.246 OA
BRANCH  31  33
ATOM     33  C   UNL A   1      37.824  31.098  30.576  1.00  0.00     0.060 A 
ATOM     34  C   UNL A   1      38.757  30.548  31.461  1.00  0.00     0.016 A 
ATOM     35  C   UNL A   1      37.973  30.943  29.194  1.00  0.00     0.016 A 
ATOM     36  C   UNL A   1      39.882  29.897  30.967  1.00  0.00     0.010 A 
ATOM     37  C   UNL A   1      39.109  30.296  28.699  1.00  0.00     0.010 A 
ATOM     38  C   UNL A   1      40.088  29.810  29.584  1.00  0.00    -0.014 A 
BRANCH  38  39
ATOM     39  C   UNL A   1      41.412  29.362  29.093  1.00  0.00     0.031 A 
ATOM     40  C   UNL A   1      42.547  30.350  29.070  1.00  0.00     0.074 A 
ATOM     41  C   UNL A   1      41.615  28.081  28.738  1.00  0.00     0.049 A 
ATOM     42  N   UNL A   1      43.797  30.168  28.731  1.00  0.00    -0.248 NA
ATOM     43  C   UNL A   1      42.232  31.727  29.487  1.00  0.00     0.031 C 
ATOM     44  C   UNL A   1      40.597  27.032  28.741  1.00  0.00     0.029 A 
ATOM     45  N   UNL A   1      42.752  27.447  28.310  1.00  0.00    -0.354 N 
ATOM     46  C   UNL A   1      44.415  31.402  28.891  1.00  0.00     0.074 A 
ATOM     47  C   UNL A   1      43.400  32.333  29.330  1.00  0.00     0.031 C 
ATOM     48  C   UNL A   1      41.155  25.882  28.325  1.00  0.00     0.029 A 
ATOM     49  C   UNL A   1      42.564  26.118  28.016  1.00  0.00     0.049 A 
ATOM     50  H   UNL A   1      43.622  27.900  28.222  1.00  0.00     0.167 HD
ATOM     51  C   UNL A   1      45.716  31.727  28.699  1.00  0.00     0.037 A 
ATOM     52  C   UNL A   1      43.431  25.200  27.545  1.00  0.00     0.037 A 
ATOM     53  C   UNL A   1      46.726  30.796  28.270  1.00  0.00     0.049 A 
ATOM     54  C   UNL A   1      44.868  25.591  27.321  1.00  0.00     0.074 A 
ATOM     55  C   UNL A   1      48.076  31.023  28.065  1.00  0.00     0.029 A 
ATOM     56  N   UNL A   1      46.496  29.460  27.978  1.00  0.00    -0.354 N 
ATOM     57  N   UNL A   1      45.446  26.755  27.508  1.00  0.00    -0.248 NA
ATOM     58  C   UNL A   1      45.776  24.541  26.836  1.00  0.00     0.031 C 
ATOM     59  C   UNL A   1      48.655  29.831  27.616  1.00  0.00     0.029 A 
ATOM     60  C   UNL A   1      47.675  28.852  27.581  1.00  0.00     0.049 A 
ATOM     61  H   UNL A   1      45.623  29.010  28.044  1.00  0.00     0.167 HD
ATOM     62  C   UNL A   1      46.788  26.569  27.190  1.00  0.00     0.074 A 
ATOM     63  C   UNL A   1      46.937  25.179  26.808  1.00  0.00     0.031 C 
ATOM     64  C   UNL A   1      47.805  27.466  27.214  1.00  0.00     0.037 A 
BRANCH  51  65
ATOM     65  C   UNL A   1      46.118  33.155  28.938  1.00  0.00     0.058 A 
ATOM     66  C   UNL A   1      46.070  34.115  27.914  1.00  0.00     0.135 A 
ATOM     67  C   UNL A   1      46.523  33.575  30.215  1.00  0.00     0.135 A 
ATOM     68  F   UNL A   1      45.710  33.759  26.671  1.00  0.00    -0.206 F 
ATOM     69  C   UNL A   1      46.426  35.440  28.145  1.00  0.00     0.059 A 
ATOM     70  C   UNL A   1      46.862  34.900  30.473  1.00  0.00     0.059 A 
ATOM     71  F   UNL A   1      46.591  32.695  31.225  1.00  0.00    -0.206 F 
ATOM     72  C   UNL A   1      46.821  35.822  29.428  1.00  0.00     0.060 A 
BRANCH  72  73
ATOM     73  S   UNL A   1      47.265  37.548  29.719  1.00  0.00     0.124 S 
ATOM     74  O   UNL A   1      46.689  38.198  28.545  1.00  0.00    -0.237 OA
ATOM     75  O   UNL A   1      46.605  37.833  30.989  1.00  0.00    -0.237 OA
ATOM     76  O   UNL A   1      48.724  37.519  29.768  1.00  0.00    -0.744 OA
ENDBRANCH  72  73
ENDBRANCH  51  65
BRANCH  52  77
ATOM     77  C   UNL A   1      42.964  23.821  27.248  1.00  0.00     0.058 A 
ATOM     78  C   UNL A   1      42.806  22.870  28.268  1.00  0.00     0.135 A 
ATOM     79  C   UNL A   1      42.675  23.426  25.933  1.00  0.00     0.135 A 
ATOM     80  F   UNL A   1      43.078  23.199  29.539  1.00  0.00    -0.206 F 
ATOM     81  C   UNL A   1      42.398  21.569  27.991  1.00  0.00     0.059 A 
ATOM     82  C   UNL A   1      42.243  22.138  25.635  1.00  0.00     0.059 A 
ATOM     83  F   UNL A   1      42.798  24.304  24.925  1.00  0.00    -0.206 F 
ATOM     84  C   UNL A   1      42.120  21.212  26.671  1.00  0.00     0.060 A 
BRANCH  84  85
ATOM     85  S   UNL A   1      41.555  19.533  26.322  1.00  0.00     0.124 S 
ATOM     86  O   UNL A   1      42.027  18.815  27.500  1.00  0.00    -0.237 OA
ATOM     87  O   UNL A   1      40.110  19.709  26.215  1.00  0.00    -0.237 OA
ATOM     88  O   UNL A   1      42.232  19.207  25.069  1.00  0.00    -0.744 OA
ENDBRANCH  84  85
ENDBRANCH  52  77
BRANCH  64  89
ATOM     89  C   UNL A   1      49.175  26.962  26.855  1.00  0.00     0.058 A 
ATOM     90  C   UNL A   1      49.619  26.920  25.525  1.00  0.00     0.135 A 
ATOM     91  C   UNL A   1      50.065  26.551  27.859  1.00  0.00     0.135 A 
ATOM     92  F   UNL A   1      48.805  27.301  24.528  1.00  0.00    -0.206 F 
ATOM     93  C   UNL A   1      50.890  26.456  25.199  1.00  0.00     0.059 A 
ATOM     94  C   UNL A   1      51.349  26.106  27.558  1.00  0.00     0.059 A 
ATOM     95  F   UNL A   1      49.693  26.584  29.149  1.00  0.00    -0.206 F 
ATOM     96  C   UNL A   1      51.746  26.047  26.223  1.00  0.00     0.060 A 
BRANCH  96  97
ATOM     97  S   UNL A   1      53.398  25.458  25.794  1.00  0.00     0.124 S 
ATOM     98  O   UNL A   1      53.774  26.389  24.735  1.00  0.00    -0.237 OA
ATOM     99  O   UNL A   1      54.123  25.604  27.053  1.00  0.00    -0.237 OA
ATOM    100  O   UNL A   1      53.166  24.081  25.369  1.00  0.00    -0.744 OA
ENDBRANCH  96  97
ENDBRANCH  64  89
ENDBRANCH  38  39
ENDBRANCH  31  33
ENDBRANCH  30  31
ENDBRANCH  29  30
ENDBRANCH  28  29
ENDBRANCH  27  28
ENDBRANCH   1  27
TORSDOF 22
ENDMDL
MODEL 3
REMARK VINA RESULT:     -10.3      5.884     11.641
REMARK SMILES C/C(=N/OCc1ccccc1Nc1c(Cl)cccc1Cl)C(=O)OCCOCCOC(=O)c1ccc(-c2c3nc(c(-c4c(F)cc(S(=O)(=O)[O-])cc4F)c4ccc([nH]4)c(-c4c(F)cc(S(=O)(=O)[O-])cc4F)c4nc(c(-c5c(F)cc(S(=O)(=O)[O-])cc5F)c5ccc2[nH]5)C=C4)C=C3)cc1
REMARK SMILES IDX 25 1 24 2 23 3 21 4 22 5 2 6 1 7 3 8 4 9 5 10 6 11 7 12
REMARK SMILES IDX 11 13 8 14 10 15 9 16 12 17 13 19 14 20 19 21 15 22 16 23
REMARK SMILES IDX 18 24 20 25 17 26 26 27 27 28 28 29 29 30 30 31 31 32 32 33
REMARK SMILES IDX 33 34 97 35 34 36 96 37 35 38 36 39 37 40 90 41 38 42 95 43
REMARK SMILES IDX 89 44 91 45 39 46 94 47 88 48 87 49 40 51 74 52 53 53 73 54
REMARK SMILES IDX 54 55 57 56 72 57 92 58 55 59 56 60 71 62 93 63 58 64 41 65
REMARK SMILES IDX 42 66 51 67 43 68 44 69 50 70 52 71 45 72 46 73 47 74 48 75
REMARK SMILES IDX 49 76 75 77 76 78 85 79 77 80 78 81 84 82 86 83 79 84 80 85
REMARK SMILES IDX 81 86 82 87 83 88 59 89 60 90 69 91 61 92 62 93 68 94 70 95
REMARK SMILES IDX 63 96 64 97 65 98 66 99 67 100
REMARK H PARENT 12 18 91 50 57 61
REMARK Flexibility Score: inf
ROOT
ATOM      1  C   UNL A   1      34.432  31.172  27.719  1.00  0.00     0.202 C 
ENDROOT
BRANCH   1   2
ATOM      2  C   UNL A   1      35.063  29.829  27.330  1.00  0.00     0.261 C 
BRANCH   2   3
ATOM      3  O   UNL A   1      34.115  28.791  27.623  1.00  0.00    -0.459 OA
BRANCH   3   4
ATOM      4  C   UNL A   1      33.463  28.260  26.572  1.00  0.00     0.355 C 
ATOM      5  O   UNL A   1      33.910  27.565  25.678  1.00  0.00    -0.245 OA
BRANCH   4   6
ATOM      6  C   UNL A   1      31.973  28.333  26.856  1.00  0.00     0.161 C 
ATOM      7  C   UNL A   1      31.434  29.724  27.056  1.00  0.00     0.079 C 
ATOM      8  N   UNL A   1      31.153  27.323  26.906  1.00  0.00    -0.084 NA
BRANCH   8   9
ATOM      9  O   UNL A   1      31.838  26.098  26.819  1.00  0.00    -0.390 OA
BRANCH   9  10
ATOM     10  C   UNL A   1      31.096  25.182  25.997  1.00  0.00     0.302 C 
BRANCH  10  11
ATOM     11  C   UNL A   1      31.560  25.219  24.552  1.00  0.00     0.016 A 
ATOM     12  C   UNL A   1      31.162  26.310  23.757  1.00  0.00     0.009 A 
ATOM     13  C   UNL A   1      32.350  24.195  23.972  1.00  0.00     0.045 A 
ATOM     14  C   UNL A   1      31.549  26.402  22.420  1.00  0.00     0.001 A 
ATOM     15  C   UNL A   1      32.732  24.312  22.628  1.00  0.00     0.026 A 
ATOM     16  C   UNL A   1      32.340  25.407  21.858  1.00  0.00     0.002 A 
BRANCH  13  17
ATOM     17  N   UNL A   1      32.719  23.062  24.719  1.00  0.00    -0.353 N 
ATOM     18  H   UNL A   1      32.009  22.737  25.320  1.00  0.00     0.167 HD
BRANCH  17  19
ATOM     19  C   UNL A   1      33.906  22.297  24.782  1.00  0.00     0.076 A 
ATOM     20  C   UNL A   1      33.813  20.893  24.653  1.00  0.00     0.066 A 
ATOM     21  C   UNL A   1      35.165  22.827  25.130  1.00  0.00     0.066 A 
ATOM     22  Cl  UNL A   1      32.292  20.124  24.330  1.00  0.00    -0.082 Cl
ATOM     23  C   UNL A   1      34.927  20.061  24.818  1.00  0.00     0.023 A 
ATOM     24  C   UNL A   1      36.281  21.990  25.291  1.00  0.00     0.023 A 
ATOM     25  Cl  UNL A   1      35.410  24.497  25.513  1.00  0.00    -0.082 Cl
ATOM     26  C   UNL A   1      36.164  20.610  25.131  1.00  0.00     0.003 A 
ENDBRANCH  17  19
ENDBRANCH  13  17
ENDBRANCH  10  11
ENDBRANCH   9  10
ENDBRANCH   8   9
ENDBRANCH   4   6
ENDBRANCH   3   4
ENDBRANCH   2   3
ENDBRANCH   1   2
BRANCH   1  27
ATOM     27  O   UNL A   1      35.303  32.305  27.593  1.00  0.00    -0.374 OA
BRANCH  27  28
ATOM     28  C   UNL A   1      35.080  33.398  28.482  1.00  0.00     0.202 C 
BRANCH  28  29
ATOM     29  C   UNL A   1      35.347  33.145  29.968  1.00  0.00     0.261 C 
BRANCH  29  30
ATOM     30  O   UNL A   1      36.732  32.871  30.222  1.00  0.00    -0.460 OA
BRANCH  30  31
ATOM     31  C   UNL A   1      36.942  31.778  30.992  1.00  0.00     0.338 C 
ATOM     32  O   UNL A   1      36.270  31.407  31.941  1.00  0.00    -0.246 OA
BRANCH  31  33
ATOM     33  C   UNL A   1      38.036  30.964  30.431  1.00  0.00     0.060 A 
ATOM     34  C   UNL A   1      38.982  30.470  31.335  1.00  0.00     0.016 A 
ATOM     35  C   UNL A   1      38.183  30.753  29.057  1.00  0.00     0.016 A 
ATOM     36  C   UNL A   1      40.117  29.820  30.865  1.00  0.00     0.010 A 
ATOM     37  C   UNL A   1      39.329  30.106  28.585  1.00  0.00     0.010 A 
ATOM     38  C   UNL A   1      40.320  29.678  29.486  1.00  0.00    -0.014 A 
BRANCH  38  39
ATOM     39  C   UNL A   1      41.652  29.235  29.009  1.00  0.00     0.031 A 
ATOM     40  C   UNL A   1      42.783  30.227  28.997  1.00  0.00     0.074 A 
ATOM     41  C   UNL A   1      41.863  27.954  28.658  1.00  0.00     0.049 A 
ATOM     42  N   UNL A   1      44.037  30.049  28.671  1.00  0.00    -0.248 NA
ATOM     43  C   UNL A   1      42.458  31.603  29.409  1.00  0.00     0.031 C 
ATOM     44  C   UNL A   1      40.849  26.901  28.652  1.00  0.00     0.029 A 
ATOM     45  N   UNL A   1      43.007  27.323  28.243  1.00  0.00    -0.354 N 
ATOM     46  C   UNL A   1      44.649  31.286  28.836  1.00  0.00     0.074 A 
ATOM     47  C   UNL A   1      43.625  32.214  29.263  1.00  0.00     0.031 C 
ATOM     48  C   UNL A   1      41.416  25.752  28.243  1.00  0.00     0.029 A 
ATOM     49  C   UNL A   1      42.827  25.993  27.949  1.00  0.00     0.049 A 
ATOM     50  H   UNL A   1      43.876  27.780  28.164  1.00  0.00     0.167 HD
ATOM     51  C   UNL A   1      45.950  31.616  28.657  1.00  0.00     0.037 A 
ATOM     52  C   UNL A   1      43.702  25.078  27.487  1.00  0.00     0.037 A 
ATOM     53  C   UNL A   1      46.968  30.688  28.240  1.00  0.00     0.049 A 
ATOM     54  C   UNL A   1      45.140  25.475  27.278  1.00  0.00     0.074 A 
ATOM     55  C   UNL A   1      48.319  30.919  28.048  1.00  0.00     0.029 A 
ATOM     56  N   UNL A   1      46.746  29.351  27.947  1.00  0.00    -0.354 N 
ATOM     57  N   UNL A   1      45.711  26.641  27.470  1.00  0.00    -0.248 NA
ATOM     58  C   UNL A   1      46.057  24.428  26.804  1.00  0.00     0.031 C 
ATOM     59  C   UNL A   1      48.908  29.730  27.607  1.00  0.00     0.029 A 
ATOM     60  C   UNL A   1      47.932  28.747  27.563  1.00  0.00     0.049 A 
ATOM     61  H   UNL A   1      45.875  28.897  28.005  1.00  0.00     0.167 HD
ATOM     62  C   UNL A   1      47.057  26.460  27.166  1.00  0.00     0.074 A 
ATOM     63  C   UNL A   1      47.216  25.070  26.787  1.00  0.00     0.031 C 
ATOM     64  C   UNL A   1      48.071  27.361  27.199  1.00  0.00     0.037 A 
BRANCH  51  65
ATOM     65  C   UNL A   1      46.344  33.045  28.898  1.00  0.00     0.058 A 
ATOM     66  C   UNL A   1      46.308  34.002  27.872  1.00  0.00     0.135 A 
ATOM     67  C   UNL A   1      46.730  33.469  30.180  1.00  0.00     0.135 A 
ATOM     68  F   UNL A   1      45.966  33.643  26.625  1.00  0.00    -0.206 F 
ATOM     69  C   UNL A   1      46.656  35.329  28.105  1.00  0.00     0.059 A 
ATOM     70  C   UNL A   1      47.061  34.796  30.439  1.00  0.00     0.059 A 
ATOM     71  F   UNL A   1      46.787  32.592  31.193  1.00  0.00    -0.206 F 
ATOM     72  C   UNL A   1      47.032  35.716  29.392  1.00  0.00     0.060 A 
BRANCH  72  73
ATOM     73  S   UNL A   1      47.466  37.444  29.685  1.00  0.00     0.124 S 
ATOM     74  O   UNL A   1      48.122  37.796  28.429  1.00  0.00    -0.237 OA
ATOM     75  O   UNL A   1      46.164  38.061  29.914  1.00  0.00    -0.237 OA
ATOM     76  O   UNL A   1      48.340  37.381  30.853  1.00  0.00    -0.744 OA
ENDBRANCH  72  73
ENDBRANCH  51  65
BRANCH  52  77
ATOM     77  C   UNL A   1      43.243  23.697  27.188  1.00  0.00     0.058 A 
ATOM     78  C   UNL A   1      43.017  22.766  28.213  1.00  0.00     0.135 A 
ATOM     79  C   UNL A   1      43.031  23.280  25.865  1.00  0.00     0.135 A 
ATOM     80  F   UNL A   1      43.214  23.116  29.492  1.00  0.00    -0.206 F 
ATOM     81  C   UNL A   1      42.617  21.463  27.935  1.00  0.00     0.059 A 
ATOM     82  C   UNL A   1      42.609  21.990  25.565  1.00  0.00     0.059 A 
ATOM     83  F   UNL A   1      43.221  24.139  24.850  1.00  0.00    -0.206 F 
ATOM     84  C   UNL A   1      42.417  21.084  26.607  1.00  0.00     0.060 A 
BRANCH  84  85
ATOM     85  S   UNL A   1      41.861  19.402  26.255  1.00  0.00     0.124 S 
ATOM     86  O   UNL A   1      42.591  19.103  25.029  1.00  0.00    -0.237 OA
ATOM     87  O   UNL A   1      42.289  18.679  27.448  1.00  0.00    -0.237 OA
ATOM     88  O   UNL A   1      40.415  19.552  26.109  1.00  0.00    -0.744 OA
ENDBRANCH  84  85
ENDBRANCH  52  77
BRANCH  64  89
ATOM     89  C   UNL A   1      49.446  26.861  26.855  1.00  0.00     0.058 A 
ATOM     90  C   UNL A   1      50.350  26.448  27.845  1.00  0.00     0.135 A 
ATOM     91  C   UNL A   1      49.850  26.763  25.515  1.00  0.00     0.135 A 
ATOM     92  F   UNL A   1      50.012  26.524  29.143  1.00  0.00    -0.206 F 
ATOM     93  C   UNL A   1      51.620  25.983  27.521  1.00  0.00     0.059 A 
ATOM     94  C   UNL A   1      51.107  26.279  25.165  1.00  0.00     0.059 A 
ATOM     95  F   UNL A   1      49.018  27.134  24.528  1.00  0.00    -0.206 F 
ATOM     96  C   UNL A   1      51.991  25.907  26.176  1.00  0.00     0.060 A 
BRANCH  96  97
ATOM     97  S   UNL A   1      53.636  25.291  25.761  1.00  0.00     0.124 S 
ATOM     98  O   UNL A   1      54.154  26.376  24.933  1.00  0.00    -0.237 OA
ATOM     99  O   UNL A   1      54.260  25.142  27.073  1.00  0.00    -0.237 OA
ATOM    100  O   UNL A   1      53.362  24.040  25.060  1.00  0.00    -0.744 OA
ENDBRANCH  96  97
ENDBRANCH  64  89
ENDBRANCH  38  39
ENDBRANCH  31  33
ENDBRANCH  30  31
ENDBRANCH  29  30
ENDBRANCH  28  29
ENDBRANCH  27  28
ENDBRANCH   1  27
TORSDOF 22
ENDMDL
