MODEL 1
REMARK VINA RESULT:     -11.0      0.000      0.000
REMARK SMILES Cc1ccc(C(=O)NC2CC2)cc1NC(=O)[C@@H]1[C@@H](C(=O)OCCOCCOC(=O)c2ccc(-c3c4nc(c(-c5c(F)cc(S(=O)(=O)[O-])cc5F)c5ccc([nH]5)c(-c5c(F)cc(S(=O)(=O)[O-])cc5F)c5nc(c(-c6c(F)cc(S(=O)(=O)[O-])cc6F)c6ccc3[nH]6)C=C5)C=C4)cc2)[C@H]2C=C[C@@H]1C2
REMARK SMILES IDX 23 1 22 2 21 3 19 4 20 5 18 6 17 7 99 8 96 9 98 10 100 11
REMARK SMILES IDX 97 12 15 13 14 14 16 16 13 17 1 18 2 19 3 20 4 21 12 22 5 23
REMARK SMILES IDX 6 24 7 25 8 26 9 28 10 29 11 30 24 31 25 32 26 33 27 34
REMARK SMILES IDX 28 35 29 36 30 37 31 38 95 39 32 40 94 41 33 42 34 43 35 44
REMARK SMILES IDX 88 45 36 46 93 47 87 48 89 49 37 50 92 51 86 52 85 53 38 55
REMARK SMILES IDX 72 56 51 57 71 58 52 59 55 60 70 61 90 62 53 63 54 64 69 66
REMARK SMILES IDX 91 67 56 68 39 69 40 70 49 71 41 72 42 73 48 74 50 75 43 76
REMARK SMILES IDX 44 77 45 78 46 79 47 80 73 81 74 82 83 83 75 84 76 85 82 86
REMARK SMILES IDX 84 87 77 88 78 89 79 90 80 91 81 92 57 93 58 94 67 95 59 96
REMARK SMILES IDX 60 97 66 98 68 99 61 100 62 101 63 102 64 103 65 104
REMARK H PARENT 14 15 8 27 89 54 55 65
REMARK Flexibility Score: inf
ROOT
ATOM      1  C   UNL A   1      33.590  31.204  27.480  1.00  0.00     0.202 C 
ENDROOT
BRANCH   1   2
ATOM      2  C   UNL A   1      33.296  29.975  26.606  1.00  0.00     0.261 C 
BRANCH   2   3
ATOM      3  O   UNL A   1      32.186  30.095  25.725  1.00  0.00    -0.463 OA
BRANCH   3   4
ATOM      4  C   UNL A   1      32.209  29.202  24.730  1.00  0.00     0.310 C 
ATOM      5  O   UNL A   1      33.204  28.962  24.035  1.00  0.00    -0.252 OA
BRANCH   4   6
ATOM      6  C   UNL A   1      30.956  28.401  24.681  1.00  0.00     0.119 C 
ATOM      7  C   UNL A   1      31.326  26.901  24.831  1.00  0.00     0.100 C 
ATOM      8  C   UNL A   1      30.340  26.211  23.869  1.00  0.00     0.025 C 
ATOM      9  C   UNL A   1      30.115  28.399  23.388  1.00  0.00     0.027 C 
ATOM     10  C   UNL A   1      30.944  26.436  22.490  1.00  0.00    -0.027 C 
ATOM     11  C   UNL A   1      29.190  27.218  23.739  1.00  0.00     0.017 C 
ATOM     12  C   UNL A   1      30.846  27.750  22.228  1.00  0.00    -0.027 C 
BRANCH   7  13
ATOM     13  C   UNL A   1      31.367  26.502  26.288  1.00  0.00     0.228 C 
ATOM     14  N   UNL A   1      31.820  25.279  26.715  1.00  0.00    -0.326 N 
ATOM     15  H   UNL A   1      31.877  25.209  27.695  1.00  0.00     0.169 HD
ATOM     16  O   UNL A   1      30.956  27.279  27.158  1.00  0.00    -0.274 OA
BRANCH  14  17
ATOM     17  C   UNL A   1      32.222  24.096  26.047  1.00  0.00     0.044 A 
ATOM     18  C   UNL A   1      30.129  22.862  26.873  1.00  0.00     0.046 C 
ATOM     19  C   UNL A   1      31.371  22.982  26.036  1.00  0.00    -0.027 A 
ATOM     20  C   UNL A   1      31.689  21.890  25.205  1.00  0.00     0.006 A 
ATOM     21  C   UNL A   1      32.817  21.906  24.381  1.00  0.00     0.014 A 
ATOM     22  C   UNL A   1      33.433  23.985  25.364  1.00  0.00     0.040 A 
ATOM     23  C   UNL A   1      33.720  22.961  24.456  1.00  0.00     0.041 A 
BRANCH  23  24
ATOM     24  C   UNL A   1      34.852  22.975  23.469  1.00  0.00     0.251 C 
ATOM     25  O   UNL A   1      34.652  23.461  22.355  1.00  0.00    -0.269 OA
ATOM     26  N   UNL A   1      36.116  22.525  23.770  1.00  0.00    -0.349 N 
ATOM     27  H   UNL A   1      36.797  22.660  23.073  1.00  0.00     0.164 HD
BRANCH  26  28
ATOM     28  C   UNL A   1      36.563  21.893  24.950  1.00  0.00     0.082 C 
ATOM     29  C   UNL A   1      36.951  20.482  24.921  1.00  0.00     0.027 C 
ATOM     30  C   UNL A   1      37.993  21.539  25.226  1.00  0.00     0.027 C 
ENDBRANCH  26  28
ENDBRANCH  23  24
ENDBRANCH  14  17
ENDBRANCH   7  13
ENDBRANCH   4   6
ENDBRANCH   3   4
ENDBRANCH   2   3
ENDBRANCH   1   2
BRANCH   1  31
ATOM     31  O   UNL A   1      34.831  31.289  28.166  1.00  0.00    -0.374 OA
BRANCH  31  32
ATOM     32  C   UNL A   1      35.564  30.094  28.418  1.00  0.00     0.202 C 
BRANCH  32  33
ATOM     33  C   UNL A   1      36.833  30.229  29.276  1.00  0.00     0.261 C 
BRANCH  33  34
ATOM     34  O   UNL A   1      36.637  29.482  30.495  1.00  0.00    -0.460 OA
BRANCH  34  35
ATOM     35  C   UNL A   1      37.421  29.004  31.479  1.00  0.00     0.338 C 
ATOM     36  O   UNL A   1      37.449  29.653  32.526  1.00  0.00    -0.246 OA
BRANCH  35  37
ATOM     37  C   UNL A   1      38.450  27.888  31.341  1.00  0.00     0.060 A 
ATOM     38  C   UNL A   1      39.220  27.783  32.510  1.00  0.00     0.016 A 
ATOM     39  C   UNL A   1      39.166  27.826  30.156  1.00  0.00     0.016 A 
ATOM     40  C   UNL A   1      40.514  28.312  32.521  1.00  0.00     0.010 A 
ATOM     41  C   UNL A   1      40.453  28.366  30.134  1.00  0.00     0.010 A 
ATOM     42  C   UNL A   1      41.038  28.802  31.327  1.00  0.00    -0.014 A 
BRANCH  42  43
ATOM     43  C   UNL A   1      41.862  30.031  31.316  1.00  0.00     0.031 A 
ATOM     44  C   UNL A   1      41.564  31.225  32.157  1.00  0.00     0.074 A 
ATOM     45  C   UNL A   1      43.058  29.979  30.665  1.00  0.00     0.049 A 
ATOM     46  N   UNL A   1      42.026  32.417  31.953  1.00  0.00    -0.248 NA
ATOM     47  C   UNL A   1      40.737  31.151  33.350  1.00  0.00     0.031 C 
ATOM     48  C   UNL A   1      44.128  30.974  30.707  1.00  0.00     0.029 A 
ATOM     49  N   UNL A   1      43.565  29.041  29.762  1.00  0.00    -0.354 N 
ATOM     50  C   UNL A   1      41.852  33.163  33.108  1.00  0.00     0.074 A 
ATOM     51  C   UNL A   1      40.975  32.342  33.912  1.00  0.00     0.031 C 
ATOM     52  C   UNL A   1      45.061  30.699  29.784  1.00  0.00     0.029 A 
ATOM     53  C   UNL A   1      44.481  29.687  28.929  1.00  0.00     0.049 A 
ATOM     54  H   UNL A   1      43.320  28.088  29.720  1.00  0.00     0.167 HD
ATOM     55  C   UNL A   1      42.585  34.311  33.311  1.00  0.00     0.037 A 
ATOM     56  C   UNL A   1      44.252  29.890  27.599  1.00  0.00     0.037 A 
ATOM     57  C   UNL A   1      43.482  34.586  32.159  1.00  0.00     0.049 A 
ATOM     58  C   UNL A   1      44.102  31.385  27.312  1.00  0.00     0.074 A 
ATOM     59  C   UNL A   1      44.859  34.667  32.025  1.00  0.00     0.029 A 
ATOM     60  N   UNL A   1      42.987  34.607  30.845  1.00  0.00    -0.354 N 
ATOM     61  N   UNL A   1      43.739  32.267  28.214  1.00  0.00    -0.248 NA
ATOM     62  C   UNL A   1      44.459  32.020  26.046  1.00  0.00     0.031 C 
ATOM     63  C   UNL A   1      45.191  34.599  30.648  1.00  0.00     0.029 A 
ATOM     64  C   UNL A   1      44.015  34.559  29.918  1.00  0.00     0.049 A 
ATOM     65  H   UNL A   1      42.031  34.649  30.612  1.00  0.00     0.167 HD
ATOM     66  C   UNL A   1      43.908  33.535  27.725  1.00  0.00     0.074 A 
ATOM     67  C   UNL A   1      44.309  33.325  26.342  1.00  0.00     0.031 C 
ATOM     68  C   UNL A   1      43.785  34.671  28.479  1.00  0.00     0.037 A 
BRANCH  55  69
ATOM     69  C   UNL A   1      42.713  35.033  34.682  1.00  0.00     0.058 A 
ATOM     70  C   UNL A   1      41.668  35.811  35.245  1.00  0.00     0.135 A 
ATOM     71  C   UNL A   1      43.867  35.016  35.496  1.00  0.00     0.135 A 
ATOM     72  F   UNL A   1      40.433  35.802  34.728  1.00  0.00    -0.206 F 
ATOM     73  C   UNL A   1      41.814  36.608  36.398  1.00  0.00     0.059 A 
ATOM     74  C   UNL A   1      44.062  35.841  36.615  1.00  0.00     0.059 A 
ATOM     75  F   UNL A   1      44.834  34.110  35.315  1.00  0.00    -0.206 F 
ATOM     76  C   UNL A   1      43.033  36.651  37.057  1.00  0.00     0.060 A 
BRANCH  76  77
ATOM     77  S   UNL A   1      43.237  37.683  38.528  1.00  0.00     0.124 S 
ATOM     78  O   UNL A   1      43.900  38.866  37.989  1.00  0.00    -0.237 OA
ATOM     79  O   UNL A   1      41.859  37.869  38.969  1.00  0.00    -0.237 OA
ATOM     80  O   UNL A   1      44.064  36.860  39.408  1.00  0.00    -0.744 OA
ENDBRANCH  76  77
ENDBRANCH  55  69
BRANCH  56  81
ATOM     81  C   UNL A   1      43.619  28.729  26.909  1.00  0.00     0.058 A 
ATOM     82  C   UNL A   1      44.444  27.617  26.619  1.00  0.00     0.135 A 
ATOM     83  C   UNL A   1      42.236  28.507  26.883  1.00  0.00     0.135 A 
ATOM     84  F   UNL A   1      45.780  27.764  26.620  1.00  0.00    -0.206 F 
ATOM     85  C   UNL A   1      43.935  26.328  26.437  1.00  0.00     0.059 A 
ATOM     86  C   UNL A   1      41.702  27.224  26.690  1.00  0.00     0.059 A 
ATOM     87  F   UNL A   1      41.389  29.504  27.178  1.00  0.00    -0.206 F 
ATOM     88  C   UNL A   1      42.560  26.131  26.515  1.00  0.00     0.060 A 
BRANCH  88  89
ATOM     89  S   UNL A   1      41.909  24.431  26.594  1.00  0.00     0.124 S 
ATOM     90  O   UNL A   1      42.230  24.052  27.965  1.00  0.00    -0.237 OA
ATOM     91  O   UNL A   1      40.487  24.580  26.303  1.00  0.00    -0.237 OA
ATOM     92  O   UNL A   1      42.670  23.733  25.559  1.00  0.00    -0.744 OA
ENDBRANCH  88  89
ENDBRANCH  56  81
BRANCH  68  93
ATOM     93  C   UNL A   1      43.579  36.051  27.896  1.00  0.00     0.058 A 
ATOM     94  C   UNL A   1      42.298  36.577  27.651  1.00  0.00     0.135 A 
ATOM     95  C   UNL A   1      44.651  36.968  27.770  1.00  0.00     0.135 A 
ATOM     96  F   UNL A   1      41.196  35.830  27.818  1.00  0.00    -0.206 F 
ATOM     97  C   UNL A   1      42.093  37.904  27.280  1.00  0.00     0.059 A 
ATOM     98  C   UNL A   1      44.464  38.310  27.448  1.00  0.00     0.059 A 
ATOM     99  F   UNL A   1      45.922  36.602  27.983  1.00  0.00    -0.206 F 
ATOM    100  C   UNL A   1      43.180  38.768  27.193  1.00  0.00     0.060 A 
BRANCH 100 101
ATOM    101  S   UNL A   1      42.907  40.513  26.841  1.00  0.00     0.124 S 
ATOM    102  O   UNL A   1      41.464  40.625  27.026  1.00  0.00    -0.237 OA
ATOM    103  O   UNL A   1      43.725  41.180  27.850  1.00  0.00    -0.237 OA
ATOM    104  O   UNL A   1      43.384  40.655  25.468  1.00  0.00    -0.744 OA
ENDBRANCH 100 101
ENDBRANCH  68  93
ENDBRANCH  42  43
ENDBRANCH  35  37
ENDBRANCH  34  35
ENDBRANCH  33  34
ENDBRANCH  32  33
ENDBRANCH  31  32
ENDBRANCH   1  31
TORSDOF 21
ENDMDL
MODEL 2
REMARK VINA RESULT:     -10.8      3.081      4.104
REMARK SMILES Cc1ccc(C(=O)NC2CC2)cc1NC(=O)[C@@H]1[C@@H](C(=O)OCCOCCOC(=O)c2ccc(-c3c4nc(c(-c5c(F)cc(S(=O)(=O)[O-])cc5F)c5ccc([nH]5)c(-c5c(F)cc(S(=O)(=O)[O-])cc5F)c5nc(c(-c6c(F)cc(S(=O)(=O)[O-])cc6F)c6ccc3[nH]6)C=C5)C=C4)cc2)[C@H]2C=C[C@@H]1C2
REMARK SMILES IDX 23 1 22 2 21 3 19 4 20 5 18 6 17 7 99 8 96 9 98 10 100 11
REMARK SMILES IDX 97 12 15 13 14 14 16 16 13 17 1 18 2 19 3 20 4 21 12 22 5 23
REMARK SMILES IDX 6 24 7 25 8 26 9 28 10 29 11 30 24 31 25 32 26 33 27 34
REMARK SMILES IDX 28 35 29 36 30 37 31 38 95 39 32 40 94 41 33 42 34 43 35 44
REMARK SMILES IDX 88 45 36 46 93 47 87 48 89 49 37 50 92 51 86 52 85 53 38 55
REMARK SMILES IDX 72 56 51 57 71 58 52 59 55 60 70 61 90 62 53 63 54 64 69 66
REMARK SMILES IDX 91 67 56 68 39 69 40 70 49 71 41 72 42 73 48 74 50 75 43 76
REMARK SMILES IDX 44 77 45 78 46 79 47 80 73 81 74 82 83 83 75 84 76 85 82 86
REMARK SMILES IDX 84 87 77 88 78 89 79 90 80 91 81 92 57 93 58 94 67 95 59 96
REMARK SMILES IDX 60 97 66 98 68 99 61 100 62 101 63 102 64 103 65 104
REMARK H PARENT 14 15 8 27 89 54 55 65
REMARK Flexibility Score: inf
ROOT
ATOM      1  C   UNL A   1      33.201  30.502  27.429  1.00  0.00     0.202 C 
ENDROOT
BRANCH   1   2
ATOM      2  C   UNL A   1      31.929  30.305  26.590  1.00  0.00     0.261 C 
BRANCH   2   3
ATOM      3  O   UNL A   1      32.123  30.226  25.183  1.00  0.00    -0.463 OA
BRANCH   3   4
ATOM      4  C   UNL A   1      32.311  28.974  24.751  1.00  0.00     0.310 C 
ATOM      5  O   UNL A   1      33.423  28.465  24.560  1.00  0.00    -0.252 OA
BRANCH   4   6
ATOM      6  C   UNL A   1      31.036  28.209  24.707  1.00  0.00     0.119 C 
ATOM      7  C   UNL A   1      31.366  26.698  24.833  1.00  0.00     0.100 C 
ATOM      8  C   UNL A   1      30.348  26.048  23.874  1.00  0.00     0.025 C 
ATOM      9  C   UNL A   1      30.180  28.248  23.426  1.00  0.00     0.027 C 
ATOM     10  C   UNL A   1      30.942  26.275  22.491  1.00  0.00    -0.027 C 
ATOM     11  C   UNL A   1      29.226  27.088  23.773  1.00  0.00     0.017 C 
ATOM     12  C   UNL A   1      30.877  27.594  22.248  1.00  0.00    -0.027 C 
BRANCH   7  13
ATOM     13  C   UNL A   1      31.414  26.278  26.284  1.00  0.00     0.228 C 
ATOM     14  N   UNL A   1      31.890  25.058  26.693  1.00  0.00    -0.326 N 
ATOM     15  H   UNL A   1      31.948  24.974  27.672  1.00  0.00     0.169 HD
ATOM     16  O   UNL A   1      30.987  27.033  27.166  1.00  0.00    -0.274 OA
BRANCH  14  17
ATOM     17  C   UNL A   1      32.316  23.893  26.009  1.00  0.00     0.044 A 
ATOM     18  C   UNL A   1      30.191  22.642  26.717  1.00  0.00     0.046 C 
ATOM     19  C   UNL A   1      31.465  22.782  25.933  1.00  0.00    -0.027 A 
ATOM     20  C   UNL A   1      31.813  21.713  25.083  1.00  0.00     0.006 A 
ATOM     21  C   UNL A   1      32.972  21.749  24.305  1.00  0.00     0.014 A 
ATOM     22  C   UNL A   1      33.553  23.798  25.370  1.00  0.00     0.040 A 
ATOM     23  C   UNL A   1      33.873  22.799  24.445  1.00  0.00     0.041 A 
BRANCH  23  24
ATOM     24  C   UNL A   1      35.043  22.838  23.504  1.00  0.00     0.251 C 
ATOM     25  O   UNL A   1      34.890  23.361  22.399  1.00  0.00    -0.269 OA
ATOM     26  N   UNL A   1      36.292  22.370  23.838  1.00  0.00    -0.349 N 
ATOM     27  H   UNL A   1      37.000  22.523  23.173  1.00  0.00     0.164 HD
BRANCH  26  28
ATOM     28  C   UNL A   1      36.689  21.697  25.014  1.00  0.00     0.082 C 
ATOM     29  C   UNL A   1      37.637  20.583  24.933  1.00  0.00     0.027 C 
ATOM     30  C   UNL A   1      38.033  21.853  25.660  1.00  0.00     0.027 C 
ENDBRANCH  26  28
ENDBRANCH  23  24
ENDBRANCH  14  17
ENDBRANCH   7  13
ENDBRANCH   4   6
ENDBRANCH   3   4
ENDBRANCH   2   3
ENDBRANCH   1   2
BRANCH   1  31
ATOM     31  O   UNL A   1      33.708  31.814  27.624  1.00  0.00    -0.374 OA
BRANCH  31  32
ATOM     32  C   UNL A   1      35.077  31.979  27.981  1.00  0.00     0.202 C 
BRANCH  32  33
ATOM     33  C   UNL A   1      35.367  32.439  29.419  1.00  0.00     0.261 C 
BRANCH  33  34
ATOM     34  O   UNL A   1      36.616  31.852  29.839  1.00  0.00    -0.460 OA
BRANCH  34  35
ATOM     35  C   UNL A   1      37.001  30.703  30.428  1.00  0.00     0.338 C 
ATOM     36  O   UNL A   1      37.229  30.754  31.638  1.00  0.00    -0.246 OA
BRANCH  35  37
ATOM     37  C   UNL A   1      37.411  29.424  29.710  1.00  0.00     0.060 A 
ATOM     38  C   UNL A   1      38.013  28.528  30.608  1.00  0.00     0.016 A 
ATOM     39  C   UNL A   1      38.055  29.557  28.489  1.00  0.00     0.016 A 
ATOM     40  C   UNL A   1      39.405  28.398  30.605  1.00  0.00     0.010 A 
ATOM     41  C   UNL A   1      39.447  29.452  28.463  1.00  0.00     0.010 A 
ATOM     42  C   UNL A   1      40.130  29.061  29.618  1.00  0.00    -0.014 A 
BRANCH  42  43
ATOM     43  C   UNL A   1      41.424  29.704  29.939  1.00  0.00     0.031 A 
ATOM     44  C   UNL A   1      41.614  31.181  29.995  1.00  0.00     0.074 A 
ATOM     45  C   UNL A   1      42.422  28.904  30.408  1.00  0.00     0.049 A 
ATOM     46  N   UNL A   1      42.754  31.791  29.936  1.00  0.00    -0.248 NA
ATOM     47  C   UNL A   1      40.505  32.103  30.175  1.00  0.00     0.031 C 
ATOM     48  C   UNL A   1      43.692  29.331  30.996  1.00  0.00     0.029 A 
ATOM     49  N   UNL A   1      42.552  27.512  30.408  1.00  0.00    -0.354 N 
ATOM     50  C   UNL A   1      42.586  33.091  30.385  1.00  0.00     0.074 A 
ATOM     51  C   UNL A   1      41.149  33.244  30.444  1.00  0.00     0.031 C 
ATOM     52  C   UNL A   1      44.514  28.283  31.146  1.00  0.00     0.029 A 
ATOM     53  C   UNL A   1      43.914  27.201  30.397  1.00  0.00     0.049 A 
ATOM     54  H   UNL A   1      41.812  26.863  30.414  1.00  0.00     0.167 HD
ATOM     55  C   UNL A   1      43.672  33.831  30.795  1.00  0.00     0.037 A 
ATOM     56  C   UNL A   1      44.528  26.615  29.329  1.00  0.00     0.037 A 
ATOM     57  C   UNL A   1      44.933  33.061  30.649  1.00  0.00     0.049 A 
ATOM     58  C   UNL A   1      45.530  27.586  28.700  1.00  0.00     0.074 A 
ATOM     59  C   UNL A   1      45.884  32.615  31.553  1.00  0.00     0.029 A 
ATOM     60  N   UNL A   1      45.261  32.432  29.437  1.00  0.00    -0.354 N 
ATOM     61  N   UNL A   1      45.452  28.891  28.817  1.00  0.00    -0.248 NA
ATOM     62  C   UNL A   1      46.747  27.176  28.005  1.00  0.00     0.031 C 
ATOM     63  C   UNL A   1      46.688  31.629  30.925  1.00  0.00     0.029 A 
ATOM     64  C   UNL A   1      46.290  31.520  29.603  1.00  0.00     0.049 A 
ATOM     65  H   UNL A   1      44.816  32.617  28.577  1.00  0.00     0.167 HD
ATOM     66  C   UNL A   1      46.596  29.474  28.343  1.00  0.00     0.074 A 
ATOM     67  C   UNL A   1      47.353  28.360  27.793  1.00  0.00     0.031 C 
ATOM     68  C   UNL A   1      46.896  30.802  28.484  1.00  0.00     0.037 A 
BRANCH  55  69
ATOM     69  C   UNL A   1      43.569  35.152  31.610  1.00  0.00     0.058 A 
ATOM     70  C   UNL A   1      44.220  36.352  31.220  1.00  0.00     0.135 A 
ATOM     71  C   UNL A   1      42.850  35.299  32.817  1.00  0.00     0.135 A 
ATOM     72  F   UNL A   1      44.793  36.477  30.017  1.00  0.00    -0.206 F 
ATOM     73  C   UNL A   1      44.281  37.509  32.021  1.00  0.00     0.059 A 
ATOM     74  C   UNL A   1      42.939  36.417  33.662  1.00  0.00     0.059 A 
ATOM     75  F   UNL A   1      41.928  34.407  33.192  1.00  0.00    -0.206 F 
ATOM     76  C   UNL A   1      43.671  37.520  33.266  1.00  0.00     0.060 A 
BRANCH  76  77
ATOM     77  S   UNL A   1      43.758  38.993  34.310  1.00  0.00     0.124 S 
ATOM     78  O   UNL A   1      43.683  38.430  35.653  1.00  0.00    -0.237 OA
ATOM     79  O   UNL A   1      45.044  39.567  33.930  1.00  0.00    -0.237 OA
ATOM     80  O   UNL A   1      42.588  39.769  33.901  1.00  0.00    -0.744 OA
ENDBRANCH  76  77
ENDBRANCH  55  69
BRANCH  56  81
ATOM     81  C   UNL A   1      43.723  25.540  28.681  1.00  0.00     0.058 A 
ATOM     82  C   UNL A   1      43.274  25.772  27.360  1.00  0.00     0.135 A 
ATOM     83  C   UNL A   1      43.713  24.211  29.122  1.00  0.00     0.135 A 
ATOM     84  F   UNL A   1      43.251  27.027  26.878  1.00  0.00    -0.206 F 
ATOM     85  C   UNL A   1      42.952  24.735  26.480  1.00  0.00     0.059 A 
ATOM     86  C   UNL A   1      43.381  23.154  28.260  1.00  0.00     0.059 A 
ATOM     87  F   UNL A   1      44.154  23.907  30.352  1.00  0.00    -0.206 F 
ATOM     88  C   UNL A   1      43.048  23.420  26.927  1.00  0.00     0.060 A 
BRANCH  88  89
ATOM     89  S   UNL A   1      42.940  22.061  25.718  1.00  0.00     0.124 S 
ATOM     90  O   UNL A   1      43.046  22.778  24.453  1.00  0.00    -0.237 OA
ATOM     91  O   UNL A   1      44.072  21.201  26.047  1.00  0.00    -0.237 OA
ATOM     92  O   UNL A   1      41.631  21.472  25.994  1.00  0.00    -0.744 OA
ENDBRANCH  88  89
ENDBRANCH  56  81
BRANCH  68  93
ATOM     93  C   UNL A   1      47.929  31.526  27.649  1.00  0.00     0.058 A 
ATOM     94  C   UNL A   1      47.580  32.542  26.741  1.00  0.00     0.135 A 
ATOM     95  C   UNL A   1      49.316  31.374  27.894  1.00  0.00     0.135 A 
ATOM     96  F   UNL A   1      46.296  32.839  26.490  1.00  0.00    -0.206 F 
ATOM     97  C   UNL A   1      48.533  33.330  26.099  1.00  0.00     0.059 A 
ATOM     98  C   UNL A   1      50.281  32.183  27.299  1.00  0.00     0.059 A 
ATOM     99  F   UNL A   1      49.786  30.450  28.742  1.00  0.00    -0.206 F 
ATOM    100  C   UNL A   1      49.880  33.154  26.393  1.00  0.00     0.060 A 
BRANCH 100 101
ATOM    101  S   UNL A   1      51.104  34.257  25.665  1.00  0.00     0.124 S 
ATOM    102  O   UNL A   1      50.406  35.537  25.709  1.00  0.00    -0.237 OA
ATOM    103  O   UNL A   1      52.240  34.127  26.573  1.00  0.00    -0.237 OA
ATOM    104  O   UNL A   1      51.311  33.692  24.334  1.00  0.00    -0.744 OA
ENDBRANCH 100 101
ENDBRANCH  68  93
ENDBRANCH  42  43
ENDBRANCH  35  37
ENDBRANCH  34  35
ENDBRANCH  33  34
ENDBRANCH  32  33
ENDBRANCH  31  32
ENDBRANCH   1  31
TORSDOF 21
ENDMDL
MODEL 3
REMARK VINA RESULT:     -10.8      4.354      6.861
REMARK SMILES Cc1ccc(C(=O)NC2CC2)cc1NC(=O)[C@@H]1[C@@H](C(=O)OCCOCCOC(=O)c2ccc(-c3c4nc(c(-c5c(F)cc(S(=O)(=O)[O-])cc5F)c5ccc([nH]5)c(-c5c(F)cc(S(=O)(=O)[O-])cc5F)c5nc(c(-c6c(F)cc(S(=O)(=O)[O-])cc6F)c6ccc3[nH]6)C=C5)C=C4)cc2)[C@H]2C=C[C@@H]1C2
REMARK SMILES IDX 23 1 22 2 21 3 19 4 20 5 18 6 17 7 99 8 96 9 98 10 100 11
REMARK SMILES IDX 97 12 15 13 14 14 16 16 13 17 1 18 2 19 3 20 4 21 12 22 5 23
REMARK SMILES IDX 6 24 7 25 8 26 9 28 10 29 11 30 24 31 25 32 26 33 27 34
REMARK SMILES IDX 28 35 29 36 30 37 31 38 95 39 32 40 94 41 33 42 34 43 35 44
REMARK SMILES IDX 88 45 36 46 93 47 87 48 89 49 37 50 92 51 86 52 85 53 38 55
REMARK SMILES IDX 72 56 51 57 71 58 52 59 55 60 70 61 90 62 53 63 54 64 69 66
REMARK SMILES IDX 91 67 56 68 39 69 40 70 49 71 41 72 42 73 48 74 50 75 43 76
REMARK SMILES IDX 44 77 45 78 46 79 47 80 73 81 74 82 83 83 75 84 76 85 82 86
REMARK SMILES IDX 84 87 77 88 78 89 79 90 80 91 81 92 57 93 58 94 67 95 59 96
REMARK SMILES IDX 60 97 66 98 68 99 61 100 62 101 63 102 64 103 65 104
REMARK H PARENT 14 15 8 27 89 54 55 65
REMARK Flexibility Score: inf
ROOT
ATOM      1  C   UNL A   1      38.477  33.325  35.781  1.00  0.00     0.202 C 
ENDROOT
BRANCH   1   2
ATOM      2  C   UNL A   1      38.875  34.244  34.616  1.00  0.00     0.261 C 
BRANCH   2   3
ATOM      3  O   UNL A   1      38.591  33.748  33.314  1.00  0.00    -0.463 OA
BRANCH   3   4
ATOM      4  C   UNL A   1      37.537  34.344  32.745  1.00  0.00     0.310 C 
ATOM      5  O   UNL A   1      36.927  35.298  33.243  1.00  0.00    -0.252 OA
BRANCH   4   6
ATOM      6  C   UNL A   1      37.303  33.847  31.362  1.00  0.00     0.119 C 
ATOM      7  C   UNL A   1      37.404  32.299  31.373  1.00  0.00     0.100 C 
ATOM      8  C   UNL A   1      38.107  31.996  30.034  1.00  0.00     0.025 C 
ATOM      9  C   UNL A   1      38.298  34.230  30.247  1.00  0.00     0.027 C 
ATOM     10  C   UNL A   1      39.573  32.302  30.305  1.00  0.00    -0.027 C 
ATOM     11  C   UNL A   1      37.809  33.234  29.177  1.00  0.00     0.017 C 
ATOM     12  C   UNL A   1      39.673  33.631  30.474  1.00  0.00    -0.027 C 
BRANCH   7  13
ATOM     13  C   UNL A   1      36.064  31.676  31.682  1.00  0.00     0.228 C 
ATOM     14  N   UNL A   1      34.932  31.936  30.951  1.00  0.00    -0.326 N 
ATOM     15  H   UNL A   1      34.164  31.379  31.215  1.00  0.00     0.169 HD
ATOM     16  O   UNL A   1      35.939  30.914  32.649  1.00  0.00    -0.274 OA
BRANCH  14  17
ATOM     17  C   UNL A   1      34.632  32.835  29.897  1.00  0.00     0.044 A 
ATOM     18  C   UNL A   1      35.002  30.989  28.154  1.00  0.00     0.046 C 
ATOM     19  C   UNL A   1      34.564  32.362  28.580  1.00  0.00    -0.027 A 
ATOM     20  C   UNL A   1      34.068  33.215  27.574  1.00  0.00     0.006 A 
ATOM     21  C   UNL A   1      33.627  34.508  27.868  1.00  0.00     0.014 A 
ATOM     22  C   UNL A   1      34.369  34.189  30.107  1.00  0.00     0.040 A 
ATOM     23  C   UNL A   1      33.781  35.022  29.150  1.00  0.00     0.041 A 
BRANCH  23  24
ATOM     24  C   UNL A   1      33.188  36.373  29.431  1.00  0.00     0.251 C 
ATOM     25  O   UNL A   1      33.157  37.201  28.519  1.00  0.00    -0.269 OA
ATOM     26  N   UNL A   1      32.626  36.710  30.640  1.00  0.00    -0.349 N 
ATOM     27  H   UNL A   1      32.195  37.594  30.681  1.00  0.00     0.164 HD
BRANCH  26  28
ATOM     28  C   UNL A   1      32.587  35.952  31.829  1.00  0.00     0.082 C 
ATOM     29  C   UNL A   1      32.656  36.627  33.128  1.00  0.00     0.027 C 
ATOM     30  C   UNL A   1      31.399  35.874  32.740  1.00  0.00     0.027 C 
ENDBRANCH  26  28
ENDBRANCH  23  24
ENDBRANCH  14  17
ENDBRANCH   7  13
ENDBRANCH   4   6
ENDBRANCH   3   4
ENDBRANCH   2   3
ENDBRANCH   1   2
BRANCH   1  31
ATOM     31  O   UNL A   1      39.437  32.427  36.317  1.00  0.00    -0.374 OA
BRANCH  31  32
ATOM     32  C   UNL A   1      39.335  31.040  36.007  1.00  0.00     0.202 C 
BRANCH  32  33
ATOM     33  C   UNL A   1      38.348  30.650  34.895  1.00  0.00     0.261 C 
BRANCH  33  34
ATOM     34  O   UNL A   1      39.044  29.819  33.943  1.00  0.00    -0.460 OA
BRANCH  34  35
ATOM     35  C   UNL A   1      38.717  28.817  33.104  1.00  0.00     0.338 C 
ATOM     36  O   UNL A   1      37.516  28.581  32.970  1.00  0.00    -0.246 OA
BRANCH  35  37
ATOM     37  C   UNL A   1      39.683  27.804  32.502  1.00  0.00     0.060 A 
ATOM     38  C   UNL A   1      40.826  27.677  33.307  1.00  0.00     0.016 A 
ATOM     39  C   UNL A   1      39.928  27.891  31.140  1.00  0.00     0.016 A 
ATOM     40  C   UNL A   1      42.008  28.310  32.912  1.00  0.00     0.010 A 
ATOM     41  C   UNL A   1      41.091  28.537  30.718  1.00  0.00     0.010 A 
ATOM     42  C   UNL A   1      42.042  28.929  31.665  1.00  0.00    -0.014 A 
BRANCH  42  43
ATOM     43  C   UNL A   1      42.743  30.221  31.486  1.00  0.00     0.031 A 
ATOM     44  C   UNL A   1      42.457  31.430  32.310  1.00  0.00     0.074 A 
ATOM     45  C   UNL A   1      43.838  30.234  30.674  1.00  0.00     0.049 A 
ATOM     46  N   UNL A   1      42.777  32.643  31.994  1.00  0.00    -0.248 NA
ATOM     47  C   UNL A   1      41.814  31.351  33.611  1.00  0.00     0.031 C 
ATOM     48  C   UNL A   1      44.809  31.316  30.522  1.00  0.00     0.029 A 
ATOM     49  N   UNL A   1      44.297  29.293  29.749  1.00  0.00    -0.354 N 
ATOM     50  C   UNL A   1      42.699  33.434  33.129  1.00  0.00     0.074 A 
ATOM     51  C   UNL A   1      42.019  32.586  34.083  1.00  0.00     0.031 C 
ATOM     52  C   UNL A   1      45.626  31.070  29.488  1.00  0.00     0.029 A 
ATOM     53  C   UNL A   1      45.027  29.968  28.767  1.00  0.00     0.049 A 
ATOM     54  H   UNL A   1      44.135  28.323  29.781  1.00  0.00     0.167 HD
ATOM     55  C   UNL A   1      43.346  34.648  33.178  1.00  0.00     0.037 A 
ATOM     56  C   UNL A   1      44.600  30.079  27.476  1.00  0.00     0.037 A 
ATOM     57  C   UNL A   1      44.047  34.934  31.900  1.00  0.00     0.049 A 
ATOM     58  C   UNL A   1      44.278  31.539  27.151  1.00  0.00     0.074 A 
ATOM     59  C   UNL A   1      45.380  35.121  31.568  1.00  0.00     0.029 A 
ATOM     60  N   UNL A   1      43.376  34.842  30.670  1.00  0.00    -0.354 N 
ATOM     61  N   UNL A   1      43.964  32.435  28.058  1.00  0.00    -0.248 NA
ATOM     62  C   UNL A   1      44.398  32.132  25.822  1.00  0.00     0.031 C 
ATOM     63  C   UNL A   1      45.524  35.008  30.162  1.00  0.00     0.029 A 
ATOM     64  C   UNL A   1      44.266  34.830  29.609  1.00  0.00     0.049 A 
ATOM     65  H   UNL A   1      42.397  34.793  30.574  1.00  0.00     0.167 HD
ATOM     66  C   UNL A   1      43.950  33.684  27.498  1.00  0.00     0.074 A 
ATOM     67  C   UNL A   1      44.173  33.435  26.082  1.00  0.00     0.031 C 
ATOM     68  C   UNL A   1      43.831  34.845  28.214  1.00  0.00     0.037 A 
BRANCH  55  69
ATOM     69  C   UNL A   1      43.597  35.450  34.486  1.00  0.00     0.058 A 
ATOM     70  C   UNL A   1      44.803  35.360  35.228  1.00  0.00     0.135 A 
ATOM     71  C   UNL A   1      42.663  36.325  35.084  1.00  0.00     0.135 A 
ATOM     72  F   UNL A   1      45.881  34.737  34.737  1.00  0.00    -0.206 F 
ATOM     73  C   UNL A   1      44.992  35.943  36.497  1.00  0.00     0.059 A 
ATOM     74  C   UNL A   1      42.799  36.872  36.370  1.00  0.00     0.059 A 
ATOM     75  F   UNL A   1      41.609  36.791  34.405  1.00  0.00    -0.206 F 
ATOM     76  C   UNL A   1      43.965  36.666  37.083  1.00  0.00     0.060 A 
BRANCH  76  77
ATOM     77  S   UNL A   1      44.189  37.404  38.718  1.00  0.00     0.124 S 
ATOM     78  O   UNL A   1      44.632  36.266  39.517  1.00  0.00    -0.237 OA
ATOM     79  O   UNL A   1      45.193  38.430  38.460  1.00  0.00    -0.237 OA
ATOM     80  O   UNL A   1      42.858  37.908  39.049  1.00  0.00    -0.744 OA
ENDBRANCH  76  77
ENDBRANCH  55  69
BRANCH  56  81
ATOM     81  C   UNL A   1      43.985  28.834  26.932  1.00  0.00     0.058 A 
ATOM     82  C   UNL A   1      44.861  27.812  26.501  1.00  0.00     0.135 A 
ATOM     83  C   UNL A   1      42.657  28.461  27.174  1.00  0.00     0.135 A 
ATOM     84  F   UNL A   1      46.148  28.105  26.244  1.00  0.00    -0.206 F 
ATOM     85  C   UNL A   1      44.478  26.469  26.433  1.00  0.00     0.059 A 
ATOM     86  C   UNL A   1      42.246  27.121  27.099  1.00  0.00     0.059 A 
ATOM     87  F   UNL A   1      41.773  29.367  27.615  1.00  0.00    -0.206 F 
ATOM     88  C   UNL A   1      43.174  26.124  26.774  1.00  0.00     0.060 A 
BRANCH  88  89
ATOM     89  S   UNL A   1      42.749  24.366  26.994  1.00  0.00     0.124 S 
ATOM     90  O   UNL A   1      42.457  23.956  25.625  1.00  0.00    -0.237 OA
ATOM     91  O   UNL A   1      43.951  23.780  27.579  1.00  0.00    -0.237 OA
ATOM     92  O   UNL A   1      41.597  24.410  27.893  1.00  0.00    -0.744 OA
ENDBRANCH  88  89
ENDBRANCH  56  81
BRANCH  68  93
ATOM     93  C   UNL A   1      43.423  36.170  27.609  1.00  0.00     0.058 A 
ATOM     94  C   UNL A   1      42.087  36.611  27.603  1.00  0.00     0.135 A 
ATOM     95  C   UNL A   1      44.386  37.131  27.215  1.00  0.00     0.135 A 
ATOM     96  F   UNL A   1      41.092  35.821  28.034  1.00  0.00    -0.206 F 
ATOM     97  C   UNL A   1      41.727  37.898  27.208  1.00  0.00     0.059 A 
ATOM     98  C   UNL A   1      44.051  38.436  26.863  1.00  0.00     0.059 A 
ATOM     99  F   UNL A   1      45.695  36.846  27.183  1.00  0.00    -0.206 F 
ATOM    100  C   UNL A   1      42.716  38.809  26.852  1.00  0.00     0.060 A 
BRANCH 100 101
ATOM    101  S   UNL A   1      42.265  40.510  26.466  1.00  0.00     0.124 S 
ATOM    102  O   UNL A   1      42.605  41.190  27.711  1.00  0.00    -0.237 OA
ATOM    103  O   UNL A   1      43.120  40.821  25.324  1.00  0.00    -0.237 OA
ATOM    104  O   UNL A   1      40.840  40.416  26.163  1.00  0.00    -0.744 OA
ENDBRANCH 100 101
ENDBRANCH  68  93
ENDBRANCH  42  43
ENDBRANCH  35  37
ENDBRANCH  34  35
ENDBRANCH  33  34
ENDBRANCH  32  33
ENDBRANCH  31  32
ENDBRANCH   1  31
TORSDOF 21
ENDMDL
