MODEL 1
REMARK VINA RESULT:      -9.3      0.000      0.000
REMARK SMILES COc1cc(F)ccc1NCC(C)(C)C(=O)OCCOCCOC(=O)c1ccc(-c2c3nc(c(-c4c(F)cc(S(=O)(=O)[O-])cc4F)c4ccc([nH]4)c(-c4c(F)cc(S(=O)(=O)[O-])cc4F)c4nc(c(-c5c(F)cc(S(=O)(=O)[O-])cc5F)c5ccc2[nH]5)C=C4)C=C3)cc1
REMARK SMILES IDX 19 1 18 2 17 3 15 4 16 5 12 6 13 7 14 8 11 9 10 10 9 12 3 13
REMARK SMILES IDX 4 14 5 15 8 16 6 17 7 18 2 19 1 20 20 21 21 22 22 23 23 24
REMARK SMILES IDX 24 25 25 26 26 27 27 28 91 29 28 30 90 31 29 32 30 33 31 34
REMARK SMILES IDX 84 35 32 36 89 37 83 38 85 39 33 40 88 41 82 42 81 43 34 45
REMARK SMILES IDX 68 46 47 47 67 48 48 49 51 50 66 51 86 52 49 53 50 54 65 56
REMARK SMILES IDX 87 57 52 58 35 59 36 60 45 61 37 62 38 63 44 64 46 65 39 66
REMARK SMILES IDX 40 67 41 68 42 69 43 70 69 71 70 72 79 73 71 74 72 75 78 76
REMARK SMILES IDX 80 77 73 78 74 79 75 80 76 81 77 82 53 83 54 84 63 85 55 86
REMARK SMILES IDX 56 87 62 88 64 89 57 90 58 91 59 92 60 93 61 94
REMARK H PARENT 10 11 85 44 51 55
REMARK Flexibility Score: inf
ROOT
ATOM      1  C   UNL A   1      33.252  30.929  27.362  1.00  0.00     0.202 C 
ENDROOT
BRANCH   1   2
ATOM      2  C   UNL A   1      33.697  29.715  26.543  1.00  0.00     0.261 C 
BRANCH   2   3
ATOM      3  O   UNL A   1      33.014  29.674  25.279  1.00  0.00    -0.463 OA
BRANCH   3   4
ATOM      4  C   UNL A   1      32.301  28.543  25.039  1.00  0.00     0.313 C 
ATOM      5  O   UNL A   1      31.513  28.045  25.837  1.00  0.00    -0.252 OA
BRANCH   4   6
ATOM      6  C   UNL A   1      32.582  27.951  23.653  1.00  0.00     0.080 C 
ATOM      7  C   UNL A   1      33.852  28.637  23.121  1.00  0.00     0.025 C 
ATOM      8  C   UNL A   1      31.445  28.237  22.648  1.00  0.00     0.025 C 
BRANCH   6   9
ATOM      9  C   UNL A   1      32.762  26.417  23.746  1.00  0.00     0.131 C 
BRANCH   9  10
ATOM     10  N   UNL A   1      33.684  25.987  24.783  1.00  0.00    -0.381 N 
ATOM     11  H   UNL A   1      34.507  26.514  24.899  1.00  0.00     0.160 HD
BRANCH  10  12
ATOM     12  C   UNL A   1      33.505  24.895  25.626  1.00  0.00     0.077 A 
ATOM     13  C   UNL A   1      34.601  24.029  25.855  1.00  0.00     0.144 A 
ATOM     14  C   UNL A   1      34.506  22.945  26.730  1.00  0.00     0.087 A 
ATOM     15  C   UNL A   1      33.290  22.678  27.341  1.00  0.00     0.127 A 
ATOM     16  C   UNL A   1      32.284  24.564  26.226  1.00  0.00     0.032 A 
ATOM     17  F   UNL A   1      33.187  21.638  28.179  1.00  0.00    -0.207 F 
ATOM     18  C   UNL A   1      32.176  23.467  27.087  1.00  0.00     0.041 A 
BRANCH  13  19
ATOM     19  O   UNL A   1      35.790  24.355  25.237  1.00  0.00    -0.494 OA
ATOM     20  C   UNL A   1      36.897  23.611  25.739  1.00  0.00     0.278 C 
ENDBRANCH  13  19
ENDBRANCH  10  12
ENDBRANCH   9  10
ENDBRANCH   6   9
ENDBRANCH   4   6
ENDBRANCH   3   4
ENDBRANCH   2   3
ENDBRANCH   1   2
BRANCH   1  21
ATOM     21  O   UNL A   1      34.227  31.955  27.561  1.00  0.00    -0.374 OA
BRANCH  21  22
ATOM     22  C   UNL A   1      34.084  32.791  28.707  1.00  0.00     0.202 C 
BRANCH  22  23
ATOM     23  C   UNL A   1      35.269  32.861  29.678  1.00  0.00     0.261 C 
BRANCH  23  24
ATOM     24  O   UNL A   1      36.371  32.020  29.289  1.00  0.00    -0.460 OA
BRANCH  24  25
ATOM     25  C   UNL A   1      36.704  31.083  30.204  1.00  0.00     0.338 C 
ATOM     26  O   UNL A   1      36.065  30.770  31.205  1.00  0.00    -0.246 OA
BRANCH  25  27
ATOM     27  C   UNL A   1      37.890  30.321  29.777  1.00  0.00     0.060 A 
ATOM     28  C   UNL A   1      38.795  29.930  30.774  1.00  0.00     0.016 A 
ATOM     29  C   UNL A   1      38.182  30.102  28.428  1.00  0.00     0.016 A 
ATOM     30  C   UNL A   1      40.027  29.390  30.423  1.00  0.00     0.010 A 
ATOM     31  C   UNL A   1      39.427  29.566  28.078  1.00  0.00     0.010 A 
ATOM     32  C   UNL A   1      40.374  29.257  29.072  1.00  0.00    -0.014 A 
BRANCH  32  33
ATOM     33  C   UNL A   1      41.791  28.996  28.719  1.00  0.00     0.031 A 
ATOM     34  C   UNL A   1      42.183  27.602  28.300  1.00  0.00     0.074 A 
ATOM     35  C   UNL A   1      42.696  29.990  28.696  1.00  0.00     0.049 A 
ATOM     36  N   UNL A   1      43.353  27.142  27.942  1.00  0.00    -0.248 NA
ATOM     37  C   UNL A   1      41.110  26.594  28.277  1.00  0.00     0.031 C 
ATOM     38  C   UNL A   1      42.421  31.388  29.024  1.00  0.00     0.029 A 
ATOM     39  N   UNL A   1      44.029  29.975  28.371  1.00  0.00    -0.354 N 
ATOM     40  C   UNL A   1      43.158  25.798  27.650  1.00  0.00     0.074 A 
ATOM     41  C   UNL A   1      41.765  25.505  27.904  1.00  0.00     0.031 C 
ATOM     42  C   UNL A   1      43.554  32.099  28.883  1.00  0.00     0.029 A 
ATOM     43  C   UNL A   1      44.638  31.202  28.480  1.00  0.00     0.049 A 
ATOM     44  H   UNL A   1      44.505  29.161  28.087  1.00  0.00     0.167 HD
ATOM     45  C   UNL A   1      44.056  24.891  27.198  1.00  0.00     0.037 A 
ATOM     46  C   UNL A   1      45.924  31.559  28.284  1.00  0.00     0.037 A 
ATOM     47  C   UNL A   1      45.440  25.187  26.940  1.00  0.00     0.049 A 
ATOM     48  C   UNL A   1      46.919  30.520  27.842  1.00  0.00     0.074 A 
ATOM     49  C   UNL A   1      46.433  24.333  26.494  1.00  0.00     0.029 A 
ATOM     50  N   UNL A   1      46.025  26.434  27.100  1.00  0.00    -0.354 N 
ATOM     51  N   UNL A   1      46.724  29.248  27.584  1.00  0.00    -0.248 NA
ATOM     52  C   UNL A   1      48.310  30.961  27.659  1.00  0.00     0.031 C 
ATOM     53  C   UNL A   1      47.628  25.056  26.417  1.00  0.00     0.029 A 
ATOM     54  C   UNL A   1      47.368  26.370  26.772  1.00  0.00     0.049 A 
ATOM     55  H   UNL A   1      45.555  27.244  27.402  1.00  0.00     0.167 HD
ATOM     56  C   UNL A   1      47.958  28.745  27.183  1.00  0.00     0.074 A 
ATOM     57  C   UNL A   1      48.893  29.849  27.228  1.00  0.00     0.031 C 
ATOM     58  C   UNL A   1      48.283  27.484  26.808  1.00  0.00     0.037 A 
BRANCH  45  59
ATOM     59  C   UNL A   1      43.573  23.488  26.961  1.00  0.00     0.058 A 
ATOM     60  C   UNL A   1      43.314  23.033  25.658  1.00  0.00     0.135 A 
ATOM     61  C   UNL A   1      43.324  22.607  28.025  1.00  0.00     0.135 A 
ATOM     62  F   UNL A   1      43.547  23.832  24.604  1.00  0.00    -0.206 F 
ATOM     63  C   UNL A   1      42.809  21.761  25.419  1.00  0.00     0.059 A 
ATOM     64  C   UNL A   1      42.840  21.319  27.808  1.00  0.00     0.059 A 
ATOM     65  F   UNL A   1      43.581  22.983  29.287  1.00  0.00    -0.206 F 
ATOM     66  C   UNL A   1      42.572  20.910  26.501  1.00  0.00     0.060 A 
BRANCH  66  67
ATOM     67  S   UNL A   1      41.949  19.249  26.172  1.00  0.00     0.124 S 
ATOM     68  O   UNL A   1      42.243  18.564  27.425  1.00  0.00    -0.237 OA
ATOM     69  O   UNL A   1      40.536  19.499  25.900  1.00  0.00    -0.237 OA
ATOM     70  O   UNL A   1      42.731  18.817  25.018  1.00  0.00    -0.744 OA
ENDBRANCH  66  67
ENDBRANCH  45  59
BRANCH  46  71
ATOM     71  C   UNL A   1      46.338  32.970  28.502  1.00  0.00     0.058 A 
ATOM     72  C   UNL A   1      46.321  33.900  27.452  1.00  0.00     0.135 A 
ATOM     73  C   UNL A   1      46.778  33.411  29.759  1.00  0.00     0.135 A 
ATOM     74  F   UNL A   1      45.910  33.528  26.229  1.00  0.00    -0.206 F 
ATOM     75  C   UNL A   1      46.750  35.210  27.631  1.00  0.00     0.059 A 
ATOM     76  C   UNL A   1      47.191  34.725  29.970  1.00  0.00     0.059 A 
ATOM     77  F   UNL A   1      46.796  32.563  30.798  1.00  0.00    -0.206 F 
ATOM     78  C   UNL A   1      47.189  35.611  28.893  1.00  0.00     0.060 A 
BRANCH  78  79
ATOM     79  S   UNL A   1      47.755  37.314  29.102  1.00  0.00     0.124 S 
ATOM     80  O   UNL A   1      47.387  37.573  30.490  1.00  0.00    -0.237 OA
ATOM     81  O   UNL A   1      49.185  37.197  28.835  1.00  0.00    -0.237 OA
ATOM     82  O   UNL A   1      46.991  38.048  28.101  1.00  0.00    -0.744 OA
ENDBRANCH  78  79
ENDBRANCH  46  71
BRANCH  58  83
ATOM     83  C   UNL A   1      49.700  27.222  26.379  1.00  0.00     0.058 A 
ATOM     84  C   UNL A   1      50.058  27.318  25.025  1.00  0.00     0.135 A 
ATOM     85  C   UNL A   1      50.676  26.788  27.289  1.00  0.00     0.135 A 
ATOM     86  F   UNL A   1      49.159  27.722  24.113  1.00  0.00    -0.206 F 
ATOM     87  C   UNL A   1      51.332  26.975  24.584  1.00  0.00     0.059 A 
ATOM     88  C   UNL A   1      51.963  26.462  26.872  1.00  0.00     0.059 A 
ATOM     89  F   UNL A   1      50.384  26.688  28.595  1.00  0.00    -0.206 F 
ATOM     90  C   UNL A   1      52.276  26.542  25.515  1.00  0.00     0.060 A 
BRANCH  90  91
ATOM     91  S   UNL A   1      53.926  26.104  24.927  1.00  0.00     0.124 S 
ATOM     92  O   UNL A   1      54.754  26.443  26.079  1.00  0.00    -0.237 OA
ATOM     93  O   UNL A   1      53.787  24.679  24.643  1.00  0.00    -0.237 OA
ATOM     94  O   UNL A   1      54.104  26.954  23.753  1.00  0.00    -0.744 OA
ENDBRANCH  90  91
ENDBRANCH  58  83
ENDBRANCH  32  33
ENDBRANCH  25  27
ENDBRANCH  24  25
ENDBRANCH  23  24
ENDBRANCH  22  23
ENDBRANCH  21  22
ENDBRANCH   1  21
TORSDOF 21
ENDMDL
MODEL 2
REMARK VINA RESULT:      -9.0      8.985     16.166
REMARK SMILES COc1cc(F)ccc1NCC(C)(C)C(=O)OCCOCCOC(=O)c1ccc(-c2c3nc(c(-c4c(F)cc(S(=O)(=O)[O-])cc4F)c4ccc([nH]4)c(-c4c(F)cc(S(=O)(=O)[O-])cc4F)c4nc(c(-c5c(F)cc(S(=O)(=O)[O-])cc5F)c5ccc2[nH]5)C=C4)C=C3)cc1
REMARK SMILES IDX 19 1 18 2 17 3 15 4 16 5 12 6 13 7 14 8 11 9 10 10 9 12 3 13
REMARK SMILES IDX 4 14 5 15 8 16 6 17 7 18 2 19 1 20 20 21 21 22 22 23 23 24
REMARK SMILES IDX 24 25 25 26 26 27 27 28 91 29 28 30 90 31 29 32 30 33 31 34
REMARK SMILES IDX 84 35 32 36 89 37 83 38 85 39 33 40 88 41 82 42 81 43 34 45
REMARK SMILES IDX 68 46 47 47 67 48 48 49 51 50 66 51 86 52 49 53 50 54 65 56
REMARK SMILES IDX 87 57 52 58 35 59 36 60 45 61 37 62 38 63 44 64 46 65 39 66
REMARK SMILES IDX 40 67 41 68 42 69 43 70 69 71 70 72 79 73 71 74 72 75 78 76
REMARK SMILES IDX 80 77 73 78 74 79 75 80 76 81 77 82 53 83 54 84 63 85 55 86
REMARK SMILES IDX 56 87 62 88 64 89 57 90 58 91 59 92 60 93 61 94
REMARK H PARENT 10 11 85 44 51 55
REMARK Flexibility Score: inf
ROOT
ATOM      1  C   UNL A   1      48.364  22.880  38.672  1.00  0.00     0.202 C 
ENDROOT
BRANCH   1   2
ATOM      2  C   UNL A   1      47.056  22.674  39.441  1.00  0.00     0.261 C 
BRANCH   2   3
ATOM      3  O   UNL A   1      46.253  21.657  38.820  1.00  0.00    -0.463 OA
BRANCH   3   4
ATOM      4  C   UNL A   1      46.229  20.460  39.463  1.00  0.00     0.313 C 
ATOM      5  O   UNL A   1      45.751  20.291  40.580  1.00  0.00    -0.252 OA
BRANCH   4   6
ATOM      6  C   UNL A   1      46.862  19.335  38.638  1.00  0.00     0.080 C 
ATOM      7  C   UNL A   1      48.224  19.017  39.279  1.00  0.00     0.025 C 
ATOM      8  C   UNL A   1      47.127  19.752  37.175  1.00  0.00     0.025 C 
BRANCH   6   9
ATOM      9  C   UNL A   1      45.940  18.092  38.620  1.00  0.00     0.131 C 
BRANCH   9  10
ATOM     10  N   UNL A   1      45.622  17.568  39.937  1.00  0.00    -0.381 N 
ATOM     11  H   UNL A   1      46.226  17.810  40.675  1.00  0.00     0.160 HD
BRANCH  10  12
ATOM     12  C   UNL A   1      44.537  16.753  40.246  1.00  0.00     0.077 A 
ATOM     13  C   UNL A   1      44.186  16.577  41.605  1.00  0.00     0.144 A 
ATOM     14  C   UNL A   1      43.078  15.815  41.983  1.00  0.00     0.087 A 
ATOM     15  C   UNL A   1      42.342  15.168  41.002  1.00  0.00     0.127 A 
ATOM     16  C   UNL A   1      43.796  16.046  39.290  1.00  0.00     0.032 A 
ATOM     17  F   UNL A   1      41.279  14.431  41.352  1.00  0.00    -0.207 F 
ATOM     18  C   UNL A   1      42.698  15.264  39.663  1.00  0.00     0.041 A 
BRANCH  13  19
ATOM     19  O   UNL A   1      44.941  17.260  42.535  1.00  0.00    -0.494 OA
ATOM     20  C   UNL A   1      44.602  16.926  43.878  1.00  0.00     0.278 C 
ENDBRANCH  13  19
ENDBRANCH  10  12
ENDBRANCH   9  10
ENDBRANCH   6   9
ENDBRANCH   4   6
ENDBRANCH   3   4
ENDBRANCH   2   3
ENDBRANCH   1   2
BRANCH   1  21
ATOM     21  O   UNL A   1      48.249  23.065  37.260  1.00  0.00    -0.374 OA
BRANCH  21  22
ATOM     22  C   UNL A   1      49.160  23.967  36.635  1.00  0.00     0.202 C 
BRANCH  22  23
ATOM     23  C   UNL A   1      48.574  25.240  36.014  1.00  0.00     0.261 C 
BRANCH  23  24
ATOM     24  O   UNL A   1      47.185  25.442  36.338  1.00  0.00    -0.460 OA
BRANCH  24  25
ATOM     25  C   UNL A   1      46.971  26.320  37.343  1.00  0.00     0.338 C 
ATOM     26  O   UNL A   1      47.609  26.414  38.388  1.00  0.00    -0.246 OA
BRANCH  25  27
ATOM     27  C   UNL A   1      45.944  27.310  36.973  1.00  0.00     0.060 A 
ATOM     28  C   UNL A   1      44.627  27.048  37.377  1.00  0.00     0.016 A 
ATOM     29  C   UNL A   1      46.231  28.399  36.146  1.00  0.00     0.016 A 
ATOM     30  C   UNL A   1      43.583  27.829  36.892  1.00  0.00     0.010 A 
ATOM     31  C   UNL A   1      45.176  29.177  35.654  1.00  0.00     0.010 A 
ATOM     32  C   UNL A   1      43.845  28.863  35.984  1.00  0.00    -0.014 A 
BRANCH  32  33
ATOM     33  C   UNL A   1      42.713  29.461  35.233  1.00  0.00     0.031 A 
ATOM     34  C   UNL A   1      42.022  30.668  35.814  1.00  0.00     0.074 A 
ATOM     35  C   UNL A   1      42.354  28.990  34.026  1.00  0.00     0.049 A 
ATOM     36  N   UNL A   1      41.021  31.359  35.337  1.00  0.00    -0.248 NA
ATOM     37  C   UNL A   1      42.535  31.164  37.103  1.00  0.00     0.031 C 
ATOM     38  C   UNL A   1      42.986  27.866  33.338  1.00  0.00     0.029 A 
ATOM     39  N   UNL A   1      41.375  29.409  33.160  1.00  0.00    -0.354 N 
ATOM     40  C   UNL A   1      40.785  32.370  36.261  1.00  0.00     0.074 A 
ATOM     41  C   UNL A   1      41.724  32.184  37.345  1.00  0.00     0.031 C 
ATOM     42  C   UNL A   1      42.377  27.684  32.152  1.00  0.00     0.029 A 
ATOM     43  C   UNL A   1      41.298  28.661  32.010  1.00  0.00     0.049 A 
ATOM     44  H   UNL A   1      40.783  30.174  33.346  1.00  0.00     0.167 HD
ATOM     45  C   UNL A   1      39.876  33.371  36.206  1.00  0.00     0.037 A 
ATOM     46  C   UNL A   1      40.448  28.751  30.967  1.00  0.00     0.037 A 
ATOM     47  C   UNL A   1      38.946  33.558  35.124  1.00  0.00     0.049 A 
ATOM     48  C   UNL A   1      39.403  29.835  30.956  1.00  0.00     0.074 A 
ATOM     49  C   UNL A   1      37.976  34.534  34.982  1.00  0.00     0.029 A 
ATOM     50  N   UNL A   1      38.876  32.755  33.996  1.00  0.00    -0.354 N 
ATOM     51  N   UNL A   1      39.181  30.774  31.845  1.00  0.00    -0.248 NA
ATOM     52  C   UNL A   1      38.493  29.876  29.801  1.00  0.00     0.031 C 
ATOM     53  C   UNL A   1      37.294  34.301  33.784  1.00  0.00     0.029 A 
ATOM     54  C   UNL A   1      37.870  33.207  33.158  1.00  0.00     0.049 A 
ATOM     55  H   UNL A   1      39.454  31.979  33.817  1.00  0.00     0.167 HD
ATOM     56  C   UNL A   1      38.128  31.533  31.344  1.00  0.00     0.074 A 
ATOM     57  C   UNL A   1      37.758  30.947  30.074  1.00  0.00     0.031 C 
ATOM     58  C   UNL A   1      37.525  32.619  31.887  1.00  0.00     0.037 A 
BRANCH  45  59
ATOM     59  C   UNL A   1      39.832  34.340  37.355  1.00  0.00     0.058 A 
ATOM     60  C   UNL A   1      38.979  34.113  38.447  1.00  0.00     0.135 A 
ATOM     61  C   UNL A   1      40.599  35.515  37.354  1.00  0.00     0.135 A 
ATOM     62  F   UNL A   1      38.233  32.998  38.502  1.00  0.00    -0.206 F 
ATOM     63  C   UNL A   1      38.876  35.025  39.490  1.00  0.00     0.059 A 
ATOM     64  C   UNL A   1      40.529  36.432  38.401  1.00  0.00     0.059 A 
ATOM     65  F   UNL A   1      41.450  35.766  36.347  1.00  0.00    -0.206 F 
ATOM     66  C   UNL A   1      39.653  36.184  39.458  1.00  0.00     0.060 A 
BRANCH  66  67
ATOM     67  S   UNL A   1      39.533  37.342  40.838  1.00  0.00     0.124 S 
ATOM     68  O   UNL A   1      39.157  36.461  41.937  1.00  0.00    -0.237 OA
ATOM     69  O   UNL A   1      40.885  37.891  40.896  1.00  0.00    -0.237 OA
ATOM     70  O   UNL A   1      38.505  38.282  40.402  1.00  0.00    -0.744 OA
ENDBRANCH  66  67
ENDBRANCH  45  59
BRANCH  46  71
ATOM     71  C   UNL A   1      40.558  27.785  29.842  1.00  0.00     0.058 A 
ATOM     72  C   UNL A   1      41.558  27.921  28.866  1.00  0.00     0.135 A 
ATOM     73  C   UNL A   1      39.656  26.720  29.709  1.00  0.00     0.135 A 
ATOM     74  F   UNL A   1      42.445  28.924  28.946  1.00  0.00    -0.206 F 
ATOM     75  C   UNL A   1      41.643  27.052  27.784  1.00  0.00     0.059 A 
ATOM     76  C   UNL A   1      39.734  25.822  28.647  1.00  0.00     0.059 A 
ATOM     77  F   UNL A   1      38.693  26.539  30.627  1.00  0.00    -0.206 F 
ATOM     78  C   UNL A   1      40.722  26.009  27.680  1.00  0.00     0.060 A 
BRANCH  78  79
ATOM     79  S   UNL A   1      40.841  24.899  26.261  1.00  0.00     0.124 S 
ATOM     80  O   UNL A   1      39.443  24.529  26.064  1.00  0.00    -0.237 OA
ATOM     81  O   UNL A   1      41.419  25.767  25.240  1.00  0.00    -0.237 OA
ATOM     82  O   UNL A   1      41.713  23.832  26.739  1.00  0.00    -0.744 OA
ENDBRANCH  78  79
ENDBRANCH  46  71
BRANCH  58  83
ATOM     83  C   UNL A   1      36.424  33.278  31.103  1.00  0.00     0.058 A 
ATOM     84  C   UNL A   1      36.732  34.144  30.042  1.00  0.00     0.135 A 
ATOM     85  C   UNL A   1      35.075  33.126  31.459  1.00  0.00     0.135 A 
ATOM     86  F   UNL A   1      38.008  34.329  29.667  1.00  0.00    -0.206 F 
ATOM     87  C   UNL A   1      35.741  34.852  29.371  1.00  0.00     0.059 A 
ATOM     88  C   UNL A   1      34.066  33.807  30.786  1.00  0.00     0.059 A 
ATOM     89  F   UNL A   1      34.730  32.303  32.461  1.00  0.00    -0.206 F 
ATOM     90  C   UNL A   1      34.410  34.682  29.755  1.00  0.00     0.060 A 
BRANCH  90  91
ATOM     91  S   UNL A   1      33.135  35.605  28.872  1.00  0.00     0.124 S 
ATOM     92  O   UNL A   1      32.366  36.179  29.971  1.00  0.00    -0.237 OA
ATOM     93  O   UNL A   1      33.923  36.549  28.086  1.00  0.00    -0.237 OA
ATOM     94  O   UNL A   1      32.449  34.576  28.095  1.00  0.00    -0.744 OA
ENDBRANCH  90  91
ENDBRANCH  58  83
ENDBRANCH  32  33
ENDBRANCH  25  27
ENDBRANCH  24  25
ENDBRANCH  23  24
ENDBRANCH  22  23
ENDBRANCH  21  22
ENDBRANCH   1  21
TORSDOF 21
ENDMDL
MODEL 3
REMARK VINA RESULT:      -8.7      6.633     10.735
REMARK SMILES COc1cc(F)ccc1NCC(C)(C)C(=O)OCCOCCOC(=O)c1ccc(-c2c3nc(c(-c4c(F)cc(S(=O)(=O)[O-])cc4F)c4ccc([nH]4)c(-c4c(F)cc(S(=O)(=O)[O-])cc4F)c4nc(c(-c5c(F)cc(S(=O)(=O)[O-])cc5F)c5ccc2[nH]5)C=C4)C=C3)cc1
REMARK SMILES IDX 19 1 18 2 17 3 15 4 16 5 12 6 13 7 14 8 11 9 10 10 9 12 3 13
REMARK SMILES IDX 4 14 5 15 8 16 6 17 7 18 2 19 1 20 20 21 21 22 22 23 23 24
REMARK SMILES IDX 24 25 25 26 26 27 27 28 91 29 28 30 90 31 29 32 30 33 31 34
REMARK SMILES IDX 84 35 32 36 89 37 83 38 85 39 33 40 88 41 82 42 81 43 34 45
REMARK SMILES IDX 68 46 47 47 67 48 48 49 51 50 66 51 86 52 49 53 50 54 65 56
REMARK SMILES IDX 87 57 52 58 35 59 36 60 45 61 37 62 38 63 44 64 46 65 39 66
REMARK SMILES IDX 40 67 41 68 42 69 43 70 69 71 70 72 79 73 71 74 72 75 78 76
REMARK SMILES IDX 80 77 73 78 74 79 75 80 76 81 77 82 53 83 54 84 63 85 55 86
REMARK SMILES IDX 56 87 62 88 64 89 57 90 58 91 59 92 60 93 61 94
REMARK H PARENT 10 11 85 44 51 55
REMARK Flexibility Score: inf
ROOT
ATOM      1  C   UNL A   1      35.231  30.716  28.135  1.00  0.00     0.202 C 
ENDROOT
BRANCH   1   2
ATOM      2  C   UNL A   1      35.121  29.467  27.256  1.00  0.00     0.261 C 
BRANCH   2   3
ATOM      3  O   UNL A   1      33.759  29.241  26.857  1.00  0.00    -0.463 OA
BRANCH   3   4
ATOM      4  C   UNL A   1      33.533  28.081  26.188  1.00  0.00     0.313 C 
ATOM      5  O   UNL A   1      34.325  27.145  26.149  1.00  0.00    -0.252 OA
BRANCH   4   6
ATOM      6  C   UNL A   1      32.171  28.061  25.486  1.00  0.00     0.080 C 
ATOM      7  C   UNL A   1      32.429  27.710  24.011  1.00  0.00     0.025 C 
ATOM      8  C   UNL A   1      31.469  29.436  25.519  1.00  0.00     0.025 C 
BRANCH   6   9
ATOM      9  C   UNL A   1      31.231  27.030  26.158  1.00  0.00     0.131 C 
BRANCH   9  10
ATOM     10  N   UNL A   1      31.905  25.837  26.640  1.00  0.00    -0.381 N 
ATOM     11  H   UNL A   1      32.328  25.887  27.527  1.00  0.00     0.160 HD
BRANCH  10  12
ATOM     12  C   UNL A   1      32.004  24.630  25.956  1.00  0.00     0.077 A 
ATOM     13  C   UNL A   1      31.044  23.622  26.215  1.00  0.00     0.144 A 
ATOM     14  C   UNL A   1      31.053  22.408  25.525  1.00  0.00     0.087 A 
ATOM     15  C   UNL A   1      32.065  22.163  24.609  1.00  0.00     0.127 A 
ATOM     16  C   UNL A   1      33.034  24.324  25.057  1.00  0.00     0.032 A 
ATOM     17  F   UNL A   1      32.086  20.999  23.945  1.00  0.00    -0.207 F 
ATOM     18  C   UNL A   1      33.062  23.101  24.379  1.00  0.00     0.041 A 
BRANCH  13  19
ATOM     19  O   UNL A   1      30.051  23.930  27.120  1.00  0.00    -0.494 OA
ATOM     20  C   UNL A   1      29.259  22.801  27.478  1.00  0.00     0.278 C 
ENDBRANCH  13  19
ENDBRANCH  10  12
ENDBRANCH   9  10
ENDBRANCH   6   9
ENDBRANCH   4   6
ENDBRANCH   3   4
ENDBRANCH   2   3
ENDBRANCH   1   2
BRANCH   1  21
ATOM     21  O   UNL A   1      34.890  31.959  27.519  1.00  0.00    -0.374 OA
BRANCH  21  22
ATOM     22  C   UNL A   1      33.592  32.491  27.775  1.00  0.00     0.202 C 
BRANCH  22  23
ATOM     23  C   UNL A   1      33.488  34.000  28.029  1.00  0.00     0.261 C 
BRANCH  23  24
ATOM     24  O   UNL A   1      32.553  34.337  29.071  1.00  0.00    -0.460 OA
BRANCH  24  25
ATOM     25  C   UNL A   1      32.968  35.330  29.889  1.00  0.00     0.338 C 
ATOM     26  O   UNL A   1      32.507  36.465  29.961  1.00  0.00    -0.246 OA
BRANCH  25  27
ATOM     27  C   UNL A   1      33.974  34.843  30.848  1.00  0.00     0.060 A 
ATOM     28  C   UNL A   1      34.516  35.780  31.740  1.00  0.00     0.016 A 
ATOM     29  C   UNL A   1      34.473  33.538  30.798  1.00  0.00     0.016 A 
ATOM     30  C   UNL A   1      35.609  35.438  32.529  1.00  0.00     0.010 A 
ATOM     31  C   UNL A   1      35.579  33.201  31.589  1.00  0.00     0.010 A 
ATOM     32  C   UNL A   1      36.182  34.164  32.418  1.00  0.00    -0.014 A 
BRANCH  32  33
ATOM     33  C   UNL A   1      37.522  33.928  33.009  1.00  0.00     0.031 A 
ATOM     34  C   UNL A   1      37.625  33.712  34.497  1.00  0.00     0.074 A 
ATOM     35  C   UNL A   1      38.616  33.831  32.234  1.00  0.00     0.049 A 
ATOM     36  N   UNL A   1      38.682  33.483  35.231  1.00  0.00    -0.248 NA
ATOM     37  C   UNL A   1      36.364  33.756  35.258  1.00  0.00     0.031 C 
ATOM     38  C   UNL A   1      38.632  33.963  30.778  1.00  0.00     0.029 A 
ATOM     39  N   UNL A   1      39.926  33.587  32.565  1.00  0.00    -0.354 N 
ATOM     40  C   UNL A   1      38.217  33.352  36.534  1.00  0.00     0.074 A 
ATOM     41  C   UNL A   1      36.786  33.562  36.499  1.00  0.00     0.031 C 
ATOM     42  C   UNL A   1      39.894  33.797  30.340  1.00  0.00     0.029 A 
ATOM     43  C   UNL A   1      40.775  33.573  31.485  1.00  0.00     0.049 A 
ATOM     44  H   UNL A   1      40.228  33.435  33.490  1.00  0.00     0.167 HD
ATOM     45  C   UNL A   1      38.916  33.070  37.658  1.00  0.00     0.037 A 
ATOM     46  C   UNL A   1      42.113  33.408  31.429  1.00  0.00     0.037 A 
ATOM     47  C   UNL A   1      40.339  32.856  37.690  1.00  0.00     0.049 A 
ATOM     48  C   UNL A   1      42.880  33.158  32.700  1.00  0.00     0.074 A 
ATOM     49  C   UNL A   1      41.142  32.579  38.781  1.00  0.00     0.029 A 
ATOM     50  N   UNL A   1      41.167  32.890  36.579  1.00  0.00    -0.354 N 
ATOM     51  N   UNL A   1      42.429  33.053  33.928  1.00  0.00    -0.248 NA
ATOM     52  C   UNL A   1      44.337  33.000  32.582  1.00  0.00     0.031 C 
ATOM     53  C   UNL A   1      42.464  32.480  38.335  1.00  0.00     0.029 A 
ATOM     54  C   UNL A   1      42.476  32.650  36.960  1.00  0.00     0.049 A 
ATOM     55  H   UNL A   1      40.870  33.060  35.656  1.00  0.00     0.167 HD
ATOM     56  C   UNL A   1      43.540  32.789  34.723  1.00  0.00     0.074 A 
ATOM     57  C   UNL A   1      44.685  32.747  33.838  1.00  0.00     0.031 C 
ATOM     58  C   UNL A   1      43.604  32.596  36.063  1.00  0.00     0.037 A 
BRANCH  45  59
ATOM     59  C   UNL A   1      38.156  32.986  38.952  1.00  0.00     0.058 A 
ATOM     60  C   UNL A   1      37.351  31.871  39.234  1.00  0.00     0.135 A 
ATOM     61  C   UNL A   1      38.188  34.028  39.892  1.00  0.00     0.135 A 
ATOM     62  F   UNL A   1      37.293  30.842  38.374  1.00  0.00    -0.206 F 
ATOM     63  C   UNL A   1      36.591  31.800  40.396  1.00  0.00     0.059 A 
ATOM     64  C   UNL A   1      37.453  33.967  41.073  1.00  0.00     0.059 A 
ATOM     65  F   UNL A   1      38.963  35.103  39.682  1.00  0.00    -0.206 F 
ATOM     66  C   UNL A   1      36.646  32.854  41.309  1.00  0.00     0.060 A 
BRANCH  66  67
ATOM     67  S   UNL A   1      35.680  32.730  42.829  1.00  0.00     0.124 S 
ATOM     68  O   UNL A   1      36.691  32.312  43.794  1.00  0.00    -0.237 OA
ATOM     69  O   UNL A   1      35.177  34.092  42.985  1.00  0.00    -0.237 OA
ATOM     70  O   UNL A   1      34.666  31.731  42.505  1.00  0.00    -0.744 OA
ENDBRANCH  66  67
ENDBRANCH  45  59
BRANCH  46  71
ATOM     71  C   UNL A   1      42.808  33.468  30.116  1.00  0.00     0.058 A 
ATOM     72  C   UNL A   1      43.147  34.699  29.533  1.00  0.00     0.135 A 
ATOM     73  C   UNL A   1      43.128  32.300  29.410  1.00  0.00     0.135 A 
ATOM     74  F   UNL A   1      42.861  35.847  30.167  1.00  0.00    -0.206 F 
ATOM     75  C   UNL A   1      43.755  34.771  28.285  1.00  0.00     0.059 A 
ATOM     76  C   UNL A   1      43.758  32.344  28.168  1.00  0.00     0.059 A 
ATOM     77  F   UNL A   1      42.838  31.099  29.935  1.00  0.00    -0.206 F 
ATOM     78  C   UNL A   1      44.051  33.587  27.607  1.00  0.00     0.060 A 
BRANCH  78  79
ATOM     79  S   UNL A   1      44.828  33.703  25.982  1.00  0.00     0.124 S 
ATOM     80  O   UNL A   1      45.165  32.306  25.722  1.00  0.00    -0.237 OA
ATOM     81  O   UNL A   1      43.754  34.260  25.166  1.00  0.00    -0.237 OA
ATOM     82  O   UNL A   1      45.962  34.591  26.212  1.00  0.00    -0.744 OA
ENDBRANCH  78  79
ENDBRANCH  46  71
BRANCH  58  83
ATOM     83  C   UNL A   1      44.946  32.285  36.665  1.00  0.00     0.058 A 
ATOM     84  C   UNL A   1      45.363  30.952  36.813  1.00  0.00     0.135 A 
ATOM     85  C   UNL A   1      45.775  33.295  37.177  1.00  0.00     0.135 A 
ATOM     86  F   UNL A   1      44.602  29.949  36.347  1.00  0.00    -0.206 F 
ATOM     87  C   UNL A   1      46.548  30.630  37.466  1.00  0.00     0.059 A 
ATOM     88  C   UNL A   1      46.976  32.995  37.813  1.00  0.00     0.059 A 
ATOM     89  F   UNL A   1      45.424  34.584  37.051  1.00  0.00    -0.206 F 
ATOM     90  C   UNL A   1      47.345  31.659  37.968  1.00  0.00     0.060 A 
BRANCH  90  91
ATOM     91  S   UNL A   1      48.882  31.224  38.809  1.00  0.00     0.124 S 
ATOM     92  O   UNL A   1      49.182  32.452  39.538  1.00  0.00    -0.237 OA
ATOM     93  O   UNL A   1      48.478  30.084  39.625  1.00  0.00    -0.237 OA
ATOM     94  O   UNL A   1      49.791  30.908  37.711  1.00  0.00    -0.744 OA
ENDBRANCH  90  91
ENDBRANCH  58  83
ENDBRANCH  32  33
ENDBRANCH  25  27
ENDBRANCH  24  25
ENDBRANCH  23  24
ENDBRANCH  22  23
ENDBRANCH  21  22
ENDBRANCH   1  21
TORSDOF 21
ENDMDL
