MODEL 1
REMARK VINA RESULT:     -10.0      0.000      0.000
REMARK SMILES CC(=O)[C@@H]1CCCC[N@H+]1CC(C)(C)C(=O)OCCOCCOC(=O)c1ccc(-c2c3nc(c(-c4c(F)cc(S(=O)(=O)[O-])cc4F)c4ccc([nH]4)c(-c4c(F)cc(S(=O)(=O)[O-])cc4F)c4nc(c(-c5c(F)cc(S(=O)(=O)[O-])cc5F)c5ccc2[nH]5)C=C4)C=C3)cc1
REMARK SMILES IDX 19 1 18 2 17 3 16 4 14 5 15 6 11 7 12 8 13 9 10 10 9 11 4 12
REMARK SMILES IDX 5 13 6 14 8 15 7 17 2 18 1 19 3 20 20 21 21 22 22 23 23 24
REMARK SMILES IDX 24 25 25 26 26 27 90 28 27 29 89 30 28 31 29 32 30 33 83 34
REMARK SMILES IDX 31 35 88 36 82 37 84 38 32 39 87 40 81 41 80 42 33 44 67 45
REMARK SMILES IDX 46 46 66 47 47 48 50 49 65 50 85 51 48 52 49 53 64 55 86 56
REMARK SMILES IDX 51 57 34 58 35 59 44 60 36 61 37 62 43 63 45 64 38 65 39 66
REMARK SMILES IDX 40 67 41 68 42 69 68 70 69 71 78 72 70 73 71 74 77 75 79 76
REMARK SMILES IDX 72 77 73 78 74 79 75 80 76 81 52 82 53 83 62 84 54 85 55 86
REMARK SMILES IDX 61 87 63 88 56 89 57 90 58 91 59 92 60 93
REMARK H PARENT 9 16 84 43 50 54
REMARK Flexibility Score: inf
ROOT
ATOM      1  O   UNL A   1      33.577  30.823  26.681  1.00  0.00    -0.374 OA
ENDROOT
BRANCH   1   2
ATOM      2  C   UNL A   1      32.319  30.218  26.406  1.00  0.00     0.202 C 
BRANCH   2   3
ATOM      3  C   UNL A   1      32.221  29.172  25.284  1.00  0.00     0.261 C 
BRANCH   3   4
ATOM      4  O   UNL A   1      32.705  27.880  25.668  1.00  0.00    -0.463 OA
BRANCH   4   5
ATOM      5  C   UNL A   1      31.755  26.955  25.970  1.00  0.00     0.317 C 
ATOM      6  O   UNL A   1      31.102  26.961  27.008  1.00  0.00    -0.251 OA
BRANCH   5   7
ATOM      7  C   UNL A   1      31.618  25.869  24.899  1.00  0.00     0.111 C 
ATOM      8  C   UNL A   1      30.451  26.344  24.019  1.00  0.00     0.029 C 
ATOM      9  C   UNL A   1      31.150  24.500  25.472  1.00  0.00     0.029 C 
BRANCH   7  10
ATOM     10  C   UNL A   1      32.984  25.586  24.153  1.00  0.00     0.281 C 
BRANCH  10  11
ATOM     11  N   UNL A   1      33.964  24.501  24.432  1.00  0.00    -0.325 N 
ATOM     12  C   UNL A   1      34.598  23.908  23.238  1.00  0.00     0.251 C 
ATOM     13  C   UNL A   1      35.767  22.953  23.540  1.00  0.00     0.074 C 
ATOM     14  C   UNL A   1      36.752  23.564  24.518  1.00  0.00     0.012 C 
ATOM     15  C   UNL A   1      34.861  24.847  25.547  1.00  0.00     0.262 C 
ATOM     16  H   UNL A   1      33.425  23.704  24.772  1.00  0.00     0.348 HD
ATOM     17  C   UNL A   1      36.005  23.865  25.803  1.00  0.00     0.062 C 
BRANCH  12  18
ATOM     18  C   UNL A   1      33.520  23.172  22.400  1.00  0.00     0.186 C 
ATOM     19  C   UNL A   1      32.727  22.058  23.039  1.00  0.00     0.094 C 
ATOM     20  O   UNL A   1      33.258  23.495  21.237  1.00  0.00    -0.293 OA
ENDBRANCH  12  18
ENDBRANCH  10  11
ENDBRANCH   7  10
ENDBRANCH   5   7
ENDBRANCH   4   5
ENDBRANCH   3   4
ENDBRANCH   2   3
ENDBRANCH   1   2
BRANCH   1  21
ATOM     21  C   UNL A   1      33.674  31.731  27.777  1.00  0.00     0.202 C 
BRANCH  21  22
ATOM     22  C   UNL A   1      35.047  32.073  28.378  1.00  0.00     0.261 C 
BRANCH  22  23
ATOM     23  O   UNL A   1      35.621  31.001  29.145  1.00  0.00    -0.460 OA
BRANCH  23  24
ATOM     24  C   UNL A   1      36.686  31.362  29.909  1.00  0.00     0.338 C 
ATOM     25  O   UNL A   1      36.682  32.107  30.871  1.00  0.00    -0.246 OA
BRANCH  24  26
ATOM     26  C   UNL A   1      37.856  30.544  29.548  1.00  0.00     0.060 A 
ATOM     27  C   UNL A   1      38.774  30.245  30.563  1.00  0.00     0.016 A 
ATOM     28  C   UNL A   1      38.099  30.163  28.228  1.00  0.00     0.016 A 
ATOM     29  C   UNL A   1      39.962  29.590  30.256  1.00  0.00     0.010 A 
ATOM     30  C   UNL A   1      39.303  29.523  27.918  1.00  0.00     0.010 A 
ATOM     31  C   UNL A   1      40.252  29.267  28.925  1.00  0.00    -0.014 A 
BRANCH  31  32
ATOM     32  C   UNL A   1      41.624  28.836  28.575  1.00  0.00     0.031 A 
ATOM     33  C   UNL A   1      42.726  29.859  28.599  1.00  0.00     0.074 A 
ATOM     34  C   UNL A   1      41.889  27.550  28.288  1.00  0.00     0.049 A 
ATOM     35  N   UNL A   1      43.991  29.724  28.296  1.00  0.00    -0.248 NA
ATOM     36  C   UNL A   1      42.350  31.220  29.020  1.00  0.00     0.031 C 
ATOM     37  C   UNL A   1      40.907  26.466  28.291  1.00  0.00     0.029 A 
ATOM     38  N   UNL A   1      43.064  26.939  27.936  1.00  0.00    -0.354 N 
ATOM     39  C   UNL A   1      44.559  30.980  28.480  1.00  0.00     0.074 A 
ATOM     40  C   UNL A   1      43.497  31.870  28.894  1.00  0.00     0.031 C 
ATOM     41  C   UNL A   1      41.520  25.323  27.939  1.00  0.00     0.029 A 
ATOM     42  C   UNL A   1      42.926  25.601  27.655  1.00  0.00     0.049 A 
ATOM     43  H   UNL A   1      43.926  27.414  27.887  1.00  0.00     0.167 HD
ATOM     44  C   UNL A   1      45.851  31.351  28.324  1.00  0.00     0.037 A 
ATOM     45  C   UNL A   1      43.829  24.712  27.194  1.00  0.00     0.037 A 
ATOM     46  C   UNL A   1      46.897  30.453  27.913  1.00  0.00     0.049 A 
ATOM     47  C   UNL A   1      45.247  25.165  26.958  1.00  0.00     0.074 A 
ATOM     48  C   UNL A   1      48.242  30.723  27.736  1.00  0.00     0.029 A 
ATOM     49  N   UNL A   1      46.714  29.112  27.606  1.00  0.00    -0.354 N 
ATOM     50  N   UNL A   1      45.776  26.352  27.149  1.00  0.00    -0.248 NA
ATOM     51  C   UNL A   1      46.190  24.162  26.449  1.00  0.00     0.031 C 
ATOM     52  C   UNL A   1      48.862  29.559  27.268  1.00  0.00     0.029 A 
ATOM     53  C   UNL A   1      47.915  28.547  27.213  1.00  0.00     0.049 A 
ATOM     54  H   UNL A   1      45.856  28.633  27.659  1.00  0.00     0.167 HD
ATOM     55  C   UNL A   1      47.120  26.228  26.810  1.00  0.00     0.074 A 
ATOM     56  C   UNL A   1      47.323  24.850  26.414  1.00  0.00     0.031 C 
ATOM     57  C   UNL A   1      48.099  27.168  26.829  1.00  0.00     0.037 A 
BRANCH  44  58
ATOM     58  C   UNL A   1      46.197  32.796  28.567  1.00  0.00     0.058 A 
ATOM     59  C   UNL A   1      46.594  33.264  29.829  1.00  0.00     0.135 A 
ATOM     60  C   UNL A   1      46.157  33.720  27.510  1.00  0.00     0.135 A 
ATOM     61  F   UNL A   1      46.629  32.428  30.880  1.00  0.00    -0.206 F 
ATOM     62  C   UNL A   1      46.916  34.601  30.042  1.00  0.00     0.059 A 
ATOM     63  C   UNL A   1      46.504  35.055  27.692  1.00  0.00     0.059 A 
ATOM     64  F   UNL A   1      45.780  33.328  26.283  1.00  0.00    -0.206 F 
ATOM     65  C   UNL A   1      46.870  35.489  28.966  1.00  0.00     0.060 A 
BRANCH  65  66
ATOM     66  S   UNL A   1      47.299  37.218  29.256  1.00  0.00     0.124 S 
ATOM     67  O   UNL A   1      48.696  37.246  28.834  1.00  0.00    -0.237 OA
ATOM     68  O   UNL A   1      46.360  37.921  28.387  1.00  0.00    -0.237 OA
ATOM     69  O   UNL A   1      47.073  37.390  30.687  1.00  0.00    -0.744 OA
ENDBRANCH  65  66
ENDBRANCH  44  58
BRANCH  45  70
ATOM     70  C   UNL A   1      43.414  23.311  26.911  1.00  0.00     0.058 A 
ATOM     71  C   UNL A   1      43.330  22.829  25.597  1.00  0.00     0.135 A 
ATOM     72  C   UNL A   1      43.096  22.426  27.952  1.00  0.00     0.135 A 
ATOM     73  F   UNL A   1      43.614  23.639  24.566  1.00  0.00    -0.206 F 
ATOM     74  C   UNL A   1      42.933  21.524  25.323  1.00  0.00     0.059 A 
ATOM     75  C   UNL A   1      42.724  21.107  27.706  1.00  0.00     0.059 A 
ATOM     76  F   UNL A   1      43.169  22.834  29.230  1.00  0.00    -0.206 F 
ATOM     77  C   UNL A   1      42.637  20.669  26.386  1.00  0.00     0.060 A 
BRANCH  77  78
ATOM     78  S   UNL A   1      42.171  18.963  26.021  1.00  0.00     0.124 S 
ATOM     79  O   UNL A   1      43.004  18.672  24.861  1.00  0.00    -0.237 OA
ATOM     80  O   UNL A   1      42.534  18.277  27.257  1.00  0.00    -0.237 OA
ATOM     81  O   UNL A   1      40.737  19.055  25.761  1.00  0.00    -0.744 OA
ENDBRANCH  77  78
ENDBRANCH  45  70
BRANCH  57  82
ATOM     82  C   UNL A   1      49.488  26.733  26.448  1.00  0.00     0.058 A 
ATOM     83  C   UNL A   1      50.340  26.092  27.361  1.00  0.00     0.135 A 
ATOM     84  C   UNL A   1      49.951  26.910  25.133  1.00  0.00     0.135 A 
ATOM     85  F   UNL A   1      49.949  25.904  28.632  1.00  0.00    -0.206 F 
ATOM     86  C   UNL A   1      51.610  25.663  26.991  1.00  0.00     0.059 A 
ATOM     87  C   UNL A   1      51.205  26.460  24.733  1.00  0.00     0.059 A 
ATOM     88  F   UNL A   1      49.172  27.505  24.217  1.00  0.00    -0.206 F 
ATOM     89  C   UNL A   1      52.032  25.849  25.672  1.00  0.00     0.060 A 
BRANCH  89  90
ATOM     90  S   UNL A   1      53.670  25.255  25.197  1.00  0.00     0.124 S 
ATOM     91  O   UNL A   1      53.719  25.628  23.787  1.00  0.00    -0.237 OA
ATOM     92  O   UNL A   1      54.547  26.012  26.085  1.00  0.00    -0.237 OA
ATOM     93  O   UNL A   1      53.602  23.822  25.465  1.00  0.00    -0.744 OA
ENDBRANCH  89  90
ENDBRANCH  57  82
ENDBRANCH  31  32
ENDBRANCH  24  26
ENDBRANCH  23  24
ENDBRANCH  22  23
ENDBRANCH  21  22
ENDBRANCH   1  21
TORSDOF 20
ENDMDL
MODEL 2
REMARK VINA RESULT:      -9.7      4.808      6.128
REMARK SMILES CC(=O)[C@@H]1CCCC[N@H+]1CC(C)(C)C(=O)OCCOCCOC(=O)c1ccc(-c2c3nc(c(-c4c(F)cc(S(=O)(=O)[O-])cc4F)c4ccc([nH]4)c(-c4c(F)cc(S(=O)(=O)[O-])cc4F)c4nc(c(-c5c(F)cc(S(=O)(=O)[O-])cc5F)c5ccc2[nH]5)C=C4)C=C3)cc1
REMARK SMILES IDX 19 1 18 2 17 3 16 4 14 5 15 6 11 7 12 8 13 9 10 10 9 11 4 12
REMARK SMILES IDX 5 13 6 14 8 15 7 17 2 18 1 19 3 20 20 21 21 22 22 23 23 24
REMARK SMILES IDX 24 25 25 26 26 27 90 28 27 29 89 30 28 31 29 32 30 33 83 34
REMARK SMILES IDX 31 35 88 36 82 37 84 38 32 39 87 40 81 41 80 42 33 44 67 45
REMARK SMILES IDX 46 46 66 47 47 48 50 49 65 50 85 51 48 52 49 53 64 55 86 56
REMARK SMILES IDX 51 57 34 58 35 59 44 60 36 61 37 62 43 63 45 64 38 65 39 66
REMARK SMILES IDX 40 67 41 68 42 69 68 70 69 71 78 72 70 73 71 74 77 75 79 76
REMARK SMILES IDX 72 77 73 78 74 79 75 80 76 81 52 82 53 83 62 84 54 85 55 86
REMARK SMILES IDX 61 87 63 88 56 89 57 90 58 91 59 92 60 93
REMARK H PARENT 9 16 84 43 50 54
REMARK Flexibility Score: inf
ROOT
ATOM      1  O   UNL A   1      31.107  29.393  25.242  1.00  0.00    -0.374 OA
ENDROOT
BRANCH   1   2
ATOM      2  C   UNL A   1      30.607  29.363  23.911  1.00  0.00     0.202 C 
BRANCH   2   3
ATOM      3  C   UNL A   1      31.276  28.440  22.880  1.00  0.00     0.261 C 
BRANCH   3   4
ATOM      4  O   UNL A   1      31.374  27.079  23.316  1.00  0.00    -0.463 OA
BRANCH   4   5
ATOM      5  C   UNL A   1      32.634  26.583  23.435  1.00  0.00     0.317 C 
ATOM      6  O   UNL A   1      33.544  26.836  22.652  1.00  0.00    -0.251 OA
BRANCH   5   7
ATOM      7  C   UNL A   1      32.791  25.630  24.623  1.00  0.00     0.111 C 
ATOM      8  C   UNL A   1      31.596  25.954  25.534  1.00  0.00     0.029 C 
ATOM      9  C   UNL A   1      34.045  25.935  25.491  1.00  0.00     0.029 C 
BRANCH   7  10
ATOM     10  C   UNL A   1      32.931  24.121  24.167  1.00  0.00     0.281 C 
BRANCH  10  11
ATOM     11  N   UNL A   1      33.617  23.015  24.889  1.00  0.00    -0.325 N 
ATOM     12  C   UNL A   1      32.722  21.974  25.433  1.00  0.00     0.251 C 
ATOM     13  C   UNL A   1      33.444  20.728  25.975  1.00  0.00     0.074 C 
ATOM     14  C   UNL A   1      34.470  20.200  24.990  1.00  0.00     0.012 C 
ATOM     15  C   UNL A   1      34.807  22.541  24.163  1.00  0.00     0.262 C 
ATOM     16  H   UNL A   1      33.984  23.416  25.752  1.00  0.00     0.348 HD
ATOM     17  C   UNL A   1      35.484  21.300  24.744  1.00  0.00     0.062 C 
BRANCH  12  18
ATOM     18  C   UNL A   1      31.835  22.594  26.545  1.00  0.00     0.186 C 
ATOM     19  C   UNL A   1      30.335  22.571  26.386  1.00  0.00     0.094 C 
ATOM     20  O   UNL A   1      32.315  23.069  27.579  1.00  0.00    -0.293 OA
ENDBRANCH  12  18
ENDBRANCH  10  11
ENDBRANCH   7  10
ENDBRANCH   5   7
ENDBRANCH   4   5
ENDBRANCH   3   4
ENDBRANCH   2   3
ENDBRANCH   1   2
BRANCH   1  21
ATOM     21  C   UNL A   1      32.317  30.103  25.504  1.00  0.00     0.202 C 
BRANCH  21  22
ATOM     22  C   UNL A   1      33.374  29.508  26.447  1.00  0.00     0.261 C 
BRANCH  22  23
ATOM     23  O   UNL A   1      33.527  30.244  27.673  1.00  0.00    -0.460 OA
BRANCH  23  24
ATOM     24  C   UNL A   1      34.565  31.122  27.678  1.00  0.00     0.338 C 
ATOM     25  O   UNL A   1      34.505  32.331  27.561  1.00  0.00    -0.246 OA
BRANCH  24  26
ATOM     26  C   UNL A   1      35.803  30.426  28.070  1.00  0.00     0.060 A 
ATOM     27  C   UNL A   1      35.779  29.682  29.257  1.00  0.00     0.016 A 
ATOM     28  C   UNL A   1      36.985  30.580  27.345  1.00  0.00     0.016 A 
ATOM     29  C   UNL A   1      36.950  29.114  29.745  1.00  0.00     0.010 A 
ATOM     30  C   UNL A   1      38.165  30.025  27.850  1.00  0.00     0.010 A 
ATOM     31  C   UNL A   1      38.157  29.322  29.068  1.00  0.00    -0.014 A 
BRANCH  31  32
ATOM     32  C   UNL A   1      39.426  28.961  29.739  1.00  0.00     0.031 A 
ATOM     33  C   UNL A   1      39.843  29.742  30.955  1.00  0.00     0.074 A 
ATOM     34  C   UNL A   1      40.167  27.929  29.300  1.00  0.00     0.049 A 
ATOM     35  N   UNL A   1      40.924  29.633  31.681  1.00  0.00    -0.248 NA
ATOM     36  C   UNL A   1      38.913  30.790  31.412  1.00  0.00     0.031 C 
ATOM     37  C   UNL A   1      39.829  27.071  28.165  1.00  0.00     0.029 A 
ATOM     38  N   UNL A   1      41.360  27.432  29.755  1.00  0.00    -0.354 N 
ATOM     39  C   UNL A   1      40.811  30.600  32.673  1.00  0.00     0.074 A 
ATOM     40  C   UNL A   1      39.570  31.305  32.441  1.00  0.00     0.031 C 
ATOM     41  C   UNL A   1      40.804  26.160  28.003  1.00  0.00     0.029 A 
ATOM     42  C   UNL A   1      41.847  26.392  29.000  1.00  0.00     0.049 A 
ATOM     43  H   UNL A   1      41.825  27.786  30.548  1.00  0.00     0.167 HD
ATOM     44  C   UNL A   1      41.663  30.868  33.690  1.00  0.00     0.037 A 
ATOM     45  C   UNL A   1      43.016  25.726  29.088  1.00  0.00     0.037 A 
ATOM     46  C   UNL A   1      42.895  30.156  33.910  1.00  0.00     0.049 A 
ATOM     47  C   UNL A   1      43.983  26.090  30.185  1.00  0.00     0.074 A 
ATOM     48  C   UNL A   1      43.826  30.338  34.917  1.00  0.00     0.029 A 
ATOM     49  N   UNL A   1      43.371  29.131  33.105  1.00  0.00    -0.354 N 
ATOM     50  N   UNL A   1      43.860  26.997  31.127  1.00  0.00    -0.248 NA
ATOM     51  C   UNL A   1      45.245  25.341  30.235  1.00  0.00     0.031 C 
ATOM     52  C   UNL A   1      44.891  29.461  34.688  1.00  0.00     0.029 A 
ATOM     53  C   UNL A   1      44.596  28.689  33.575  1.00  0.00     0.049 A 
ATOM     54  H   UNL A   1      42.906  28.771  32.316  1.00  0.00     0.167 HD
ATOM     55  C   UNL A   1      45.015  26.906  31.897  1.00  0.00     0.074 A 
ATOM     56  C   UNL A   1      45.818  25.849  31.317  1.00  0.00     0.031 C 
ATOM     57  C   UNL A   1      45.378  27.628  32.987  1.00  0.00     0.037 A 
BRANCH  44  58
ATOM     58  C   UNL A   1      41.310  31.998  34.620  1.00  0.00     0.058 A 
ATOM     59  C   UNL A   1      41.758  33.309  34.400  1.00  0.00     0.135 A 
ATOM     60  C   UNL A   1      40.484  31.767  35.732  1.00  0.00     0.135 A 
ATOM     61  F   UNL A   1      42.567  33.583  33.364  1.00  0.00    -0.206 F 
ATOM     62  C   UNL A   1      41.422  34.348  35.263  1.00  0.00     0.059 A 
ATOM     63  C   UNL A   1      40.110  32.795  36.592  1.00  0.00     0.059 A 
ATOM     64  F   UNL A   1      40.031  30.530  35.993  1.00  0.00    -0.206 F 
ATOM     65  C   UNL A   1      40.595  34.080  36.356  1.00  0.00     0.060 A 
BRANCH  65  66
ATOM     66  S   UNL A   1      40.161  35.440  37.461  1.00  0.00     0.124 S 
ATOM     67  O   UNL A   1      39.880  36.511  36.510  1.00  0.00    -0.237 OA
ATOM     68  O   UNL A   1      39.004  34.905  38.173  1.00  0.00    -0.237 OA
ATOM     69  O   UNL A   1      41.362  35.619  38.271  1.00  0.00    -0.744 OA
ENDBRANCH  65  66
ENDBRANCH  44  58
BRANCH  45  70
ATOM     70  C   UNL A   1      43.340  24.660  28.102  1.00  0.00     0.058 A 
ATOM     71  C   UNL A   1      43.885  24.972  26.848  1.00  0.00     0.135 A 
ATOM     72  C   UNL A   1      43.113  23.307  28.397  1.00  0.00     0.135 A 
ATOM     73  F   UNL A   1      44.111  26.251  26.514  1.00  0.00    -0.206 F 
ATOM     74  C   UNL A   1      44.181  23.982  25.916  1.00  0.00     0.059 A 
ATOM     75  C   UNL A   1      43.427  22.296  27.493  1.00  0.00     0.059 A 
ATOM     76  F   UNL A   1      42.602  22.953  29.587  1.00  0.00    -0.206 F 
ATOM     77  C   UNL A   1      43.953  22.646  26.250  1.00  0.00     0.060 A 
BRANCH  77  78
ATOM     78  S   UNL A   1      44.387  21.367  25.052  1.00  0.00     0.124 S 
ATOM     79  O   UNL A   1      45.668  20.902  25.570  1.00  0.00    -0.237 OA
ATOM     80  O   UNL A   1      43.270  20.437  25.180  1.00  0.00    -0.237 OA
ATOM     81  O   UNL A   1      44.445  22.096  23.788  1.00  0.00    -0.744 OA
ENDBRANCH  77  78
ENDBRANCH  45  70
BRANCH  57  82
ATOM     82  C   UNL A   1      46.681  27.277  33.652  1.00  0.00     0.058 A 
ATOM     83  C   UNL A   1      47.884  27.911  33.307  1.00  0.00     0.135 A 
ATOM     84  C   UNL A   1      46.713  26.332  34.692  1.00  0.00     0.135 A 
ATOM     85  F   UNL A   1      47.910  28.818  32.317  1.00  0.00    -0.206 F 
ATOM     86  C   UNL A   1      49.078  27.605  33.951  1.00  0.00     0.059 A 
ATOM     87  C   UNL A   1      47.890  26.032  35.371  1.00  0.00     0.059 A 
ATOM     88  F   UNL A   1      45.589  25.704  35.070  1.00  0.00    -0.206 F 
ATOM     89  C   UNL A   1      49.070  26.665  34.985  1.00  0.00     0.060 A 
BRANCH  89  90
ATOM     90  S   UNL A   1      50.620  26.303  35.837  1.00  0.00     0.124 S 
ATOM     91  O   UNL A   1      50.173  26.176  37.220  1.00  0.00    -0.237 OA
ATOM     92  O   UNL A   1      51.049  25.065  35.193  1.00  0.00    -0.237 OA
ATOM     93  O   UNL A   1      51.446  27.471  35.550  1.00  0.00    -0.744 OA
ENDBRANCH  89  90
ENDBRANCH  57  82
ENDBRANCH  31  32
ENDBRANCH  24  26
ENDBRANCH  23  24
ENDBRANCH  22  23
ENDBRANCH  21  22
ENDBRANCH   1  21
TORSDOF 20
ENDMDL
MODEL 3
REMARK VINA RESULT:      -9.6      4.992      9.449
REMARK SMILES CC(=O)[C@@H]1CCCC[N@H+]1CC(C)(C)C(=O)OCCOCCOC(=O)c1ccc(-c2c3nc(c(-c4c(F)cc(S(=O)(=O)[O-])cc4F)c4ccc([nH]4)c(-c4c(F)cc(S(=O)(=O)[O-])cc4F)c4nc(c(-c5c(F)cc(S(=O)(=O)[O-])cc5F)c5ccc2[nH]5)C=C4)C=C3)cc1
REMARK SMILES IDX 19 1 18 2 17 3 16 4 14 5 15 6 11 7 12 8 13 9 10 10 9 11 4 12
REMARK SMILES IDX 5 13 6 14 8 15 7 17 2 18 1 19 3 20 20 21 21 22 22 23 23 24
REMARK SMILES IDX 24 25 25 26 26 27 90 28 27 29 89 30 28 31 29 32 30 33 83 34
REMARK SMILES IDX 31 35 88 36 82 37 84 38 32 39 87 40 81 41 80 42 33 44 67 45
REMARK SMILES IDX 46 46 66 47 47 48 50 49 65 50 85 51 48 52 49 53 64 55 86 56
REMARK SMILES IDX 51 57 34 58 35 59 44 60 36 61 37 62 43 63 45 64 38 65 39 66
REMARK SMILES IDX 40 67 41 68 42 69 68 70 69 71 78 72 70 73 71 74 77 75 79 76
REMARK SMILES IDX 72 77 73 78 74 79 75 80 76 81 52 82 53 83 62 84 54 85 55 86
REMARK SMILES IDX 61 87 63 88 56 89 57 90 58 91 59 92 60 93
REMARK H PARENT 9 16 84 43 50 54
REMARK Flexibility Score: inf
ROOT
ATOM      1  O   UNL A   1      31.266  29.204  24.686  1.00  0.00    -0.374 OA
ENDROOT
BRANCH   1   2
ATOM      2  C   UNL A   1      32.092  28.784  23.605  1.00  0.00     0.202 C 
BRANCH   2   3
ATOM      3  C   UNL A   1      31.886  27.385  23.006  1.00  0.00     0.261 C 
BRANCH   3   4
ATOM      4  O   UNL A   1      32.927  26.462  23.347  1.00  0.00    -0.463 OA
BRANCH   4   5
ATOM      5  C   UNL A   1      33.127  25.443  22.470  1.00  0.00     0.317 C 
ATOM      6  O   UNL A   1      33.510  25.601  21.315  1.00  0.00    -0.251 OA
BRANCH   5   7
ATOM      7  C   UNL A   1      32.775  24.072  23.055  1.00  0.00     0.111 C 
ATOM      8  C   UNL A   1      33.309  23.067  22.022  1.00  0.00     0.029 C 
ATOM      9  C   UNL A   1      31.244  23.806  23.112  1.00  0.00     0.029 C 
BRANCH   7  10
ATOM     10  C   UNL A   1      33.305  23.898  24.536  1.00  0.00     0.281 C 
BRANCH  10  11
ATOM     11  N   UNL A   1      34.534  23.188  24.982  1.00  0.00    -0.325 N 
ATOM     12  C   UNL A   1      34.574  21.747  24.666  1.00  0.00     0.251 C 
ATOM     13  C   UNL A   1      35.932  21.071  24.925  1.00  0.00     0.074 C 
ATOM     14  C   UNL A   1      37.077  21.862  24.321  1.00  0.00     0.012 C 
ATOM     15  C   UNL A   1      35.752  23.959  24.679  1.00  0.00     0.262 C 
ATOM     16  H   UNL A   1      34.496  23.155  26.001  1.00  0.00     0.348 HD
ATOM     17  C   UNL A   1      37.073  23.240  24.954  1.00  0.00     0.062 C 
BRANCH  12  18
ATOM     18  C   UNL A   1      33.463  21.018  25.468  1.00  0.00     0.186 C 
ATOM     19  C   UNL A   1      32.389  20.268  24.719  1.00  0.00     0.094 C 
ATOM     20  O   UNL A   1      33.451  20.995  26.702  1.00  0.00    -0.293 OA
ENDBRANCH  12  18
ENDBRANCH  10  11
ENDBRANCH   7  10
ENDBRANCH   5   7
ENDBRANCH   4   5
ENDBRANCH   3   4
ENDBRANCH   2   3
ENDBRANCH   1   2
BRANCH   1  21
ATOM     21  C   UNL A   1      31.710  28.966  26.020  1.00  0.00     0.202 C 
BRANCH  21  22
ATOM     22  C   UNL A   1      32.475  30.056  26.786  1.00  0.00     0.261 C 
BRANCH  22  23
ATOM     23  O   UNL A   1      33.878  29.779  26.932  1.00  0.00    -0.460 OA
BRANCH  23  24
ATOM     24  C   UNL A   1      34.579  30.745  27.582  1.00  0.00     0.338 C 
ATOM     25  O   UNL A   1      34.186  31.851  27.901  1.00  0.00    -0.246 OA
BRANCH  24  26
ATOM     26  C   UNL A   1      35.858  30.193  28.061  1.00  0.00     0.060 A 
ATOM     27  C   UNL A   1      35.837  29.446  29.246  1.00  0.00     0.016 A 
ATOM     28  C   UNL A   1      37.063  30.484  27.420  1.00  0.00     0.016 A 
ATOM     29  C   UNL A   1      37.028  29.013  29.817  1.00  0.00     0.010 A 
ATOM     30  C   UNL A   1      38.261  30.065  28.007  1.00  0.00     0.010 A 
ATOM     31  C   UNL A   1      38.248  29.360  29.224  1.00  0.00    -0.014 A 
BRANCH  31  32
ATOM     32  C   UNL A   1      39.501  29.143  29.983  1.00  0.00     0.031 A 
ATOM     33  C   UNL A   1      40.448  28.074  29.512  1.00  0.00     0.074 A 
ATOM     34  C   UNL A   1      39.806  29.912  31.041  1.00  0.00     0.049 A 
ATOM     35  N   UNL A   1      41.580  27.680  30.033  1.00  0.00    -0.248 NA
ATOM     36  C   UNL A   1      40.066  27.351  28.286  1.00  0.00     0.031 C 
ATOM     37  C   UNL A   1      38.986  31.012  31.549  1.00  0.00     0.029 A 
ATOM     38  N   UNL A   1      40.889  29.884  31.881  1.00  0.00    -0.354 N 
ATOM     39  C   UNL A   1      42.041  26.660  29.209  1.00  0.00     0.074 A 
ATOM     40  C   UNL A   1      41.054  26.477  28.167  1.00  0.00     0.031 C 
ATOM     41  C   UNL A   1      39.590  31.543  32.626  1.00  0.00     0.029 A 
ATOM     42  C   UNL A   1      40.819  30.801  32.901  1.00  0.00     0.049 A 
ATOM     43  H   UNL A   1      41.646  29.264  31.765  1.00  0.00     0.167 HD
ATOM     44  C   UNL A   1      43.188  25.948  29.309  1.00  0.00     0.037 A 
ATOM     45  C   UNL A   1      41.641  30.998  33.951  1.00  0.00     0.037 A 
ATOM     46  C   UNL A   1      44.162  26.144  30.350  1.00  0.00     0.049 A 
ATOM     47  C   UNL A   1      42.876  30.144  34.083  1.00  0.00     0.074 A 
ATOM     48  C   UNL A   1      45.364  25.485  30.539  1.00  0.00     0.029 A 
ATOM     49  N   UNL A   1      44.041  27.060  31.385  1.00  0.00    -0.354 N 
ATOM     50  N   UNL A   1      43.310  29.192  33.289  1.00  0.00    -0.248 NA
ATOM     51  C   UNL A   1      43.735  30.391  35.248  1.00  0.00     0.031 C 
ATOM     52  C   UNL A   1      45.943  25.965  31.718  1.00  0.00     0.029 A 
ATOM     53  C   UNL A   1      45.133  26.966  32.231  1.00  0.00     0.049 A 
ATOM     54  H   UNL A   1      43.290  27.685  31.501  1.00  0.00     0.167 HD
ATOM     55  C   UNL A   1      44.505  28.748  33.845  1.00  0.00     0.074 A 
ATOM     56  C   UNL A   1      44.731  29.543  35.034  1.00  0.00     0.031 C 
ATOM     57  C   UNL A   1      45.343  27.774  33.409  1.00  0.00     0.037 A 
BRANCH  44  58
ATOM     58  C   UNL A   1      43.434  24.872  28.286  1.00  0.00     0.058 A 
ATOM     59  C   UNL A   1      42.998  23.552  28.476  1.00  0.00     0.135 A 
ATOM     60  C   UNL A   1      44.093  25.176  27.083  1.00  0.00     0.135 A 
ATOM     61  F   UNL A   1      42.381  23.200  29.616  1.00  0.00    -0.206 F 
ATOM     62  C   UNL A   1      43.226  22.565  27.522  1.00  0.00     0.059 A 
ATOM     63  C   UNL A   1      44.306  24.213  26.102  1.00  0.00     0.059 A 
ATOM     64  F   UNL A   1      44.537  26.421  26.852  1.00  0.00    -0.206 F 
ATOM     65  C   UNL A   1      43.881  22.906  26.337  1.00  0.00     0.060 A 
BRANCH  65  66
ATOM     66  S   UNL A   1      44.162  21.616  25.106  1.00  0.00     0.124 S 
ATOM     67  O   UNL A   1      45.515  21.184  25.440  1.00  0.00    -0.237 OA
ATOM     68  O   UNL A   1      43.099  20.662  25.405  1.00  0.00    -0.237 OA
ATOM     69  O   UNL A   1      44.026  22.322  23.835  1.00  0.00    -0.744 OA
ENDBRANCH  65  66
ENDBRANCH  44  58
BRANCH  45  70
ATOM     70  C   UNL A   1      41.314  32.035  34.967  1.00  0.00     0.058 A 
ATOM     71  C   UNL A   1      41.796  33.347  34.849  1.00  0.00     0.135 A 
ATOM     72  C   UNL A   1      40.508  31.733  36.076  1.00  0.00     0.135 A 
ATOM     73  F   UNL A   1      42.578  33.683  33.813  1.00  0.00    -0.206 F 
ATOM     74  C   UNL A   1      41.502  34.319  35.800  1.00  0.00     0.059 A 
ATOM     75  C   UNL A   1      40.177  32.695  37.026  1.00  0.00     0.059 A 
ATOM     76  F   UNL A   1      40.012  30.495  36.232  1.00  0.00    -0.206 F 
ATOM     77  C   UNL A   1      40.688  33.984  36.883  1.00  0.00     0.060 A 
BRANCH  77  78
ATOM     78  S   UNL A   1      40.273  35.267  38.084  1.00  0.00     0.124 S 
ATOM     79  O   UNL A   1      41.166  34.936  39.188  1.00  0.00    -0.237 OA
ATOM     80  O   UNL A   1      40.592  36.487  37.349  1.00  0.00    -0.237 OA
ATOM     81  O   UNL A   1      38.851  35.047  38.334  1.00  0.00    -0.744 OA
ENDBRANCH  77  78
ENDBRANCH  45  70
BRANCH  57  82
ATOM     82  C   UNL A   1      46.604  27.537  34.196  1.00  0.00     0.058 A 
ATOM     83  C   UNL A   1      46.664  26.590  35.230  1.00  0.00     0.135 A 
ATOM     84  C   UNL A   1      47.783  28.227  33.869  1.00  0.00     0.135 A 
ATOM     85  F   UNL A   1      45.565  25.907  35.587  1.00  0.00    -0.206 F 
ATOM     86  C   UNL A   1      47.843  26.354  35.930  1.00  0.00     0.059 A 
ATOM     87  C   UNL A   1      48.981  27.983  34.534  1.00  0.00     0.059 A 
ATOM     88  F   UNL A   1      47.784  29.133  32.879  1.00  0.00    -0.206 F 
ATOM     89  C   UNL A   1      48.998  27.054  35.571  1.00  0.00     0.060 A 
BRANCH  89  90
ATOM     90  S   UNL A   1      50.530  26.710  36.464  1.00  0.00     0.124 S 
ATOM     91  O   UNL A   1      51.260  27.960  36.285  1.00  0.00    -0.237 OA
ATOM     92  O   UNL A   1      50.050  26.443  37.816  1.00  0.00    -0.237 OA
ATOM     93  O   UNL A   1      51.080  25.555  35.761  1.00  0.00    -0.744 OA
ENDBRANCH  89  90
ENDBRANCH  57  82
ENDBRANCH  31  32
ENDBRANCH  24  26
ENDBRANCH  23  24
ENDBRANCH  22  23
ENDBRANCH  21  22
ENDBRANCH   1  21
TORSDOF 20
ENDMDL
