MODEL 1
REMARK VINA RESULT:     -10.2      0.000      0.000
REMARK SMILES CC(C)[C@H](NC(=O)OCc1ccccc1)C(=O)NCC(=O)OCCOCCOC(=O)c1ccc(-c2c3nc(c(-c4c(F)cc(S(=O)(=O)[O-])cc4F)c4ccc([nH]4)c(-c4c(F)cc(S(=O)(=O)[O-])cc4F)c4nc(c(-c5c(F)cc(S(=O)(=O)[O-])cc5F)c5ccc2[nH]5)C=C4)C=C3)cc1
REMARK SMILES IDX 23 1 22 2 20 3 21 4 19 5 18 6 16 7 17 8 4 10 2 11 1 12 3 13
REMARK SMILES IDX 5 14 6 15 7 17 8 18 9 19 10 20 11 21 15 22 12 23 14 24 13 25
REMARK SMILES IDX 24 26 25 27 26 28 27 29 28 30 29 31 30 32 31 33 32 34 96 35
REMARK SMILES IDX 33 36 95 37 34 38 35 39 36 40 89 41 37 42 94 43 88 44 90 45
REMARK SMILES IDX 38 46 93 47 87 48 86 49 39 51 73 52 52 53 72 54 53 55 56 56
REMARK SMILES IDX 71 57 91 58 54 59 55 60 70 62 92 63 57 64 40 65 41 66 50 67
REMARK SMILES IDX 42 68 43 69 49 70 51 71 44 72 45 73 46 74 47 75 48 76 74 77
REMARK SMILES IDX 75 78 84 79 76 80 77 81 83 82 85 83 78 84 79 85 80 86 81 87
REMARK SMILES IDX 82 88 58 89 59 90 68 91 60 92 61 93 67 94 69 95 62 96 63 97
REMARK SMILES IDX 64 98 65 99 66 100
REMARK H PARENT 18 9 5 16 90 50 56 61
REMARK Flexibility Score: inf
ROOT
ATOM      1  C   UNL A   1      35.463  21.637  24.916  1.00  0.00     0.261 C 
ENDROOT
BRANCH   1   2
ATOM      2  O   UNL A   1      34.498  20.619  24.604  1.00  0.00    -0.462 OA
BRANCH   2   3
ATOM      3  C   UNL A   1      33.389  20.590  25.384  1.00  0.00     0.325 C 
ATOM      4  O   UNL A   1      32.780  19.581  25.723  1.00  0.00    -0.250 OA
BRANCH   3   5
ATOM      5  C   UNL A   1      33.029  21.971  25.926  1.00  0.00     0.238 C 
BRANCH   5   6
ATOM      6  N   UNL A   1      31.783  22.105  26.665  1.00  0.00    -0.343 N 
ATOM      7  C   UNL A   1      30.893  23.125  26.743  1.00  0.00     0.243 C 
ATOM      8  O   UNL A   1      29.898  22.940  27.452  1.00  0.00    -0.273 OA
ATOM      9  H   UNL A   1      31.545  21.316  27.205  1.00  0.00     0.164 HD
BRANCH   7  10
ATOM     10  C   UNL A   1      31.109  24.488  26.047  1.00  0.00     0.177 C 
BRANCH  10  11
ATOM     11  C   UNL A   1      30.282  24.752  24.769  1.00  0.00     0.015 C 
ATOM     12  C   UNL A   1      29.803  26.209  24.687  1.00  0.00     0.010 C 
ATOM     13  C   UNL A   1      31.105  24.426  23.518  1.00  0.00     0.010 C 
ENDBRANCH  10  11
BRANCH  10  14
ATOM     14  N   UNL A   1      32.556  24.714  26.037  1.00  0.00    -0.309 N 
ATOM     15  C   UNL A   1      33.293  25.846  25.907  1.00  0.00     0.408 C 
ATOM     16  H   UNL A   1      33.091  23.896  26.145  1.00  0.00     0.167 HD
ATOM     17  O   UNL A   1      34.413  25.791  25.414  1.00  0.00    -0.225 OA
BRANCH  15  18
ATOM     18  O   UNL A   1      32.678  26.970  26.330  1.00  0.00    -0.445 OA
BRANCH  18  19
ATOM     19  C   UNL A   1      32.986  28.161  25.587  1.00  0.00     0.270 C 
BRANCH  19  20
ATOM     20  C   UNL A   1      33.567  29.251  26.454  1.00  0.00    -0.011 A 
ATOM     21  C   UNL A   1      34.876  29.169  26.947  1.00  0.00     0.007 A 
ATOM     22  C   UNL A   1      32.795  30.379  26.774  1.00  0.00     0.007 A 
ATOM     23  C   UNL A   1      35.392  30.186  27.754  1.00  0.00     0.000 A 
ATOM     24  C   UNL A   1      33.315  31.399  27.569  1.00  0.00     0.000 A 
ATOM     25  C   UNL A   1      34.612  31.300  28.064  1.00  0.00     0.000 A 
ENDBRANCH  19  20
ENDBRANCH  18  19
ENDBRANCH  15  18
ENDBRANCH  10  14
ENDBRANCH   7  10
ENDBRANCH   5   6
ENDBRANCH   3   5
ENDBRANCH   2   3
ENDBRANCH   1   2
BRANCH   1  26
ATOM     26  C   UNL A   1      36.761  20.990  25.406  1.00  0.00     0.202 C 
BRANCH  26  27
ATOM     27  O   UNL A   1      37.897  21.861  25.426  1.00  0.00    -0.374 OA
BRANCH  27  28
ATOM     28  C   UNL A   1      37.648  23.260  25.296  1.00  0.00     0.202 C 
BRANCH  28  29
ATOM     29  C   UNL A   1      38.163  24.148  26.435  1.00  0.00     0.261 C 
BRANCH  29  30
ATOM     30  O   UNL A   1      39.583  24.014  26.619  1.00  0.00    -0.460 OA
BRANCH  30  31
ATOM     31  C   UNL A   1      40.295  25.134  26.338  1.00  0.00     0.338 C 
ATOM     32  O   UNL A   1      40.627  25.529  25.231  1.00  0.00    -0.246 OA
BRANCH  31  33
ATOM     33  C   UNL A   1      40.495  25.944  27.554  1.00  0.00     0.060 A 
ATOM     34  C   UNL A   1      39.549  25.801  28.578  1.00  0.00     0.016 A 
ATOM     35  C   UNL A   1      41.518  26.889  27.662  1.00  0.00     0.016 A 
ATOM     36  C   UNL A   1      39.589  26.642  29.689  1.00  0.00     0.010 A 
ATOM     37  C   UNL A   1      41.547  27.743  28.774  1.00  0.00     0.010 A 
ATOM     38  C   UNL A   1      40.562  27.647  29.772  1.00  0.00    -0.014 A 
BRANCH  38  39
ATOM     39  C   UNL A   1      40.442  28.683  30.825  1.00  0.00     0.031 A 
ATOM     40  C   UNL A   1      41.347  28.610  32.026  1.00  0.00     0.074 A 
ATOM     41  C   UNL A   1      39.570  29.699  30.697  1.00  0.00     0.049 A 
ATOM     42  N   UNL A   1      41.416  29.407  33.061  1.00  0.00    -0.248 NA
ATOM     43  C   UNL A   1      42.303  27.491  32.062  1.00  0.00     0.031 C 
ATOM     44  C   UNL A   1      38.665  29.898  29.566  1.00  0.00     0.029 A 
ATOM     45  N   UNL A   1      39.303  30.753  31.534  1.00  0.00    -0.354 N 
ATOM     46  C   UNL A   1      42.419  28.890  33.870  1.00  0.00     0.074 A 
ATOM     47  C   UNL A   1      42.918  27.697  33.218  1.00  0.00     0.031 C 
ATOM     48  C   UNL A   1      37.929  31.002  29.787  1.00  0.00     0.029 A 
ATOM     49  C   UNL A   1      38.299  31.575  31.082  1.00  0.00     0.049 A 
ATOM     50  H   UNL A   1      39.785  30.907  32.378  1.00  0.00     0.167 HD
ATOM     51  C   UNL A   1      42.888  29.367  35.048  1.00  0.00     0.037 A 
ATOM     52  C   UNL A   1      37.732  32.655  31.654  1.00  0.00     0.037 A 
ATOM     53  C   UNL A   1      42.393  30.549  35.698  1.00  0.00     0.049 A 
ATOM     54  C   UNL A   1      38.232  33.137  32.990  1.00  0.00     0.074 A 
ATOM     55  C   UNL A   1      42.816  31.121  36.886  1.00  0.00     0.029 A 
ATOM     56  N   UNL A   1      41.359  31.339  35.221  1.00  0.00    -0.354 N 
ATOM     57  N   UNL A   1      39.197  32.650  33.732  1.00  0.00    -0.248 NA
ATOM     58  C   UNL A   1      37.565  34.314  33.567  1.00  0.00     0.031 C 
ATOM     59  C   UNL A   1      42.014  32.239  37.143  1.00  0.00     0.029 A 
ATOM     60  C   UNL A   1      41.114  32.381  36.099  1.00  0.00     0.049 A 
ATOM     61  H   UNL A   1      40.868  31.182  34.381  1.00  0.00     0.167 HD
ATOM     62  C   UNL A   1      39.267  33.471  34.852  1.00  0.00     0.074 A 
ATOM     63  C   UNL A   1      38.250  34.489  34.690  1.00  0.00     0.031 C 
ATOM     64  C   UNL A   1      40.100  33.389  35.920  1.00  0.00     0.037 A 
BRANCH  51  65
ATOM     65  C   UNL A   1      43.984  28.589  35.718  1.00  0.00     0.058 A 
ATOM     66  C   UNL A   1      45.337  28.863  35.466  1.00  0.00     0.135 A 
ATOM     67  C   UNL A   1      43.676  27.575  36.639  1.00  0.00     0.135 A 
ATOM     68  F   UNL A   1      45.682  29.811  34.581  1.00  0.00    -0.206 F 
ATOM     69  C   UNL A   1      46.350  28.141  36.089  1.00  0.00     0.059 A 
ATOM     70  C   UNL A   1      44.674  26.853  37.286  1.00  0.00     0.059 A 
ATOM     71  F   UNL A   1      42.397  27.273  36.910  1.00  0.00    -0.206 F 
ATOM     72  C   UNL A   1      46.008  27.134  36.994  1.00  0.00     0.060 A 
BRANCH  72  73
ATOM     73  S   UNL A   1      47.331  26.201  37.793  1.00  0.00     0.124 S 
ATOM     74  O   UNL A   1      48.388  27.205  37.872  1.00  0.00    -0.237 OA
ATOM     75  O   UNL A   1      46.726  25.818  39.065  1.00  0.00    -0.237 OA
ATOM     76  O   UNL A   1      47.578  25.101  36.865  1.00  0.00    -0.744 OA
ENDBRANCH  72  73
ENDBRANCH  51  65
BRANCH  52  77
ATOM     77  C   UNL A   1      36.609  33.347  30.970  1.00  0.00     0.058 A 
ATOM     78  C   UNL A   1      35.295  33.246  31.447  1.00  0.00     0.135 A 
ATOM     79  C   UNL A   1      36.836  34.134  29.830  1.00  0.00     0.135 A 
ATOM     80  F   UNL A   1      35.030  32.495  32.527  1.00  0.00    -0.206 F 
ATOM     81  C   UNL A   1      34.241  33.896  30.814  1.00  0.00     0.059 A 
ATOM     82  C   UNL A   1      35.801  34.808  29.191  1.00  0.00     0.059 A 
ATOM     83  F   UNL A   1      38.078  34.266  29.341  1.00  0.00    -0.206 F 
ATOM     84  C   UNL A   1      34.504  34.676  29.686  1.00  0.00     0.060 A 
BRANCH  84  85
ATOM     85  S   UNL A   1      33.140  35.565  28.903  1.00  0.00     0.124 S 
ATOM     86  O   UNL A   1      32.433  36.096  30.062  1.00  0.00    -0.237 OA
ATOM     87  O   UNL A   1      33.840  36.545  28.078  1.00  0.00    -0.237 OA
ATOM     88  O   UNL A   1      32.444  34.518  28.161  1.00  0.00    -0.744 OA
ENDBRANCH  84  85
ENDBRANCH  52  77
BRANCH  64  89
ATOM     89  C   UNL A   1      39.964  34.436  36.988  1.00  0.00     0.058 A 
ATOM     90  C   UNL A   1      40.735  35.608  36.966  1.00  0.00     0.135 A 
ATOM     91  C   UNL A   1      39.005  34.296  38.003  1.00  0.00     0.135 A 
ATOM     92  F   UNL A   1      41.669  35.784  36.019  1.00  0.00    -0.206 F 
ATOM     93  C   UNL A   1      40.568  36.603  37.924  1.00  0.00     0.059 A 
ATOM     94  C   UNL A   1      38.808  35.288  38.960  1.00  0.00     0.059 A 
ATOM     95  F   UNL A   1      38.236  33.197  38.060  1.00  0.00    -0.206 F 
ATOM     96  C   UNL A   1      39.600  36.435  38.917  1.00  0.00     0.060 A 
BRANCH  96  97
ATOM     97  S   UNL A   1      39.354  37.752  40.127  1.00  0.00     0.124 S 
ATOM     98  O   UNL A   1      38.124  38.369  39.643  1.00  0.00    -0.237 OA
ATOM     99  O   UNL A   1      39.240  37.013  41.382  1.00  0.00    -0.237 OA
ATOM    100  O   UNL A   1      40.560  38.563  39.994  1.00  0.00    -0.744 OA
ENDBRANCH  96  97
ENDBRANCH  64  89
ENDBRANCH  38  39
ENDBRANCH  31  33
ENDBRANCH  30  31
ENDBRANCH  29  30
ENDBRANCH  28  29
ENDBRANCH  27  28
ENDBRANCH  26  27
ENDBRANCH   1  26
TORSDOF 24
ENDMDL
MODEL 2
REMARK VINA RESULT:     -10.0      1.716      2.550
REMARK SMILES CC(C)[C@H](NC(=O)OCc1ccccc1)C(=O)NCC(=O)OCCOCCOC(=O)c1ccc(-c2c3nc(c(-c4c(F)cc(S(=O)(=O)[O-])cc4F)c4ccc([nH]4)c(-c4c(F)cc(S(=O)(=O)[O-])cc4F)c4nc(c(-c5c(F)cc(S(=O)(=O)[O-])cc5F)c5ccc2[nH]5)C=C4)C=C3)cc1
REMARK SMILES IDX 23 1 22 2 20 3 21 4 19 5 18 6 16 7 17 8 4 10 2 11 1 12 3 13
REMARK SMILES IDX 5 14 6 15 7 17 8 18 9 19 10 20 11 21 15 22 12 23 14 24 13 25
REMARK SMILES IDX 24 26 25 27 26 28 27 29 28 30 29 31 30 32 31 33 32 34 96 35
REMARK SMILES IDX 33 36 95 37 34 38 35 39 36 40 89 41 37 42 94 43 88 44 90 45
REMARK SMILES IDX 38 46 93 47 87 48 86 49 39 51 73 52 52 53 72 54 53 55 56 56
REMARK SMILES IDX 71 57 91 58 54 59 55 60 70 62 92 63 57 64 40 65 41 66 50 67
REMARK SMILES IDX 42 68 43 69 49 70 51 71 44 72 45 73 46 74 47 75 48 76 74 77
REMARK SMILES IDX 75 78 84 79 76 80 77 81 83 82 85 83 78 84 79 85 80 86 81 87
REMARK SMILES IDX 82 88 58 89 59 90 68 91 60 92 61 93 67 94 69 95 62 96 63 97
REMARK SMILES IDX 64 98 65 99 66 100
REMARK H PARENT 18 9 5 16 90 50 56 61
REMARK Flexibility Score: inf
ROOT
ATOM      1  C   UNL A   1      38.119  20.345  24.995  1.00  0.00     0.261 C 
ENDROOT
BRANCH   1   2
ATOM      2  O   UNL A   1      38.041  21.777  25.079  1.00  0.00    -0.462 OA
BRANCH   2   3
ATOM      3  C   UNL A   1      36.884  22.338  24.645  1.00  0.00     0.325 C 
ATOM      4  O   UNL A   1      36.630  22.642  23.485  1.00  0.00    -0.250 OA
BRANCH   3   5
ATOM      5  C   UNL A   1      35.842  22.441  25.755  1.00  0.00     0.238 C 
BRANCH   5   6
ATOM      6  N   UNL A   1      35.178  23.722  25.943  1.00  0.00    -0.343 N 
ATOM      7  C   UNL A   1      33.974  24.177  25.518  1.00  0.00     0.243 C 
ATOM      8  O   UNL A   1      33.665  25.325  25.855  1.00  0.00    -0.273 OA
ATOM      9  H   UNL A   1      35.695  24.372  26.472  1.00  0.00     0.164 HD
BRANCH   7  10
ATOM     10  C   UNL A   1      33.036  23.356  24.604  1.00  0.00     0.177 C 
BRANCH  10  11
ATOM     11  C   UNL A   1      32.473  22.043  25.190  1.00  0.00     0.015 C 
ATOM     12  C   UNL A   1      31.058  22.227  25.757  1.00  0.00     0.010 C 
ATOM     13  C   UNL A   1      32.443  20.944  24.122  1.00  0.00     0.010 C 
ENDBRANCH  10  11
BRANCH  10  14
ATOM     14  N   UNL A   1      33.661  23.353  23.279  1.00  0.00    -0.309 N 
ATOM     15  C   UNL A   1      33.280  23.903  22.099  1.00  0.00     0.408 C 
ATOM     16  H   UNL A   1      34.513  22.861  23.238  1.00  0.00     0.167 HD
ATOM     17  O   UNL A   1      33.624  23.383  21.044  1.00  0.00    -0.225 OA
BRANCH  15  18
ATOM     18  O   UNL A   1      32.506  25.002  22.214  1.00  0.00    -0.445 OA
BRANCH  18  19
ATOM     19  C   UNL A   1      33.195  26.259  22.104  1.00  0.00     0.270 C 
BRANCH  19  20
ATOM     20  C   UNL A   1      32.728  27.268  23.125  1.00  0.00    -0.011 A 
ATOM     21  C   UNL A   1      31.439  27.209  23.669  1.00  0.00     0.007 A 
ATOM     22  C   UNL A   1      33.595  28.285  23.552  1.00  0.00     0.007 A 
ATOM     23  C   UNL A   1      31.024  28.158  24.608  1.00  0.00     0.000 A 
ATOM     24  C   UNL A   1      33.185  29.224  24.497  1.00  0.00     0.000 A 
ATOM     25  C   UNL A   1      31.897  29.163  25.022  1.00  0.00     0.000 A 
ENDBRANCH  19  20
ENDBRANCH  18  19
ENDBRANCH  15  18
ENDBRANCH  10  14
ENDBRANCH   7  10
ENDBRANCH   5   6
ENDBRANCH   3   5
ENDBRANCH   2   3
ENDBRANCH   1   2
BRANCH   1  26
ATOM     26  C   UNL A   1      39.343  19.845  25.767  1.00  0.00     0.202 C 
BRANCH  26  27
ATOM     27  O   UNL A   1      40.078  20.863  26.454  1.00  0.00    -0.374 OA
BRANCH  27  28
ATOM     28  C   UNL A   1      41.489  20.681  26.572  1.00  0.00     0.202 C 
BRANCH  28  29
ATOM     29  C   UNL A   1      42.357  21.911  26.281  1.00  0.00     0.261 C 
BRANCH  29  30
ATOM     30  O   UNL A   1      41.562  23.095  26.093  1.00  0.00    -0.460 OA
BRANCH  30  31
ATOM     31  C   UNL A   1      42.280  24.239  25.964  1.00  0.00     0.338 C 
ATOM     32  O   UNL A   1      43.142  24.470  25.132  1.00  0.00    -0.246 OA
BRANCH  31  33
ATOM     33  C   UNL A   1      41.770  25.281  26.877  1.00  0.00     0.060 A 
ATOM     34  C   UNL A   1      42.430  26.516  26.865  1.00  0.00     0.016 A 
ATOM     35  C   UNL A   1      40.741  25.036  27.790  1.00  0.00     0.016 A 
ATOM     36  C   UNL A   1      42.102  27.493  27.804  1.00  0.00     0.010 A 
ATOM     37  C   UNL A   1      40.424  26.014  28.742  1.00  0.00     0.010 A 
ATOM     38  C   UNL A   1      41.128  27.230  28.776  1.00  0.00    -0.014 A 
BRANCH  38  39
ATOM     39  C   UNL A   1      40.966  28.172  29.910  1.00  0.00     0.031 A 
ATOM     40  C   UNL A   1      41.891  28.055  31.092  1.00  0.00     0.074 A 
ATOM     41  C   UNL A   1      40.037  29.144  29.872  1.00  0.00     0.049 A 
ATOM     42  N   UNL A   1      41.932  28.771  32.186  1.00  0.00    -0.248 NA
ATOM     43  C   UNL A   1      42.908  26.992  31.029  1.00  0.00     0.031 C 
ATOM     44  C   UNL A   1      39.106  29.380  28.770  1.00  0.00     0.029 A 
ATOM     45  N   UNL A   1      39.725  30.112  30.793  1.00  0.00    -0.354 N 
ATOM     46  C   UNL A   1      42.974  28.249  32.941  1.00  0.00     0.074 A 
ATOM     47  C   UNL A   1      43.528  27.142  32.191  1.00  0.00     0.031 C 
ATOM     48  C   UNL A   1      38.314  30.420  29.086  1.00  0.00     0.029 A 
ATOM     49  C   UNL A   1      38.670  30.909  30.418  1.00  0.00     0.049 A 
ATOM     50  H   UNL A   1      40.210  30.225  31.642  1.00  0.00     0.167 HD
ATOM     51  C   UNL A   1      43.433  28.657  34.148  1.00  0.00     0.037 A 
ATOM     52  C   UNL A   1      38.052  31.906  31.081  1.00  0.00     0.037 A 
ATOM     53  C   UNL A   1      42.883  29.755  34.896  1.00  0.00     0.049 A 
ATOM     54  C   UNL A   1      38.545  32.309  32.445  1.00  0.00     0.074 A 
ATOM     55  C   UNL A   1      43.291  30.254  36.121  1.00  0.00     0.029 A 
ATOM     56  N   UNL A   1      41.799  30.520  34.493  1.00  0.00    -0.354 N 
ATOM     57  N   UNL A   1      39.547  31.821  33.136  1.00  0.00    -0.248 NA
ATOM     58  C   UNL A   1      37.823  33.397  33.122  1.00  0.00     0.031 C 
ATOM     59  C   UNL A   1      42.432  31.301  36.474  1.00  0.00     0.029 A 
ATOM     60  C   UNL A   1      41.510  31.474  35.455  1.00  0.00     0.049 A 
ATOM     61  H   UNL A   1      41.306  30.402  33.649  1.00  0.00     0.167 HD
ATOM     62  C   UNL A   1      39.588  32.553  34.318  1.00  0.00     0.074 A 
ATOM     63  C   UNL A   1      38.513  33.522  34.247  1.00  0.00     0.031 C 
ATOM     64  C   UNL A   1      40.440  32.434  35.366  1.00  0.00     0.037 A 
BRANCH  51  65
ATOM     65  C   UNL A   1      44.580  27.892  34.743  1.00  0.00     0.058 A 
ATOM     66  C   UNL A   1      45.911  28.285  34.533  1.00  0.00     0.135 A 
ATOM     67  C   UNL A   1      44.343  26.768  35.550  1.00  0.00     0.135 A 
ATOM     68  F   UNL A   1      46.189  29.342  33.755  1.00  0.00    -0.206 F 
ATOM     69  C   UNL A   1      46.971  27.574  35.085  1.00  0.00     0.059 A 
ATOM     70  C   UNL A   1      45.389  26.053  36.127  1.00  0.00     0.059 A 
ATOM     71  F   UNL A   1      43.088  26.351  35.777  1.00  0.00    -0.206 F 
ATOM     72  C   UNL A   1      46.700  26.456  35.877  1.00  0.00     0.060 A 
BRANCH  72  73
ATOM     73  S   UNL A   1      48.084  25.539  36.586  1.00  0.00     0.124 S 
ATOM     74  O   UNL A   1      48.440  26.383  37.723  1.00  0.00    -0.237 OA
ATOM     75  O   UNL A   1      47.478  24.254  36.917  1.00  0.00    -0.237 OA
ATOM     76  O   UNL A   1      49.060  25.506  35.500  1.00  0.00    -0.744 OA
ENDBRANCH  72  73
ENDBRANCH  51  65
BRANCH  52  77
ATOM     77  C   UNL A   1      36.884  32.587  30.465  1.00  0.00     0.058 A 
ATOM     78  C   UNL A   1      35.574  32.267  30.848  1.00  0.00     0.135 A 
ATOM     79  C   UNL A   1      37.059  33.579  29.489  1.00  0.00     0.135 A 
ATOM     80  F   UNL A   1      35.358  31.315  31.769  1.00  0.00    -0.206 F 
ATOM     81  C   UNL A   1      34.475  32.903  30.279  1.00  0.00     0.059 A 
ATOM     82  C   UNL A   1      35.978  34.242  28.919  1.00  0.00     0.059 A 
ATOM     83  F   UNL A   1      38.295  33.924  29.096  1.00  0.00    -0.206 F 
ATOM     84  C   UNL A   1      34.688  33.891  29.316  1.00  0.00     0.060 A 
BRANCH  84  85
ATOM     85  S   UNL A   1      33.260  34.755  28.624  1.00  0.00     0.124 S 
ATOM     86  O   UNL A   1      32.458  34.999  29.817  1.00  0.00    -0.237 OA
ATOM     87  O   UNL A   1      33.873  35.933  28.016  1.00  0.00    -0.237 OA
ATOM     88  O   UNL A   1      32.712  33.787  27.679  1.00  0.00    -0.744 OA
ENDBRANCH  84  85
ENDBRANCH  52  77
BRANCH  64  89
ATOM     89  C   UNL A   1      40.261  33.384  36.516  1.00  0.00     0.058 A 
ATOM     90  C   UNL A   1      40.951  34.605  36.570  1.00  0.00     0.135 A 
ATOM     91  C   UNL A   1      39.340  33.101  37.537  1.00  0.00     0.135 A 
ATOM     92  F   UNL A   1      41.846  34.917  35.620  1.00  0.00    -0.206 F 
ATOM     93  C   UNL A   1      40.742  35.510  37.606  1.00  0.00     0.059 A 
ATOM     94  C   UNL A   1      39.102  34.000  38.572  1.00  0.00     0.059 A 
ATOM     95  F   UNL A   1      38.649  31.951  37.524  1.00  0.00    -0.206 F 
ATOM     96  C   UNL A   1      39.815  35.199  38.603  1.00  0.00     0.060 A 
BRANCH  96  97
ATOM     97  S   UNL A   1      39.513  36.399  39.917  1.00  0.00     0.124 S 
ATOM     98  O   UNL A   1      40.845  36.540  40.497  1.00  0.00    -0.237 OA
ATOM     99  O   UNL A   1      39.017  37.559  39.181  1.00  0.00    -0.237 OA
ATOM    100  O   UNL A   1      38.527  35.734  40.762  1.00  0.00    -0.744 OA
ENDBRANCH  96  97
ENDBRANCH  64  89
ENDBRANCH  38  39
ENDBRANCH  31  33
ENDBRANCH  30  31
ENDBRANCH  29  30
ENDBRANCH  28  29
ENDBRANCH  27  28
ENDBRANCH  26  27
ENDBRANCH   1  26
TORSDOF 24
ENDMDL
MODEL 3
REMARK VINA RESULT:      -9.9      3.312      9.485
REMARK SMILES CC(C)[C@H](NC(=O)OCc1ccccc1)C(=O)NCC(=O)OCCOCCOC(=O)c1ccc(-c2c3nc(c(-c4c(F)cc(S(=O)(=O)[O-])cc4F)c4ccc([nH]4)c(-c4c(F)cc(S(=O)(=O)[O-])cc4F)c4nc(c(-c5c(F)cc(S(=O)(=O)[O-])cc5F)c5ccc2[nH]5)C=C4)C=C3)cc1
REMARK SMILES IDX 23 1 22 2 20 3 21 4 19 5 18 6 16 7 17 8 4 10 2 11 1 12 3 13
REMARK SMILES IDX 5 14 6 15 7 17 8 18 9 19 10 20 11 21 15 22 12 23 14 24 13 25
REMARK SMILES IDX 24 26 25 27 26 28 27 29 28 30 29 31 30 32 31 33 32 34 96 35
REMARK SMILES IDX 33 36 95 37 34 38 35 39 36 40 89 41 37 42 94 43 88 44 90 45
REMARK SMILES IDX 38 46 93 47 87 48 86 49 39 51 73 52 52 53 72 54 53 55 56 56
REMARK SMILES IDX 71 57 91 58 54 59 55 60 70 62 92 63 57 64 40 65 41 66 50 67
REMARK SMILES IDX 42 68 43 69 49 70 51 71 44 72 45 73 46 74 47 75 48 76 74 77
REMARK SMILES IDX 75 78 84 79 76 80 77 81 83 82 85 83 78 84 79 85 80 86 81 87
REMARK SMILES IDX 82 88 58 89 59 90 68 91 60 92 61 93 67 94 69 95 62 96 63 97
REMARK SMILES IDX 64 98 65 99 66 100
REMARK H PARENT 18 9 5 16 90 50 56 61
REMARK Flexibility Score: inf
ROOT
ATOM      1  C   UNL A   1      31.815  27.728  23.191  1.00  0.00     0.261 C 
ENDROOT
BRANCH   1   2
ATOM      2  O   UNL A   1      30.418  27.919  23.464  1.00  0.00    -0.462 OA
BRANCH   2   3
ATOM      3  C   UNL A   1      29.823  26.964  24.223  1.00  0.00     0.325 C 
ATOM      4  O   UNL A   1      28.746  26.429  23.981  1.00  0.00    -0.250 OA
BRANCH   3   5
ATOM      5  C   UNL A   1      30.710  26.511  25.379  1.00  0.00     0.238 C 
BRANCH   5   6
ATOM      6  N   UNL A   1      30.276  25.360  26.154  1.00  0.00    -0.343 N 
ATOM      7  C   UNL A   1      30.865  24.159  26.382  1.00  0.00     0.243 C 
ATOM      8  O   UNL A   1      30.254  23.371  27.111  1.00  0.00    -0.273 OA
ATOM      9  H   UNL A   1      29.400  25.471  26.590  1.00  0.00     0.164 HD
BRANCH   7  10
ATOM     10  C   UNL A   1      32.201  23.738  25.728  1.00  0.00     0.177 C 
BRANCH  10  11
ATOM     11  C   UNL A   1      32.119  23.146  24.304  1.00  0.00     0.015 C 
ATOM     12  C   UNL A   1      30.752  23.404  23.654  1.00  0.00     0.010 C 
ATOM     13  C   UNL A   1      33.215  23.736  23.410  1.00  0.00     0.010 C 
ENDBRANCH  10  11
BRANCH  10  14
ATOM     14  N   UNL A   1      32.957  23.034  26.766  1.00  0.00    -0.309 N 
ATOM     15  C   UNL A   1      34.097  22.301  26.713  1.00  0.00     0.408 C 
ATOM     16  H   UNL A   1      32.566  23.107  27.667  1.00  0.00     0.167 HD
ATOM     17  O   UNL A   1      34.281  21.400  27.523  1.00  0.00    -0.225 OA
BRANCH  15  18
ATOM     18  O   UNL A   1      34.938  22.639  25.714  1.00  0.00    -0.445 OA
BRANCH  18  19
ATOM     19  C   UNL A   1      35.900  23.658  26.033  1.00  0.00     0.270 C 
BRANCH  19  20
ATOM     20  C   UNL A   1      37.310  23.122  26.102  1.00  0.00    -0.011 A 
ATOM     21  C   UNL A   1      38.360  23.900  26.607  1.00  0.00     0.007 A 
ATOM     22  C   UNL A   1      37.587  21.819  25.663  1.00  0.00     0.007 A 
ATOM     23  C   UNL A   1      39.659  23.388  26.655  1.00  0.00     0.000 A 
ATOM     24  C   UNL A   1      38.881  21.304  25.722  1.00  0.00     0.000 A 
ATOM     25  C   UNL A   1      39.918  22.090  26.214  1.00  0.00     0.000 A 
ENDBRANCH  19  20
ENDBRANCH  18  19
ENDBRANCH  15  18
ENDBRANCH  10  14
ENDBRANCH   7  10
ENDBRANCH   5   6
ENDBRANCH   3   5
ENDBRANCH   2   3
ENDBRANCH   1   2
BRANCH   1  26
ATOM     26  C   UNL A   1      32.590  29.002  23.535  1.00  0.00     0.202 C 
BRANCH  26  27
ATOM     27  O   UNL A   1      32.784  29.229  24.936  1.00  0.00    -0.374 OA
BRANCH  27  28
ATOM     28  C   UNL A   1      31.908  30.159  25.572  1.00  0.00     0.202 C 
BRANCH  28  29
ATOM     29  C   UNL A   1      32.213  30.482  27.039  1.00  0.00     0.261 C 
BRANCH  29  30
ATOM     30  O   UNL A   1      33.488  29.957  27.450  1.00  0.00    -0.460 OA
BRANCH  30  31
ATOM     31  C   UNL A   1      34.429  30.900  27.702  1.00  0.00     0.338 C 
ATOM     32  O   UNL A   1      34.257  32.108  27.755  1.00  0.00    -0.246 OA
BRANCH  31  33
ATOM     33  C   UNL A   1      35.709  30.272  28.081  1.00  0.00     0.060 A 
ATOM     34  C   UNL A   1      35.757  29.620  29.320  1.00  0.00     0.016 A 
ATOM     35  C   UNL A   1      36.862  30.392  27.300  1.00  0.00     0.016 A 
ATOM     36  C   UNL A   1      36.969  29.136  29.810  1.00  0.00     0.010 A 
ATOM     37  C   UNL A   1      38.081  29.917  27.801  1.00  0.00     0.010 A 
ATOM     38  C   UNL A   1      38.145  29.322  29.073  1.00  0.00    -0.014 A 
BRANCH  38  39
ATOM     39  C   UNL A   1      39.451  29.028  29.711  1.00  0.00     0.031 A 
ATOM     40  C   UNL A   1      39.881  29.845  30.901  1.00  0.00     0.074 A 
ATOM     41  C   UNL A   1      40.226  28.023  29.265  1.00  0.00     0.049 A 
ATOM     42  N   UNL A   1      40.976  29.759  31.612  1.00  0.00    -0.248 NA
ATOM     43  C   UNL A   1      38.951  30.894  31.349  1.00  0.00     0.031 C 
ATOM     44  C   UNL A   1      39.903  27.141  28.146  1.00  0.00     0.029 A 
ATOM     45  N   UNL A   1      41.448  27.580  29.705  1.00  0.00    -0.354 N 
ATOM     46  C   UNL A   1      40.869  30.739  32.590  1.00  0.00     0.074 A 
ATOM     47  C   UNL A   1      39.612  31.423  32.370  1.00  0.00     0.031 C 
ATOM     48  C   UNL A   1      40.913  26.268  27.975  1.00  0.00     0.029 A 
ATOM     49  C   UNL A   1      41.958  26.544  28.961  1.00  0.00     0.049 A 
ATOM     50  H   UNL A   1      41.915  27.968  30.479  1.00  0.00     0.167 HD
ATOM     51  C   UNL A   1      41.735  31.041  33.587  1.00  0.00     0.037 A 
ATOM     52  C   UNL A   1      43.139  25.903  29.053  1.00  0.00     0.037 A 
ATOM     53  C   UNL A   1      42.985  30.365  33.806  1.00  0.00     0.049 A 
ATOM     54  C   UNL A   1      44.112  26.290  30.136  1.00  0.00     0.074 A 
ATOM     55  C   UNL A   1      43.923  30.588  34.799  1.00  0.00     0.029 A 
ATOM     56  N   UNL A   1      43.477  29.338  33.015  1.00  0.00    -0.354 N 
ATOM     57  N   UNL A   1      43.986  27.203  31.068  1.00  0.00    -0.248 NA
ATOM     58  C   UNL A   1      45.388  25.560  30.178  1.00  0.00     0.031 C 
ATOM     59  C   UNL A   1      44.998  29.717  34.588  1.00  0.00     0.029 A 
ATOM     60  C   UNL A   1      44.714  28.930  33.484  1.00  0.00     0.049 A 
ATOM     61  H   UNL A   1      43.015  28.955  32.234  1.00  0.00     0.167 HD
ATOM     62  C   UNL A   1      45.155  27.145  31.819  1.00  0.00     0.074 A 
ATOM     63  C   UNL A   1      45.976  26.104  31.236  1.00  0.00     0.031 C 
ATOM     64  C   UNL A   1      45.516  27.888  32.894  1.00  0.00     0.037 A 
BRANCH  51  65
ATOM     65  C   UNL A   1      41.364  32.170  34.504  1.00  0.00     0.058 A 
ATOM     66  C   UNL A   1      41.747  33.492  34.230  1.00  0.00     0.135 A 
ATOM     67  C   UNL A   1      40.599  31.929  35.655  1.00  0.00     0.135 A 
ATOM     68  F   UNL A   1      42.494  33.771  33.151  1.00  0.00    -0.206 F 
ATOM     69  C   UNL A   1      41.401  34.536  35.082  1.00  0.00     0.059 A 
ATOM     70  C   UNL A   1      40.227  32.961  36.511  1.00  0.00     0.059 A 
ATOM     71  F   UNL A   1      40.212  30.681  35.962  1.00  0.00    -0.206 F 
ATOM     72  C   UNL A   1      40.645  34.260  36.223  1.00  0.00     0.060 A 
BRANCH  72  73
ATOM     73  S   UNL A   1      40.205  35.623  37.323  1.00  0.00     0.124 S 
ATOM     74  O   UNL A   1      39.119  35.031  38.098  1.00  0.00    -0.237 OA
ATOM     75  O   UNL A   1      41.448  35.857  38.051  1.00  0.00    -0.237 OA
ATOM     76  O   UNL A   1      39.812  36.687  36.403  1.00  0.00    -0.744 OA
ENDBRANCH  72  73
ENDBRANCH  51  65
BRANCH  52  77
ATOM     77  C   UNL A   1      43.476  24.833  28.078  1.00  0.00     0.058 A 
ATOM     78  C   UNL A   1      44.236  25.108  26.933  1.00  0.00     0.135 A 
ATOM     79  C   UNL A   1      43.051  23.512  28.283  1.00  0.00     0.135 A 
ATOM     80  F   UNL A   1      44.653  26.360  26.691  1.00  0.00    -0.206 F 
ATOM     81  C   UNL A   1      44.559  24.111  26.019  1.00  0.00     0.059 A 
ATOM     82  C   UNL A   1      43.376  22.494  27.393  1.00  0.00     0.059 A 
ATOM     83  F   UNL A   1      42.327  23.200  29.369  1.00  0.00    -0.206 F 
ATOM     84  C   UNL A   1      44.125  22.805  26.258  1.00  0.00     0.060 A 
BRANCH  84  85
ATOM     85  S   UNL A   1      44.596  21.503  25.098  1.00  0.00     0.124 S 
ATOM     86  O   UNL A   1      45.950  21.192  25.542  1.00  0.00    -0.237 OA
ATOM     87  O   UNL A   1      43.589  20.478  25.355  1.00  0.00    -0.237 OA
ATOM     88  O   UNL A   1      44.491  22.161  23.799  1.00  0.00    -0.744 OA
ENDBRANCH  84  85
ENDBRANCH  52  77
BRANCH  64  89
ATOM     89  C   UNL A   1      46.845  27.592  33.527  1.00  0.00     0.058 A 
ATOM     90  C   UNL A   1      48.018  28.234  33.102  1.00  0.00     0.135 A 
ATOM     91  C   UNL A   1      46.935  26.708  34.614  1.00  0.00     0.135 A 
ATOM     92  F   UNL A   1      47.984  29.083  32.064  1.00  0.00    -0.206 F 
ATOM     93  C   UNL A   1      49.239  28.001  33.727  1.00  0.00     0.059 A 
ATOM     94  C   UNL A   1      48.142  26.475  35.266  1.00  0.00     0.059 A 
ATOM     95  F   UNL A   1      45.839  26.076  35.064  1.00  0.00    -0.206 F 
ATOM     96  C   UNL A   1      49.291  27.121  34.809  1.00  0.00     0.060 A 
BRANCH  96  97
ATOM     97  S   UNL A   1      50.870  26.861  35.646  1.00  0.00     0.124 S 
ATOM     98  O   UNL A   1      50.443  26.219  36.885  1.00  0.00    -0.237 OA
ATOM     99  O   UNL A   1      51.591  26.006  34.707  1.00  0.00    -0.237 OA
ATOM    100  O   UNL A   1      51.403  28.212  35.789  1.00  0.00    -0.744 OA
ENDBRANCH  96  97
ENDBRANCH  64  89
ENDBRANCH  38  39
ENDBRANCH  31  33
ENDBRANCH  30  31
ENDBRANCH  29  30
ENDBRANCH  28  29
ENDBRANCH  27  28
ENDBRANCH  26  27
ENDBRANCH   1  26
TORSDOF 24
ENDMDL
