MODEL 1
REMARK VINA RESULT:     -11.8      0.000      0.000
REMARK SMILES Cc1ccn2c([C@@H]3CCCC[C@@H]3C(=O)OCCOCCOC(=O)c3ccc(-c4c5nc(c(-c6c(F)cc(S(=O)(=O)[O-])cc6F)c6ccc([nH]6)c(-c6c(F)cc(S(=O)(=O)[O-])cc6F)c6nc(c(-c7c(F)cc(S(=O)(=O)[O-])cc7F)c7ccc4[nH]7)C=C6)C=C5)cc3)nnc2c1
REMARK SMILES IDX 19 1 18 2 17 3 16 4 15 5 13 6 14 7 12 8 7 9 8 10 9 11 11 12
REMARK SMILES IDX 10 13 6 14 1 15 2 16 3 17 93 18 4 19 92 20 5 21 91 22 90 23
REMARK SMILES IDX 20 24 21 25 22 26 23 27 24 28 25 29 89 30 26 31 88 32 27 33
REMARK SMILES IDX 28 34 29 35 82 36 30 37 87 38 81 39 83 40 31 41 86 42 80 43
REMARK SMILES IDX 79 44 32 46 66 47 45 48 65 49 46 50 49 51 64 52 84 53 47 54
REMARK SMILES IDX 48 55 63 57 85 58 50 59 33 60 34 61 43 62 35 63 36 64 42 65
REMARK SMILES IDX 44 66 37 67 38 68 39 69 40 70 41 71 67 72 68 73 77 74 69 75
REMARK SMILES IDX 70 76 76 77 78 78 71 79 72 80 73 81 74 82 75 83 51 84 52 85
REMARK SMILES IDX 61 86 53 87 54 88 60 89 62 90 55 91 56 92 57 93 58 94 59 95
REMARK H PARENT 83 45 49 56
REMARK Flexibility Score: inf
ROOT
ATOM      1  C   UNL A   1      32.042  29.814  25.523  1.00  0.00     0.202 C 
ENDROOT
BRANCH   1   2
ATOM      2  O   UNL A   1      33.202  29.624  24.717  1.00  0.00    -0.374 OA
BRANCH   2   3
ATOM      3  C   UNL A   1      33.683  28.297  24.557  1.00  0.00     0.202 C 
BRANCH   3   4
ATOM      4  C   UNL A   1      33.342  27.226  25.605  1.00  0.00     0.261 C 
BRANCH   4   5
ATOM      5  O   UNL A   1      34.225  26.086  25.689  1.00  0.00    -0.463 OA
BRANCH   5   6
ATOM      6  C   UNL A   1      33.595  24.912  25.979  1.00  0.00     0.309 C 
ATOM      7  O   UNL A   1      32.493  24.838  26.511  1.00  0.00    -0.252 OA
BRANCH   6   8
ATOM      8  C   UNL A   1      34.357  23.664  25.534  1.00  0.00     0.110 C 
ATOM      9  C   UNL A   1      33.739  22.845  24.378  1.00  0.00     0.072 C 
ATOM     10  C   UNL A   1      32.722  21.797  24.825  1.00  0.00     0.012 C 
ATOM     11  C   UNL A   1      33.319  20.896  25.905  1.00  0.00     0.001 C 
ATOM     12  C   UNL A   1      34.796  22.777  26.706  1.00  0.00     0.016 C 
ATOM     13  C   UNL A   1      33.768  21.723  27.103  1.00  0.00     0.001 C 
BRANCH   9  14
ATOM     14  C   UNL A   1      33.355  23.720  23.222  1.00  0.00     0.141 A 
ATOM     15  C   UNL A   1      29.663  27.749  23.383  1.00  0.00     0.044 C 
ATOM     16  C   UNL A   1      30.495  26.556  23.036  1.00  0.00    -0.046 A 
ATOM     17  C   UNL A   1      30.042  25.277  23.571  1.00  0.00     0.022 A 
ATOM     18  C   UNL A   1      31.640  26.637  22.322  1.00  0.00     0.053 A 
ATOM     19  C   UNL A   1      30.901  24.249  23.603  1.00  0.00     0.095 A 
ATOM     20  C   UNL A   1      32.530  25.526  22.306  1.00  0.00     0.161 A 
ATOM     21  N   UNL A   1      32.172  24.418  23.062  1.00  0.00    -0.286 N 
ATOM     22  N   UNL A   1      33.741  25.349  21.824  1.00  0.00    -0.130 NA
ATOM     23  N   UNL A   1      34.247  24.195  22.371  1.00  0.00    -0.134 NA
ENDBRANCH   9  14
ENDBRANCH   6   8
ENDBRANCH   5   6
ENDBRANCH   4   5
ENDBRANCH   3   4
ENDBRANCH   2   3
ENDBRANCH   1   2
BRANCH   1  24
ATOM     24  C   UNL A   1      32.201  30.548  26.865  1.00  0.00     0.261 C 
BRANCH  24  25
ATOM     25  O   UNL A   1      33.476  30.278  27.465  1.00  0.00    -0.460 OA
BRANCH  25  26
ATOM     26  C   UNL A   1      34.119  31.359  27.979  1.00  0.00     0.338 C 
ATOM     27  O   UNL A   1      33.642  32.252  28.658  1.00  0.00    -0.246 OA
BRANCH  26  28
ATOM     28  C   UNL A   1      35.557  31.049  27.872  1.00  0.00     0.060 A 
ATOM     29  C   UNL A   1      35.989  29.746  27.610  1.00  0.00     0.016 A 
ATOM     30  C   UNL A   1      36.445  32.029  28.337  1.00  0.00     0.016 A 
ATOM     31  C   UNL A   1      37.304  29.407  27.900  1.00  0.00     0.010 A 
ATOM     32  C   UNL A   1      37.749  31.675  28.662  1.00  0.00     0.010 A 
ATOM     33  C   UNL A   1      38.165  30.355  28.482  1.00  0.00    -0.014 A 
BRANCH  33  34
ATOM     34  C   UNL A   1      39.535  29.933  28.782  1.00  0.00     0.031 A 
ATOM     35  C   UNL A   1      39.832  29.796  30.237  1.00  0.00     0.074 A 
ATOM     36  C   UNL A   1      40.443  29.539  27.865  1.00  0.00     0.049 A 
ATOM     37  N   UNL A   1      40.742  30.389  30.937  1.00  0.00    -0.248 NA
ATOM     38  C   UNL A   1      38.931  28.939  31.023  1.00  0.00     0.031 C 
ATOM     39  C   UNL A   1      40.212  29.239  26.451  1.00  0.00     0.029 A 
ATOM     40  N   UNL A   1      41.755  29.194  28.043  1.00  0.00    -0.354 N 
ATOM     41  C   UNL A   1      40.646  29.852  32.220  1.00  0.00     0.074 A 
ATOM     42  C   UNL A   1      39.438  29.068  32.248  1.00  0.00     0.031 C 
ATOM     43  C   UNL A   1      41.265  28.536  25.973  1.00  0.00     0.029 A 
ATOM     44  C   UNL A   1      42.280  28.423  27.012  1.00  0.00     0.049 A 
ATOM     45  H   UNL A   1      42.281  29.467  28.830  1.00  0.00     0.167 HD
ATOM     46  C   UNL A   1      41.650  29.936  33.136  1.00  0.00     0.037 A 
ATOM     47  C   UNL A   1      43.392  27.639  27.055  1.00  0.00     0.037 A 
ATOM     48  C   UNL A   1      42.607  30.951  32.800  1.00  0.00     0.049 A 
ATOM     49  C   UNL A   1      44.216  28.036  28.232  1.00  0.00     0.074 A 
ATOM     50  C   UNL A   1      42.510  32.309  32.570  1.00  0.00     0.029 A 
ATOM     51  N   UNL A   1      43.836  30.582  32.305  1.00  0.00    -0.354 N 
ATOM     52  N   UNL A   1      44.904  29.139  28.334  1.00  0.00    -0.248 NA
ATOM     53  C   UNL A   1      43.906  27.388  29.498  1.00  0.00     0.031 C 
ATOM     54  C   UNL A   1      43.392  32.550  31.481  1.00  0.00     0.029 A 
ATOM     55  C   UNL A   1      44.048  31.352  31.185  1.00  0.00     0.049 A 
ATOM     56  H   UNL A   1      44.442  29.901  32.677  1.00  0.00     0.167 HD
ATOM     57  C   UNL A   1      44.718  29.567  29.638  1.00  0.00     0.074 A 
ATOM     58  C   UNL A   1      44.164  28.400  30.329  1.00  0.00     0.031 C 
ATOM     59  C   UNL A   1      44.761  30.889  30.002  1.00  0.00     0.037 A 
BRANCH  46  60
ATOM     60  C   UNL A   1      41.897  28.900  34.198  1.00  0.00     0.058 A 
ATOM     61  C   UNL A   1      42.256  27.588  33.838  1.00  0.00     0.135 A 
ATOM     62  C   UNL A   1      41.537  29.095  35.550  1.00  0.00     0.135 A 
ATOM     63  F   UNL A   1      42.597  27.296  32.573  1.00  0.00    -0.206 F 
ATOM     64  C   UNL A   1      42.206  26.531  34.748  1.00  0.00     0.059 A 
ATOM     65  C   UNL A   1      41.533  28.069  36.484  1.00  0.00     0.059 A 
ATOM     66  F   UNL A   1      41.077  30.273  35.995  1.00  0.00    -0.206 F 
ATOM     67  C   UNL A   1      41.828  26.781  36.065  1.00  0.00     0.060 A 
BRANCH  67  68
ATOM     68  S   UNL A   1      41.633  25.399  37.205  1.00  0.00     0.124 S 
ATOM     69  O   UNL A   1      41.699  24.263  36.294  1.00  0.00    -0.237 OA
ATOM     70  O   UNL A   1      42.777  25.577  38.093  1.00  0.00    -0.237 OA
ATOM     71  O   UNL A   1      40.329  25.647  37.813  1.00  0.00    -0.744 OA
ENDBRANCH  67  68
ENDBRANCH  46  60
BRANCH  47  72
ATOM     72  C   UNL A   1      43.568  26.319  26.385  1.00  0.00     0.058 A 
ATOM     73  C   UNL A   1      44.594  26.084  25.454  1.00  0.00     0.135 A 
ATOM     74  C   UNL A   1      42.881  25.177  26.849  1.00  0.00     0.135 A 
ATOM     75  F   UNL A   1      45.326  27.107  24.984  1.00  0.00    -0.206 F 
ATOM     76  C   UNL A   1      44.935  24.792  25.029  1.00  0.00     0.059 A 
ATOM     77  C   UNL A   1      43.188  23.887  26.428  1.00  0.00     0.059 A 
ATOM     78  F   UNL A   1      41.944  25.272  27.804  1.00  0.00    -0.206 F 
ATOM     79  C   UNL A   1      44.235  23.697  25.537  1.00  0.00     0.060 A 
BRANCH  79  80
ATOM     80  S   UNL A   1      44.765  22.017  25.122  1.00  0.00     0.124 S 
ATOM     81  O   UNL A   1      44.609  21.999  23.672  1.00  0.00    -0.237 OA
ATOM     82  O   UNL A   1      46.135  22.000  25.620  1.00  0.00    -0.237 OA
ATOM     83  O   UNL A   1      43.826  21.175  25.860  1.00  0.00    -0.744 OA
ENDBRANCH  79  80
ENDBRANCH  47  72
BRANCH  59  84
ATOM     84  C   UNL A   1      45.288  31.975  29.062  1.00  0.00     0.058 A 
ATOM     85  C   UNL A   1      46.601  32.478  29.037  1.00  0.00     0.135 A 
ATOM     86  C   UNL A   1      44.460  32.406  28.001  1.00  0.00     0.135 A 
ATOM     87  F   UNL A   1      47.509  32.134  29.956  1.00  0.00    -0.206 F 
ATOM     88  C   UNL A   1      47.069  33.316  28.020  1.00  0.00     0.059 A 
ATOM     89  C   UNL A   1      44.922  33.191  26.943  1.00  0.00     0.059 A 
ATOM     90  F   UNL A   1      43.174  32.017  27.940  1.00  0.00    -0.206 F 
ATOM     91  C   UNL A   1      46.238  33.629  26.953  1.00  0.00     0.060 A 
BRANCH  91  92
ATOM     92  S   UNL A   1      46.882  34.607  25.584  1.00  0.00     0.124 S 
ATOM     93  O   UNL A   1      46.958  35.950  26.150  1.00  0.00    -0.237 OA
ATOM     94  O   UNL A   1      48.159  33.950  25.332  1.00  0.00    -0.237 OA
ATOM     95  O   UNL A   1      45.869  34.431  24.546  1.00  0.00    -0.744 OA
ENDBRANCH  91  92
ENDBRANCH  59  84
ENDBRANCH  33  34
ENDBRANCH  26  28
ENDBRANCH  25  26
ENDBRANCH  24  25
ENDBRANCH   1  24
TORSDOF 18
ENDMDL
MODEL 2
REMARK VINA RESULT:     -11.6      1.322      2.867
REMARK SMILES Cc1ccn2c([C@@H]3CCCC[C@@H]3C(=O)OCCOCCOC(=O)c3ccc(-c4c5nc(c(-c6c(F)cc(S(=O)(=O)[O-])cc6F)c6ccc([nH]6)c(-c6c(F)cc(S(=O)(=O)[O-])cc6F)c6nc(c(-c7c(F)cc(S(=O)(=O)[O-])cc7F)c7ccc4[nH]7)C=C6)C=C5)cc3)nnc2c1
REMARK SMILES IDX 19 1 18 2 17 3 16 4 15 5 13 6 14 7 12 8 7 9 8 10 9 11 11 12
REMARK SMILES IDX 10 13 6 14 1 15 2 16 3 17 93 18 4 19 92 20 5 21 91 22 90 23
REMARK SMILES IDX 20 24 21 25 22 26 23 27 24 28 25 29 89 30 26 31 88 32 27 33
REMARK SMILES IDX 28 34 29 35 82 36 30 37 87 38 81 39 83 40 31 41 86 42 80 43
REMARK SMILES IDX 79 44 32 46 66 47 45 48 65 49 46 50 49 51 64 52 84 53 47 54
REMARK SMILES IDX 48 55 63 57 85 58 50 59 33 60 34 61 43 62 35 63 36 64 42 65
REMARK SMILES IDX 44 66 37 67 38 68 39 69 40 70 41 71 67 72 68 73 77 74 69 75
REMARK SMILES IDX 70 76 76 77 78 78 71 79 72 80 73 81 74 82 75 83 51 84 52 85
REMARK SMILES IDX 61 86 53 87 54 88 60 89 62 90 55 91 56 92 57 93 58 94 59 95
REMARK H PARENT 83 45 49 56
REMARK Flexibility Score: inf
ROOT
ATOM      1  C   UNL A   1      31.853  29.529  25.768  1.00  0.00     0.202 C 
ENDROOT
BRANCH   1   2
ATOM      2  O   UNL A   1      32.358  28.213  25.981  1.00  0.00    -0.374 OA
BRANCH   2   3
ATOM      3  C   UNL A   1      31.446  27.131  25.859  1.00  0.00     0.202 C 
BRANCH   3   4
ATOM      4  C   UNL A   1      31.729  25.805  26.582  1.00  0.00     0.261 C 
BRANCH   4   5
ATOM      5  O   UNL A   1      32.393  24.772  25.822  1.00  0.00    -0.463 OA
BRANCH   5   6
ATOM      6  C   UNL A   1      31.630  23.665  25.598  1.00  0.00     0.309 C 
ATOM      7  O   UNL A   1      30.991  23.084  26.470  1.00  0.00    -0.252 OA
BRANCH   6   8
ATOM      8  C   UNL A   1      31.583  23.218  24.137  1.00  0.00     0.110 C 
ATOM      9  C   UNL A   1      32.923  22.797  23.493  1.00  0.00     0.072 C 
ATOM     10  C   UNL A   1      33.718  23.951  22.886  1.00  0.00     0.012 C 
ATOM     11  C   UNL A   1      32.847  24.751  21.917  1.00  0.00     0.001 C 
ATOM     12  C   UNL A   1      30.781  24.171  23.242  1.00  0.00     0.016 C 
ATOM     13  C   UNL A   1      31.614  25.292  22.629  1.00  0.00     0.001 C 
BRANCH   9  14
ATOM     14  C   UNL A   1      33.676  21.832  24.359  1.00  0.00     0.141 A 
ATOM     15  C   UNL A   1      34.005  16.435  23.552  1.00  0.00     0.044 C 
ATOM     16  C   UNL A   1      33.844  17.811  24.114  1.00  0.00    -0.046 A 
ATOM     17  C   UNL A   1      32.493  18.360  24.096  1.00  0.00     0.022 A 
ATOM     18  C   UNL A   1      34.883  18.551  24.563  1.00  0.00     0.053 A 
ATOM     19  C   UNL A   1      32.330  19.681  24.248  1.00  0.00     0.095 A 
ATOM     20  C   UNL A   1      34.699  19.946  24.781  1.00  0.00     0.161 A 
ATOM     21  N   UNL A   1      33.450  20.474  24.486  1.00  0.00    -0.286 N 
ATOM     22  N   UNL A   1      35.523  20.926  25.083  1.00  0.00    -0.130 NA
ATOM     23  N   UNL A   1      34.869  22.112  24.853  1.00  0.00    -0.134 NA
ENDBRANCH   9  14
ENDBRANCH   6   8
ENDBRANCH   5   6
ENDBRANCH   4   5
ENDBRANCH   3   4
ENDBRANCH   2   3
ENDBRANCH   1   2
BRANCH   1  24
ATOM     24  C   UNL A   1      32.672  30.716  26.304  1.00  0.00     0.261 C 
BRANCH  24  25
ATOM     25  O   UNL A   1      33.533  30.320  27.380  1.00  0.00    -0.460 OA
BRANCH  25  26
ATOM     26  C   UNL A   1      34.199  31.331  27.996  1.00  0.00     0.338 C 
ATOM     27  O   UNL A   1      33.741  32.165  28.756  1.00  0.00    -0.246 OA
BRANCH  26  28
ATOM     28  C   UNL A   1      35.630  30.997  27.865  1.00  0.00     0.060 A 
ATOM     29  C   UNL A   1      36.036  29.688  27.593  1.00  0.00     0.016 A 
ATOM     30  C   UNL A   1      36.543  31.962  28.315  1.00  0.00     0.016 A 
ATOM     31  C   UNL A   1      37.351  29.327  27.860  1.00  0.00     0.010 A 
ATOM     32  C   UNL A   1      37.845  31.586  28.617  1.00  0.00     0.010 A 
ATOM     33  C   UNL A   1      38.236  30.259  28.429  1.00  0.00    -0.014 A 
BRANCH  33  34
ATOM     34  C   UNL A   1      39.604  29.814  28.705  1.00  0.00     0.031 A 
ATOM     35  C   UNL A   1      39.950  29.747  30.154  1.00  0.00     0.074 A 
ATOM     36  C   UNL A   1      40.468  29.345  27.780  1.00  0.00     0.049 A 
ATOM     37  N   UNL A   1      40.900  30.351  30.788  1.00  0.00    -0.248 NA
ATOM     38  C   UNL A   1      39.054  28.960  31.016  1.00  0.00     0.031 C 
ATOM     39  C   UNL A   1      40.179  28.976  26.393  1.00  0.00     0.029 A 
ATOM     40  N   UNL A   1      41.776  28.972  27.931  1.00  0.00    -0.354 N 
ATOM     41  C   UNL A   1      40.834  29.887  32.102  1.00  0.00     0.074 A 
ATOM     42  C   UNL A   1      39.607  29.141  32.214  1.00  0.00     0.031 C 
ATOM     43  C   UNL A   1      41.195  28.218  25.919  1.00  0.00     0.029 A 
ATOM     44  C   UNL A   1      42.242  28.131  26.927  1.00  0.00     0.049 A 
ATOM     45  H   UNL A   1      42.336  29.271  28.684  1.00  0.00     0.167 HD
ATOM     46  C   UNL A   1      41.872  29.991  32.977  1.00  0.00     0.037 A 
ATOM     47  C   UNL A   1      43.334  27.319  26.975  1.00  0.00     0.037 A 
ATOM     48  C   UNL A   1      42.844  30.957  32.553  1.00  0.00     0.049 A 
ATOM     49  C   UNL A   1      44.209  27.754  28.100  1.00  0.00     0.074 A 
ATOM     50  C   UNL A   1      42.777  32.303  32.252  1.00  0.00     0.029 A 
ATOM     51  N   UNL A   1      44.044  30.526  32.038  1.00  0.00    -0.354 N 
ATOM     52  N   UNL A   1      44.930  28.841  28.118  1.00  0.00    -0.248 NA
ATOM     53  C   UNL A   1      43.927  27.185  29.409  1.00  0.00     0.031 C 
ATOM     54  C   UNL A   1      43.625  32.459  31.122  1.00  0.00     0.029 A 
ATOM     55  C   UNL A   1      44.238  31.229  30.871  1.00  0.00     0.049 A 
ATOM     56  H   UNL A   1      44.645  29.849  32.426  1.00  0.00     0.167 HD
ATOM     57  C   UNL A   1      44.803  29.344  29.402  1.00  0.00     0.074 A 
ATOM     58  C   UNL A   1      44.243  28.233  30.175  1.00  0.00     0.031 C 
ATOM     59  C   UNL A   1      44.894  30.682  29.691  1.00  0.00     0.037 A 
BRANCH  46  60
ATOM     60  C   UNL A   1      42.129  29.007  34.085  1.00  0.00     0.058 A 
ATOM     61  C   UNL A   1      42.434  27.666  33.785  1.00  0.00     0.135 A 
ATOM     62  C   UNL A   1      41.827  29.287  35.436  1.00  0.00     0.135 A 
ATOM     63  F   UNL A   1      42.717  27.294  32.527  1.00  0.00    -0.206 F 
ATOM     64  C   UNL A   1      42.387  26.662  34.754  1.00  0.00     0.059 A 
ATOM     65  C   UNL A   1      41.829  28.313  36.426  1.00  0.00     0.059 A 
ATOM     66  F   UNL A   1      41.421  30.501  35.831  1.00  0.00    -0.206 F 
ATOM     67  C   UNL A   1      42.068  26.996  36.068  1.00  0.00     0.060 A 
BRANCH  67  68
ATOM     68  S   UNL A   1      41.875  25.685  37.290  1.00  0.00     0.124 S 
ATOM     69  O   UNL A   1      42.151  24.500  36.487  1.00  0.00    -0.237 OA
ATOM     70  O   UNL A   1      42.890  26.041  38.277  1.00  0.00    -0.237 OA
ATOM     71  O   UNL A   1      40.494  25.841  37.735  1.00  0.00    -0.744 OA
ENDBRANCH  67  68
ENDBRANCH  46  60
BRANCH  47  72
ATOM     72  C   UNL A   1      43.449  25.960  26.373  1.00  0.00     0.058 A 
ATOM     73  C   UNL A   1      44.379  25.668  25.361  1.00  0.00     0.135 A 
ATOM     74  C   UNL A   1      42.818  24.849  26.972  1.00  0.00     0.135 A 
ATOM     75  F   UNL A   1      45.056  26.659  24.760  1.00  0.00    -0.206 F 
ATOM     76  C   UNL A   1      44.684  24.352  24.984  1.00  0.00     0.059 A 
ATOM     77  C   UNL A   1      43.089  23.535  26.602  1.00  0.00     0.059 A 
ATOM     78  F   UNL A   1      41.979  25.004  28.007  1.00  0.00    -0.206 F 
ATOM     79  C   UNL A   1      44.043  23.290  25.625  1.00  0.00     0.060 A 
BRANCH  79  80
ATOM     80  S   UNL A   1      44.538  21.588  25.263  1.00  0.00     0.124 S 
ATOM     81  O   UNL A   1      43.496  20.819  25.934  1.00  0.00    -0.237 OA
ATOM     82  O   UNL A   1      44.513  21.568  23.806  1.00  0.00    -0.237 OA
ATOM     83  O   UNL A   1      45.867  21.489  25.863  1.00  0.00    -0.744 OA
ENDBRANCH  79  80
ENDBRANCH  47  72
BRANCH  59  84
ATOM     84  C   UNL A   1      45.417  31.700  28.675  1.00  0.00     0.058 A 
ATOM     85  C   UNL A   1      44.627  32.531  27.860  1.00  0.00     0.135 A 
ATOM     86  C   UNL A   1      46.802  31.978  28.652  1.00  0.00     0.135 A 
ATOM     87  F   UNL A   1      43.297  32.410  27.802  1.00  0.00    -0.206 F 
ATOM     88  C   UNL A   1      45.165  33.579  27.107  1.00  0.00     0.059 A 
ATOM     89  C   UNL A   1      47.352  33.056  27.957  1.00  0.00     0.059 A 
ATOM     90  F   UNL A   1      47.658  31.225  29.365  1.00  0.00    -0.206 F 
ATOM     91  C   UNL A   1      46.520  33.865  27.198  1.00  0.00     0.060 A 
BRANCH  91  92
ATOM     92  S   UNL A   1      47.188  35.292  26.324  1.00  0.00     0.124 S 
ATOM     93  O   UNL A   1      45.996  36.083  26.033  1.00  0.00    -0.237 OA
ATOM     94  O   UNL A   1      48.091  35.848  27.323  1.00  0.00    -0.237 OA
ATOM     95  O   UNL A   1      47.832  34.693  25.157  1.00  0.00    -0.744 OA
ENDBRANCH  91  92
ENDBRANCH  59  84
ENDBRANCH  33  34
ENDBRANCH  26  28
ENDBRANCH  25  26
ENDBRANCH  24  25
ENDBRANCH   1  24
TORSDOF 18
ENDMDL
MODEL 3
REMARK VINA RESULT:     -11.5      2.796      9.029
REMARK SMILES Cc1ccn2c([C@@H]3CCCC[C@@H]3C(=O)OCCOCCOC(=O)c3ccc(-c4c5nc(c(-c6c(F)cc(S(=O)(=O)[O-])cc6F)c6ccc([nH]6)c(-c6c(F)cc(S(=O)(=O)[O-])cc6F)c6nc(c(-c7c(F)cc(S(=O)(=O)[O-])cc7F)c7ccc4[nH]7)C=C6)C=C5)cc3)nnc2c1
REMARK SMILES IDX 19 1 18 2 17 3 16 4 15 5 13 6 14 7 12 8 7 9 8 10 9 11 11 12
REMARK SMILES IDX 10 13 6 14 1 15 2 16 3 17 93 18 4 19 92 20 5 21 91 22 90 23
REMARK SMILES IDX 20 24 21 25 22 26 23 27 24 28 25 29 89 30 26 31 88 32 27 33
REMARK SMILES IDX 28 34 29 35 82 36 30 37 87 38 81 39 83 40 31 41 86 42 80 43
REMARK SMILES IDX 79 44 32 46 66 47 45 48 65 49 46 50 49 51 64 52 84 53 47 54
REMARK SMILES IDX 48 55 63 57 85 58 50 59 33 60 34 61 43 62 35 63 36 64 42 65
REMARK SMILES IDX 44 66 37 67 38 68 39 69 40 70 41 71 67 72 68 73 77 74 69 75
REMARK SMILES IDX 70 76 76 77 78 78 71 79 72 80 73 81 74 82 75 83 51 84 52 85
REMARK SMILES IDX 61 86 53 87 54 88 60 89 62 90 55 91 56 92 57 93 58 94 59 95
REMARK H PARENT 83 45 49 56
REMARK Flexibility Score: inf
ROOT
ATOM      1  C   UNL A   1      35.935  21.649  25.168  1.00  0.00     0.202 C 
ENDROOT
BRANCH   1   2
ATOM      2  O   UNL A   1      35.362  21.891  26.451  1.00  0.00    -0.374 OA
BRANCH   2   3
ATOM      3  C   UNL A   1      34.689  23.126  26.649  1.00  0.00     0.202 C 
BRANCH   3   4
ATOM      4  C   UNL A   1      34.613  24.150  25.505  1.00  0.00     0.261 C 
BRANCH   4   5
ATOM      5  O   UNL A   1      34.042  25.440  25.816  1.00  0.00    -0.463 OA
BRANCH   5   6
ATOM      6  C   UNL A   1      33.620  26.141  24.726  1.00  0.00     0.309 C 
ATOM      7  O   UNL A   1      33.910  25.852  23.570  1.00  0.00    -0.252 OA
BRANCH   6   8
ATOM      8  C   UNL A   1      32.694  27.313  25.052  1.00  0.00     0.110 C 
ATOM      9  C   UNL A   1      31.185  27.102  24.789  1.00  0.00     0.072 C 
ATOM     10  C   UNL A   1      30.744  27.436  23.365  1.00  0.00     0.012 C 
ATOM     11  C   UNL A   1      31.200  28.842  22.977  1.00  0.00     0.001 C 
ATOM     12  C   UNL A   1      33.200  28.652  24.502  1.00  0.00     0.016 C 
ATOM     13  C   UNL A   1      32.714  28.964  23.090  1.00  0.00     0.001 C 
BRANCH   9  14
ATOM     14  C   UNL A   1      30.695  25.810  25.370  1.00  0.00     0.141 A 
ATOM     15  C   UNL A   1      32.520  20.834  24.027  1.00  0.00     0.044 C 
ATOM     16  C   UNL A   1      31.696  22.039  24.355  1.00  0.00    -0.046 A 
ATOM     17  C   UNL A   1      31.317  22.885  23.229  1.00  0.00     0.022 A 
ATOM     18  C   UNL A   1      31.360  22.381  25.619  1.00  0.00     0.053 A 
ATOM     19  C   UNL A   1      30.896  24.133  23.473  1.00  0.00     0.095 A 
ATOM     20  C   UNL A   1      30.858  23.689  25.875  1.00  0.00     0.161 A 
ATOM     21  N   UNL A   1      30.770  24.555  24.794  1.00  0.00    -0.286 N 
ATOM     22  N   UNL A   1      30.572  24.343  26.979  1.00  0.00    -0.130 NA
ATOM     23  N   UNL A   1      30.434  25.672  26.658  1.00  0.00    -0.134 NA
ENDBRANCH   9  14
ENDBRANCH   6   8
ENDBRANCH   5   6
ENDBRANCH   4   5
ENDBRANCH   3   4
ENDBRANCH   2   3
ENDBRANCH   1   2
BRANCH   1  24
ATOM     24  C   UNL A   1      37.467  21.699  25.035  1.00  0.00     0.261 C 
BRANCH  24  25
ATOM     25  O   UNL A   1      38.059  22.505  26.063  1.00  0.00    -0.460 OA
BRANCH  25  26
ATOM     26  C   UNL A   1      39.314  22.143  26.437  1.00  0.00     0.338 C 
ATOM     27  O   UNL A   1      39.878  21.086  26.215  1.00  0.00    -0.246 OA
BRANCH  26  28
ATOM     28  C   UNL A   1      39.985  23.397  26.827  1.00  0.00     0.060 A 
ATOM     29  C   UNL A   1      41.126  23.376  27.633  1.00  0.00     0.016 A 
ATOM     30  C   UNL A   1      39.269  24.584  26.613  1.00  0.00     0.016 A 
ATOM     31  C   UNL A   1      41.497  24.539  28.297  1.00  0.00     0.010 A 
ATOM     32  C   UNL A   1      39.621  25.733  27.309  1.00  0.00     0.010 A 
ATOM     33  C   UNL A   1      40.710  25.698  28.182  1.00  0.00    -0.014 A 
BRANCH  33  34
ATOM     34  C   UNL A   1      41.142  26.887  28.920  1.00  0.00     0.031 A 
ATOM     35  C   UNL A   1      42.360  27.546  28.368  1.00  0.00     0.074 A 
ATOM     36  C   UNL A   1      40.451  27.472  29.921  1.00  0.00     0.049 A 
ATOM     37  N   UNL A   1      43.486  27.788  28.956  1.00  0.00    -0.248 NA
ATOM     38  C   UNL A   1      42.336  27.904  26.941  1.00  0.00     0.031 C 
ATOM     39  C   UNL A   1      39.071  27.202  30.330  1.00  0.00     0.029 A 
ATOM     40  N   UNL A   1      40.802  28.536  30.706  1.00  0.00    -0.354 N 
ATOM     41  C   UNL A   1      44.256  28.487  28.027  1.00  0.00     0.074 A 
ATOM     42  C   UNL A   1      43.554  28.415  26.771  1.00  0.00     0.031 C 
ATOM     43  C   UNL A   1      38.633  28.225  31.101  1.00  0.00     0.029 A 
ATOM     44  C   UNL A   1      39.724  29.165  31.319  1.00  0.00     0.049 A 
ATOM     45  H   UNL A   1      41.733  28.831  30.826  1.00  0.00     0.167 HD
ATOM     46  C   UNL A   1      45.339  29.236  28.376  1.00  0.00     0.037 A 
ATOM     47  C   UNL A   1      39.693  30.421  31.843  1.00  0.00     0.037 A 
ATOM     48  C   UNL A   1      45.828  28.905  29.684  1.00  0.00     0.049 A 
ATOM     49  C   UNL A   1      41.093  30.892  32.047  1.00  0.00     0.074 A 
ATOM     50  C   UNL A   1      46.272  27.733  30.264  1.00  0.00     0.029 A 
ATOM     51  N   UNL A   1      45.588  29.764  30.731  1.00  0.00    -0.354 N 
ATOM     52  N   UNL A   1      41.910  30.454  32.963  1.00  0.00    -0.248 NA
ATOM     53  C   UNL A   1      41.734  31.551  30.919  1.00  0.00     0.031 C 
ATOM     54  C   UNL A   1      45.741  27.764  31.582  1.00  0.00     0.029 A 
ATOM     55  C   UNL A   1      45.100  28.992  31.760  1.00  0.00     0.049 A 
ATOM     56  H   UNL A   1      45.736  30.737  30.742  1.00  0.00     0.167 HD
ATOM     57  C   UNL A   1      43.142  30.357  32.339  1.00  0.00     0.074 A 
ATOM     58  C   UNL A   1      42.987  31.130  31.105  1.00  0.00     0.031 C 
ATOM     59  C   UNL A   1      44.100  29.449  32.715  1.00  0.00     0.037 A 
BRANCH  46  60
ATOM     60  C   UNL A   1      45.781  30.462  27.625  1.00  0.00     0.058 A 
ATOM     61  C   UNL A   1      47.124  30.606  27.232  1.00  0.00     0.135 A 
ATOM     62  C   UNL A   1      44.974  31.616  27.511  1.00  0.00     0.135 A 
ATOM     63  F   UNL A   1      47.977  29.572  27.319  1.00  0.00    -0.206 F 
ATOM     64  C   UNL A   1      47.644  31.829  26.806  1.00  0.00     0.059 A 
ATOM     65  C   UNL A   1      45.458  32.829  27.038  1.00  0.00     0.059 A 
ATOM     66  F   UNL A   1      43.708  31.638  27.948  1.00  0.00    -0.206 F 
ATOM     67  C   UNL A   1      46.804  32.938  26.729  1.00  0.00     0.060 A 
BRANCH  67  68
ATOM     68  S   UNL A   1      47.501  34.546  26.310  1.00  0.00     0.124 S 
ATOM     69  O   UNL A   1      47.062  34.699  24.928  1.00  0.00    -0.237 OA
ATOM     70  O   UNL A   1      46.857  35.418  27.287  1.00  0.00    -0.237 OA
ATOM     71  O   UNL A   1      48.935  34.350  26.501  1.00  0.00    -0.744 OA
ENDBRANCH  67  68
ENDBRANCH  46  60
BRANCH  47  72
ATOM     72  C   UNL A   1      38.547  31.372  31.788  1.00  0.00     0.058 A 
ATOM     73  C   UNL A   1      38.142  31.985  30.590  1.00  0.00     0.135 A 
ATOM     74  C   UNL A   1      37.657  31.496  32.876  1.00  0.00     0.135 A 
ATOM     75  F   UNL A   1      38.906  31.889  29.491  1.00  0.00    -0.206 F 
ATOM     76  C   UNL A   1      36.916  32.657  30.472  1.00  0.00     0.059 A 
ATOM     77  C   UNL A   1      36.445  32.174  32.789  1.00  0.00     0.059 A 
ATOM     78  F   UNL A   1      37.899  30.877  34.042  1.00  0.00    -0.206 F 
ATOM     79  C   UNL A   1      36.067  32.731  31.577  1.00  0.00     0.060 A 
BRANCH  79  80
ATOM     80  S   UNL A   1      34.418  33.454  31.398  1.00  0.00     0.124 S 
ATOM     81  O   UNL A   1      34.028  32.996  30.070  1.00  0.00    -0.237 OA
ATOM     82  O   UNL A   1      33.701  32.856  32.519  1.00  0.00    -0.237 OA
ATOM     83  O   UNL A   1      34.665  34.889  31.514  1.00  0.00    -0.744 OA
ENDBRANCH  79  80
ENDBRANCH  47  72
BRANCH  59  84
ATOM     84  C   UNL A   1      44.002  28.658  34.022  1.00  0.00     0.058 A 
ATOM     85  C   UNL A   1      43.159  27.556  34.258  1.00  0.00     0.135 A 
ATOM     86  C   UNL A   1      44.947  28.919  35.039  1.00  0.00     0.135 A 
ATOM     87  F   UNL A   1      42.237  27.167  33.372  1.00  0.00    -0.206 F 
ATOM     88  C   UNL A   1      43.269  26.755  35.397  1.00  0.00     0.059 A 
ATOM     89  C   UNL A   1      45.114  28.097  36.154  1.00  0.00     0.059 A 
ATOM     90  F   UNL A   1      45.782  29.969  34.938  1.00  0.00    -0.206 F 
ATOM     91  C   UNL A   1      44.279  27.002  36.317  1.00  0.00     0.060 A 
BRANCH  91  92
ATOM     92  S   UNL A   1      44.493  25.894  37.721  1.00  0.00     0.124 S 
ATOM     93  O   UNL A   1      45.883  26.120  38.104  1.00  0.00    -0.237 OA
ATOM     94  O   UNL A   1      43.488  26.400  38.647  1.00  0.00    -0.237 OA
ATOM     95  O   UNL A   1      44.216  24.578  37.149  1.00  0.00    -0.744 OA
ENDBRANCH  91  92
ENDBRANCH  59  84
ENDBRANCH  33  34
ENDBRANCH  26  28
ENDBRANCH  25  26
ENDBRANCH  24  25
ENDBRANCH   1  24
TORSDOF 18
ENDMDL
