MODEL 1
REMARK VINA RESULT:      -9.4      0.000      0.000
REMARK SMILES CC1(C)[C@H](C(=O)OCCOCCOC(=O)c2ccc(-c3c4nc(c(-c5c(F)cc(S(=O)(=O)[O-])cc5F)c5ccc([nH]5)c(-c5c(F)cc(S(=O)(=O)[O-])cc5F)c5nc(c(-c6c(F)cc(S(=O)(=O)[O-])cc6F)c6ccc3[nH]6)C=C5)C=C4)cc2)[C@@H]1C(=O)Nc1ccon1
REMARK SMILES IDX 11 1 10 2 9 3 8 4 7 5 5 6 6 7 4 8 1 9 2 10 3 11 82 12 83 13
REMARK SMILES IDX 84 14 85 15 86 17 87 18 90 19 88 20 89 21 12 22 13 23 14 24
REMARK SMILES IDX 15 25 16 26 17 27 81 28 18 29 80 30 19 31 20 32 21 33 74 34
REMARK SMILES IDX 22 35 79 36 73 37 75 38 23 39 78 40 72 41 71 42 24 44 58 45
REMARK SMILES IDX 37 46 57 47 38 48 41 49 56 50 76 51 39 52 40 53 55 55 77 56
REMARK SMILES IDX 42 57 25 58 26 59 35 60 27 61 28 62 34 63 36 64 29 65 30 66
REMARK SMILES IDX 31 67 32 68 33 69 59 70 60 71 69 72 61 73 62 74 68 75 70 76
REMARK SMILES IDX 63 77 64 78 65 79 66 80 67 81 43 82 44 83 53 84 45 85 46 86
REMARK SMILES IDX 52 87 54 88 47 89 48 90 49 91 50 92 51 93
REMARK H PARENT 85 16 75 43 41 54
REMARK Flexibility Score: inf
ROOT
ATOM      1  C   UNL A   1      39.954  21.893  26.357  1.00  0.00     0.202 C 
ENDROOT
BRANCH   1   2
ATOM      2  O   UNL A   1      38.885  22.799  26.609  1.00  0.00    -0.374 OA
BRANCH   2   3
ATOM      3  C   UNL A   1      37.782  22.869  25.717  1.00  0.00     0.202 C 
BRANCH   3   4
ATOM      4  C   UNL A   1      37.384  21.652  24.872  1.00  0.00     0.261 C 
BRANCH   4   5
ATOM      5  O   UNL A   1      36.548  20.693  25.523  1.00  0.00    -0.463 OA
BRANCH   5   6
ATOM      6  C   UNL A   1      35.398  20.447  24.850  1.00  0.00     0.310 C 
ATOM      7  O   UNL A   1      34.924  19.340  24.627  1.00  0.00    -0.252 OA
BRANCH   6   8
ATOM      8  C   UNL A   1      34.645  21.638  24.408  1.00  0.00     0.118 C 
ATOM      9  C   UNL A   1      32.749  22.570  22.984  1.00  0.00     0.013 C 
ATOM     10  C   UNL A   1      33.157  21.814  24.230  1.00  0.00    -0.009 C 
ATOM     11  C   UNL A   1      32.180  20.713  24.579  1.00  0.00     0.013 C 
ATOM     12  C   UNL A   1      33.919  22.569  25.348  1.00  0.00     0.100 C 
BRANCH  12  13
ATOM     13  C   UNL A   1      33.512  22.313  26.758  1.00  0.00     0.230 C 
ATOM     14  O   UNL A   1      34.128  21.453  27.384  1.00  0.00    -0.274 OA
ATOM     15  N   UNL A   1      32.507  23.001  27.372  1.00  0.00    -0.308 N 
ATOM     16  H   UNL A   1      32.480  22.887  28.350  1.00  0.00     0.171 HD
BRANCH  15  17
ATOM     17  C   UNL A   1      31.526  23.821  26.876  1.00  0.00     0.175 A 
ATOM     18  C   UNL A   1      31.611  24.916  25.990  1.00  0.00     0.092 A 
ATOM     19  N   UNL A   1      30.259  23.615  27.249  1.00  0.00    -0.062 NA
ATOM     20  C   UNL A   1      30.348  25.451  25.990  1.00  0.00     0.233 A 
ATOM     21  O   UNL A   1      29.530  24.670  26.733  1.00  0.00    -0.363 OA
ENDBRANCH  15  17
ENDBRANCH  12  13
ENDBRANCH   6   8
ENDBRANCH   5   6
ENDBRANCH   4   5
ENDBRANCH   3   4
ENDBRANCH   2   3
ENDBRANCH   1   2
BRANCH   1  22
ATOM     22  C   UNL A   1      41.397  22.397  26.244  1.00  0.00     0.261 C 
BRANCH  22  23
ATOM     23  O   UNL A   1      41.520  23.821  26.129  1.00  0.00    -0.460 OA
BRANCH  23  24
ATOM     24  C   UNL A   1      42.443  24.354  26.967  1.00  0.00     0.338 C 
ATOM     25  O   UNL A   1      43.626  24.067  27.037  1.00  0.00    -0.246 OA
BRANCH  24  26
ATOM     26  C   UNL A   1      41.874  25.495  27.702  1.00  0.00     0.060 A 
ATOM     27  C   UNL A   1      42.667  26.642  27.825  1.00  0.00     0.016 A 
ATOM     28  C   UNL A   1      40.657  25.388  28.377  1.00  0.00     0.016 A 
ATOM     29  C   UNL A   1      42.281  27.662  28.687  1.00  0.00     0.010 A 
ATOM     30  C   UNL A   1      40.275  26.411  29.248  1.00  0.00     0.010 A 
ATOM     31  C   UNL A   1      41.112  27.526  29.445  1.00  0.00    -0.014 A 
BRANCH  31  32
ATOM     32  C   UNL A   1      40.880  28.459  30.571  1.00  0.00     0.031 A 
ATOM     33  C   UNL A   1      41.747  28.347  31.797  1.00  0.00     0.074 A 
ATOM     34  C   UNL A   1      39.958  29.433  30.475  1.00  0.00     0.049 A 
ATOM     35  N   UNL A   1      41.727  29.057  32.895  1.00  0.00    -0.248 NA
ATOM     36  C   UNL A   1      42.776  27.293  31.782  1.00  0.00     0.031 C 
ATOM     37  C   UNL A   1      39.094  29.664  29.317  1.00  0.00     0.029 A 
ATOM     38  N   UNL A   1      39.598  30.411  31.365  1.00  0.00    -0.354 N 
ATOM     39  C   UNL A   1      42.731  28.532  33.704  1.00  0.00     0.074 A 
ATOM     40  C   UNL A   1      43.317  27.422  32.985  1.00  0.00     0.031 C 
ATOM     41  C   UNL A   1      38.299  30.716  29.572  1.00  0.00     0.029 A 
ATOM     42  C   UNL A   1      38.574  31.211  30.919  1.00  0.00     0.049 A 
ATOM     43  H   UNL A   1      40.032  30.529  32.242  1.00  0.00     0.167 HD
ATOM     44  C   UNL A   1      43.134  28.948  34.928  1.00  0.00     0.037 A 
ATOM     45  C   UNL A   1      37.923  32.216  31.537  1.00  0.00     0.037 A 
ATOM     46  C   UNL A   1      42.547  30.060  35.630  1.00  0.00     0.049 A 
ATOM     47  C   UNL A   1      38.347  32.619  32.926  1.00  0.00     0.074 A 
ATOM     48  C   UNL A   1      42.894  30.575  36.867  1.00  0.00     0.029 A 
ATOM     49  N   UNL A   1      41.489  30.824  35.163  1.00  0.00    -0.354 N 
ATOM     50  N   UNL A   1      39.312  32.130  33.671  1.00  0.00    -0.248 NA
ATOM     51  C   UNL A   1      37.600  33.716  33.556  1.00  0.00     0.031 C 
ATOM     52  C   UNL A   1      42.008  31.613  37.171  1.00  0.00     0.029 A 
ATOM     53  C   UNL A   1      41.150  31.788  36.097  1.00  0.00     0.049 A 
ATOM     54  H   UNL A   1      41.043  30.700  34.293  1.00  0.00     0.167 HD
ATOM     55  C   UNL A   1      39.304  32.878  34.845  1.00  0.00     0.074 A 
ATOM     56  C   UNL A   1      38.249  33.861  34.703  1.00  0.00     0.031 C 
ATOM     57  C   UNL A   1      40.097  32.763  35.940  1.00  0.00     0.037 A 
BRANCH  44  58
ATOM     58  C   UNL A   1      44.242  28.180  35.598  1.00  0.00     0.058 A 
ATOM     59  C   UNL A   1      45.592  28.535  35.442  1.00  0.00     0.135 A 
ATOM     60  C   UNL A   1      43.946  27.093  36.436  1.00  0.00     0.135 A 
ATOM     61  F   UNL A   1      45.935  29.555  34.639  1.00  0.00    -0.206 F 
ATOM     62  C   UNL A   1      46.608  27.825  36.074  1.00  0.00     0.059 A 
ATOM     63  C   UNL A   1      44.944  26.386  37.100  1.00  0.00     0.059 A 
ATOM     64  F   UNL A   1      42.673  26.706  36.617  1.00  0.00    -0.206 F 
ATOM     65  C   UNL A   1      46.274  26.751  36.902  1.00  0.00     0.060 A 
BRANCH  65  66
ATOM     66  S   UNL A   1      47.604  25.846  37.720  1.00  0.00     0.124 S 
ATOM     67  O   UNL A   1      47.020  24.513  37.838  1.00  0.00    -0.237 OA
ATOM     68  O   UNL A   1      48.702  25.975  36.767  1.00  0.00    -0.237 OA
ATOM     69  O   UNL A   1      47.782  26.565  38.979  1.00  0.00    -0.744 OA
ENDBRANCH  65  66
ENDBRANCH  44  58
BRANCH  45  70
ATOM     70  C   UNL A   1      36.796  32.903  30.853  1.00  0.00     0.058 A 
ATOM     71  C   UNL A   1      35.462  32.591  31.152  1.00  0.00     0.135 A 
ATOM     72  C   UNL A   1      37.033  33.889  29.882  1.00  0.00     0.135 A 
ATOM     73  F   UNL A   1      35.182  31.649  32.066  1.00  0.00    -0.206 F 
ATOM     74  C   UNL A   1      34.403  33.218  30.502  1.00  0.00     0.059 A 
ATOM     75  C   UNL A   1      35.991  34.552  29.239  1.00  0.00     0.059 A 
ATOM     76  F   UNL A   1      38.291  34.235  29.565  1.00  0.00    -0.206 F 
ATOM     77  C   UNL A   1      34.679  34.200  29.549  1.00  0.00     0.060 A 
BRANCH  77  78
ATOM     78  S   UNL A   1      33.296  35.036  28.743  1.00  0.00     0.124 S 
ATOM     79  O   UNL A   1      32.502  35.464  29.888  1.00  0.00    -0.237 OA
ATOM     80  O   UNL A   1      33.972  36.096  28.000  1.00  0.00    -0.237 OA
ATOM     81  O   UNL A   1      32.702  33.985  27.920  1.00  0.00    -0.744 OA
ENDBRANCH  77  78
ENDBRANCH  45  70
BRANCH  57  82
ATOM     82  C   UNL A   1      39.881  33.746  37.059  1.00  0.00     0.058 A 
ATOM     83  C   UNL A   1      40.499  35.006  37.069  1.00  0.00     0.135 A 
ATOM     84  C   UNL A   1      39.004  33.440  38.114  1.00  0.00     0.135 A 
ATOM     85  F   UNL A   1      41.349  35.350  36.088  1.00  0.00    -0.206 F 
ATOM     86  C   UNL A   1      40.284  35.914  38.102  1.00  0.00     0.059 A 
ATOM     87  C   UNL A   1      38.749  34.345  39.140  1.00  0.00     0.059 A 
ATOM     88  F   UNL A   1      38.375  32.255  38.148  1.00  0.00    -0.206 F 
ATOM     89  C   UNL A   1      39.406  35.573  39.133  1.00  0.00     0.060 A 
BRANCH  89  90
ATOM     90  S   UNL A   1      39.120  36.769  40.454  1.00  0.00     0.124 S 
ATOM     91  O   UNL A   1      38.602  37.912  39.709  1.00  0.00    -0.237 OA
ATOM     92  O   UNL A   1      38.155  36.074  41.301  1.00  0.00    -0.237 OA
ATOM     93  O   UNL A   1      40.443  36.951  41.042  1.00  0.00    -0.744 OA
ENDBRANCH  89  90
ENDBRANCH  57  82
ENDBRANCH  31  32
ENDBRANCH  24  26
ENDBRANCH  23  24
ENDBRANCH  22  23
ENDBRANCH   1  22
TORSDOF 19
ENDMDL
MODEL 2
REMARK VINA RESULT:      -9.4      1.592      2.153
REMARK SMILES CC1(C)[C@H](C(=O)OCCOCCOC(=O)c2ccc(-c3c4nc(c(-c5c(F)cc(S(=O)(=O)[O-])cc5F)c5ccc([nH]5)c(-c5c(F)cc(S(=O)(=O)[O-])cc5F)c5nc(c(-c6c(F)cc(S(=O)(=O)[O-])cc6F)c6ccc3[nH]6)C=C5)C=C4)cc2)[C@@H]1C(=O)Nc1ccon1
REMARK SMILES IDX 11 1 10 2 9 3 8 4 7 5 5 6 6 7 4 8 1 9 2 10 3 11 82 12 83 13
REMARK SMILES IDX 84 14 85 15 86 17 87 18 90 19 88 20 89 21 12 22 13 23 14 24
REMARK SMILES IDX 15 25 16 26 17 27 81 28 18 29 80 30 19 31 20 32 21 33 74 34
REMARK SMILES IDX 22 35 79 36 73 37 75 38 23 39 78 40 72 41 71 42 24 44 58 45
REMARK SMILES IDX 37 46 57 47 38 48 41 49 56 50 76 51 39 52 40 53 55 55 77 56
REMARK SMILES IDX 42 57 25 58 26 59 35 60 27 61 28 62 34 63 36 64 29 65 30 66
REMARK SMILES IDX 31 67 32 68 33 69 59 70 60 71 69 72 61 73 62 74 68 75 70 76
REMARK SMILES IDX 63 77 64 78 65 79 66 80 67 81 43 82 44 83 53 84 45 85 46 86
REMARK SMILES IDX 52 87 54 88 47 89 48 90 49 91 50 92 51 93
REMARK H PARENT 85 16 75 43 41 54
REMARK Flexibility Score: inf
ROOT
ATOM      1  C   UNL A   1      39.351  22.077  26.545  1.00  0.00     0.202 C 
ENDROOT
BRANCH   1   2
ATOM      2  O   UNL A   1      38.890  21.357  25.407  1.00  0.00    -0.374 OA
BRANCH   2   3
ATOM      3  C   UNL A   1      37.609  21.631  24.858  1.00  0.00     0.202 C 
BRANCH   3   4
ATOM      4  C   UNL A   1      36.411  20.729  25.185  1.00  0.00     0.261 C 
BRANCH   4   5
ATOM      5  O   UNL A   1      35.484  21.251  26.139  1.00  0.00    -0.463 OA
BRANCH   5   6
ATOM      6  C   UNL A   1      34.191  21.083  25.771  1.00  0.00     0.310 C 
ATOM      7  O   UNL A   1      33.280  20.727  26.508  1.00  0.00    -0.252 OA
BRANCH   6   8
ATOM      8  C   UNL A   1      33.874  21.417  24.368  1.00  0.00     0.118 C 
ATOM      9  C   UNL A   1      32.124  21.461  22.517  1.00  0.00     0.013 C 
ATOM     10  C   UNL A   1      32.641  22.075  23.800  1.00  0.00    -0.009 C 
ATOM     11  C   UNL A   1      31.522  22.568  24.691  1.00  0.00     0.013 C 
ATOM     12  C   UNL A   1      34.008  22.803  23.785  1.00  0.00     0.100 C 
BRANCH  12  13
ATOM     13  C   UNL A   1      34.112  24.098  24.514  1.00  0.00     0.230 C 
ATOM     14  O   UNL A   1      34.475  24.066  25.687  1.00  0.00    -0.274 OA
ATOM     15  N   UNL A   1      33.840  25.299  23.926  1.00  0.00    -0.308 N 
ATOM     16  H   UNL A   1      34.147  26.079  24.444  1.00  0.00     0.171 HD
BRANCH  15  17
ATOM     17  C   UNL A   1      33.215  25.618  22.748  1.00  0.00     0.175 A 
ATOM     18  C   UNL A   1      31.844  25.635  22.414  1.00  0.00     0.092 A 
ATOM     19  N   UNL A   1      33.959  25.979  21.697  1.00  0.00    -0.062 NA
ATOM     20  C   UNL A   1      31.827  25.863  21.063  1.00  0.00     0.233 A 
ATOM     21  O   UNL A   1      33.089  26.082  20.628  1.00  0.00    -0.363 OA
ENDBRANCH  15  17
ENDBRANCH  12  13
ENDBRANCH   6   8
ENDBRANCH   5   6
ENDBRANCH   4   5
ENDBRANCH   3   4
ENDBRANCH   2   3
ENDBRANCH   1   2
BRANCH   1  22
ATOM     22  C   UNL A   1      40.341  23.236  26.390  1.00  0.00     0.261 C 
BRANCH  22  23
ATOM     23  O   UNL A   1      39.734  24.534  26.357  1.00  0.00    -0.460 OA
BRANCH  23  24
ATOM     24  C   UNL A   1      40.628  25.549  26.271  1.00  0.00     0.338 C 
ATOM     25  O   UNL A   1      41.134  26.000  25.257  1.00  0.00    -0.246 OA
BRANCH  24  26
ATOM     26  C   UNL A   1      40.802  26.195  27.582  1.00  0.00     0.060 A 
ATOM     27  C   UNL A   1      39.766  26.050  28.513  1.00  0.00     0.016 A 
ATOM     28  C   UNL A   1      41.883  27.040  27.836  1.00  0.00     0.016 A 
ATOM     29  C   UNL A   1      39.769  26.812  29.676  1.00  0.00     0.010 A 
ATOM     30  C   UNL A   1      41.880  27.810  29.002  1.00  0.00     0.010 A 
ATOM     31  C   UNL A   1      40.797  27.737  29.899  1.00  0.00    -0.014 A 
BRANCH  31  32
ATOM     32  C   UNL A   1      40.627  28.748  30.967  1.00  0.00     0.031 A 
ATOM     33  C   UNL A   1      41.526  28.688  32.173  1.00  0.00     0.074 A 
ATOM     34  C   UNL A   1      39.731  29.741  30.833  1.00  0.00     0.049 A 
ATOM     35  N   UNL A   1      41.559  29.468  33.222  1.00  0.00    -0.248 NA
ATOM     36  C   UNL A   1      42.522  27.603  32.199  1.00  0.00     0.031 C 
ATOM     37  C   UNL A   1      38.840  29.924  29.687  1.00  0.00     0.029 A 
ATOM     38  N   UNL A   1      39.426  30.786  31.667  1.00  0.00    -0.354 N 
ATOM     39  C   UNL A   1      42.570  28.965  34.036  1.00  0.00     0.074 A 
ATOM     40  C   UNL A   1      43.102  27.793  33.375  1.00  0.00     0.031 C 
ATOM     41  C   UNL A   1      38.084  31.015  29.894  1.00  0.00     0.029 A 
ATOM     42  C   UNL A   1      38.414  31.587  31.197  1.00  0.00     0.049 A 
ATOM     43  H   UNL A   1      39.889  30.946  32.521  1.00  0.00     0.167 HD
ATOM     44  C   UNL A   1      43.021  29.446  35.219  1.00  0.00     0.037 A 
ATOM     45  C   UNL A   1      37.811  32.650  31.766  1.00  0.00     0.037 A 
ATOM     46  C   UNL A   1      42.489  30.619  35.863  1.00  0.00     0.049 A 
ATOM     47  C   UNL A   1      38.288  33.129  33.113  1.00  0.00     0.074 A 
ATOM     48  C   UNL A   1      42.887  31.202  37.053  1.00  0.00     0.029 A 
ATOM     49  N   UNL A   1      41.440  31.384  35.376  1.00  0.00    -0.354 N 
ATOM     50  N   UNL A   1      39.259  32.658  33.862  1.00  0.00    -0.248 NA
ATOM     51  C   UNL A   1      37.592  34.287  33.691  1.00  0.00     0.031 C 
ATOM     52  C   UNL A   1      42.041  32.285  37.313  1.00  0.00     0.029 A 
ATOM     53  C   UNL A   1      41.157  32.416  36.254  1.00  0.00     0.049 A 
ATOM     54  H   UNL A   1      40.965  31.218  34.528  1.00  0.00     0.167 HD
ATOM     55  C   UNL A   1      39.308  33.480  34.984  1.00  0.00     0.074 A 
ATOM     56  C   UNL A   1      38.279  34.485  34.807  1.00  0.00     0.031 C 
ATOM     57  C   UNL A   1      40.129  33.412  36.062  1.00  0.00     0.037 A 
BRANCH  44  58
ATOM     58  C   UNL A   1      44.126  28.689  35.907  1.00  0.00     0.058 A 
ATOM     59  C   UNL A   1      43.862  27.630  36.790  1.00  0.00     0.135 A 
ATOM     60  C   UNL A   1      45.470  29.007  35.652  1.00  0.00     0.135 A 
ATOM     61  F   UNL A   1      42.597  27.294  37.086  1.00  0.00    -0.206 F 
ATOM     62  C   UNL A   1      44.891  26.931  37.415  1.00  0.00     0.059 A 
ATOM     63  C   UNL A   1      46.515  28.303  36.242  1.00  0.00     0.059 A 
ATOM     64  F   UNL A   1      45.780  30.013  34.819  1.00  0.00    -0.206 F 
ATOM     65  C   UNL A   1      46.214  27.274  37.134  1.00  0.00     0.060 A 
BRANCH  65  66
ATOM     66  S   UNL A   1      47.536  26.350  37.945  1.00  0.00     0.124 S 
ATOM     67  O   UNL A   1      47.569  26.984  39.260  1.00  0.00    -0.237 OA
ATOM     68  O   UNL A   1      47.027  24.983  37.912  1.00  0.00    -0.237 OA
ATOM     69  O   UNL A   1      48.699  26.604  37.099  1.00  0.00    -0.744 OA
ENDBRANCH  65  66
ENDBRANCH  44  58
BRANCH  45  70
ATOM     70  C   UNL A   1      36.685  33.327  31.069  1.00  0.00     0.058 A 
ATOM     71  C   UNL A   1      35.365  33.203  31.527  1.00  0.00     0.135 A 
ATOM     72  C   UNL A   1      36.909  34.113  29.928  1.00  0.00     0.135 A 
ATOM     73  F   UNL A   1      35.097  32.454  32.608  1.00  0.00    -0.206 F 
ATOM     74  C   UNL A   1      34.305  33.818  30.869  1.00  0.00     0.059 A 
ATOM     75  C   UNL A   1      35.870  34.763  29.270  1.00  0.00     0.059 A 
ATOM     76  F   UNL A   1      38.155  34.274  29.454  1.00  0.00    -0.206 F 
ATOM     77  C   UNL A   1      34.568  34.600  29.742  1.00  0.00     0.060 A 
BRANCH  77  78
ATOM     78  S   UNL A   1      33.190  35.428  28.921  1.00  0.00     0.124 S 
ATOM     79  O   UNL A   1      33.879  36.461  28.159  1.00  0.00    -0.237 OA
ATOM     80  O   UNL A   1      32.602  34.342  28.142  1.00  0.00    -0.237 OA
ATOM     81  O   UNL A   1      32.373  35.904  30.034  1.00  0.00    -0.744 OA
ENDBRANCH  77  78
ENDBRANCH  45  70
BRANCH  57  82
ATOM     82  C   UNL A   1      39.975  34.471  37.119  1.00  0.00     0.058 A 
ATOM     83  C   UNL A   1      40.716  35.663  37.089  1.00  0.00     0.135 A 
ATOM     84  C   UNL A   1      39.038  34.311  38.155  1.00  0.00     0.135 A 
ATOM     85  F   UNL A   1      41.628  35.867  36.125  1.00  0.00    -0.206 F 
ATOM     86  C   UNL A   1      40.559  36.643  38.065  1.00  0.00     0.059 A 
ATOM     87  C   UNL A   1      38.841  35.292  39.122  1.00  0.00     0.059 A 
ATOM     88  F   UNL A   1      38.292  33.197  38.225  1.00  0.00    -0.206 F 
ATOM     89  C   UNL A   1      39.617  36.448  39.077  1.00  0.00     0.060 A 
BRANCH  89  90
ATOM     90  S   UNL A   1      39.408  37.737  40.323  1.00  0.00     0.124 S 
ATOM     91  O   UNL A   1      38.132  38.324  39.927  1.00  0.00    -0.237 OA
ATOM     92  O   UNL A   1      39.396  36.971  41.565  1.00  0.00    -0.237 OA
ATOM     93  O   UNL A   1      40.577  38.590  40.131  1.00  0.00    -0.744 OA
ENDBRANCH  89  90
ENDBRANCH  57  82
ENDBRANCH  31  32
ENDBRANCH  24  26
ENDBRANCH  23  24
ENDBRANCH  22  23
ENDBRANCH   1  22
TORSDOF 19
ENDMDL
MODEL 3
REMARK VINA RESULT:      -9.4      5.395     11.522
REMARK SMILES CC1(C)[C@H](C(=O)OCCOCCOC(=O)c2ccc(-c3c4nc(c(-c5c(F)cc(S(=O)(=O)[O-])cc5F)c5ccc([nH]5)c(-c5c(F)cc(S(=O)(=O)[O-])cc5F)c5nc(c(-c6c(F)cc(S(=O)(=O)[O-])cc6F)c6ccc3[nH]6)C=C5)C=C4)cc2)[C@@H]1C(=O)Nc1ccon1
REMARK SMILES IDX 11 1 10 2 9 3 8 4 7 5 5 6 6 7 4 8 1 9 2 10 3 11 82 12 83 13
REMARK SMILES IDX 84 14 85 15 86 17 87 18 90 19 88 20 89 21 12 22 13 23 14 24
REMARK SMILES IDX 15 25 16 26 17 27 81 28 18 29 80 30 19 31 20 32 21 33 74 34
REMARK SMILES IDX 22 35 79 36 73 37 75 38 23 39 78 40 72 41 71 42 24 44 58 45
REMARK SMILES IDX 37 46 57 47 38 48 41 49 56 50 76 51 39 52 40 53 55 55 77 56
REMARK SMILES IDX 42 57 25 58 26 59 35 60 27 61 28 62 34 63 36 64 29 65 30 66
REMARK SMILES IDX 31 67 32 68 33 69 59 70 60 71 69 72 61 73 62 74 68 75 70 76
REMARK SMILES IDX 63 77 64 78 65 79 66 80 67 81 43 82 44 83 53 84 45 85 46 86
REMARK SMILES IDX 52 87 54 88 47 89 48 90 49 91 50 92 51 93
REMARK H PARENT 85 16 75 43 41 54
REMARK Flexibility Score: inf
ROOT
ATOM      1  C   UNL A   1      33.982  34.392  28.405  1.00  0.00     0.202 C 
ENDROOT
BRANCH   1   2
ATOM      2  O   UNL A   1      33.192  34.415  29.588  1.00  0.00    -0.374 OA
BRANCH   2   3
ATOM      3  C   UNL A   1      32.748  35.651  30.129  1.00  0.00     0.202 C 
BRANCH   3   4
ATOM      4  C   UNL A   1      33.307  36.164  31.463  1.00  0.00     0.261 C 
BRANCH   4   5
ATOM      5  O   UNL A   1      33.603  35.160  32.437  1.00  0.00    -0.463 OA
BRANCH   5   6
ATOM      6  C   UNL A   1      34.930  35.010  32.659  1.00  0.00     0.310 C 
ATOM      7  O   UNL A   1      35.611  35.697  33.410  1.00  0.00    -0.252 OA
BRANCH   6   8
ATOM      8  C   UNL A   1      35.573  33.877  31.964  1.00  0.00     0.118 C 
ATOM      9  C   UNL A   1      37.432  33.092  30.407  1.00  0.00     0.013 C 
ATOM     10  C   UNL A   1      37.042  33.576  31.787  1.00  0.00    -0.009 C 
ATOM     11  C   UNL A   1      38.111  34.443  32.415  1.00  0.00     0.013 C 
ATOM     12  C   UNL A   1      36.146  32.673  32.672  1.00  0.00     0.100 C 
BRANCH  12  13
ATOM     13  C   UNL A   1      36.503  32.542  34.112  1.00  0.00     0.230 C 
ATOM     14  O   UNL A   1      35.911  33.258  34.916  1.00  0.00    -0.274 OA
ATOM     15  N   UNL A   1      37.437  31.655  34.562  1.00  0.00    -0.308 N 
ATOM     16  H   UNL A   1      37.427  31.519  35.538  1.00  0.00     0.171 HD
BRANCH  15  17
ATOM     17  C   UNL A   1      38.389  30.919  33.904  1.00  0.00     0.175 A 
ATOM     18  C   UNL A   1      38.304  29.649  33.294  1.00  0.00     0.092 A 
ATOM     19  N   UNL A   1      39.624  31.417  33.783  1.00  0.00    -0.062 NA
ATOM     20  C   UNL A   1      39.597  29.350  32.952  1.00  0.00     0.233 A 
ATOM     21  O   UNL A   1      40.392  30.409  33.231  1.00  0.00    -0.363 OA
ENDBRANCH  15  17
ENDBRANCH  12  13
ENDBRANCH   6   8
ENDBRANCH   5   6
ENDBRANCH   4   5
ENDBRANCH   3   4
ENDBRANCH   2   3
ENDBRANCH   1   2
BRANCH   1  22
ATOM     22  C   UNL A   1      34.729  33.122  27.986  1.00  0.00     0.261 C 
BRANCH  22  23
ATOM     23  O   UNL A   1      34.558  32.012  28.877  1.00  0.00    -0.460 OA
BRANCH  23  24
ATOM     24  C   UNL A   1      34.512  30.813  28.247  1.00  0.00     0.338 C 
ATOM     25  O   UNL A   1      33.605  30.378  27.558  1.00  0.00    -0.246 OA
BRANCH  24  26
ATOM     26  C   UNL A   1      35.810  30.127  28.349  1.00  0.00     0.060 A 
ATOM     27  C   UNL A   1      36.203  29.676  29.615  1.00  0.00     0.016 A 
ATOM     28  C   UNL A   1      36.682  30.061  27.261  1.00  0.00     0.016 A 
ATOM     29  C   UNL A   1      37.502  29.224  29.817  1.00  0.00     0.010 A 
ATOM     30  C   UNL A   1      37.989  29.613  27.469  1.00  0.00     0.010 A 
ATOM     31  C   UNL A   1      38.417  29.244  28.758  1.00  0.00    -0.014 A 
BRANCH  31  32
ATOM     32  C   UNL A   1      39.856  29.060  29.056  1.00  0.00     0.031 A 
ATOM     33  C   UNL A   1      40.503  27.741  28.728  1.00  0.00     0.074 A 
ATOM     34  C   UNL A   1      40.588  30.076  29.547  1.00  0.00     0.049 A 
ATOM     35  N   UNL A   1      41.743  27.361  28.897  1.00  0.00    -0.248 NA
ATOM     36  C   UNL A   1      39.635  26.713  28.129  1.00  0.00     0.031 C 
ATOM     37  C   UNL A   1      40.076  31.410  29.859  1.00  0.00     0.029 A 
ATOM     38  N   UNL A   1      41.920  30.142  29.868  1.00  0.00    -0.354 N 
ATOM     39  C   UNL A   1      41.803  26.050  28.435  1.00  0.00     0.074 A 
ATOM     40  C   UNL A   1      40.468  25.689  28.011  1.00  0.00     0.031 C 
ATOM     41  C   UNL A   1      41.084  32.163  30.331  1.00  0.00     0.029 A 
ATOM     42  C   UNL A   1      42.301  31.356  30.386  1.00  0.00     0.049 A 
ATOM     43  H   UNL A   1      42.543  29.390  29.739  1.00  0.00     0.167 HD
ATOM     44  C   UNL A   1      42.877  25.229  28.358  1.00  0.00     0.037 A 
ATOM     45  C   UNL A   1      43.493  31.760  30.866  1.00  0.00     0.037 A 
ATOM     46  C   UNL A   1      44.203  25.602  28.777  1.00  0.00     0.049 A 
ATOM     47  C   UNL A   1      44.660  30.806  30.830  1.00  0.00     0.074 A 
ATOM     48  C   UNL A   1      45.365  24.852  28.725  1.00  0.00     0.029 A 
ATOM     49  N   UNL A   1      44.545  26.828  29.330  1.00  0.00    -0.354 N 
ATOM     50  N   UNL A   1      44.709  29.577  30.370  1.00  0.00    -0.248 NA
ATOM     51  C   UNL A   1      45.934  31.296  31.372  1.00  0.00     0.031 C 
ATOM     52  C   UNL A   1      46.395  25.603  29.299  1.00  0.00     0.029 A 
ATOM     53  C   UNL A   1      45.892  26.845  29.650  1.00  0.00     0.049 A 
ATOM     54  H   UNL A   1      43.921  27.576  29.473  1.00  0.00     0.167 HD
ATOM     55  C   UNL A   1      46.025  29.158  30.542  1.00  0.00     0.074 A 
ATOM     56  C   UNL A   1      46.740  30.270  31.133  1.00  0.00     0.031 C 
ATOM     57  C   UNL A   1      46.591  27.963  30.237  1.00  0.00     0.037 A 
BRANCH  44  58
ATOM     58  C   UNL A   1      42.657  23.836  27.830  1.00  0.00     0.058 A 
ATOM     59  C   UNL A   1      42.503  22.733  28.685  1.00  0.00     0.135 A 
ATOM     60  C   UNL A   1      42.567  23.608  26.447  1.00  0.00     0.135 A 
ATOM     61  F   UNL A   1      42.599  22.888  30.015  1.00  0.00    -0.206 F 
ATOM     62  C   UNL A   1      42.292  21.451  28.187  1.00  0.00     0.059 A 
ATOM     63  C   UNL A   1      42.327  22.339  25.928  1.00  0.00     0.059 A 
ATOM     64  F   UNL A   1      42.711  24.625  25.583  1.00  0.00    -0.206 F 
ATOM     65  C   UNL A   1      42.204  21.264  26.806  1.00  0.00     0.060 A 
BRANCH  65  66
ATOM     66  S   UNL A   1      41.920  19.595  26.177  1.00  0.00     0.124 S 
ATOM     67  O   UNL A   1      40.469  19.589  26.013  1.00  0.00    -0.237 OA
ATOM     68  O   UNL A   1      42.698  19.591  24.943  1.00  0.00    -0.237 OA
ATOM     69  O   UNL A   1      42.433  18.738  27.242  1.00  0.00    -0.744 OA
ENDBRANCH  65  66
ENDBRANCH  44  58
BRANCH  45  70
ATOM     70  C   UNL A   1      43.642  33.128  31.431  1.00  0.00     0.058 A 
ATOM     71  C   UNL A   1      43.453  33.376  32.798  1.00  0.00     0.135 A 
ATOM     72  C   UNL A   1      43.977  34.217  30.610  1.00  0.00     0.135 A 
ATOM     73  F   UNL A   1      43.122  32.371  33.623  1.00  0.00    -0.206 F 
ATOM     74  C   UNL A   1      43.572  34.657  33.330  1.00  0.00     0.059 A 
ATOM     75  C   UNL A   1      44.131  35.501  31.122  1.00  0.00     0.059 A 
ATOM     76  F   UNL A   1      44.179  34.033  29.296  1.00  0.00    -0.206 F 
ATOM     77  C   UNL A   1      43.916  35.712  32.483  1.00  0.00     0.060 A 
BRANCH  77  78
ATOM     78  S   UNL A   1      44.109  37.362  33.191  1.00  0.00     0.124 S 
ATOM     79  O   UNL A   1      44.268  38.179  31.995  1.00  0.00    -0.237 OA
ATOM     80  O   UNL A   1      42.854  37.531  33.919  1.00  0.00    -0.237 OA
ATOM     81  O   UNL A   1      45.298  37.231  34.029  1.00  0.00    -0.744 OA
ENDBRANCH  77  78
ENDBRANCH  45  70
BRANCH  57  82
ATOM     82  C   UNL A   1      48.063  27.805  30.504  1.00  0.00     0.058 A 
ATOM     83  C   UNL A   1      48.546  27.285  31.716  1.00  0.00     0.135 A 
ATOM     84  C   UNL A   1      49.005  28.137  29.515  1.00  0.00     0.135 A 
ATOM     85  F   UNL A   1      47.691  26.954  32.697  1.00  0.00    -0.206 F 
ATOM     86  C   UNL A   1      49.909  27.131  31.950  1.00  0.00     0.059 A 
ATOM     87  C   UNL A   1      50.371  27.960  29.716  1.00  0.00     0.059 A 
ATOM     88  F   UNL A   1      48.599  28.625  28.333  1.00  0.00    -0.206 F 
ATOM     89  C   UNL A   1      50.814  27.471  30.943  1.00  0.00     0.060 A 
BRANCH  89  90
ATOM     90  S   UNL A   1      52.578  27.246  31.252  1.00  0.00     0.124 S 
ATOM     91  O   UNL A   1      53.166  28.156  30.276  1.00  0.00    -0.237 OA
ATOM     92  O   UNL A   1      52.703  27.646  32.650  1.00  0.00    -0.237 OA
ATOM     93  O   UNL A   1      52.790  25.825  30.993  1.00  0.00    -0.744 OA
ENDBRANCH  89  90
ENDBRANCH  57  82
ENDBRANCH  31  32
ENDBRANCH  24  26
ENDBRANCH  23  24
ENDBRANCH  22  23
ENDBRANCH   1  22
TORSDOF 19
ENDMDL
