MODEL 1
REMARK VINA RESULT:     -10.6      0.000      0.000
REMARK SMILES CC1=C(C(=O)OCCOCCOC(=O)c2ccc(-c3c4nc(c(-c5c(F)cc(S(=O)(=O)[O-])cc5F)c5ccc([nH]5)c(-c5c(F)cc(S(=O)(=O)[O-])cc5F)c5nc(c(-c6c(F)cc(S(=O)(=O)[O-])cc6F)c6ccc3[nH]6)C=C5)C=C4)cc2)[C@H](c2ccc(Cl)cc2)n2ncnc2N1
REMARK SMILES IDX 10 1 9 2 8 3 7 4 6 5 4 6 5 7 3 8 1 9 2 10 94 11 81 12 93 13
REMARK SMILES IDX 89 15 92 16 90 17 91 18 82 19 83 20 88 21 84 22 87 23 85 24
REMARK SMILES IDX 86 25 11 26 12 27 13 28 14 29 15 30 16 31 80 32 17 33 79 34
REMARK SMILES IDX 18 35 19 36 20 37 73 38 21 39 78 40 72 41 74 42 22 43 77 44
REMARK SMILES IDX 71 45 70 46 23 48 57 49 36 50 56 51 37 52 40 53 55 54 75 55
REMARK SMILES IDX 38 56 39 57 54 59 76 60 41 61 24 62 25 63 34 64 26 65 27 66
REMARK SMILES IDX 33 67 35 68 28 69 29 70 30 71 31 72 32 73 58 74 59 75 68 76
REMARK SMILES IDX 60 77 61 78 67 79 69 80 62 81 63 82 64 83 65 84 66 85 42 86
REMARK SMILES IDX 43 87 52 88 44 89 45 90 51 91 53 92 46 93 47 94 48 95 49 96
REMARK SMILES IDX 50 97
REMARK H PARENT 94 14 74 47 40 58
REMARK Flexibility Score: inf
ROOT
ATOM      1  C   UNL A   1      42.229  20.702  26.473  1.00  0.00     0.202 C 
ENDROOT
BRANCH   1   2
ATOM      2  O   UNL A   1      42.535  21.487  25.324  1.00  0.00    -0.374 OA
BRANCH   2   3
ATOM      3  C   UNL A   1      43.680  22.341  25.328  1.00  0.00     0.202 C 
BRANCH   3   4
ATOM      4  C   UNL A   1      43.564  23.697  24.630  1.00  0.00     0.261 C 
BRANCH   4   5
ATOM      5  O   UNL A   1      44.822  24.388  24.568  1.00  0.00    -0.460 OA
BRANCH   5   6
ATOM      6  C   UNL A   1      44.887  25.524  25.302  1.00  0.00     0.338 C 
ATOM      7  O   UNL A   1      43.939  26.224  25.632  1.00  0.00    -0.246 OA
BRANCH   6   8
ATOM      8  C   UNL A   1      46.273  25.783  25.724  1.00  0.00     0.085 C 
ATOM      9  C   UNL A   1      46.415  27.819  24.221  1.00  0.00     0.065 C 
ATOM     10  C   UNL A   1      46.965  26.835  25.223  1.00  0.00     0.028 C 
ATOM     11  N   UNL A   1      48.274  27.056  25.631  1.00  0.00    -0.328 N 
ATOM     12  C   UNL A   1      46.896  24.797  26.711  1.00  0.00     0.181 C 
ATOM     13  C   UNL A   1      48.940  26.233  26.462  1.00  0.00     0.226 A 
ATOM     14  H   UNL A   1      48.738  27.856  25.294  1.00  0.00     0.169 HD
ATOM     15  N   UNL A   1      48.310  25.126  26.960  1.00  0.00    -0.219 N 
ATOM     16  N   UNL A   1      50.165  26.279  26.917  1.00  0.00    -0.200 NA
ATOM     17  N   UNL A   1      49.157  24.369  27.693  1.00  0.00    -0.157 NA
ATOM     18  C   UNL A   1      50.260  25.125  27.651  1.00  0.00     0.248 A 
BRANCH  12  19
ATOM     19  C   UNL A   1      46.116  24.637  28.020  1.00  0.00    -0.018 A 
ATOM     20  C   UNL A   1      45.379  23.479  28.323  1.00  0.00     0.008 A 
ATOM     21  C   UNL A   1      46.165  25.665  28.983  1.00  0.00     0.008 A 
ATOM     22  C   UNL A   1      44.720  23.351  29.550  1.00  0.00     0.021 A 
ATOM     23  C   UNL A   1      45.534  25.522  30.221  1.00  0.00     0.021 A 
ATOM     24  C   UNL A   1      44.815  24.364  30.499  1.00  0.00     0.041 A 
ATOM     25  Cl  UNL A   1      44.048  24.179  32.029  1.00  0.00    -0.084 Cl
ENDBRANCH  12  19
ENDBRANCH   6   8
ENDBRANCH   5   6
ENDBRANCH   4   5
ENDBRANCH   3   4
ENDBRANCH   2   3
ENDBRANCH   1   2
BRANCH   1  26
ATOM     26  C   UNL A   1      40.813  20.736  27.037  1.00  0.00     0.261 C 
BRANCH  26  27
ATOM     27  O   UNL A   1      40.556  21.944  27.735  1.00  0.00    -0.460 OA
BRANCH  27  28
ATOM     28  C   UNL A   1      39.872  22.857  27.018  1.00  0.00     0.338 C 
ATOM     29  O   UNL A   1      38.823  22.675  26.400  1.00  0.00    -0.246 OA
BRANCH  28  30
ATOM     30  C   UNL A   1      40.630  24.106  26.985  1.00  0.00     0.060 A 
ATOM     31  C   UNL A   1      41.661  24.200  27.920  1.00  0.00     0.016 A 
ATOM     32  C   UNL A   1      40.101  25.232  26.332  1.00  0.00     0.016 A 
ATOM     33  C   UNL A   1      41.944  25.439  28.431  1.00  0.00     0.010 A 
ATOM     34  C   UNL A   1      40.384  26.473  26.848  1.00  0.00     0.010 A 
ATOM     35  C   UNL A   1      41.211  26.534  27.966  1.00  0.00    -0.014 A 
BRANCH  35  36
ATOM     36  C   UNL A   1      41.330  27.754  28.728  1.00  0.00     0.031 A 
ATOM     37  C   UNL A   1      42.475  28.588  28.324  1.00  0.00     0.074 A 
ATOM     38  C   UNL A   1      40.448  28.083  29.688  1.00  0.00     0.049 A 
ATOM     39  N   UNL A   1      43.552  28.840  28.985  1.00  0.00    -0.248 NA
ATOM     40  C   UNL A   1      42.486  29.052  26.928  1.00  0.00     0.031 C 
ATOM     41  C   UNL A   1      39.138  27.482  29.961  1.00  0.00     0.029 A 
ATOM     42  N   UNL A   1      40.503  29.119  30.562  1.00  0.00    -0.354 N 
ATOM     43  C   UNL A   1      44.286  29.687  28.165  1.00  0.00     0.074 A 
ATOM     44  C   UNL A   1      43.689  29.618  26.857  1.00  0.00     0.031 C 
ATOM     45  C   UNL A   1      38.438  28.309  30.769  1.00  0.00     0.029 A 
ATOM     46  C   UNL A   1      39.292  29.420  31.160  1.00  0.00     0.049 A 
ATOM     47  H   UNL A   1      41.333  29.613  30.754  1.00  0.00     0.167 HD
ATOM     48  C   UNL A   1      45.166  30.585  28.677  1.00  0.00     0.037 A 
ATOM     49  C   UNL A   1      38.999  30.561  31.831  1.00  0.00     0.037 A 
ATOM     50  C   UNL A   1      45.554  30.252  30.022  1.00  0.00     0.049 A 
ATOM     51  C   UNL A   1      40.288  31.198  32.220  1.00  0.00     0.074 A 
ATOM     52  C   UNL A   1      46.172  29.163  30.606  1.00  0.00     0.029 A 
ATOM     53  N   UNL A   1      44.981  30.958  31.052  1.00  0.00    -0.354 N 
ATOM     54  N   UNL A   1      41.122  30.696  33.091  1.00  0.00    -0.248 NA
ATOM     55  C   UNL A   1      40.866  32.179  31.312  1.00  0.00     0.031 C 
ATOM     56  C   UNL A   1      45.562  29.027  31.887  1.00  0.00     0.029 A 
ATOM     57  C   UNL A   1      44.629  30.057  32.027  1.00  0.00     0.049 A 
ATOM     58  H   UNL A   1      44.845  31.933  31.086  1.00  0.00     0.167 HD
ATOM     59  C   UNL A   1      42.386  30.980  32.590  1.00  0.00     0.074 A 
ATOM     60  C   UNL A   1      42.165  31.980  31.551  1.00  0.00     0.031 C 
ATOM     61  C   UNL A   1      43.458  30.181  32.870  1.00  0.00     0.037 A 
BRANCH  48  62
ATOM     62  C   UNL A   1      45.375  31.947  28.073  1.00  0.00     0.058 A 
ATOM     63  C   UNL A   1      46.657  32.330  27.643  1.00  0.00     0.135 A 
ATOM     64  C   UNL A   1      44.414  32.985  28.148  1.00  0.00     0.135 A 
ATOM     65  F   UNL A   1      47.645  31.427  27.558  1.00  0.00    -0.206 F 
ATOM     66  C   UNL A   1      46.978  33.659  27.365  1.00  0.00     0.059 A 
ATOM     67  C   UNL A   1      44.695  34.300  27.813  1.00  0.00     0.059 A 
ATOM     68  F   UNL A   1      43.188  32.794  28.652  1.00  0.00    -0.206 F 
ATOM     69  C   UNL A   1      45.992  34.636  27.470  1.00  0.00     0.060 A 
BRANCH  69  70
ATOM     70  S   UNL A   1      46.425  36.368  27.246  1.00  0.00     0.124 S 
ATOM     71  O   UNL A   1      45.137  36.938  26.868  1.00  0.00    -0.237 OA
ATOM     72  O   UNL A   1      46.925  36.731  28.568  1.00  0.00    -0.237 OA
ATOM     73  O   UNL A   1      47.433  36.327  26.191  1.00  0.00    -0.744 OA
ENDBRANCH  69  70
ENDBRANCH  48  62
BRANCH  49  74
ATOM     74  C   UNL A   1      37.702  31.283  31.818  1.00  0.00     0.058 A 
ATOM     75  C   UNL A   1      36.980  31.524  32.997  1.00  0.00     0.135 A 
ATOM     76  C   UNL A   1      37.258  31.965  30.664  1.00  0.00     0.135 A 
ATOM     77  F   UNL A   1      37.359  30.950  34.148  1.00  0.00    -0.206 F 
ATOM     78  C   UNL A   1      35.889  32.401  33.034  1.00  0.00     0.059 A 
ATOM     79  C   UNL A   1      36.166  32.829  30.673  1.00  0.00     0.059 A 
ATOM     80  F   UNL A   1      37.928  31.879  29.506  1.00  0.00    -0.206 F 
ATOM     81  C   UNL A   1      35.495  33.057  31.867  1.00  0.00     0.060 A 
BRANCH  81  82
ATOM     82  S   UNL A   1      34.174  34.287  31.936  1.00  0.00     0.124 S 
ATOM     83  O   UNL A   1      33.723  34.322  30.550  1.00  0.00    -0.237 OA
ATOM     84  O   UNL A   1      33.249  33.693  32.895  1.00  0.00    -0.237 OA
ATOM     85  O   UNL A   1      34.857  35.493  32.400  1.00  0.00    -0.744 OA
ENDBRANCH  81  82
ENDBRANCH  49  74
BRANCH  61  86
ATOM     86  C   UNL A   1      43.319  29.172  33.982  1.00  0.00     0.058 A 
ATOM     87  C   UNL A   1      43.493  29.474  35.344  1.00  0.00     0.135 A 
ATOM     88  C   UNL A   1      42.837  27.893  33.666  1.00  0.00     0.135 A 
ATOM     89  F   UNL A   1      43.846  30.707  35.735  1.00  0.00    -0.206 F 
ATOM     90  C   UNL A   1      43.238  28.534  36.344  1.00  0.00     0.059 A 
ATOM     91  C   UNL A   1      42.546  26.949  34.649  1.00  0.00     0.059 A 
ATOM     92  F   UNL A   1      42.586  27.564  32.388  1.00  0.00    -0.206 F 
ATOM     93  C   UNL A   1      42.762  27.273  35.987  1.00  0.00     0.060 A 
BRANCH  93  94
ATOM     94  S   UNL A   1      42.343  26.091  37.288  1.00  0.00     0.124 S 
ATOM     95  O   UNL A   1      43.292  26.442  38.338  1.00  0.00    -0.237 OA
ATOM     96  O   UNL A   1      40.944  26.405  37.565  1.00  0.00    -0.237 OA
ATOM     97  O   UNL A   1      42.566  24.794  36.653  1.00  0.00    -0.744 OA
ENDBRANCH  93  94
ENDBRANCH  61  86
ENDBRANCH  35  36
ENDBRANCH  28  30
ENDBRANCH  27  28
ENDBRANCH  26  27
ENDBRANCH   1  26
TORSDOF 18
ENDMDL
MODEL 2
REMARK VINA RESULT:     -10.0      4.446      7.472
REMARK SMILES CC1=C(C(=O)OCCOCCOC(=O)c2ccc(-c3c4nc(c(-c5c(F)cc(S(=O)(=O)[O-])cc5F)c5ccc([nH]5)c(-c5c(F)cc(S(=O)(=O)[O-])cc5F)c5nc(c(-c6c(F)cc(S(=O)(=O)[O-])cc6F)c6ccc3[nH]6)C=C5)C=C4)cc2)[C@H](c2ccc(Cl)cc2)n2ncnc2N1
REMARK SMILES IDX 10 1 9 2 8 3 7 4 6 5 4 6 5 7 3 8 1 9 2 10 94 11 81 12 93 13
REMARK SMILES IDX 89 15 92 16 90 17 91 18 82 19 83 20 88 21 84 22 87 23 85 24
REMARK SMILES IDX 86 25 11 26 12 27 13 28 14 29 15 30 16 31 80 32 17 33 79 34
REMARK SMILES IDX 18 35 19 36 20 37 73 38 21 39 78 40 72 41 74 42 22 43 77 44
REMARK SMILES IDX 71 45 70 46 23 48 57 49 36 50 56 51 37 52 40 53 55 54 75 55
REMARK SMILES IDX 38 56 39 57 54 59 76 60 41 61 24 62 25 63 34 64 26 65 27 66
REMARK SMILES IDX 33 67 35 68 28 69 29 70 30 71 31 72 32 73 58 74 59 75 68 76
REMARK SMILES IDX 60 77 61 78 67 79 69 80 62 81 63 82 64 83 65 84 66 85 42 86
REMARK SMILES IDX 43 87 52 88 44 89 45 90 51 91 53 92 46 93 47 94 48 95 49 96
REMARK SMILES IDX 50 97
REMARK H PARENT 94 14 74 47 40 58
REMARK Flexibility Score: inf
ROOT
ATOM      1  C   UNL A   1      37.423  21.651  24.676  1.00  0.00     0.202 C 
ENDROOT
BRANCH   1   2
ATOM      2  O   UNL A   1      36.464  22.682  24.889  1.00  0.00    -0.374 OA
BRANCH   2   3
ATOM      3  C   UNL A   1      35.083  22.438  24.620  1.00  0.00     0.202 C 
BRANCH   3   4
ATOM      4  C   UNL A   1      34.350  23.412  23.696  1.00  0.00     0.261 C 
BRANCH   4   5
ATOM      5  O   UNL A   1      34.226  24.722  24.274  1.00  0.00    -0.460 OA
BRANCH   5   6
ATOM      6  C   UNL A   1      33.397  24.799  25.342  1.00  0.00     0.338 C 
ATOM      7  O   UNL A   1      33.687  24.534  26.501  1.00  0.00    -0.246 OA
BRANCH   6   8
ATOM      8  C   UNL A   1      32.082  25.321  24.933  1.00  0.00     0.085 C 
ATOM      9  C   UNL A   1      30.968  23.110  25.474  1.00  0.00     0.065 C 
ATOM     10  C   UNL A   1      30.977  24.540  24.996  1.00  0.00     0.028 C 
ATOM     11  N   UNL A   1      29.748  25.052  24.600  1.00  0.00    -0.328 N 
ATOM     12  C   UNL A   1      32.036  26.754  24.405  1.00  0.00     0.181 C 
ATOM     13  C   UNL A   1      29.592  26.283  24.080  1.00  0.00     0.226 A 
ATOM     14  H   UNL A   1      28.951  24.484  24.704  1.00  0.00     0.169 HD
ATOM     15  N   UNL A   1      30.681  27.100  23.944  1.00  0.00    -0.219 N 
ATOM     16  N   UNL A   1      28.527  26.900  23.637  1.00  0.00    -0.200 NA
ATOM     17  N   UNL A   1      30.354  28.252  23.318  1.00  0.00    -0.157 NA
ATOM     18  C   UNL A   1      29.033  28.087  23.174  1.00  0.00     0.248 A 
BRANCH  12  19
ATOM     19  C   UNL A   1      32.584  27.802  25.379  1.00  0.00    -0.018 A 
ATOM     20  C   UNL A   1      33.904  28.283  25.307  1.00  0.00     0.008 A 
ATOM     21  C   UNL A   1      31.732  28.345  26.361  1.00  0.00     0.008 A 
ATOM     22  C   UNL A   1      34.352  29.277  26.183  1.00  0.00     0.021 A 
ATOM     23  C   UNL A   1      32.171  29.360  27.213  1.00  0.00     0.021 A 
ATOM     24  C   UNL A   1      33.480  29.823  27.119  1.00  0.00     0.041 A 
ATOM     25  Cl  UNL A   1      34.020  31.084  28.159  1.00  0.00    -0.084 Cl
ENDBRANCH  12  19
ENDBRANCH   6   8
ENDBRANCH   5   6
ENDBRANCH   4   5
ENDBRANCH   3   4
ENDBRANCH   2   3
ENDBRANCH   1   2
BRANCH   1  26
ATOM     26  C   UNL A   1      38.574  21.495  25.663  1.00  0.00     0.261 C 
BRANCH  26  27
ATOM     27  O   UNL A   1      38.735  22.652  26.467  1.00  0.00    -0.460 OA
BRANCH  27  28
ATOM     28  C   UNL A   1      39.891  22.684  27.159  1.00  0.00     0.338 C 
ATOM     29  O   UNL A   1      40.341  21.796  27.884  1.00  0.00    -0.246 OA
BRANCH  28  30
ATOM     30  C   UNL A   1      40.502  24.003  27.012  1.00  0.00     0.060 A 
ATOM     31  C   UNL A   1      41.679  24.195  27.735  1.00  0.00     0.016 A 
ATOM     32  C   UNL A   1      39.750  25.073  26.499  1.00  0.00     0.016 A 
ATOM     33  C   UNL A   1      41.932  25.454  28.213  1.00  0.00     0.010 A 
ATOM     34  C   UNL A   1      40.003  26.333  26.982  1.00  0.00     0.010 A 
ATOM     35  C   UNL A   1      41.019  26.472  27.923  1.00  0.00    -0.014 A 
BRANCH  35  36
ATOM     36  C   UNL A   1      41.162  27.694  28.678  1.00  0.00     0.031 A 
ATOM     37  C   UNL A   1      42.311  28.512  28.256  1.00  0.00     0.074 A 
ATOM     38  C   UNL A   1      40.296  28.038  29.646  1.00  0.00     0.049 A 
ATOM     39  N   UNL A   1      43.400  28.754  28.903  1.00  0.00    -0.248 NA
ATOM     40  C   UNL A   1      42.311  28.969  26.858  1.00  0.00     0.031 C 
ATOM     41  C   UNL A   1      38.982  27.454  29.938  1.00  0.00     0.029 A 
ATOM     42  N   UNL A   1      40.374  29.077  30.515  1.00  0.00    -0.354 N 
ATOM     43  C   UNL A   1      44.134  29.588  28.070  1.00  0.00     0.074 A 
ATOM     44  C   UNL A   1      43.520  29.521  26.770  1.00  0.00     0.031 C 
ATOM     45  C   UNL A   1      38.302  28.294  30.751  1.00  0.00     0.029 A 
ATOM     46  C   UNL A   1      39.174  29.396  31.127  1.00  0.00     0.049 A 
ATOM     47  H   UNL A   1      41.212  29.562  30.695  1.00  0.00     0.167 HD
ATOM     48  C   UNL A   1      45.031  30.478  28.567  1.00  0.00     0.037 A 
ATOM     49  C   UNL A   1      38.903  30.543  31.795  1.00  0.00     0.037 A 
ATOM     50  C   UNL A   1      45.431  30.147  29.909  1.00  0.00     0.049 A 
ATOM     51  C   UNL A   1      40.204  31.166  32.166  1.00  0.00     0.074 A 
ATOM     52  C   UNL A   1      46.043  29.054  30.490  1.00  0.00     0.029 A 
ATOM     53  N   UNL A   1      44.879  30.864  30.943  1.00  0.00    -0.354 N 
ATOM     54  N   UNL A   1      41.043  30.659  33.029  1.00  0.00    -0.248 NA
ATOM     55  C   UNL A   1      40.782  32.136  31.246  1.00  0.00     0.031 C 
ATOM     56  C   UNL A   1      45.447  28.931  31.779  1.00  0.00     0.029 A 
ATOM     57  C   UNL A   1      44.529  29.972  31.926  1.00  0.00     0.049 A 
ATOM     58  H   UNL A   1      44.756  31.841  30.974  1.00  0.00     0.167 HD
ATOM     59  C   UNL A   1      42.304  30.925  32.511  1.00  0.00     0.074 A 
ATOM     60  C   UNL A   1      42.082  31.923  31.470  1.00  0.00     0.031 C 
ATOM     61  C   UNL A   1      43.370  30.114  32.783  1.00  0.00     0.037 A 
BRANCH  48  62
ATOM     62  C   UNL A   1      45.248  31.835  27.954  1.00  0.00     0.058 A 
ATOM     63  C   UNL A   1      46.521  32.186  27.473  1.00  0.00     0.135 A 
ATOM     64  C   UNL A   1      44.318  32.896  28.066  1.00  0.00     0.135 A 
ATOM     65  F   UNL A   1      47.483  31.259  27.349  1.00  0.00    -0.206 F 
ATOM     66  C   UNL A   1      46.863  33.507  27.181  1.00  0.00     0.059 A 
ATOM     67  C   UNL A   1      44.617  34.204  27.719  1.00  0.00     0.059 A 
ATOM     68  F   UNL A   1      43.108  32.735  28.619  1.00  0.00    -0.206 F 
ATOM     69  C   UNL A   1      45.907  34.509  27.325  1.00  0.00     0.060 A 
BRANCH  69  70
ATOM     70  S   UNL A   1      46.373  36.229  27.082  1.00  0.00     0.124 S 
ATOM     71  O   UNL A   1      45.067  36.860  26.932  1.00  0.00    -0.237 OA
ATOM     72  O   UNL A   1      47.092  36.527  28.317  1.00  0.00    -0.237 OA
ATOM     73  O   UNL A   1      47.198  36.186  25.879  1.00  0.00    -0.744 OA
ENDBRANCH  69  70
ENDBRANCH  48  62
BRANCH  49  74
ATOM     74  C   UNL A   1      37.615  31.281  31.795  1.00  0.00     0.058 A 
ATOM     75  C   UNL A   1      36.917  31.547  32.983  1.00  0.00     0.135 A 
ATOM     76  C   UNL A   1      37.158  31.951  30.639  1.00  0.00     0.135 A 
ATOM     77  F   UNL A   1      37.308  30.984  34.135  1.00  0.00    -0.206 F 
ATOM     78  C   UNL A   1      35.837  32.438  33.026  1.00  0.00     0.059 A 
ATOM     79  C   UNL A   1      36.077  32.829  30.655  1.00  0.00     0.059 A 
ATOM     80  F   UNL A   1      37.807  31.842  29.471  1.00  0.00    -0.206 F 
ATOM     81  C   UNL A   1      35.431  33.082  31.857  1.00  0.00     0.060 A 
BRANCH  81  82
ATOM     82  S   UNL A   1      34.125  34.329  31.931  1.00  0.00     0.124 S 
ATOM     83  O   UNL A   1      34.862  35.510  32.366  1.00  0.00    -0.237 OA
ATOM     84  O   UNL A   1      33.639  34.349  30.556  1.00  0.00    -0.237 OA
ATOM     85  O   UNL A   1      33.189  33.783  32.911  1.00  0.00    -0.744 OA
ENDBRANCH  81  82
ENDBRANCH  49  74
BRANCH  61  86
ATOM     86  C   UNL A   1      43.231  29.112  33.901  1.00  0.00     0.058 A 
ATOM     87  C   UNL A   1      43.468  29.408  35.254  1.00  0.00     0.135 A 
ATOM     88  C   UNL A   1      42.687  27.853  33.606  1.00  0.00     0.135 A 
ATOM     89  F   UNL A   1      43.885  30.625  35.630  1.00  0.00    -0.206 F 
ATOM     90  C   UNL A   1      43.214  28.479  36.265  1.00  0.00     0.059 A 
ATOM     91  C   UNL A   1      42.396  26.922  34.600  1.00  0.00     0.059 A 
ATOM     92  F   UNL A   1      42.375  27.534  32.338  1.00  0.00    -0.206 F 
ATOM     93  C   UNL A   1      42.674  27.238  35.929  1.00  0.00     0.060 A 
BRANCH  93  94
ATOM     94  S   UNL A   1      42.258  26.074  37.246  1.00  0.00     0.124 S 
ATOM     95  O   UNL A   1      43.155  26.491  38.318  1.00  0.00    -0.237 OA
ATOM     96  O   UNL A   1      40.839  26.339  37.468  1.00  0.00    -0.237 OA
ATOM     97  O   UNL A   1      42.553  24.771  36.656  1.00  0.00    -0.744 OA
ENDBRANCH  93  94
ENDBRANCH  61  86
ENDBRANCH  35  36
ENDBRANCH  28  30
ENDBRANCH  27  28
ENDBRANCH  26  27
ENDBRANCH   1  26
TORSDOF 18
ENDMDL
MODEL 3
REMARK VINA RESULT:      -9.9      4.505      7.387
REMARK SMILES CC1=C(C(=O)OCCOCCOC(=O)c2ccc(-c3c4nc(c(-c5c(F)cc(S(=O)(=O)[O-])cc5F)c5ccc([nH]5)c(-c5c(F)cc(S(=O)(=O)[O-])cc5F)c5nc(c(-c6c(F)cc(S(=O)(=O)[O-])cc6F)c6ccc3[nH]6)C=C5)C=C4)cc2)[C@H](c2ccc(Cl)cc2)n2ncnc2N1
REMARK SMILES IDX 10 1 9 2 8 3 7 4 6 5 4 6 5 7 3 8 1 9 2 10 94 11 81 12 93 13
REMARK SMILES IDX 89 15 92 16 90 17 91 18 82 19 83 20 88 21 84 22 87 23 85 24
REMARK SMILES IDX 86 25 11 26 12 27 13 28 14 29 15 30 16 31 80 32 17 33 79 34
REMARK SMILES IDX 18 35 19 36 20 37 73 38 21 39 78 40 72 41 74 42 22 43 77 44
REMARK SMILES IDX 71 45 70 46 23 48 57 49 36 50 56 51 37 52 40 53 55 54 75 55
REMARK SMILES IDX 38 56 39 57 54 59 76 60 41 61 24 62 25 63 34 64 26 65 27 66
REMARK SMILES IDX 33 67 35 68 28 69 29 70 30 71 31 72 32 73 58 74 59 75 68 76
REMARK SMILES IDX 60 77 61 78 67 79 69 80 62 81 63 82 64 83 65 84 66 85 42 86
REMARK SMILES IDX 43 87 52 88 44 89 45 90 51 91 53 92 46 93 47 94 48 95 49 96
REMARK SMILES IDX 50 97
REMARK H PARENT 94 14 74 47 40 58
REMARK Flexibility Score: inf
ROOT
ATOM      1  C   UNL A   1      39.399  22.138  26.513  1.00  0.00     0.202 C 
ENDROOT
BRANCH   1   2
ATOM      2  O   UNL A   1      38.474  22.417  25.466  1.00  0.00    -0.374 OA
BRANCH   2   3
ATOM      3  C   UNL A   1      37.087  22.124  25.643  1.00  0.00     0.202 C 
BRANCH   3   4
ATOM      4  C   UNL A   1      36.159  23.270  26.047  1.00  0.00     0.261 C 
BRANCH   4   5
ATOM      5  O   UNL A   1      35.972  24.220  24.985  1.00  0.00    -0.460 OA
BRANCH   5   6
ATOM      6  C   UNL A   1      35.023  23.882  24.078  1.00  0.00     0.338 C 
ATOM      7  O   UNL A   1      35.221  23.373  22.983  1.00  0.00    -0.246 OA
BRANCH   6   8
ATOM      8  C   UNL A   1      33.681  24.150  24.619  1.00  0.00     0.085 C 
ATOM      9  C   UNL A   1      33.620  26.426  23.505  1.00  0.00     0.065 C 
ATOM     10  C   UNL A   1      33.047  25.318  24.352  1.00  0.00     0.028 C 
ATOM     11  N   UNL A   1      31.783  25.551  24.877  1.00  0.00    -0.328 N 
ATOM     12  C   UNL A   1      33.064  23.077  25.515  1.00  0.00     0.181 C 
ATOM     13  C   UNL A   1      31.158  24.700  25.711  1.00  0.00     0.226 A 
ATOM     14  H   UNL A   1      31.320  26.384  24.627  1.00  0.00     0.169 HD
ATOM     15  N   UNL A   1      31.771  23.527  26.058  1.00  0.00    -0.219 N 
ATOM     16  N   UNL A   1      29.998  24.779  26.310  1.00  0.00    -0.200 NA
ATOM     17  N   UNL A   1      31.045  22.848  26.975  1.00  0.00    -0.157 NA
ATOM     18  C   UNL A   1      29.972  23.641  27.074  1.00  0.00     0.248 A 
BRANCH  12  19
ATOM     19  C   UNL A   1      32.949  21.697  24.859  1.00  0.00    -0.018 A 
ATOM     20  C   UNL A   1      32.250  21.489  23.656  1.00  0.00     0.008 A 
ATOM     21  C   UNL A   1      33.601  20.597  25.449  1.00  0.00     0.008 A 
ATOM     22  C   UNL A   1      32.210  20.224  23.062  1.00  0.00     0.021 A 
ATOM     23  C   UNL A   1      33.588  19.341  24.837  1.00  0.00     0.021 A 
ATOM     24  C   UNL A   1      32.893  19.160  23.645  1.00  0.00     0.041 A 
ATOM     25  Cl  UNL A   1      32.887  17.617  22.882  1.00  0.00    -0.084 Cl
ENDBRANCH  12  19
ENDBRANCH   6   8
ENDBRANCH   5   6
ENDBRANCH   4   5
ENDBRANCH   3   4
ENDBRANCH   2   3
ENDBRANCH   1   2
BRANCH   1  26
ATOM     26  C   UNL A   1      40.182  20.831  26.481  1.00  0.00     0.261 C 
BRANCH  26  27
ATOM     27  O   UNL A   1      41.470  20.977  27.055  1.00  0.00    -0.460 OA
BRANCH  27  28
ATOM     28  C   UNL A   1      42.474  20.991  26.156  1.00  0.00     0.338 C 
ATOM     29  O   UNL A   1      42.847  20.051  25.453  1.00  0.00    -0.246 OA
BRANCH  28  30
ATOM     30  C   UNL A   1      43.150  22.285  26.211  1.00  0.00     0.060 A 
ATOM     31  C   UNL A   1      43.816  22.555  27.407  1.00  0.00     0.016 A 
ATOM     32  C   UNL A   1      42.818  23.292  25.290  1.00  0.00     0.016 A 
ATOM     33  C   UNL A   1      43.867  23.859  27.824  1.00  0.00     0.010 A 
ATOM     34  C   UNL A   1      42.867  24.598  25.711  1.00  0.00     0.010 A 
ATOM     35  C   UNL A   1      43.282  24.840  27.017  1.00  0.00    -0.014 A 
BRANCH  35  36
ATOM     36  C   UNL A   1      43.097  26.138  27.621  1.00  0.00     0.031 A 
ATOM     37  C   UNL A   1      44.209  27.067  27.362  1.00  0.00     0.074 A 
ATOM     38  C   UNL A   1      41.991  26.447  28.319  1.00  0.00     0.049 A 
ATOM     39  N   UNL A   1      45.077  27.527  28.197  1.00  0.00    -0.248 NA
ATOM     40  C   UNL A   1      44.487  27.380  25.952  1.00  0.00     0.031 C 
ATOM     41  C   UNL A   1      40.724  25.712  28.385  1.00  0.00     0.029 A 
ATOM     42  N   UNL A   1      41.738  27.567  29.042  1.00  0.00    -0.354 N 
ATOM     43  C   UNL A   1      45.884  28.372  27.448  1.00  0.00     0.074 A 
ATOM     44  C   UNL A   1      45.609  28.088  26.063  1.00  0.00     0.031 C 
ATOM     45  C   UNL A   1      39.776  26.520  28.911  1.00  0.00     0.029 A 
ATOM     46  C   UNL A   1      40.398  27.768  29.325  1.00  0.00     0.049 A 
ATOM     47  H   UNL A   1      42.447  28.184  29.339  1.00  0.00     0.167 HD
ATOM     48  C   UNL A   1      46.527  29.427  28.012  1.00  0.00     0.037 A 
ATOM     49  C   UNL A   1      39.844  28.925  29.762  1.00  0.00     0.037 A 
ATOM     50  C   UNL A   1      46.633  29.290  29.440  1.00  0.00     0.049 A 
ATOM     51  C   UNL A   1      40.937  29.763  30.328  1.00  0.00     0.074 A 
ATOM     52  C   UNL A   1      47.213  28.360  30.280  1.00  0.00     0.029 A 
ATOM     53  N   UNL A   1      45.771  30.019  30.224  1.00  0.00    -0.354 N 
ATOM     54  N   UNL A   1      41.600  29.469  31.414  1.00  0.00    -0.248 NA
ATOM     55  C   UNL A   1      41.599  30.710  29.442  1.00  0.00     0.031 C 
ATOM     56  C   UNL A   1      46.347  28.280  31.409  1.00  0.00     0.029 A 
ATOM     57  C   UNL A   1      45.304  29.188  31.212  1.00  0.00     0.049 A 
ATOM     58  H   UNL A   1      45.530  30.966  30.100  1.00  0.00     0.167 HD
ATOM     59  C   UNL A   1      42.908  29.862  31.160  1.00  0.00     0.074 A 
ATOM     60  C   UNL A   1      42.824  30.710  29.975  1.00  0.00     0.031 C 
ATOM     61  C   UNL A   1      43.967  29.245  31.764  1.00  0.00     0.037 A 
BRANCH  48  62
ATOM     62  C   UNL A   1      46.722  30.734  27.292  1.00  0.00     0.058 A 
ATOM     63  C   UNL A   1      48.006  31.302  27.217  1.00  0.00     0.135 A 
ATOM     64  C   UNL A   1      45.652  31.576  26.907  1.00  0.00     0.135 A 
ATOM     65  F   UNL A   1      49.087  30.595  27.579  1.00  0.00    -0.206 F 
ATOM     66  C   UNL A   1      48.205  32.631  26.842  1.00  0.00     0.059 A 
ATOM     67  C   UNL A   1      45.834  32.878  26.470  1.00  0.00     0.059 A 
ATOM     68  F   UNL A   1      44.369  31.212  27.039  1.00  0.00    -0.206 F 
ATOM     69  C   UNL A   1      47.109  33.413  26.487  1.00  0.00     0.060 A 
BRANCH  69  70
ATOM     70  S   UNL A   1      47.338  35.162  26.135  1.00  0.00     0.124 S 
ATOM     71  O   UNL A   1      48.320  35.110  25.057  1.00  0.00    -0.237 OA
ATOM     72  O   UNL A   1      45.990  35.576  25.757  1.00  0.00    -0.237 OA
ATOM     73  O   UNL A   1      47.819  35.699  27.404  1.00  0.00    -0.744 OA
ENDBRANCH  69  70
ENDBRANCH  48  62
BRANCH  49  74
ATOM     74  C   UNL A   1      38.515  29.465  29.380  1.00  0.00     0.058 A 
ATOM     75  C   UNL A   1      37.583  29.882  30.343  1.00  0.00     0.135 A 
ATOM     76  C   UNL A   1      38.223  29.807  28.041  1.00  0.00     0.135 A 
ATOM     77  F   UNL A   1      37.802  29.636  31.643  1.00  0.00    -0.206 F 
ATOM     78  C   UNL A   1      36.435  30.608  30.001  1.00  0.00     0.059 A 
ATOM     79  C   UNL A   1      37.081  30.514  27.676  1.00  0.00     0.059 A 
ATOM     80  F   UNL A   1      39.088  29.539  27.052  1.00  0.00    -0.206 F 
ATOM     81  C   UNL A   1      36.198  30.927  28.664  1.00  0.00     0.060 A 
BRANCH  81  82
ATOM     82  S   UNL A   1      34.790  31.975  28.232  1.00  0.00     0.124 S 
ATOM     83  O   UNL A   1      34.260  32.323  29.545  1.00  0.00    -0.237 OA
ATOM     84  O   UNL A   1      35.428  33.058  27.492  1.00  0.00    -0.237 OA
ATOM     85  O   UNL A   1      33.944  31.093  27.432  1.00  0.00    -0.744 OA
ENDBRANCH  81  82
ENDBRANCH  49  74
BRANCH  61  86
ATOM     86  C   UNL A   1      43.686  28.349  32.943  1.00  0.00     0.058 A 
ATOM     87  C   UNL A   1      43.520  28.812  34.260  1.00  0.00     0.135 A 
ATOM     88  C   UNL A   1      43.418  26.992  32.703  1.00  0.00     0.135 A 
ATOM     89  F   UNL A   1      43.651  30.113  34.553  1.00  0.00    -0.206 F 
ATOM     90  C   UNL A   1      43.146  27.957  35.298  1.00  0.00     0.059 A 
ATOM     91  C   UNL A   1      43.013  26.128  33.717  1.00  0.00     0.059 A 
ATOM     92  F   UNL A   1      43.494  26.502  31.454  1.00  0.00    -0.206 F 
ATOM     93  C   UNL A   1      42.891  26.615  35.017  1.00  0.00     0.060 A 
BRANCH  93  94
ATOM     94  S   UNL A   1      42.315  25.533  36.344  1.00  0.00     0.124 S 
ATOM     95  O   UNL A   1      43.207  24.386  36.212  1.00  0.00    -0.237 OA
ATOM     96  O   UNL A   1      42.512  26.355  37.534  1.00  0.00    -0.237 OA
ATOM     97  O   UNL A   1      40.919  25.281  35.997  1.00  0.00    -0.744 OA
ENDBRANCH  93  94
ENDBRANCH  61  86
ENDBRANCH  35  36
ENDBRANCH  28  30
ENDBRANCH  27  28
ENDBRANCH  26  27
ENDBRANCH   1  26
TORSDOF 18
ENDMDL
