MODEL 1
REMARK VINA RESULT:     -11.7      0.000      0.000
REMARK SMILES O=C(/C=C/c1ccc(NC(=O)[C@@H]2COc3ccccc3C2)cc1)OCCOCCOC(=O)c1ccc(-c2c3nc(c(-c4c(F)cc(S(=O)(=O)[O-])cc4F)c4ccc([nH]4)c(-c4c(F)cc(S(=O)(=O)[O-])cc4F)c4nc(c(-c5c(F)cc(S(=O)(=O)[O-])cc5F)c5ccc2[nH]5)C=C4)C=C3)cc1
REMARK SMILES IDX 27 1 26 2 25 3 24 4 2 5 1 6 3 7 4 8 5 9 6 10 23 11 7 12
REMARK SMILES IDX 22 13 8 14 9 15 10 16 11 18 12 19 13 20 21 21 14 22 20 23
REMARK SMILES IDX 15 24 19 25 16 26 18 27 17 28 28 29 29 30 30 31 31 32 32 33
REMARK SMILES IDX 33 34 34 35 98 36 35 37 97 38 36 39 37 40 38 41 91 42 39 43
REMARK SMILES IDX 96 44 90 45 92 46 40 47 95 48 89 49 88 50 41 52 75 53 54 54
REMARK SMILES IDX 74 55 55 56 58 57 73 58 93 59 56 60 57 61 72 63 94 64 59 65
REMARK SMILES IDX 42 66 43 67 52 68 44 69 45 70 51 71 53 72 46 73 47 74 48 75
REMARK SMILES IDX 49 76 50 77 76 78 77 79 86 80 78 81 79 82 85 83 87 84 80 85
REMARK SMILES IDX 81 86 82 87 83 88 84 89 60 90 61 91 70 92 62 93 63 94 69 95
REMARK SMILES IDX 71 96 64 97 65 98 66 99 67 100 68 101
REMARK H PARENT 9 17 92 51 58 62
REMARK Flexibility Score: inf
ROOT
ATOM      1  O   UNL A   1      43.594  21.830  24.515  1.00  0.00    -0.374 OA
ENDROOT
BRANCH   1   2
ATOM      2  C   UNL A   1      43.661  21.103  25.740  1.00  0.00     0.202 C 
BRANCH   2   3
ATOM      3  C   UNL A   1      42.395  20.365  26.167  1.00  0.00     0.261 C 
BRANCH   3   4
ATOM      4  O   UNL A   1      41.155  21.025  25.833  1.00  0.00    -0.460 OA
BRANCH   4   5
ATOM      5  C   UNL A   1      40.259  21.572  26.686  1.00  0.00     0.330 C 
ATOM      6  O   UNL A   1      40.404  21.471  27.901  1.00  0.00    -0.247 OA
BRANCH   5   7
ATOM      7  C   UNL A   1      39.019  22.165  26.171  1.00  0.00     0.094 C 
ATOM      8  C   UNL A   1      38.196  21.557  25.312  1.00  0.00     0.015 C 
BRANCH   8   9
ATOM      9  C   UNL A   1      36.891  22.100  24.962  1.00  0.00    -0.025 A 
ATOM     10  C   UNL A   1      35.835  21.983  25.875  1.00  0.00     0.010 A 
ATOM     11  C   UNL A   1      36.670  22.629  23.692  1.00  0.00     0.010 A 
ATOM     12  C   UNL A   1      34.548  22.352  25.498  1.00  0.00     0.027 A 
ATOM     13  C   UNL A   1      35.375  22.950  23.298  1.00  0.00     0.027 A 
ATOM     14  C   UNL A   1      34.322  22.813  24.202  1.00  0.00     0.041 A 
BRANCH  14  15
ATOM     15  N   UNL A   1      33.025  23.037  23.744  1.00  0.00    -0.326 N 
ATOM     16  C   UNL A   1      32.116  23.912  24.256  1.00  0.00     0.231 C 
ATOM     17  H   UNL A   1      32.735  22.505  22.968  1.00  0.00     0.169 HD
ATOM     18  O   UNL A   1      30.923  23.603  24.272  1.00  0.00    -0.274 OA
BRANCH  16  19
ATOM     19  C   UNL A   1      32.555  25.328  24.585  1.00  0.00     0.121 C 
ATOM     20  C   UNL A   1      33.588  25.981  23.672  1.00  0.00     0.243 C 
ATOM     21  C   UNL A   1      32.964  25.669  26.010  1.00  0.00     0.056 C 
ATOM     22  O   UNL A   1      33.455  27.410  23.693  1.00  0.00    -0.492 OA
ATOM     23  C   UNL A   1      32.887  27.181  26.074  1.00  0.00    -0.005 A 
ATOM     24  C   UNL A   1      33.077  27.941  24.903  1.00  0.00     0.122 A 
ATOM     25  C   UNL A   1      32.492  27.826  27.250  1.00  0.00     0.007 A 
ATOM     26  C   UNL A   1      32.765  29.297  24.883  1.00  0.00     0.047 A 
ATOM     27  C   UNL A   1      32.178  29.188  27.222  1.00  0.00     0.001 A 
ATOM     28  C   UNL A   1      32.285  29.914  26.036  1.00  0.00     0.004 A 
ENDBRANCH  16  19
ENDBRANCH  14  15
ENDBRANCH   8   9
ENDBRANCH   5   7
ENDBRANCH   4   5
ENDBRANCH   3   4
ENDBRANCH   2   3
ENDBRANCH   1   2
BRANCH   1  29
ATOM     29  C   UNL A   1      43.709  23.252  24.663  1.00  0.00     0.202 C 
BRANCH  29  30
ATOM     30  C   UNL A   1      43.464  23.778  26.083  1.00  0.00     0.261 C 
BRANCH  30  31
ATOM     31  O   UNL A   1      42.098  24.180  26.264  1.00  0.00    -0.460 OA
BRANCH  31  32
ATOM     32  C   UNL A   1      41.869  25.499  26.054  1.00  0.00     0.338 C 
ATOM     33  O   UNL A   1      41.531  26.027  25.003  1.00  0.00    -0.246 OA
BRANCH  32  34
ATOM     34  C   UNL A   1      41.863  26.209  27.351  1.00  0.00     0.060 A 
ATOM     35  C   UNL A   1      40.840  25.890  28.253  1.00  0.00     0.016 A 
ATOM     36  C   UNL A   1      42.836  27.155  27.689  1.00  0.00     0.016 A 
ATOM     37  C   UNL A   1      40.736  26.571  29.461  1.00  0.00     0.010 A 
ATOM     38  C   UNL A   1      42.731  27.840  28.902  1.00  0.00     0.010 A 
ATOM     39  C   UNL A   1      41.647  27.591  29.762  1.00  0.00    -0.014 A 
BRANCH  39  40
ATOM     40  C   UNL A   1      41.316  28.546  30.844  1.00  0.00     0.031 A 
ATOM     41  C   UNL A   1      42.170  28.528  32.085  1.00  0.00     0.074 A 
ATOM     42  C   UNL A   1      40.325  29.444  30.705  1.00  0.00     0.049 A 
ATOM     43  N   UNL A   1      42.094  29.270  33.158  1.00  0.00    -0.248 NA
ATOM     44  C   UNL A   1      43.256  27.534  32.119  1.00  0.00     0.031 C 
ATOM     45  C   UNL A   1      39.464  29.578  29.530  1.00  0.00     0.029 A 
ATOM     46  N   UNL A   1      39.881  30.418  31.562  1.00  0.00    -0.354 N 
ATOM     47  C   UNL A   1      43.108  28.822  33.998  1.00  0.00     0.074 A 
ATOM     48  C   UNL A   1      43.762  27.722  33.327  1.00  0.00     0.031 C 
ATOM     49  C   UNL A   1      38.596  30.584  29.741  1.00  0.00     0.029 A 
ATOM     50  C   UNL A   1      38.821  31.141  31.073  1.00  0.00     0.049 A 
ATOM     51  H   UNL A   1      40.285  30.583  32.444  1.00  0.00     0.167 HD
ATOM     52  C   UNL A   1      43.468  29.293  35.214  1.00  0.00     0.037 A 
ATOM     53  C   UNL A   1      38.111  32.133  31.646  1.00  0.00     0.037 A 
ATOM     54  C   UNL A   1      42.813  30.395  35.867  1.00  0.00     0.049 A 
ATOM     55  C   UNL A   1      38.495  32.605  33.026  1.00  0.00     0.074 A 
ATOM     56  C   UNL A   1      43.113  30.975  37.087  1.00  0.00     0.029 A 
ATOM     57  N   UNL A   1      41.719  31.080  35.356  1.00  0.00    -0.354 N 
ATOM     58  N   UNL A   1      39.474  32.194  33.797  1.00  0.00    -0.248 NA
ATOM     59  C   UNL A   1      37.683  33.682  33.607  1.00  0.00     0.031 C 
ATOM     60  C   UNL A   1      42.162  31.967  37.342  1.00  0.00     0.029 A 
ATOM     61  C   UNL A   1      41.313  32.057  36.250  1.00  0.00     0.049 A 
ATOM     62  H   UNL A   1      41.295  30.899  34.486  1.00  0.00     0.167 HD
ATOM     63  C   UNL A   1      39.420  32.990  34.939  1.00  0.00     0.074 A 
ATOM     64  C   UNL A   1      38.317  33.909  34.750  1.00  0.00     0.031 C 
ATOM     65  C   UNL A   1      40.214  32.967  36.039  1.00  0.00     0.037 A 
BRANCH  52  66
ATOM     66  C   UNL A   1      44.590  28.592  35.931  1.00  0.00     0.058 A 
ATOM     67  C   UNL A   1      45.933  28.978  35.779  1.00  0.00     0.135 A 
ATOM     68  C   UNL A   1      44.315  27.519  36.795  1.00  0.00     0.135 A 
ATOM     69  F   UNL A   1      46.258  29.983  34.950  1.00  0.00    -0.206 F 
ATOM     70  C   UNL A   1      46.961  28.308  36.434  1.00  0.00     0.059 A 
ATOM     71  C   UNL A   1      45.325  26.855  37.484  1.00  0.00     0.059 A 
ATOM     72  F   UNL A   1      43.052  27.101  36.972  1.00  0.00    -0.206 F 
ATOM     73  C   UNL A   1      46.647  27.247  37.285  1.00  0.00     0.060 A 
BRANCH  73  74
ATOM     74  S   UNL A   1      47.993  26.387  38.126  1.00  0.00     0.124 S 
ATOM     75  O   UNL A   1      47.455  26.254  39.477  1.00  0.00    -0.237 OA
ATOM     76  O   UNL A   1      48.097  25.149  37.361  1.00  0.00    -0.237 OA
ATOM     77  O   UNL A   1      49.121  27.303  37.989  1.00  0.00    -0.744 OA
ENDBRANCH  73  74
ENDBRANCH  52  66
BRANCH  53  78
ATOM     78  C   UNL A   1      36.975  32.757  30.914  1.00  0.00     0.058 A 
ATOM     79  C   UNL A   1      37.182  33.827  30.031  1.00  0.00     0.135 A 
ATOM     80  C   UNL A   1      35.658  32.299  31.084  1.00  0.00     0.135 A 
ATOM     81  F   UNL A   1      38.420  34.309  29.841  1.00  0.00    -0.206 F 
ATOM     82  C   UNL A   1      36.127  34.430  29.354  1.00  0.00     0.059 A 
ATOM     83  C   UNL A   1      34.590  32.868  30.398  1.00  0.00     0.059 A 
ATOM     84  F   UNL A   1      35.405  31.272  31.910  1.00  0.00    -0.206 F 
ATOM     85  C   UNL A   1      34.834  33.941  29.541  1.00  0.00     0.060 A 
BRANCH  85  86
ATOM     86  S   UNL A   1      33.480  34.699  28.618  1.00  0.00     0.124 S 
ATOM     87  O   UNL A   1      32.529  34.997  29.682  1.00  0.00    -0.237 OA
ATOM     88  O   UNL A   1      34.137  35.850  28.006  1.00  0.00    -0.237 OA
ATOM     89  O   UNL A   1      33.079  33.648  27.687  1.00  0.00    -0.744 OA
ENDBRANCH  85  86
ENDBRANCH  53  78
BRANCH  65  90
ATOM     90  C   UNL A   1      39.954  34.003  37.102  1.00  0.00     0.058 A 
ATOM     91  C   UNL A   1      39.134  33.744  38.211  1.00  0.00     0.135 A 
ATOM     92  C   UNL A   1      40.568  35.263  37.023  1.00  0.00     0.135 A 
ATOM     93  F   UNL A   1      38.520  32.555  38.336  1.00  0.00    -0.206 F 
ATOM     94  C   UNL A   1      38.900  34.712  39.183  1.00  0.00     0.059 A 
ATOM     95  C   UNL A   1      40.377  36.233  38.002  1.00  0.00     0.059 A 
ATOM     96  F   UNL A   1      41.377  35.560  35.992  1.00  0.00    -0.206 F 
ATOM     97  C   UNL A   1      39.525  35.954  39.069  1.00  0.00     0.060 A 
BRANCH  97  98
ATOM     98  S   UNL A   1      39.219  37.198  40.340  1.00  0.00     0.124 S 
ATOM     99  O   UNL A   1      40.576  37.618  40.672  1.00  0.00    -0.237 OA
ATOM    100  O   UNL A   1      38.408  38.180  39.625  1.00  0.00    -0.237 OA
ATOM    101  O   UNL A   1      38.518  36.454  41.382  1.00  0.00    -0.744 OA
ENDBRANCH  97  98
ENDBRANCH  65  90
ENDBRANCH  39  40
ENDBRANCH  32  34
ENDBRANCH  31  32
ENDBRANCH  30  31
ENDBRANCH  29  30
ENDBRANCH   1  29
TORSDOF 20
ENDMDL
MODEL 2
REMARK VINA RESULT:     -11.4      5.711     11.912
REMARK SMILES O=C(/C=C/c1ccc(NC(=O)[C@@H]2COc3ccccc3C2)cc1)OCCOCCOC(=O)c1ccc(-c2c3nc(c(-c4c(F)cc(S(=O)(=O)[O-])cc4F)c4ccc([nH]4)c(-c4c(F)cc(S(=O)(=O)[O-])cc4F)c4nc(c(-c5c(F)cc(S(=O)(=O)[O-])cc5F)c5ccc2[nH]5)C=C4)C=C3)cc1
REMARK SMILES IDX 27 1 26 2 25 3 24 4 2 5 1 6 3 7 4 8 5 9 6 10 23 11 7 12
REMARK SMILES IDX 22 13 8 14 9 15 10 16 11 18 12 19 13 20 21 21 14 22 20 23
REMARK SMILES IDX 15 24 19 25 16 26 18 27 17 28 28 29 29 30 30 31 31 32 32 33
REMARK SMILES IDX 33 34 34 35 98 36 35 37 97 38 36 39 37 40 38 41 91 42 39 43
REMARK SMILES IDX 96 44 90 45 92 46 40 47 95 48 89 49 88 50 41 52 75 53 54 54
REMARK SMILES IDX 74 55 55 56 58 57 73 58 93 59 56 60 57 61 72 63 94 64 59 65
REMARK SMILES IDX 42 66 43 67 52 68 44 69 45 70 51 71 53 72 46 73 47 74 48 75
REMARK SMILES IDX 49 76 50 77 76 78 77 79 86 80 78 81 79 82 85 83 87 84 80 85
REMARK SMILES IDX 81 86 82 87 83 88 84 89 60 90 61 91 70 92 62 93 63 94 69 95
REMARK SMILES IDX 71 96 64 97 65 98 66 99 67 100 68 101
REMARK H PARENT 9 17 92 51 58 62
REMARK Flexibility Score: inf
ROOT
ATOM      1  O   UNL A   1      33.463  34.323  30.387  1.00  0.00    -0.374 OA
ENDROOT
BRANCH   1   2
ATOM      2  C   UNL A   1      33.807  34.804  29.090  1.00  0.00     0.202 C 
BRANCH   2   3
ATOM      3  C   UNL A   1      34.206  33.755  28.054  1.00  0.00     0.261 C 
BRANCH   3   4
ATOM      4  O   UNL A   1      33.974  32.385  28.446  1.00  0.00    -0.460 OA
BRANCH   4   5
ATOM      5  C   UNL A   1      34.372  31.267  27.798  1.00  0.00     0.330 C 
ATOM      6  O   UNL A   1      35.552  31.094  27.506  1.00  0.00    -0.247 OA
BRANCH   5   7
ATOM      7  C   UNL A   1      33.376  30.311  27.299  1.00  0.00     0.094 C 
ATOM      8  C   UNL A   1      33.605  29.426  26.325  1.00  0.00     0.015 C 
BRANCH   8   9
ATOM      9  C   UNL A   1      32.655  28.378  25.981  1.00  0.00    -0.025 A 
ATOM     10  C   UNL A   1      32.551  27.251  26.806  1.00  0.00     0.010 A 
ATOM     11  C   UNL A   1      31.939  28.446  24.787  1.00  0.00     0.010 A 
ATOM     12  C   UNL A   1      31.767  26.171  26.411  1.00  0.00     0.027 A 
ATOM     13  C   UNL A   1      31.196  27.347  24.368  1.00  0.00     0.027 A 
ATOM     14  C   UNL A   1      31.112  26.217  25.182  1.00  0.00     0.041 A 
BRANCH  14  15
ATOM     15  N   UNL A   1      30.453  25.094  24.687  1.00  0.00    -0.326 N 
ATOM     16  C   UNL A   1      30.897  24.241  23.723  1.00  0.00     0.231 C 
ATOM     17  H   UNL A   1      29.570  24.896  25.076  1.00  0.00     0.169 HD
ATOM     18  O   UNL A   1      30.091  23.756  22.927  1.00  0.00    -0.274 OA
BRANCH  16  19
ATOM     19  C   UNL A   1      32.326  23.731  23.787  1.00  0.00     0.121 C 
ATOM     20  C   UNL A   1      32.878  23.014  22.559  1.00  0.00     0.243 C 
ATOM     21  C   UNL A   1      32.775  22.923  24.995  1.00  0.00     0.056 C 
ATOM     22  O   UNL A   1      34.306  23.140  22.496  1.00  0.00    -0.492 OA
ATOM     23  C   UNL A   1      34.288  22.983  24.949  1.00  0.00    -0.005 A 
ATOM     24  C   UNL A   1      34.944  23.148  23.714  1.00  0.00     0.122 A 
ATOM     25  C   UNL A   1      35.037  23.018  26.129  1.00  0.00     0.007 A 
ATOM     26  C   UNL A   1      36.301  23.458  23.669  1.00  0.00     0.047 A 
ATOM     27  C   UNL A   1      36.398  23.332  26.078  1.00  0.00     0.001 A 
ATOM     28  C   UNL A   1      37.021  23.580  24.854  1.00  0.00     0.004 A 
ENDBRANCH  16  19
ENDBRANCH  14  15
ENDBRANCH   8   9
ENDBRANCH   5   7
ENDBRANCH   4   5
ENDBRANCH   3   4
ENDBRANCH   2   3
ENDBRANCH   1   2
BRANCH   1  29
ATOM     29  C   UNL A   1      34.568  34.228  31.296  1.00  0.00     0.202 C 
BRANCH  29  30
ATOM     30  C   UNL A   1      34.820  32.827  31.868  1.00  0.00     0.261 C 
BRANCH  30  31
ATOM     31  O   UNL A   1      35.938  32.194  31.229  1.00  0.00    -0.460 OA
BRANCH  31  32
ATOM     32  C   UNL A   1      36.865  31.695  32.083  1.00  0.00     0.338 C 
ATOM     33  O   UNL A   1      36.795  31.663  33.304  1.00  0.00    -0.246 OA
BRANCH  32  34
ATOM     34  C   UNL A   1      37.901  30.971  31.316  1.00  0.00     0.060 A 
ATOM     35  C   UNL A   1      38.787  30.162  32.039  1.00  0.00     0.016 A 
ATOM     36  C   UNL A   1      38.003  31.067  29.925  1.00  0.00     0.016 A 
ATOM     37  C   UNL A   1      39.827  29.509  31.387  1.00  0.00     0.010 A 
ATOM     38  C   UNL A   1      39.050  30.413  29.270  1.00  0.00     0.010 A 
ATOM     39  C   UNL A   1      39.998  29.682  30.008  1.00  0.00    -0.014 A 
BRANCH  39  40
ATOM     40  C   UNL A   1      41.293  29.306  29.397  1.00  0.00     0.031 A 
ATOM     41  C   UNL A   1      42.370  30.357  29.326  1.00  0.00     0.074 A 
ATOM     42  C   UNL A   1      41.527  28.052  28.973  1.00  0.00     0.049 A 
ATOM     43  N   UNL A   1      43.586  30.271  28.855  1.00  0.00    -0.248 NA
ATOM     44  C   UNL A   1      42.024  31.687  29.857  1.00  0.00     0.031 C 
ATOM     45  C   UNL A   1      40.571  26.947  29.032  1.00  0.00     0.029 A 
ATOM     46  N   UNL A   1      42.649  27.499  28.410  1.00  0.00    -0.354 N 
ATOM     47  C   UNL A   1      44.143  31.535  29.018  1.00  0.00     0.074 A 
ATOM     48  C   UNL A   1      43.122  32.379  29.597  1.00  0.00     0.031 C 
ATOM     49  C   UNL A   1      41.152  25.842  28.529  1.00  0.00     0.029 A 
ATOM     50  C   UNL A   1      42.506  26.172  28.087  1.00  0.00     0.049 A 
ATOM     51  H   UNL A   1      43.478  28.005  28.255  1.00  0.00     0.167 HD
ATOM     52  C   UNL A   1      45.395  31.952  28.721  1.00  0.00     0.037 A 
ATOM     53  C   UNL A   1      43.371  25.327  27.491  1.00  0.00     0.037 A 
ATOM     54  C   UNL A   1      46.405  31.099  28.152  1.00  0.00     0.049 A 
ATOM     55  C   UNL A   1      44.743  25.829  27.119  1.00  0.00     0.074 A 
ATOM     56  C   UNL A   1      47.716  31.408  27.838  1.00  0.00     0.029 A 
ATOM     57  N   UNL A   1      46.212  29.769  27.804  1.00  0.00    -0.354 N 
ATOM     58  N   UNL A   1      45.268  27.017  27.305  1.00  0.00    -0.248 NA
ATOM     59  C   UNL A   1      45.644  24.870  26.464  1.00  0.00     0.031 C 
ATOM     60  C   UNL A   1      48.296  30.284  27.242  1.00  0.00     0.029 A 
ATOM     61  C   UNL A   1      47.370  29.251  27.251  1.00  0.00     0.049 A 
ATOM     62  H   UNL A   1      45.374  29.267  27.934  1.00  0.00     0.167 HD
ATOM     63  C   UNL A   1      46.573  26.938  26.826  1.00  0.00     0.074 A 
ATOM     64  C   UNL A   1      46.757  25.581  26.350  1.00  0.00     0.031 C 
ATOM     65  C   UNL A   1      47.535  27.895  26.789  1.00  0.00     0.037 A 
BRANCH  52  66
ATOM     66  C   UNL A   1      45.726  33.400  28.967  1.00  0.00     0.058 A 
ATOM     67  C   UNL A   1      46.231  33.853  30.197  1.00  0.00     0.135 A 
ATOM     68  C   UNL A   1      45.545  34.348  27.947  1.00  0.00     0.135 A 
ATOM     69  F   UNL A   1      46.404  32.996  31.215  1.00  0.00    -0.206 F 
ATOM     70  C   UNL A   1      46.515  35.198  30.415  1.00  0.00     0.059 A 
ATOM     71  C   UNL A   1      45.853  35.692  28.133  1.00  0.00     0.059 A 
ATOM     72  F   UNL A   1      45.059  33.973  26.754  1.00  0.00    -0.206 F 
ATOM     73  C   UNL A   1      46.323  36.110  29.376  1.00  0.00     0.060 A 
BRANCH  73  74
ATOM     74  S   UNL A   1      46.695  37.851  29.676  1.00  0.00     0.124 S 
ATOM     75  O   UNL A   1      46.957  38.330  28.321  1.00  0.00    -0.237 OA
ATOM     76  O   UNL A   1      45.461  38.331  30.289  1.00  0.00    -0.237 OA
ATOM     77  O   UNL A   1      47.856  37.804  30.559  1.00  0.00    -0.744 OA
ENDBRANCH  73  74
ENDBRANCH  52  66
BRANCH  53  78
ATOM     78  C   UNL A   1      42.974  23.918  27.222  1.00  0.00     0.058 A 
ATOM     79  C   UNL A   1      42.646  23.492  25.926  1.00  0.00     0.135 A 
ATOM     80  C   UNL A   1      42.913  22.968  28.255  1.00  0.00     0.135 A 
ATOM     81  F   UNL A   1      42.680  24.363  24.906  1.00  0.00    -0.206 F 
ATOM     82  C   UNL A   1      42.257  22.182  25.665  1.00  0.00     0.059 A 
ATOM     83  C   UNL A   1      42.553  21.646  28.014  1.00  0.00     0.059 A 
ATOM     84  F   UNL A   1      43.225  23.320  29.512  1.00  0.00    -0.206 F 
ATOM     85  C   UNL A   1      42.218  21.265  26.715  1.00  0.00     0.060 A 
BRANCH  85  86
ATOM     86  S   UNL A   1      41.761  19.555  26.354  1.00  0.00     0.124 S 
ATOM     87  O   UNL A   1      42.474  19.319  25.104  1.00  0.00    -0.237 OA
ATOM     88  O   UNL A   1      42.272  18.850  27.526  1.00  0.00    -0.237 OA
ATOM     89  O   UNL A   1      40.306  19.611  26.251  1.00  0.00    -0.744 OA
ENDBRANCH  85  86
ENDBRANCH  53  78
BRANCH  65  90
ATOM     90  C   UNL A   1      48.890  27.496  26.266  1.00  0.00     0.058 A 
ATOM     91  C   UNL A   1      49.929  27.092  27.118  1.00  0.00     0.135 A 
ATOM     92  C   UNL A   1      49.136  27.486  24.883  1.00  0.00     0.135 A 
ATOM     93  F   UNL A   1      49.749  27.084  28.449  1.00  0.00    -0.206 F 
ATOM     94  C   UNL A   1      51.177  26.729  26.620  1.00  0.00     0.059 A 
ATOM     95  C   UNL A   1      50.365  27.093  24.362  1.00  0.00     0.059 A 
ATOM     96  F   UNL A   1      48.172  27.848  24.020  1.00  0.00    -0.206 F 
ATOM     97  C   UNL A   1      51.385  26.735  25.240  1.00  0.00     0.060 A 
BRANCH  97  98
ATOM     98  S   UNL A   1      53.006  26.256  24.606  1.00  0.00     0.124 S 
ATOM     99  O   UNL A   1      53.869  27.254  25.225  1.00  0.00    -0.237 OA
ATOM    100  O   UNL A   1      53.147  24.893  25.112  1.00  0.00    -0.237 OA
ATOM    101  O   UNL A   1      52.852  26.367  23.158  1.00  0.00    -0.744 OA
ENDBRANCH  97  98
ENDBRANCH  65  90
ENDBRANCH  39  40
ENDBRANCH  32  34
ENDBRANCH  31  32
ENDBRANCH  30  31
ENDBRANCH  29  30
ENDBRANCH   1  29
TORSDOF 20
ENDMDL
MODEL 3
REMARK VINA RESULT:     -11.3      1.413      2.325
REMARK SMILES O=C(/C=C/c1ccc(NC(=O)[C@@H]2COc3ccccc3C2)cc1)OCCOCCOC(=O)c1ccc(-c2c3nc(c(-c4c(F)cc(S(=O)(=O)[O-])cc4F)c4ccc([nH]4)c(-c4c(F)cc(S(=O)(=O)[O-])cc4F)c4nc(c(-c5c(F)cc(S(=O)(=O)[O-])cc5F)c5ccc2[nH]5)C=C4)C=C3)cc1
REMARK SMILES IDX 27 1 26 2 25 3 24 4 2 5 1 6 3 7 4 8 5 9 6 10 23 11 7 12
REMARK SMILES IDX 22 13 8 14 9 15 10 16 11 18 12 19 13 20 21 21 14 22 20 23
REMARK SMILES IDX 15 24 19 25 16 26 18 27 17 28 28 29 29 30 30 31 31 32 32 33
REMARK SMILES IDX 33 34 34 35 98 36 35 37 97 38 36 39 37 40 38 41 91 42 39 43
REMARK SMILES IDX 96 44 90 45 92 46 40 47 95 48 89 49 88 50 41 52 75 53 54 54
REMARK SMILES IDX 74 55 55 56 58 57 73 58 93 59 56 60 57 61 72 63 94 64 59 65
REMARK SMILES IDX 42 66 43 67 52 68 44 69 45 70 51 71 53 72 46 73 47 74 48 75
REMARK SMILES IDX 49 76 50 77 76 78 77 79 86 80 78 81 79 82 85 83 87 84 80 85
REMARK SMILES IDX 81 86 82 87 83 88 84 89 60 90 61 91 70 92 62 93 63 94 69 95
REMARK SMILES IDX 71 96 64 97 65 98 66 99 67 100 68 101
REMARK H PARENT 9 17 92 51 58 62
REMARK Flexibility Score: inf
ROOT
ATOM      1  O   UNL A   1      42.205  21.565  27.325  1.00  0.00    -0.374 OA
ENDROOT
BRANCH   1   2
ATOM      2  C   UNL A   1      40.856  21.106  27.323  1.00  0.00     0.202 C 
BRANCH   2   3
ATOM      3  C   UNL A   1      39.789  22.118  26.914  1.00  0.00     0.261 C 
BRANCH   3   4
ATOM      4  O   UNL A   1      39.128  21.842  25.660  1.00  0.00    -0.460 OA
BRANCH   4   5
ATOM      5  C   UNL A   1      38.158  20.930  25.425  1.00  0.00     0.330 C 
ATOM      6  O   UNL A   1      38.418  19.856  24.888  1.00  0.00    -0.247 OA
BRANCH   5   7
ATOM      7  C   UNL A   1      36.752  21.271  25.673  1.00  0.00     0.094 C 
ATOM      8  C   UNL A   1      35.916  21.738  24.741  1.00  0.00     0.015 C 
BRANCH   8   9
ATOM      9  C   UNL A   1      34.489  21.896  24.979  1.00  0.00    -0.025 A 
ATOM     10  C   UNL A   1      33.665  22.330  23.932  1.00  0.00     0.010 A 
ATOM     11  C   UNL A   1      33.968  21.722  26.260  1.00  0.00     0.010 A 
ATOM     12  C   UNL A   1      32.331  22.637  24.180  1.00  0.00     0.027 A 
ATOM     13  C   UNL A   1      32.648  22.076  26.518  1.00  0.00     0.027 A 
ATOM     14  C   UNL A   1      31.836  22.530  25.479  1.00  0.00     0.041 A 
BRANCH  14  15
ATOM     15  N   UNL A   1      30.555  22.980  25.790  1.00  0.00    -0.326 N 
ATOM     16  C   UNL A   1      30.224  24.148  26.406  1.00  0.00     0.231 C 
ATOM     17  H   UNL A   1      29.808  22.389  25.537  1.00  0.00     0.169 HD
ATOM     18  O   UNL A   1      29.273  24.168  27.191  1.00  0.00    -0.274 OA
BRANCH  16  19
ATOM     19  C   UNL A   1      30.879  25.439  25.948  1.00  0.00     0.121 C 
ATOM     20  C   UNL A   1      30.890  25.737  24.453  1.00  0.00     0.243 C 
ATOM     21  C   UNL A   1      32.264  25.796  26.468  1.00  0.00     0.056 C 
ATOM     22  O   UNL A   1      30.949  27.151  24.216  1.00  0.00    -0.492 OA
ATOM     23  C   UNL A   1      32.398  27.280  26.198  1.00  0.00    -0.005 A 
ATOM     24  C   UNL A   1      31.685  27.864  25.132  1.00  0.00     0.122 A 
ATOM     25  C   UNL A   1      33.108  28.105  27.076  1.00  0.00     0.007 A 
ATOM     26  C   UNL A   1      31.592  29.248  25.019  1.00  0.00     0.047 A 
ATOM     27  C   UNL A   1      33.007  29.493  26.958  1.00  0.00     0.001 A 
ATOM     28  C   UNL A   1      32.228  30.063  25.951  1.00  0.00     0.004 A 
ENDBRANCH  16  19
ENDBRANCH  14  15
ENDBRANCH   8   9
ENDBRANCH   5   7
ENDBRANCH   4   5
ENDBRANCH   3   4
ENDBRANCH   2   3
ENDBRANCH   1   2
BRANCH   1  29
ATOM     29  C   UNL A   1      42.921  21.305  26.110  1.00  0.00     0.202 C 
BRANCH  29  30
ATOM     30  C   UNL A   1      43.536  22.543  25.442  1.00  0.00     0.261 C 
BRANCH  30  31
ATOM     31  O   UNL A   1      42.637  23.661  25.485  1.00  0.00    -0.460 OA
BRANCH  31  32
ATOM     32  C   UNL A   1      43.247  24.870  25.538  1.00  0.00     0.338 C 
ATOM     33  O   UNL A   1      44.108  25.292  24.778  1.00  0.00    -0.246 OA
BRANCH  32  34
ATOM     34  C   UNL A   1      42.560  25.723  26.530  1.00  0.00     0.060 A 
ATOM     35  C   UNL A   1      42.909  27.080  26.563  1.00  0.00     0.016 A 
ATOM     36  C   UNL A   1      41.588  25.222  27.402  1.00  0.00     0.016 A 
ATOM     37  C   UNL A   1      42.351  27.923  27.518  1.00  0.00     0.010 A 
ATOM     38  C   UNL A   1      41.029  26.068  28.363  1.00  0.00     0.010 A 
ATOM     39  C   UNL A   1      41.455  27.404  28.460  1.00  0.00    -0.014 A 
BRANCH  39  40
ATOM     40  C   UNL A   1      41.164  28.195  29.678  1.00  0.00     0.031 A 
ATOM     41  C   UNL A   1      42.042  27.982  30.883  1.00  0.00     0.074 A 
ATOM     42  C   UNL A   1      40.188  29.120  29.694  1.00  0.00     0.049 A 
ATOM     43  N   UNL A   1      42.000  28.559  32.054  1.00  0.00    -0.248 NA
ATOM     44  C   UNL A   1      43.109  26.976  30.747  1.00  0.00     0.031 C 
ATOM     45  C   UNL A   1      39.307  29.438  28.571  1.00  0.00     0.029 A 
ATOM     46  N   UNL A   1      39.779  29.964  30.694  1.00  0.00    -0.354 N 
ATOM     47  C   UNL A   1      43.022  27.976  32.797  1.00  0.00     0.074 A 
ATOM     48  C   UNL A   1      43.642  26.976  31.958  1.00  0.00     0.031 C 
ATOM     49  C   UNL A   1      38.462  30.416  28.945  1.00  0.00     0.029 A 
ATOM     50  C   UNL A   1      38.724  30.768  30.340  1.00  0.00     0.049 A 
ATOM     51  H   UNL A   1      40.204  29.991  31.581  1.00  0.00     0.167 HD
ATOM     52  C   UNL A   1      43.415  28.258  34.061  1.00  0.00     0.037 A 
ATOM     53  C   UNL A   1      38.044  31.677  31.067  1.00  0.00     0.037 A 
ATOM     54  C   UNL A   1      42.795  29.263  34.883  1.00  0.00     0.049 A 
ATOM     55  C   UNL A   1      38.465  31.935  32.492  1.00  0.00     0.074 A 
ATOM     56  C   UNL A   1      43.130  29.651  36.168  1.00  0.00     0.029 A 
ATOM     57  N   UNL A   1      41.704  30.033  34.502  1.00  0.00    -0.354 N 
ATOM     58  N   UNL A   1      39.451  31.399  33.173  1.00  0.00    -0.248 NA
ATOM     59  C   UNL A   1      37.686  32.928  33.244  1.00  0.00     0.031 C 
ATOM     60  C   UNL A   1      42.203  30.611  36.586  1.00  0.00     0.029 A 
ATOM     61  C   UNL A   1      41.334  30.874  35.538  1.00  0.00     0.049 A 
ATOM     62  H   UNL A   1      41.260  29.988  33.625  1.00  0.00     0.167 HD
ATOM     63  C   UNL A   1      39.435  32.019  34.420  1.00  0.00     0.074 A 
ATOM     64  C   UNL A   1      38.345  32.974  34.393  1.00  0.00     0.031 C 
ATOM     65  C   UNL A   1      40.250  31.823  35.488  1.00  0.00     0.037 A 
BRANCH  52  66
ATOM     66  C   UNL A   1      44.538  27.441  34.642  1.00  0.00     0.058 A 
ATOM     67  C   UNL A   1      45.882  27.835  34.537  1.00  0.00     0.135 A 
ATOM     68  C   UNL A   1      44.260  26.246  35.326  1.00  0.00     0.135 A 
ATOM     69  F   UNL A   1      46.209  28.956  33.875  1.00  0.00    -0.206 F 
ATOM     70  C   UNL A   1      46.911  27.060  35.063  1.00  0.00     0.059 A 
ATOM     71  C   UNL A   1      45.271  25.472  35.887  1.00  0.00     0.059 A 
ATOM     72  F   UNL A   1      42.995  25.817  35.450  1.00  0.00    -0.206 F 
ATOM     73  C   UNL A   1      46.595  25.879  35.737  1.00  0.00     0.060 A 
BRANCH  73  74
ATOM     74  S   UNL A   1      47.941  24.883  36.413  1.00  0.00     0.124 S 
ATOM     75  O   UNL A   1      47.843  23.673  35.602  1.00  0.00    -0.237 OA
ATOM     76  O   UNL A   1      49.106  25.723  36.158  1.00  0.00    -0.237 OA
ATOM     77  O   UNL A   1      47.577  24.727  37.817  1.00  0.00    -0.744 OA
ENDBRANCH  73  74
ENDBRANCH  52  66
BRANCH  53  78
ATOM     78  C   UNL A   1      36.907  32.420  30.461  1.00  0.00     0.058 A 
ATOM     79  C   UNL A   1      35.578  32.073  30.749  1.00  0.00     0.135 A 
ATOM     80  C   UNL A   1      37.123  33.492  29.579  1.00  0.00     0.135 A 
ATOM     81  F   UNL A   1      35.317  31.051  31.578  1.00  0.00    -0.206 F 
ATOM     82  C   UNL A   1      34.506  32.749  30.175  1.00  0.00     0.059 A 
ATOM     83  C   UNL A   1      36.068  34.201  29.014  1.00  0.00     0.059 A 
ATOM     84  F   UNL A   1      38.374  33.872  29.276  1.00  0.00    -0.206 F 
ATOM     85  C   UNL A   1      34.761  33.815  29.311  1.00  0.00     0.060 A 
BRANCH  85  86
ATOM     86  S   UNL A   1      33.361  34.717  28.614  1.00  0.00     0.124 S 
ATOM     87  O   UNL A   1      32.858  33.765  27.631  1.00  0.00    -0.237 OA
ATOM     88  O   UNL A   1      32.520  34.929  29.789  1.00  0.00    -0.237 OA
ATOM     89  O   UNL A   1      33.977  35.923  28.068  1.00  0.00    -0.744 OA
ENDBRANCH  85  86
ENDBRANCH  53  78
BRANCH  65  90
ATOM     90  C   UNL A   1      40.030  32.695  36.696  1.00  0.00     0.058 A 
ATOM     91  C   UNL A   1      40.837  33.811  36.967  1.00  0.00     0.135 A 
ATOM     92  C   UNL A   1      38.969  32.426  37.576  1.00  0.00     0.135 A 
ATOM     93  F   UNL A   1      41.867  34.114  36.160  1.00  0.00    -0.206 F 
ATOM     94  C   UNL A   1      40.624  34.605  38.090  1.00  0.00     0.059 A 
ATOM     95  C   UNL A   1      38.716  33.228  38.685  1.00  0.00     0.059 A 
ATOM     96  F   UNL A   1      38.155  31.380  37.356  1.00  0.00    -0.206 F 
ATOM     97  C   UNL A   1      39.561  34.304  38.943  1.00  0.00     0.060 A 
BRANCH  97  98
ATOM     98  S   UNL A   1      39.292  35.347  40.392  1.00  0.00     0.124 S 
ATOM     99  O   UNL A   1      40.573  35.233  41.078  1.00  0.00    -0.237 OA
ATOM    100  O   UNL A   1      39.006  36.646  39.791  1.00  0.00    -0.237 OA
ATOM    101  O   UNL A   1      38.161  34.711  41.062  1.00  0.00    -0.744 OA
ENDBRANCH  97  98
ENDBRANCH  65  90
ENDBRANCH  39  40
ENDBRANCH  32  34
ENDBRANCH  31  32
ENDBRANCH  30  31
ENDBRANCH  29  30
ENDBRANCH   1  29
TORSDOF 20
ENDMDL
