MODEL 1
REMARK VINA RESULT:     -11.6      0.000      0.000
REMARK SMILES CCn1nc(C)c(NS(=O)(=O)c2cc(C(=O)OCCOCCOC(=O)c3ccc(-c4c5nc(c(-c6c(F)cc(S(=O)(=O)[O-])cc6F)c6ccc([nH]6)c(-c6c(F)cc(S(=O)(=O)[O-])cc6F)c6nc(c(-c7c(F)cc(S(=O)(=O)[O-])cc7F)c7ccc4[nH]7)C=C6)C=C5)cc3)cc(F)c2C)c1C
REMARK SMILES IDX 19 1 18 2 17 3 15 4 16 5 14 6 12 7 13 8 95 9 93 10 96 11
REMARK SMILES IDX 92 12 94 13 9 14 10 15 11 16 8 17 7 19 3 20 4 21 97 22 5 23
REMARK SMILES IDX 98 24 6 25 2 26 1 27 20 28 21 29 22 30 23 31 24 32 25 33
REMARK SMILES IDX 26 34 27 35 91 36 28 37 90 38 29 39 30 40 31 41 84 42 32 43
REMARK SMILES IDX 89 44 83 45 85 46 33 47 88 48 82 49 81 50 34 52 68 53 47 54
REMARK SMILES IDX 67 55 48 56 51 57 66 58 86 59 49 60 50 61 65 63 87 64 52 65
REMARK SMILES IDX 35 66 36 67 45 68 37 69 38 70 44 71 46 72 39 73 40 74 41 75
REMARK SMILES IDX 42 76 43 77 69 78 70 79 79 80 71 81 72 82 78 83 80 84 73 85
REMARK SMILES IDX 74 86 75 87 76 88 77 89 53 90 54 91 63 92 55 93 56 94 62 95
REMARK SMILES IDX 64 96 57 97 58 98 59 99 60 100 61 101
REMARK H PARENT 8 18 85 51 51 62
REMARK Flexibility Score: inf
ROOT
ATOM      1  C   UNL A   1      40.319  22.419  26.345  1.00  0.00     0.202 C 
ENDROOT
BRANCH   1   2
ATOM      2  C   UNL A   1      39.259  21.306  26.299  1.00  0.00     0.261 C 
BRANCH   2   3
ATOM      3  O   UNL A   1      38.176  21.569  25.387  1.00  0.00    -0.460 OA
BRANCH   3   4
ATOM      4  C   UNL A   1      37.450  20.490  25.012  1.00  0.00     0.338 C 
ATOM      5  O   UNL A   1      37.858  19.377  24.734  1.00  0.00    -0.246 OA
BRANCH   4   6
ATOM      6  C   UNL A   1      36.009  20.831  25.016  1.00  0.00     0.064 A 
ATOM      7  C   UNL A   1      34.251  22.463  24.641  1.00  0.00     0.094 A 
ATOM      8  C   UNL A   1      35.602  22.156  24.909  1.00  0.00     0.038 A 
ATOM      9  C   UNL A   1      33.270  21.457  24.657  1.00  0.00     0.005 A 
ATOM     10  C   UNL A   1      33.711  20.135  24.840  1.00  0.00     0.128 A 
ATOM     11  C   UNL A   1      31.804  21.663  24.409  1.00  0.00     0.049 C 
ATOM     12  C   UNL A   1      35.061  19.811  24.977  1.00  0.00     0.055 A 
ATOM     13  F   UNL A   1      32.822  19.132  24.782  1.00  0.00    -0.207 F 
BRANCH   7  14
ATOM     14  S   UNL A   1      33.953  24.134  24.130  1.00  0.00     0.262 S 
ATOM     15  O   UNL A   1      33.461  24.104  22.765  1.00  0.00    -0.201 OA
ATOM     16  O   UNL A   1      35.132  24.898  24.467  1.00  0.00    -0.201 OA
BRANCH  14  17
ATOM     17  N   UNL A   1      32.725  24.801  25.038  1.00  0.00    -0.276 N 
ATOM     18  H   UNL A   1      32.470  24.239  25.806  1.00  0.00     0.180 HD
BRANCH  17  19
ATOM     19  C   UNL A   1      31.976  25.977  24.955  1.00  0.00     0.093 A 
ATOM     20  N   UNL A   1      30.574  27.382  24.009  1.00  0.00    -0.268 N 
ATOM     21  N   UNL A   1      31.173  28.109  24.967  1.00  0.00    -0.176 NA
ATOM     22  C   UNL A   1      30.864  26.049  24.126  1.00  0.00     0.060 A 
ATOM     23  C   UNL A   1      32.005  27.253  25.580  1.00  0.00     0.084 A 
ATOM     24  C   UNL A   1      30.118  24.933  23.493  1.00  0.00     0.069 C 
ATOM     25  C   UNL A   1      32.761  27.783  26.736  1.00  0.00     0.071 C 
BRANCH  20  26
ATOM     26  C   UNL A   1      29.929  28.120  22.938  1.00  0.00     0.141 C 
ATOM     27  C   UNL A   1      30.669  29.310  22.356  1.00  0.00     0.029 C 
ENDBRANCH  20  26
ENDBRANCH  17  19
ENDBRANCH  14  17
ENDBRANCH   7  14
ENDBRANCH   4   6
ENDBRANCH   3   4
ENDBRANCH   2   3
ENDBRANCH   1   2
BRANCH   1  28
ATOM     28  O   UNL A   1      41.584  21.958  25.901  1.00  0.00    -0.374 OA
BRANCH  28  29
ATOM     29  C   UNL A   1      42.573  22.935  25.587  1.00  0.00     0.202 C 
BRANCH  29  30
ATOM     30  C   UNL A   1      43.234  23.814  26.654  1.00  0.00     0.261 C 
BRANCH  30  31
ATOM     31  O   UNL A   1      42.468  24.853  27.258  1.00  0.00    -0.460 OA
BRANCH  31  32
ATOM     32  C   UNL A   1      41.786  25.630  26.395  1.00  0.00     0.338 C 
ATOM     33  O   UNL A   1      42.039  25.790  25.211  1.00  0.00    -0.246 OA
BRANCH  32  34
ATOM     34  C   UNL A   1      40.755  26.407  27.114  1.00  0.00     0.060 A 
ATOM     35  C   UNL A   1      40.389  27.623  26.520  1.00  0.00     0.016 A 
ATOM     36  C   UNL A   1      40.631  26.193  28.491  1.00  0.00     0.016 A 
ATOM     37  C   UNL A   1      40.210  28.722  27.340  1.00  0.00     0.010 A 
ATOM     38  C   UNL A   1      40.481  27.294  29.301  1.00  0.00     0.010 A 
ATOM     39  C   UNL A   1      40.383  28.554  28.715  1.00  0.00    -0.014 A 
BRANCH  39  40
ATOM     40  C   UNL A   1      40.470  29.682  29.619  1.00  0.00     0.031 A 
ATOM     41  C   UNL A   1      39.345  30.618  29.580  1.00  0.00     0.074 A 
ATOM     42  C   UNL A   1      41.555  29.861  30.404  1.00  0.00     0.049 A 
ATOM     43  N   UNL A   1      39.455  31.886  29.732  1.00  0.00    -0.248 NA
ATOM     44  C   UNL A   1      37.988  30.187  29.254  1.00  0.00     0.031 C 
ATOM     45  C   UNL A   1      41.771  30.877  31.423  1.00  0.00     0.029 A 
ATOM     46  N   UNL A   1      42.805  29.244  30.283  1.00  0.00    -0.354 N 
ATOM     47  C   UNL A   1      38.179  32.390  29.847  1.00  0.00     0.074 A 
ATOM     48  C   UNL A   1      37.311  31.330  29.395  1.00  0.00     0.031 C 
ATOM     49  C   UNL A   1      43.097  31.032  31.598  1.00  0.00     0.029 A 
ATOM     50  C   UNL A   1      43.783  30.205  30.615  1.00  0.00     0.049 A 
ATOM     51  H   UNL A   1      42.971  28.312  30.014  1.00  0.00     0.167 HD
ATOM     52  C   UNL A   1      38.015  33.586  30.476  1.00  0.00     0.037 A 
ATOM     53  C   UNL A   1      44.659  30.666  29.663  1.00  0.00     0.037 A 
ATOM     54  C   UNL A   1      39.319  34.111  30.892  1.00  0.00     0.049 A 
ATOM     55  C   UNL A   1      44.426  32.101  29.273  1.00  0.00     0.074 A 
ATOM     56  C   UNL A   1      40.049  34.026  32.066  1.00  0.00     0.029 A 
ATOM     57  N   UNL A   1      40.215  34.495  29.918  1.00  0.00    -0.354 N 
ATOM     58  N   UNL A   1      43.428  32.811  29.722  1.00  0.00    -0.248 NA
ATOM     59  C   UNL A   1      45.247  32.839  28.317  1.00  0.00     0.031 C 
ATOM     60  C   UNL A   1      41.405  34.353  31.769  1.00  0.00     0.029 A 
ATOM     61  C   UNL A   1      41.490  34.655  30.421  1.00  0.00     0.049 A 
ATOM     62  H   UNL A   1      39.976  34.638  28.974  1.00  0.00     0.167 HD
ATOM     63  C   UNL A   1      43.461  34.057  29.172  1.00  0.00     0.074 A 
ATOM     64  C   UNL A   1      44.600  34.018  28.268  1.00  0.00     0.031 C 
ATOM     65  C   UNL A   1      42.552  35.021  29.501  1.00  0.00     0.037 A 
BRANCH  52  66
ATOM     66  C   UNL A   1      36.701  34.155  30.953  1.00  0.00     0.058 A 
ATOM     67  C   UNL A   1      35.639  34.319  30.036  1.00  0.00     0.135 A 
ATOM     68  C   UNL A   1      36.409  34.561  32.272  1.00  0.00     0.135 A 
ATOM     69  F   UNL A   1      35.743  33.926  28.760  1.00  0.00    -0.206 F 
ATOM     70  C   UNL A   1      34.417  34.895  30.380  1.00  0.00     0.059 A 
ATOM     71  C   UNL A   1      35.206  35.181  32.631  1.00  0.00     0.059 A 
ATOM     72  F   UNL A   1      37.253  34.324  33.283  1.00  0.00    -0.206 F 
ATOM     73  C   UNL A   1      34.212  35.341  31.677  1.00  0.00     0.060 A 
BRANCH  73  74
ATOM     74  S   UNL A   1      32.622  36.078  32.087  1.00  0.00     0.124 S 
ATOM     75  O   UNL A   1      32.266  36.753  30.843  1.00  0.00    -0.237 OA
ATOM     76  O   UNL A   1      31.822  34.905  32.424  1.00  0.00    -0.237 OA
ATOM     77  O   UNL A   1      32.934  36.964  33.205  1.00  0.00    -0.744 OA
ENDBRANCH  73  74
ENDBRANCH  52  66
BRANCH  53  78
ATOM     78  C   UNL A   1      45.301  29.608  28.794  1.00  0.00     0.058 A 
ATOM     79  C   UNL A   1      45.248  29.920  27.424  1.00  0.00     0.135 A 
ATOM     80  C   UNL A   1      46.508  29.087  29.268  1.00  0.00     0.135 A 
ATOM     81  F   UNL A   1      44.072  30.206  26.847  1.00  0.00    -0.206 F 
ATOM     82  C   UNL A   1      46.410  30.215  26.723  1.00  0.00     0.059 A 
ATOM     83  C   UNL A   1      47.690  29.426  28.610  1.00  0.00     0.059 A 
ATOM     84  F   UNL A   1      46.573  28.587  30.512  1.00  0.00    -0.206 F 
ATOM     85  C   UNL A   1      47.614  30.134  27.409  1.00  0.00     0.060 A 
BRANCH  85  86
ATOM     86  S   UNL A   1      48.821  31.451  27.037  1.00  0.00     0.124 S 
ATOM     87  O   UNL A   1      49.897  30.720  26.377  1.00  0.00    -0.237 OA
ATOM     88  O   UNL A   1      48.036  32.346  26.192  1.00  0.00    -0.237 OA
ATOM     89  O   UNL A   1      49.149  32.018  28.336  1.00  0.00    -0.744 OA
ENDBRANCH  85  86
ENDBRANCH  53  78
BRANCH  65  90
ATOM     90  C   UNL A   1      42.593  36.405  28.928  1.00  0.00     0.058 A 
ATOM     91  C   UNL A   1      43.228  37.468  29.586  1.00  0.00     0.135 A 
ATOM     92  C   UNL A   1      41.930  36.730  27.722  1.00  0.00     0.135 A 
ATOM     93  F   UNL A   1      43.766  37.301  30.806  1.00  0.00    -0.206 F 
ATOM     94  C   UNL A   1      43.334  38.731  29.013  1.00  0.00     0.059 A 
ATOM     95  C   UNL A   1      41.966  37.997  27.164  1.00  0.00     0.059 A 
ATOM     96  F   UNL A   1      41.258  35.819  27.007  1.00  0.00    -0.206 F 
ATOM     97  C   UNL A   1      42.721  38.975  27.787  1.00  0.00     0.060 A 
BRANCH  97  98
ATOM     98  S   UNL A   1      42.943  40.568  26.990  1.00  0.00     0.124 S 
ATOM     99  O   UNL A   1      43.534  41.373  28.053  1.00  0.00    -0.237 OA
ATOM    100  O   UNL A   1      43.837  40.214  25.891  1.00  0.00    -0.237 OA
ATOM    101  O   UNL A   1      41.588  40.947  26.601  1.00  0.00    -0.744 OA
ENDBRANCH  97  98
ENDBRANCH  65  90
ENDBRANCH  39  40
ENDBRANCH  32  34
ENDBRANCH  31  32
ENDBRANCH  30  31
ENDBRANCH  29  30
ENDBRANCH  28  29
ENDBRANCH   1  28
TORSDOF 21
ENDMDL
MODEL 2
REMARK VINA RESULT:     -11.6      2.012      2.615
REMARK SMILES CCn1nc(C)c(NS(=O)(=O)c2cc(C(=O)OCCOCCOC(=O)c3ccc(-c4c5nc(c(-c6c(F)cc(S(=O)(=O)[O-])cc6F)c6ccc([nH]6)c(-c6c(F)cc(S(=O)(=O)[O-])cc6F)c6nc(c(-c7c(F)cc(S(=O)(=O)[O-])cc7F)c7ccc4[nH]7)C=C6)C=C5)cc3)cc(F)c2C)c1C
REMARK SMILES IDX 19 1 18 2 17 3 15 4 16 5 14 6 12 7 13 8 95 9 93 10 96 11
REMARK SMILES IDX 92 12 94 13 9 14 10 15 11 16 8 17 7 19 3 20 4 21 97 22 5 23
REMARK SMILES IDX 98 24 6 25 2 26 1 27 20 28 21 29 22 30 23 31 24 32 25 33
REMARK SMILES IDX 26 34 27 35 91 36 28 37 90 38 29 39 30 40 31 41 84 42 32 43
REMARK SMILES IDX 89 44 83 45 85 46 33 47 88 48 82 49 81 50 34 52 68 53 47 54
REMARK SMILES IDX 67 55 48 56 51 57 66 58 86 59 49 60 50 61 65 63 87 64 52 65
REMARK SMILES IDX 35 66 36 67 45 68 37 69 38 70 44 71 46 72 39 73 40 74 41 75
REMARK SMILES IDX 42 76 43 77 69 78 70 79 79 80 71 81 72 82 78 83 80 84 73 85
REMARK SMILES IDX 74 86 75 87 76 88 77 89 53 90 54 91 63 92 55 93 56 94 62 95
REMARK SMILES IDX 64 96 57 97 58 98 59 99 60 100 61 101
REMARK H PARENT 8 18 85 51 51 62
REMARK Flexibility Score: inf
ROOT
ATOM      1  C   UNL A   1      40.478  21.507  27.295  1.00  0.00     0.202 C 
ENDROOT
BRANCH   1   2
ATOM      2  C   UNL A   1      39.638  22.103  26.151  1.00  0.00     0.261 C 
BRANCH   2   3
ATOM      3  O   UNL A   1      38.337  21.502  26.008  1.00  0.00    -0.460 OA
BRANCH   3   4
ATOM      4  C   UNL A   1      37.390  22.284  25.439  1.00  0.00     0.338 C 
ATOM      5  O   UNL A   1      37.502  23.438  25.067  1.00  0.00    -0.246 OA
BRANCH   4   6
ATOM      6  C   UNL A   1      36.136  21.515  25.282  1.00  0.00     0.064 A 
ATOM      7  C   UNL A   1      33.753  21.481  24.821  1.00  0.00     0.094 A 
ATOM      8  C   UNL A   1      34.911  22.170  25.238  1.00  0.00     0.038 A 
ATOM      9  C   UNL A   1      33.778  20.091  24.618  1.00  0.00     0.005 A 
ATOM     10  C   UNL A   1      35.022  19.449  24.741  1.00  0.00     0.128 A 
ATOM     11  C   UNL A   1      32.610  19.248  24.196  1.00  0.00     0.049 C 
ATOM     12  C   UNL A   1      36.196  20.146  25.027  1.00  0.00     0.055 A 
ATOM     13  F   UNL A   1      35.113  18.137  24.478  1.00  0.00    -0.207 F 
BRANCH   7  14
ATOM     14  S   UNL A   1      32.371  22.519  24.423  1.00  0.00     0.262 S 
ATOM     15  O   UNL A   1      31.305  22.228  25.364  1.00  0.00    -0.201 OA
ATOM     16  O   UNL A   1      32.146  22.399  23.000  1.00  0.00    -0.201 OA
BRANCH  14  17
ATOM     17  N   UNL A   1      32.767  24.119  24.670  1.00  0.00    -0.276 N 
ATOM     18  H   UNL A   1      33.694  24.240  24.978  1.00  0.00     0.180 HD
BRANCH  17  19
ATOM     19  C   UNL A   1      32.078  25.328  24.538  1.00  0.00     0.093 A 
ATOM     20  N   UNL A   1      31.846  27.433  23.949  1.00  0.00    -0.268 N 
ATOM     21  N   UNL A   1      30.823  27.212  24.791  1.00  0.00    -0.176 NA
ATOM     22  C   UNL A   1      32.478  26.270  23.600  1.00  0.00     0.060 A 
ATOM     23  C   UNL A   1      30.928  25.918  25.130  1.00  0.00     0.084 A 
ATOM     24  C   UNL A   1      33.389  26.083  22.443  1.00  0.00     0.069 C 
ATOM     25  C   UNL A   1      29.874  25.381  26.018  1.00  0.00     0.071 C 
BRANCH  20  26
ATOM     26  C   UNL A   1      32.226  28.818  23.735  1.00  0.00     0.141 C 
ATOM     27  C   UNL A   1      33.313  29.397  24.619  1.00  0.00     0.029 C 
ENDBRANCH  20  26
ENDBRANCH  17  19
ENDBRANCH  14  17
ENDBRANCH   7  14
ENDBRANCH   4   6
ENDBRANCH   3   4
ENDBRANCH   2   3
ENDBRANCH   1   2
BRANCH   1  28
ATOM     28  O   UNL A   1      41.776  22.074  27.344  1.00  0.00    -0.374 OA
BRANCH  28  29
ATOM     29  C   UNL A   1      42.682  21.749  26.293  1.00  0.00     0.202 C 
BRANCH  29  30
ATOM     30  C   UNL A   1      43.362  22.818  25.430  1.00  0.00     0.261 C 
BRANCH  30  31
ATOM     31  O   UNL A   1      42.631  23.991  25.087  1.00  0.00    -0.460 OA
BRANCH  31  32
ATOM     32  C   UNL A   1      43.137  25.139  25.577  1.00  0.00     0.338 C 
ATOM     33  O   UNL A   1      44.313  25.472  25.570  1.00  0.00    -0.246 OA
BRANCH  32  34
ATOM     34  C   UNL A   1      42.086  25.900  26.282  1.00  0.00     0.060 A 
ATOM     35  C   UNL A   1      41.790  27.161  25.748  1.00  0.00     0.016 A 
ATOM     36  C   UNL A   1      41.871  25.604  27.633  1.00  0.00     0.016 A 
ATOM     37  C   UNL A   1      41.590  28.212  26.625  1.00  0.00     0.010 A 
ATOM     38  C   UNL A   1      41.701  26.656  28.502  1.00  0.00     0.010 A 
ATOM     39  C   UNL A   1      41.673  27.953  27.994  1.00  0.00    -0.014 A 
BRANCH  39  40
ATOM     40  C   UNL A   1      41.734  29.018  28.973  1.00  0.00     0.031 A 
ATOM     41  C   UNL A   1      40.517  29.816  29.122  1.00  0.00     0.074 A 
ATOM     42  C   UNL A   1      42.872  29.268  29.657  1.00  0.00     0.049 A 
ATOM     43  N   UNL A   1      40.504  31.076  29.364  1.00  0.00    -0.248 NA
ATOM     44  C   UNL A   1      39.187  29.253  28.900  1.00  0.00     0.031 C 
ATOM     45  C   UNL A   1      43.086  30.230  30.727  1.00  0.00     0.029 A 
ATOM     46  N   UNL A   1      44.162  28.811  29.361  1.00  0.00    -0.354 N 
ATOM     47  C   UNL A   1      39.201  31.418  29.646  1.00  0.00     0.074 A 
ATOM     48  C   UNL A   1      38.409  30.297  29.200  1.00  0.00     0.031 C 
ATOM     49  C   UNL A   1      44.399  30.527  30.781  1.00  0.00     0.029 A 
ATOM     50  C   UNL A   1      45.060  29.855  29.670  1.00  0.00     0.049 A 
ATOM     51  H   UNL A   1      44.398  27.925  29.003  1.00  0.00     0.167 HD
ATOM     52  C   UNL A   1      38.977  32.541  30.383  1.00  0.00     0.037 A 
ATOM     53  C   UNL A   1      45.772  30.479  28.676  1.00  0.00     0.037 A 
ATOM     54  C   UNL A   1      40.253  33.185  30.707  1.00  0.00     0.049 A 
ATOM     55  C   UNL A   1      45.342  31.900  28.428  1.00  0.00     0.074 A 
ATOM     56  C   UNL A   1      41.111  33.105  31.792  1.00  0.00     0.029 A 
ATOM     57  N   UNL A   1      40.991  33.736  29.682  1.00  0.00    -0.354 N 
ATOM     58  N   UNL A   1      44.328  32.456  29.030  1.00  0.00    -0.248 NA
ATOM     59  C   UNL A   1      45.969  32.793  27.458  1.00  0.00     0.031 C 
ATOM     60  C   UNL A   1      42.384  33.607  31.388  1.00  0.00     0.029 A 
ATOM     61  C   UNL A   1      42.288  34.009  30.067  1.00  0.00     0.049 A 
ATOM     62  H   UNL A   1      40.637  33.915  28.782  1.00  0.00     0.167 HD
ATOM     63  C   UNL A   1      44.165  33.732  28.582  1.00  0.00     0.074 A 
ATOM     64  C   UNL A   1      45.197  33.889  27.569  1.00  0.00     0.031 C 
ATOM     65  C   UNL A   1      43.198  34.559  29.077  1.00  0.00     0.037 A 
BRANCH  52  66
ATOM     66  C   UNL A   1      37.668  32.918  31.033  1.00  0.00     0.058 A 
ATOM     67  C   UNL A   1      36.697  33.622  30.288  1.00  0.00     0.135 A 
ATOM     68  C   UNL A   1      37.297  32.634  32.364  1.00  0.00     0.135 A 
ATOM     69  F   UNL A   1      36.878  33.914  28.993  1.00  0.00    -0.206 F 
ATOM     70  C   UNL A   1      35.492  34.063  30.830  1.00  0.00     0.059 A 
ATOM     71  C   UNL A   1      36.112  33.103  32.944  1.00  0.00     0.059 A 
ATOM     72  F   UNL A   1      38.040  31.840  33.146  1.00  0.00    -0.206 F 
ATOM     73  C   UNL A   1      35.211  33.815  32.166  1.00  0.00     0.060 A 
BRANCH  73  74
ATOM     74  S   UNL A   1      33.644  34.397  32.834  1.00  0.00     0.124 S 
ATOM     75  O   UNL A   1      33.019  35.006  31.664  1.00  0.00    -0.237 OA
ATOM     76  O   UNL A   1      33.037  33.157  33.305  1.00  0.00    -0.237 OA
ATOM     77  O   UNL A   1      34.045  35.333  33.880  1.00  0.00    -0.744 OA
ENDBRANCH  73  74
ENDBRANCH  52  66
BRANCH  53  78
ATOM     78  C   UNL A   1      46.427  29.565  27.664  1.00  0.00     0.058 A 
ATOM     79  C   UNL A   1      47.627  29.004  28.132  1.00  0.00     0.135 A 
ATOM     80  C   UNL A   1      45.563  28.706  26.978  1.00  0.00     0.135 A 
ATOM     81  F   UNL A   1      48.603  29.800  28.595  1.00  0.00    -0.206 F 
ATOM     82  C   UNL A   1      47.716  27.643  28.390  1.00  0.00     0.059 A 
ATOM     83  C   UNL A   1      45.599  27.343  27.272  1.00  0.00     0.059 A 
ATOM     84  F   UNL A   1      44.496  29.209  26.337  1.00  0.00    -0.206 F 
ATOM     85  C   UNL A   1      46.602  26.861  28.115  1.00  0.00     0.060 A 
BRANCH  85  86
ATOM     86  S   UNL A   1      46.231  25.562  29.343  1.00  0.00     0.124 S 
ATOM     87  O   UNL A   1      45.088  26.118  30.058  1.00  0.00    -0.237 OA
ATOM     88  O   UNL A   1      45.959  24.411  28.487  1.00  0.00    -0.237 OA
ATOM     89  O   UNL A   1      47.457  25.435  30.115  1.00  0.00    -0.744 OA
ENDBRANCH  85  86
ENDBRANCH  53  78
BRANCH  65  90
ATOM     90  C   UNL A   1      43.025  35.975  28.617  1.00  0.00     0.058 A 
ATOM     91  C   UNL A   1      42.503  36.291  27.355  1.00  0.00     0.135 A 
ATOM     92  C   UNL A   1      43.444  37.069  29.407  1.00  0.00     0.135 A 
ATOM     93  F   UNL A   1      42.205  35.326  26.470  1.00  0.00    -0.206 F 
ATOM     94  C   UNL A   1      42.267  37.605  26.964  1.00  0.00     0.059 A 
ATOM     95  C   UNL A   1      43.280  38.386  29.011  1.00  0.00     0.059 A 
ATOM     96  F   UNL A   1      43.989  36.910  30.620  1.00  0.00    -0.206 F 
ATOM     97  C   UNL A   1      42.637  38.644  27.814  1.00  0.00     0.060 A 
BRANCH  97  98
ATOM     98  S   UNL A   1      42.239  40.336  27.365  1.00  0.00     0.124 S 
ATOM     99  O   UNL A   1      41.208  40.686  28.337  1.00  0.00    -0.237 OA
ATOM    100  O   UNL A   1      43.532  40.991  27.549  1.00  0.00    -0.237 OA
ATOM    101  O   UNL A   1      41.781  40.225  25.984  1.00  0.00    -0.744 OA
ENDBRANCH  97  98
ENDBRANCH  65  90
ENDBRANCH  39  40
ENDBRANCH  32  34
ENDBRANCH  31  32
ENDBRANCH  30  31
ENDBRANCH  29  30
ENDBRANCH  28  29
ENDBRANCH   1  28
TORSDOF 21
ENDMDL
MODEL 3
REMARK VINA RESULT:     -11.1      4.547      9.273
REMARK SMILES CCn1nc(C)c(NS(=O)(=O)c2cc(C(=O)OCCOCCOC(=O)c3ccc(-c4c5nc(c(-c6c(F)cc(S(=O)(=O)[O-])cc6F)c6ccc([nH]6)c(-c6c(F)cc(S(=O)(=O)[O-])cc6F)c6nc(c(-c7c(F)cc(S(=O)(=O)[O-])cc7F)c7ccc4[nH]7)C=C6)C=C5)cc3)cc(F)c2C)c1C
REMARK SMILES IDX 19 1 18 2 17 3 15 4 16 5 14 6 12 7 13 8 95 9 93 10 96 11
REMARK SMILES IDX 92 12 94 13 9 14 10 15 11 16 8 17 7 19 3 20 4 21 97 22 5 23
REMARK SMILES IDX 98 24 6 25 2 26 1 27 20 28 21 29 22 30 23 31 24 32 25 33
REMARK SMILES IDX 26 34 27 35 91 36 28 37 90 38 29 39 30 40 31 41 84 42 32 43
REMARK SMILES IDX 89 44 83 45 85 46 33 47 88 48 82 49 81 50 34 52 68 53 47 54
REMARK SMILES IDX 67 55 48 56 51 57 66 58 86 59 49 60 50 61 65 63 87 64 52 65
REMARK SMILES IDX 35 66 36 67 45 68 37 69 38 70 44 71 46 72 39 73 40 74 41 75
REMARK SMILES IDX 42 76 43 77 69 78 70 79 79 80 71 81 72 82 78 83 80 84 73 85
REMARK SMILES IDX 74 86 75 87 76 88 77 89 53 90 54 91 63 92 55 93 56 94 62 95
REMARK SMILES IDX 64 96 57 97 58 98 59 99 60 100 61 101
REMARK H PARENT 8 18 85 51 51 62
REMARK Flexibility Score: inf
ROOT
ATOM      1  C   UNL A   1      46.029  24.768  28.285  1.00  0.00     0.202 C 
ENDROOT
BRANCH   1   2
ATOM      2  C   UNL A   1      45.925  25.336  26.859  1.00  0.00     0.261 C 
BRANCH   2   3
ATOM      3  O   UNL A   1      47.192  25.714  26.288  1.00  0.00    -0.460 OA
BRANCH   3   4
ATOM      4  C   UNL A   1      47.355  25.419  24.977  1.00  0.00     0.338 C 
ATOM      5  O   UNL A   1      46.711  24.635  24.304  1.00  0.00    -0.246 OA
BRANCH   4   6
ATOM      6  C   UNL A   1      48.452  26.238  24.414  1.00  0.00     0.064 A 
ATOM      7  C   UNL A   1      50.795  26.877  24.422  1.00  0.00     0.094 A 
ATOM      8  C   UNL A   1      49.671  26.330  25.076  1.00  0.00     0.038 A 
ATOM      9  C   UNL A   1      50.664  27.497  23.168  1.00  0.00     0.005 A 
ATOM     10  C   UNL A   1      49.398  27.448  22.559  1.00  0.00     0.128 A 
ATOM     11  C   UNL A   1      51.777  28.130  22.386  1.00  0.00     0.049 C 
ATOM     12  C   UNL A   1      48.313  26.795  23.144  1.00  0.00     0.055 A 
ATOM     13  F   UNL A   1      49.242  27.954  21.327  1.00  0.00    -0.207 F 
BRANCH   7  14
ATOM     14  S   UNL A   1      52.347  26.560  25.217  1.00  0.00     0.262 S 
ATOM     15  O   UNL A   1      52.913  27.835  25.620  1.00  0.00    -0.201 OA
ATOM     16  O   UNL A   1      53.090  25.668  24.358  1.00  0.00    -0.201 OA
BRANCH  14  17
ATOM     17  N   UNL A   1      52.105  25.707  26.629  1.00  0.00    -0.276 N 
ATOM     18  H   UNL A   1      51.887  24.761  26.470  1.00  0.00     0.180 HD
BRANCH  17  19
ATOM     19  C   UNL A   1      52.140  26.035  27.986  1.00  0.00     0.093 A 
ATOM     20  N   UNL A   1      51.261  26.568  29.930  1.00  0.00    -0.268 N 
ATOM     21  N   UNL A   1      52.562  26.871  30.063  1.00  0.00    -0.176 NA
ATOM     22  C   UNL A   1      51.018  25.855  28.786  1.00  0.00     0.060 A 
ATOM     23  C   UNL A   1      53.121  26.514  28.897  1.00  0.00     0.084 A 
ATOM     24  C   UNL A   1      49.802  25.056  28.494  1.00  0.00     0.069 C 
ATOM     25  C   UNL A   1      54.586  26.686  28.788  1.00  0.00     0.071 C 
BRANCH  20  26
ATOM     26  C   UNL A   1      50.344  27.201  30.862  1.00  0.00     0.141 C 
ATOM     27  C   UNL A   1      50.285  28.717  30.873  1.00  0.00     0.029 C 
ENDBRANCH  20  26
ENDBRANCH  17  19
ENDBRANCH  14  17
ENDBRANCH   7  14
ENDBRANCH   4   6
ENDBRANCH   3   4
ENDBRANCH   2   3
ENDBRANCH   1   2
BRANCH   1  28
ATOM     28  O   UNL A   1      45.252  23.593  28.441  1.00  0.00    -0.374 OA
BRANCH  28  29
ATOM     29  C   UNL A   1      44.145  23.409  27.564  1.00  0.00     0.202 C 
BRANCH  29  30
ATOM     30  C   UNL A   1      42.709  23.240  28.071  1.00  0.00     0.261 C 
BRANCH  30  31
ATOM     31  O   UNL A   1      41.886  24.396  28.199  1.00  0.00    -0.460 OA
BRANCH  31  32
ATOM     32  C   UNL A   1      40.978  24.557  27.217  1.00  0.00     0.338 C 
ATOM     33  O   UNL A   1      40.948  23.956  26.155  1.00  0.00    -0.246 OA
BRANCH  32  34
ATOM     34  C   UNL A   1      40.087  25.694  27.529  1.00  0.00     0.060 A 
ATOM     35  C   UNL A   1      40.370  26.888  26.851  1.00  0.00     0.016 A 
ATOM     36  C   UNL A   1      39.444  25.687  28.771  1.00  0.00     0.016 A 
ATOM     37  C   UNL A   1      40.303  28.073  27.561  1.00  0.00     0.010 A 
ATOM     38  C   UNL A   1      39.406  26.863  29.482  1.00  0.00     0.010 A 
ATOM     39  C   UNL A   1      39.937  28.016  28.907  1.00  0.00    -0.014 A 
BRANCH  39  40
ATOM     40  C   UNL A   1      40.085  29.154  29.790  1.00  0.00     0.031 A 
ATOM     41  C   UNL A   1      39.019  30.155  29.724  1.00  0.00     0.074 A 
ATOM     42  C   UNL A   1      41.174  29.283  30.580  1.00  0.00     0.049 A 
ATOM     43  N   UNL A   1      39.204  31.417  29.852  1.00  0.00    -0.248 NA
ATOM     44  C   UNL A   1      37.641  29.800  29.395  1.00  0.00     0.031 C 
ATOM     45  C   UNL A   1      41.444  30.304  31.580  1.00  0.00     0.029 A 
ATOM     46  N   UNL A   1      42.385  28.590  30.480  1.00  0.00    -0.354 N 
ATOM     47  C   UNL A   1      37.961  31.999  29.947  1.00  0.00     0.074 A 
ATOM     48  C   UNL A   1      37.033  30.984  29.509  1.00  0.00     0.031 C 
ATOM     49  C   UNL A   1      42.776  30.383  31.763  1.00  0.00     0.029 A 
ATOM     50  C   UNL A   1      43.417  29.497  30.802  1.00  0.00     0.049 A 
ATOM     51  H   UNL A   1      42.497  27.644  30.230  1.00  0.00     0.167 HD
ATOM     52  C   UNL A   1      37.865  33.215  30.552  1.00  0.00     0.037 A 
ATOM     53  C   UNL A   1      44.326  29.886  29.848  1.00  0.00     0.037 A 
ATOM     54  C   UNL A   1      39.195  33.669  30.968  1.00  0.00     0.049 A 
ATOM     55  C   UNL A   1      44.182  31.324  29.429  1.00  0.00     0.074 A 
ATOM     56  C   UNL A   1      39.910  33.563  32.149  1.00  0.00     0.029 A 
ATOM     57  N   UNL A   1      40.119  33.979  29.993  1.00  0.00    -0.354 N 
ATOM     58  N   UNL A   1      43.226  32.101  29.855  1.00  0.00    -0.248 NA
ATOM     59  C   UNL A   1      45.052  31.992  28.465  1.00  0.00     0.031 C 
ATOM     60  C   UNL A   1      41.285  33.802  31.857  1.00  0.00     0.029 A 
ATOM     61  C   UNL A   1      41.398  34.071  30.504  1.00  0.00     0.049 A 
ATOM     62  H   UNL A   1      39.895  34.117  29.045  1.00  0.00     0.167 HD
ATOM     63  C   UNL A   1      43.337  33.332  29.282  1.00  0.00     0.074 A 
ATOM     64  C   UNL A   1      44.479  33.207  28.388  1.00  0.00     0.031 C 
ATOM     65  C   UNL A   1      42.486  34.355  29.585  1.00  0.00     0.037 A 
BRANCH  52  66
ATOM     66  C   UNL A   1      36.583  33.871  31.007  1.00  0.00     0.058 A 
ATOM     67  C   UNL A   1      35.582  34.178  30.059  1.00  0.00     0.135 A 
ATOM     68  C   UNL A   1      36.268  34.229  32.334  1.00  0.00     0.135 A 
ATOM     69  F   UNL A   1      35.710  33.846  28.767  1.00  0.00    -0.206 F 
ATOM     70  C   UNL A   1      34.401  34.839  30.385  1.00  0.00     0.059 A 
ATOM     71  C   UNL A   1      35.107  34.933  32.680  1.00  0.00     0.059 A 
ATOM     72  F   UNL A   1      37.042  33.864  33.363  1.00  0.00    -0.206 F 
ATOM     73  C   UNL A   1      34.176  35.231  31.697  1.00  0.00     0.060 A 
BRANCH  73  74
ATOM     74  S   UNL A   1      32.637  36.082  32.084  1.00  0.00     0.124 S 
ATOM     75  O   UNL A   1      32.286  36.681  30.800  1.00  0.00    -0.237 OA
ATOM     76  O   UNL A   1      31.786  34.983  32.526  1.00  0.00    -0.237 OA
ATOM     77  O   UNL A   1      33.024  37.031  33.125  1.00  0.00    -0.744 OA
ENDBRANCH  73  74
ENDBRANCH  52  66
BRANCH  53  78
ATOM     78  C   UNL A   1      44.909  28.773  29.004  1.00  0.00     0.058 A 
ATOM     79  C   UNL A   1      44.800  29.019  27.625  1.00  0.00     0.135 A 
ATOM     80  C   UNL A   1      46.127  28.252  29.450  1.00  0.00     0.135 A 
ATOM     81  F   UNL A   1      43.604  29.302  27.087  1.00  0.00    -0.206 F 
ATOM     82  C   UNL A   1      45.933  29.257  26.860  1.00  0.00     0.059 A 
ATOM     83  C   UNL A   1      47.284  28.535  28.724  1.00  0.00     0.059 A 
ATOM     84  F   UNL A   1      46.239  27.812  30.713  1.00  0.00    -0.206 F 
ATOM     85  C   UNL A   1      47.166  29.185  27.494  1.00  0.00     0.060 A 
BRANCH  85  86
ATOM     86  S   UNL A   1      48.378  30.459  27.004  1.00  0.00     0.124 S 
ATOM     87  O   UNL A   1      48.933  30.878  28.286  1.00  0.00    -0.237 OA
ATOM     88  O   UNL A   1      49.271  29.702  26.131  1.00  0.00    -0.237 OA
ATOM     89  O   UNL A   1      47.587  31.458  26.303  1.00  0.00    -0.744 OA
ENDBRANCH  85  86
ENDBRANCH  53  78
BRANCH  65  90
ATOM     90  C   UNL A   1      42.614  35.723  28.986  1.00  0.00     0.058 A 
ATOM     91  C   UNL A   1      43.160  36.801  29.697  1.00  0.00     0.135 A 
ATOM     92  C   UNL A   1      42.126  36.015  27.692  1.00  0.00     0.135 A 
ATOM     93  F   UNL A   1      43.524  36.667  30.982  1.00  0.00    -0.206 F 
ATOM     94  C   UNL A   1      43.352  38.048  29.109  1.00  0.00     0.059 A 
ATOM     95  C   UNL A   1      42.246  37.266  27.110  1.00  0.00     0.059 A 
ATOM     96  F   UNL A   1      41.552  35.087  26.916  1.00  0.00    -0.206 F 
ATOM     97  C   UNL A   1      42.914  38.260  27.804  1.00  0.00     0.060 A 
BRANCH  97  98
ATOM     98  S   UNL A   1      43.253  39.829  27.002  1.00  0.00     0.124 S 
ATOM     99  O   UNL A   1      43.340  40.748  28.133  1.00  0.00    -0.237 OA
ATOM    100  O   UNL A   1      44.514  39.537  26.325  1.00  0.00    -0.237 OA
ATOM    101  O   UNL A   1      42.101  40.023  26.129  1.00  0.00    -0.744 OA
ENDBRANCH  97  98
ENDBRANCH  65  90
ENDBRANCH  39  40
ENDBRANCH  32  34
ENDBRANCH  31  32
ENDBRANCH  30  31
ENDBRANCH  29  30
ENDBRANCH  28  29
ENDBRANCH   1  28
TORSDOF 21
ENDMDL
