MODEL 1
REMARK VINA RESULT:     -10.9      0.000      0.000
REMARK SMILES O=C(COc1ccc(/C=N/NC(=O)c2cc3cc([N+](=O)[O-])ccc3o2)cc1)OCCOCCOC(=O)c1ccc(-c2c3nc(c(-c4c(F)cc(S(=O)(=O)[O-])cc4F)c4ccc([nH]4)c(-c4c(F)cc(S(=O)(=O)[O-])cc4F)c4nc(c(-c5c(F)cc(S(=O)(=O)[O-])cc5F)c5ccc2[nH]5)C=C4)C=C3)cc1
REMARK SMILES IDX 29 1 28 2 2 3 1 4 3 5 4 6 5 7 6 8 27 9 7 10 26 11 8 12 9 13
REMARK SMILES IDX 10 14 11 15 12 16 13 18 14 19 15 20 25 21 16 22 24 23 17 24
REMARK SMILES IDX 23 25 18 26 22 27 19 28 20 29 21 30 30 31 31 32 32 33 33 34
REMARK SMILES IDX 34 35 35 36 36 37 37 38 38 39 102 40 39 41 101 42 40 43
REMARK SMILES IDX 41 44 42 45 95 46 43 47 100 48 94 49 96 50 44 51 99 52 93 53
REMARK SMILES IDX 92 54 45 56 79 57 58 58 78 59 59 60 62 61 77 62 97 63 60 64
REMARK SMILES IDX 61 65 76 67 98 68 63 69 46 70 47 71 56 72 48 73 49 74 55 75
REMARK SMILES IDX 57 76 50 77 51 78 52 79 53 80 54 81 80 82 81 83 90 84 82 85
REMARK SMILES IDX 83 86 89 87 91 88 84 89 85 90 86 91 87 92 88 93 64 94 65 95
REMARK SMILES IDX 74 96 66 97 67 98 73 99 75 100 68 101 69 102 70 103 71 104
REMARK SMILES IDX 72 105
REMARK H PARENT 11 17 96 55 62 66
REMARK Flexibility Score: inf
ROOT
ATOM      1  C   UNL A   1      33.701  34.787  28.838  1.00  0.00     0.261 C 
ENDROOT
BRANCH   1   2
ATOM      2  O   UNL A   1      33.890  33.699  27.915  1.00  0.00    -0.461 OA
BRANCH   2   3
ATOM      3  C   UNL A   1      32.897  32.904  27.454  1.00  0.00     0.344 C 
ATOM      4  O   UNL A   1      31.791  33.387  27.204  1.00  0.00    -0.248 OA
BRANCH   3   5
ATOM      5  C   UNL A   1      33.153  31.415  27.250  1.00  0.00     0.351 C 
BRANCH   5   6
ATOM      6  O   UNL A   1      32.089  30.486  27.250  1.00  0.00    -0.482 OA
BRANCH   6   7
ATOM      7  C   UNL A   1      32.405  29.199  26.927  1.00  0.00     0.120 A 
ATOM      8  C   UNL A   1      31.410  28.270  27.222  1.00  0.00     0.047 A 
ATOM      9  C   UNL A   1      33.629  28.771  26.406  1.00  0.00     0.047 A 
ATOM     10  C   UNL A   1      31.610  26.924  26.933  1.00  0.00     0.013 A 
ATOM     11  C   UNL A   1      33.846  27.423  26.135  1.00  0.00     0.013 A 
ATOM     12  C   UNL A   1      32.825  26.511  26.380  1.00  0.00    -0.005 A 
BRANCH  12  13
ATOM     13  C   UNL A   1      33.075  25.088  26.118  1.00  0.00     0.141 C 
ATOM     14  N   UNL A   1      34.283  24.667  25.967  1.00  0.00    -0.180 NA
BRANCH  14  15
ATOM     15  N   UNL A   1      34.498  23.395  25.566  1.00  0.00    -0.240 N 
ATOM     16  C   UNL A   1      34.532  22.788  24.334  1.00  0.00     0.307 C 
ATOM     17  H   UNL A   1      34.664  22.773  26.311  1.00  0.00     0.194 HD
ATOM     18  O   UNL A   1      35.126  21.707  24.262  1.00  0.00    -0.264 OA
BRANCH  16  19
ATOM     19  C   UNL A   1      33.805  23.297  23.189  1.00  0.00     0.194 A 
ATOM     20  C   UNL A   1      32.432  23.360  22.985  1.00  0.00     0.065 A 
ATOM     21  O   UNL A   1      34.398  24.359  22.547  1.00  0.00    -0.451 OA
ATOM     22  C   UNL A   1      32.175  24.712  22.606  1.00  0.00     0.028 A 
ATOM     23  C   UNL A   1      33.416  25.274  22.340  1.00  0.00     0.135 A 
ATOM     24  C   UNL A   1      31.041  25.543  22.626  1.00  0.00     0.097 A 
ATOM     25  C   UNL A   1      33.635  26.620  22.059  1.00  0.00     0.055 A 
ATOM     26  C   UNL A   1      31.258  26.930  22.498  1.00  0.00     0.270 A 
ATOM     27  C   UNL A   1      32.525  27.460  22.200  1.00  0.00     0.089 A 
BRANCH  26  28
ATOM     28  N   UNL A   1      30.155  27.850  22.806  1.00  0.00     0.062 N 
ATOM     29  O   UNL A   1      29.682  27.819  23.949  1.00  0.00    -0.258 OA
ATOM     30  O   UNL A   1      29.777  28.614  21.905  1.00  0.00    -0.258 OA
ENDBRANCH  26  28
ENDBRANCH  16  19
ENDBRANCH  14  15
ENDBRANCH  12  13
ENDBRANCH   6   7
ENDBRANCH   5   6
ENDBRANCH   3   5
ENDBRANCH   2   3
ENDBRANCH   1   2
BRANCH   1  31
ATOM     31  C   UNL A   1      34.139  34.426  30.254  1.00  0.00     0.202 C 
BRANCH  31  32
ATOM     32  O   UNL A   1      34.918  33.236  30.371  1.00  0.00    -0.374 OA
BRANCH  32  33
ATOM     33  C   UNL A   1      34.818  32.522  31.609  1.00  0.00     0.202 C 
BRANCH  33  34
ATOM     34  C   UNL A   1      35.718  31.296  31.784  1.00  0.00     0.261 C 
BRANCH  34  35
ATOM     35  O   UNL A   1      36.891  31.611  32.551  1.00  0.00    -0.460 OA
BRANCH  35  36
ATOM     36  C   UNL A   1      37.800  32.371  31.893  1.00  0.00     0.338 C 
ATOM     37  O   UNL A   1      37.958  33.574  32.000  1.00  0.00    -0.246 OA
BRANCH  36  38
ATOM     38  C   UNL A   1      38.743  31.508  31.150  1.00  0.00     0.060 A 
ATOM     39  C   UNL A   1      39.705  30.829  31.909  1.00  0.00     0.016 A 
ATOM     40  C   UNL A   1      38.733  31.397  29.756  1.00  0.00     0.016 A 
ATOM     41  C   UNL A   1      40.715  30.117  31.276  1.00  0.00     0.010 A 
ATOM     42  C   UNL A   1      39.752  30.681  29.118  1.00  0.00     0.010 A 
ATOM     43  C   UNL A   1      40.776  30.088  29.877  1.00  0.00    -0.014 A 
BRANCH  43  44
ATOM     44  C   UNL A   1      42.024  29.605  29.243  1.00  0.00     0.031 A 
ATOM     45  C   UNL A   1      43.189  30.553  29.137  1.00  0.00     0.074 A 
ATOM     46  C   UNL A   1      42.147  28.321  28.868  1.00  0.00     0.049 A 
ATOM     47  N   UNL A   1      44.403  30.331  28.708  1.00  0.00    -0.248 NA
ATOM     48  C   UNL A   1      42.954  31.939  29.582  1.00  0.00     0.031 C 
ATOM     49  C   UNL A   1      41.090  27.313  28.948  1.00  0.00     0.029 A 
ATOM     50  N   UNL A   1      43.222  27.643  28.354  1.00  0.00    -0.354 N 
ATOM     51  C   UNL A   1      45.080  31.538  28.845  1.00  0.00     0.074 A 
ATOM     52  C   UNL A   1      44.130  32.503  29.352  1.00  0.00     0.031 C 
ATOM     53  C   UNL A   1      41.569  26.142  28.493  1.00  0.00     0.029 A 
ATOM     54  C   UNL A   1      42.961  26.321  28.083  1.00  0.00     0.049 A 
ATOM     55  H   UNL A   1      44.098  28.062  28.194  1.00  0.00     0.167 HD
ATOM     56  C   UNL A   1      46.380  31.812  28.589  1.00  0.00     0.037 A 
ATOM     57  C   UNL A   1      43.756  25.369  27.559  1.00  0.00     0.037 A 
ATOM     58  C   UNL A   1      47.317  30.848  28.073  1.00  0.00     0.049 A 
ATOM     59  C   UNL A   1      45.190  25.707  27.247  1.00  0.00     0.074 A 
ATOM     60  C   UNL A   1      48.654  31.022  27.764  1.00  0.00     0.029 A 
ATOM     61  N   UNL A   1      47.010  29.525  27.790  1.00  0.00    -0.354 N 
ATOM     62  N   UNL A   1      45.820  26.850  27.396  1.00  0.00    -0.248 NA
ATOM     63  C   UNL A   1      46.027  24.624  26.715  1.00  0.00     0.031 C 
ATOM     64  C   UNL A   1      49.147  29.812  27.261  1.00  0.00     0.029 A 
ATOM     65  C   UNL A   1      48.128  28.873  27.299  1.00  0.00     0.049 A 
ATOM     66  H   UNL A   1      46.126  29.110  27.919  1.00  0.00     0.167 HD
ATOM     67  C   UNL A   1      47.129  26.620  26.985  1.00  0.00     0.074 A 
ATOM     68  C   UNL A   1      47.205  25.222  26.611  1.00  0.00     0.031 C 
ATOM     69  C   UNL A   1      48.174  27.483  26.921  1.00  0.00     0.037 A 
BRANCH  56  70
ATOM     70  C   UNL A   1      46.860  33.212  28.857  1.00  0.00     0.058 A 
ATOM     71  C   UNL A   1      46.815  34.205  27.866  1.00  0.00     0.135 A 
ATOM     72  C   UNL A   1      47.348  33.572  30.122  1.00  0.00     0.135 A 
ATOM     73  F   UNL A   1      46.379  33.909  26.630  1.00  0.00    -0.206 F 
ATOM     74  C   UNL A   1      47.255  35.502  28.113  1.00  0.00     0.059 A 
ATOM     75  C   UNL A   1      47.772  34.869  30.400  1.00  0.00     0.059 A 
ATOM     76  F   UNL A   1      47.420  32.659  31.104  1.00  0.00    -0.206 F 
ATOM     77  C   UNL A   1      47.732  35.824  29.385  1.00  0.00     0.060 A 
BRANCH  77  78
ATOM     78  S   UNL A   1      48.289  37.514  29.696  1.00  0.00     0.124 S 
ATOM     79  O   UNL A   1      48.871  37.870  28.405  1.00  0.00    -0.237 OA
ATOM     80  O   UNL A   1      47.045  38.195  30.040  1.00  0.00    -0.237 OA
ATOM     81  O   UNL A   1      49.241  37.362  30.792  1.00  0.00    -0.744 OA
ENDBRANCH  77  78
ENDBRANCH  56  70
BRANCH  57  82
ATOM     82  C   UNL A   1      43.212  24.013  27.291  1.00  0.00     0.058 A 
ATOM     83  C   UNL A   1      43.152  23.034  28.294  1.00  0.00     0.135 A 
ATOM     84  C   UNL A   1      42.733  23.672  26.016  1.00  0.00     0.135 A 
ATOM     85  F   UNL A   1      43.604  23.310  29.527  1.00  0.00    -0.206 F 
ATOM     86  C   UNL A   1      42.652  21.761  28.039  1.00  0.00     0.059 A 
ATOM     87  C   UNL A   1      42.205  22.415  25.744  1.00  0.00     0.059 A 
ATOM     88  F   UNL A   1      42.754  24.578  25.025  1.00  0.00    -0.206 F 
ATOM     89  C   UNL A   1      42.178  21.461  26.761  1.00  0.00     0.060 A 
BRANCH  89  90
ATOM     90  S   UNL A   1      41.478  19.826  26.452  1.00  0.00     0.124 S 
ATOM     91  O   UNL A   1      40.107  20.159  26.082  1.00  0.00    -0.237 OA
ATOM     92  O   UNL A   1      42.328  19.325  25.377  1.00  0.00    -0.237 OA
ATOM     93  O   UNL A   1      41.640  19.146  27.734  1.00  0.00    -0.744 OA
ENDBRANCH  89  90
ENDBRANCH  57  82
BRANCH  69  94
ATOM     94  C   UNL A   1      49.483  26.929  26.436  1.00  0.00     0.058 A 
ATOM     95  C   UNL A   1      49.846  26.985  25.080  1.00  0.00     0.135 A 
ATOM     96  C   UNL A   1      50.389  26.347  27.335  1.00  0.00     0.135 A 
ATOM     97  F   UNL A   1      49.014  27.531  24.180  1.00  0.00    -0.206 F 
ATOM     98  C   UNL A   1      51.044  26.442  24.628  1.00  0.00     0.059 A 
ATOM     99  C   UNL A   1      51.604  25.821  26.908  1.00  0.00     0.059 A 
ATOM    100  F   UNL A   1      50.097  26.283  28.644  1.00  0.00    -0.206 F 
ATOM    101  C   UNL A   1      51.913  25.854  25.548  1.00  0.00     0.060 A 
BRANCH 101 102
ATOM    102  S   UNL A   1      53.459  25.141  24.950  1.00  0.00     0.124 S 
ATOM    103  O   UNL A   1      53.234  23.718  25.182  1.00  0.00    -0.237 OA
ATOM    104  O   UNL A   1      53.480  25.561  23.552  1.00  0.00    -0.237 OA
ATOM    105  O   UNL A   1      54.470  25.765  25.799  1.00  0.00    -0.744 OA
ENDBRANCH 101 102
ENDBRANCH  69  94
ENDBRANCH  43  44
ENDBRANCH  36  38
ENDBRANCH  35  36
ENDBRANCH  34  35
ENDBRANCH  33  34
ENDBRANCH  32  33
ENDBRANCH  31  32
ENDBRANCH   1  31
TORSDOF 23
ENDMDL
MODEL 2
REMARK VINA RESULT:     -10.1      3.977     10.500
REMARK SMILES O=C(COc1ccc(/C=N/NC(=O)c2cc3cc([N+](=O)[O-])ccc3o2)cc1)OCCOCCOC(=O)c1ccc(-c2c3nc(c(-c4c(F)cc(S(=O)(=O)[O-])cc4F)c4ccc([nH]4)c(-c4c(F)cc(S(=O)(=O)[O-])cc4F)c4nc(c(-c5c(F)cc(S(=O)(=O)[O-])cc5F)c5ccc2[nH]5)C=C4)C=C3)cc1
REMARK SMILES IDX 29 1 28 2 2 3 1 4 3 5 4 6 5 7 6 8 27 9 7 10 26 11 8 12 9 13
REMARK SMILES IDX 10 14 11 15 12 16 13 18 14 19 15 20 25 21 16 22 24 23 17 24
REMARK SMILES IDX 23 25 18 26 22 27 19 28 20 29 21 30 30 31 31 32 32 33 33 34
REMARK SMILES IDX 34 35 35 36 36 37 37 38 38 39 102 40 39 41 101 42 40 43
REMARK SMILES IDX 41 44 42 45 95 46 43 47 100 48 94 49 96 50 44 51 99 52 93 53
REMARK SMILES IDX 92 54 45 56 79 57 58 58 78 59 59 60 62 61 77 62 97 63 60 64
REMARK SMILES IDX 61 65 76 67 98 68 63 69 46 70 47 71 56 72 48 73 49 74 55 75
REMARK SMILES IDX 57 76 50 77 51 78 52 79 53 80 54 81 80 82 81 83 90 84 82 85
REMARK SMILES IDX 83 86 89 87 91 88 84 89 85 90 86 91 87 92 88 93 64 94 65 95
REMARK SMILES IDX 74 96 66 97 67 98 73 99 75 100 68 101 69 102 70 103 71 104
REMARK SMILES IDX 72 105
REMARK H PARENT 11 17 96 55 62 66
REMARK Flexibility Score: inf
ROOT
ATOM      1  C   UNL A   1      33.332  34.909  28.869  1.00  0.00     0.261 C 
ENDROOT
BRANCH   1   2
ATOM      2  O   UNL A   1      33.943  35.359  30.092  1.00  0.00    -0.461 OA
BRANCH   2   3
ATOM      3  C   UNL A   1      33.260  35.823  31.164  1.00  0.00     0.344 C 
ATOM      4  O   UNL A   1      32.551  36.825  31.051  1.00  0.00    -0.248 OA
BRANCH   3   5
ATOM      5  C   UNL A   1      33.376  35.106  32.504  1.00  0.00     0.351 C 
BRANCH   5   6
ATOM      6  O   UNL A   1      33.564  33.708  32.569  1.00  0.00    -0.482 OA
BRANCH   6   7
ATOM      7  C   UNL A   1      34.724  33.276  33.141  1.00  0.00     0.120 A 
ATOM      8  C   UNL A   1      35.120  34.004  34.260  1.00  0.00     0.047 A 
ATOM      9  C   UNL A   1      35.531  32.242  32.658  1.00  0.00     0.047 A 
ATOM     10  C   UNL A   1      36.284  33.657  34.938  1.00  0.00     0.013 A 
ATOM     11  C   UNL A   1      36.709  31.903  33.317  1.00  0.00     0.013 A 
ATOM     12  C   UNL A   1      37.066  32.599  34.467  1.00  0.00    -0.005 A 
BRANCH  12  13
ATOM     13  C   UNL A   1      38.326  32.253  35.136  1.00  0.00     0.141 C 
ATOM     14  N   UNL A   1      39.289  31.730  34.458  1.00  0.00    -0.180 NA
BRANCH  14  15
ATOM     15  N   UNL A   1      40.380  31.264  35.105  1.00  0.00    -0.240 N 
ATOM     16  C   UNL A   1      41.685  31.062  34.728  1.00  0.00     0.307 C 
ATOM     17  H   UNL A   1      40.203  31.019  36.042  1.00  0.00     0.194 HD
ATOM     18  O   UNL A   1      42.523  30.993  35.633  1.00  0.00    -0.264 OA
BRANCH  16  19
ATOM     19  C   UNL A   1      42.073  30.805  33.356  1.00  0.00     0.194 A 
ATOM     20  C   UNL A   1      43.234  31.183  32.693  1.00  0.00     0.065 A 
ATOM     21  O   UNL A   1      41.637  29.607  32.841  1.00  0.00    -0.451 OA
ATOM     22  C   UNL A   1      43.731  29.981  32.103  1.00  0.00     0.028 A 
ATOM     23  C   UNL A   1      42.706  29.052  32.214  1.00  0.00     0.135 A 
ATOM     24  C   UNL A   1      44.990  29.555  31.645  1.00  0.00     0.097 A 
ATOM     25  C   UNL A   1      42.816  27.704  31.879  1.00  0.00     0.055 A 
ATOM     26  C   UNL A   1      45.169  28.171  31.448  1.00  0.00     0.270 A 
ATOM     27  C   UNL A   1      44.100  27.263  31.542  1.00  0.00     0.089 A 
BRANCH  26  28
ATOM     28  N   UNL A   1      46.530  27.652  31.260  1.00  0.00     0.062 N 
ATOM     29  O   UNL A   1      47.382  27.954  32.106  1.00  0.00    -0.258 OA
ATOM     30  O   UNL A   1      46.738  26.928  30.275  1.00  0.00    -0.258 OA
ENDBRANCH  26  28
ENDBRANCH  16  19
ENDBRANCH  14  15
ENDBRANCH  12  13
ENDBRANCH   6   7
ENDBRANCH   5   6
ENDBRANCH   3   5
ENDBRANCH   2   3
ENDBRANCH   1   2
BRANCH   1  31
ATOM     31  C   UNL A   1      34.358  34.657  27.768  1.00  0.00     0.202 C 
BRANCH  31  32
ATOM     32  O   UNL A   1      35.105  33.448  27.892  1.00  0.00    -0.374 OA
BRANCH  32  33
ATOM     33  C   UNL A   1      34.359  32.225  27.848  1.00  0.00     0.202 C 
BRANCH  33  34
ATOM     34  C   UNL A   1      35.050  30.966  28.378  1.00  0.00     0.261 C 
BRANCH  34  35
ATOM     35  O   UNL A   1      36.159  31.295  29.230  1.00  0.00    -0.460 OA
BRANCH  35  36
ATOM     36  C   UNL A   1      36.784  30.220  29.771  1.00  0.00     0.338 C 
ATOM     37  O   UNL A   1      36.254  29.264  30.308  1.00  0.00    -0.246 OA
BRANCH  36  38
ATOM     38  C   UNL A   1      38.226  30.253  29.446  1.00  0.00     0.060 A 
ATOM     39  C   UNL A   1      38.601  29.725  28.204  1.00  0.00     0.016 A 
ATOM     40  C   UNL A   1      39.193  30.732  30.335  1.00  0.00     0.016 A 
ATOM     41  C   UNL A   1      39.947  29.585  27.887  1.00  0.00     0.010 A 
ATOM     42  C   UNL A   1      40.548  30.589  30.016  1.00  0.00     0.010 A 
ATOM     43  C   UNL A   1      40.925  29.963  28.815  1.00  0.00    -0.014 A 
BRANCH  43  44
ATOM     44  C   UNL A   1      42.316  29.507  28.587  1.00  0.00     0.031 A 
ATOM     45  C   UNL A   1      42.551  28.058  28.253  1.00  0.00     0.074 A 
ATOM     46  C   UNL A   1      43.330  30.389  28.574  1.00  0.00     0.049 A 
ATOM     47  N   UNL A   1      43.662  27.452  27.927  1.00  0.00    -0.248 NA
ATOM     48  C   UNL A   1      41.373  27.174  28.288  1.00  0.00     0.031 C 
ATOM     49  C   UNL A   1      43.209  31.818  28.860  1.00  0.00     0.029 A 
ATOM     50  N   UNL A   1      44.660  30.211  28.298  1.00  0.00    -0.354 N 
ATOM     51  C   UNL A   1      43.316  26.124  27.701  1.00  0.00     0.074 A 
ATOM     52  C   UNL A   1      41.902  26.001  27.974  1.00  0.00     0.031 C 
ATOM     53  C   UNL A   1      44.421  32.389  28.749  1.00  0.00     0.029 A 
ATOM     54  C   UNL A   1      45.402  31.364  28.394  1.00  0.00     0.049 A 
ATOM     55  H   UNL A   1      45.049  29.341  28.055  1.00  0.00     0.167 HD
ATOM     56  C   UNL A   1      44.103  25.104  27.285  1.00  0.00     0.037 A 
ATOM     57  C   UNL A   1      46.722  31.564  28.218  1.00  0.00     0.037 A 
ATOM     58  C   UNL A   1      45.513  25.233  27.027  1.00  0.00     0.049 A 
ATOM     59  C   UNL A   1      47.585  30.407  27.791  1.00  0.00     0.074 A 
ATOM     60  C   UNL A   1      46.408  24.263  26.615  1.00  0.00     0.029 A 
ATOM     61  N   UNL A   1      46.233  26.413  27.155  1.00  0.00    -0.354 N 
ATOM     62  N   UNL A   1      47.241  29.159  27.568  1.00  0.00    -0.248 NA
ATOM     63  C   UNL A   1      49.010  30.685  27.573  1.00  0.00     0.031 C 
ATOM     64  C   UNL A   1      47.678  24.848  26.529  1.00  0.00     0.029 A 
ATOM     65  C   UNL A   1      47.563  26.192  26.843  1.00  0.00     0.049 A 
ATOM     66  H   UNL A   1      45.853  27.279  27.429  1.00  0.00     0.167 HD
ATOM     67  C   UNL A   1      48.404  28.507  27.174  1.00  0.00     0.074 A 
ATOM     68  C   UNL A   1      49.454  29.507  27.162  1.00  0.00     0.031 C 
ATOM     69  C   UNL A   1      48.591  27.203  26.852  1.00  0.00     0.037 A 
BRANCH  56  70
ATOM     70  C   UNL A   1      43.454  23.762  27.093  1.00  0.00     0.058 A 
ATOM     71  C   UNL A   1      43.051  23.316  25.824  1.00  0.00     0.135 A 
ATOM     72  C   UNL A   1      43.253  22.900  28.183  1.00  0.00     0.135 A 
ATOM     73  F   UNL A   1      43.198  24.109  24.751  1.00  0.00    -0.206 F 
ATOM     74  C   UNL A   1      42.454  22.072  25.645  1.00  0.00     0.059 A 
ATOM     75  C   UNL A   1      42.679  21.642  28.024  1.00  0.00     0.059 A 
ATOM     76  F   UNL A   1      43.613  23.280  29.420  1.00  0.00    -0.206 F 
ATOM     77  C   UNL A   1      42.272  21.242  26.752  1.00  0.00     0.060 A 
BRANCH  77  78
ATOM     78  S   UNL A   1      41.506  19.625  26.502  1.00  0.00     0.124 S 
ATOM     79  O   UNL A   1      40.096  19.988  26.381  1.00  0.00    -0.237 OA
ATOM     80  O   UNL A   1      42.148  19.161  25.278  1.00  0.00    -0.237 OA
ATOM     81  O   UNL A   1      41.862  18.890  27.712  1.00  0.00    -0.744 OA
ENDBRANCH  77  78
ENDBRANCH  56  70
BRANCH  57  82
ATOM     82  C   UNL A   1      47.305  32.911  28.453  1.00  0.00     0.058 A 
ATOM     83  C   UNL A   1      47.315  33.892  27.450  1.00  0.00     0.135 A 
ATOM     84  C   UNL A   1      47.863  33.243  29.697  1.00  0.00     0.135 A 
ATOM     85  F   UNL A   1      46.799  33.619  26.242  1.00  0.00    -0.206 F 
ATOM     86  C   UNL A   1      47.871  35.148  27.667  1.00  0.00     0.059 A 
ATOM     87  C   UNL A   1      48.402  34.500  29.946  1.00  0.00     0.059 A 
ATOM     88  F   UNL A   1      47.865  32.344  30.695  1.00  0.00    -0.206 F 
ATOM     89  C   UNL A   1      48.410  35.444  28.920  1.00  0.00     0.060 A 
BRANCH  89  90
ATOM     90  S   UNL A   1      49.079  37.096  29.214  1.00  0.00     0.124 S 
ATOM     91  O   UNL A   1      47.959  37.941  28.816  1.00  0.00    -0.237 OA
ATOM     92  O   UNL A   1      49.379  37.058  30.641  1.00  0.00    -0.237 OA
ATOM     93  O   UNL A   1      50.248  37.142  28.338  1.00  0.00    -0.744 OA
ENDBRANCH  89  90
ENDBRANCH  57  82
BRANCH  69  94
ATOM     94  C   UNL A   1      49.982  26.794  26.454  1.00  0.00     0.058 A 
ATOM     95  C   UNL A   1      50.372  26.730  25.107  1.00  0.00     0.135 A 
ATOM     96  C   UNL A   1      50.938  26.474  27.431  1.00  0.00     0.135 A 
ATOM     97  F   UNL A   1      49.494  27.025  24.135  1.00  0.00    -0.206 F 
ATOM     98  C   UNL A   1      51.649  26.319  24.740  1.00  0.00     0.059 A 
ATOM     99  C   UNL A   1      52.228  26.086  27.088  1.00  0.00     0.059 A 
ATOM    100  F   UNL A   1      50.621  26.534  28.734  1.00  0.00    -0.206 F 
ATOM    101  C   UNL A   1      52.568  25.992  25.738  1.00  0.00     0.060 A 
BRANCH 101 102
ATOM    102  S   UNL A   1      54.219  25.449  25.252  1.00  0.00     0.124 S 
ATOM    103  O   UNL A   1      54.519  26.367  24.158  1.00  0.00    -0.237 OA
ATOM    104  O   UNL A   1      54.990  25.648  26.476  1.00  0.00    -0.237 OA
ATOM    105  O   UNL A   1      54.017  24.055  24.867  1.00  0.00    -0.744 OA
ENDBRANCH 101 102
ENDBRANCH  69  94
ENDBRANCH  43  44
ENDBRANCH  36  38
ENDBRANCH  35  36
ENDBRANCH  34  35
ENDBRANCH  33  34
ENDBRANCH  32  33
ENDBRANCH  31  32
ENDBRANCH   1  31
TORSDOF 23
ENDMDL
MODEL 3
REMARK VINA RESULT:     -10.0      1.464      7.979
REMARK SMILES O=C(COc1ccc(/C=N/NC(=O)c2cc3cc([N+](=O)[O-])ccc3o2)cc1)OCCOCCOC(=O)c1ccc(-c2c3nc(c(-c4c(F)cc(S(=O)(=O)[O-])cc4F)c4ccc([nH]4)c(-c4c(F)cc(S(=O)(=O)[O-])cc4F)c4nc(c(-c5c(F)cc(S(=O)(=O)[O-])cc5F)c5ccc2[nH]5)C=C4)C=C3)cc1
REMARK SMILES IDX 29 1 28 2 2 3 1 4 3 5 4 6 5 7 6 8 27 9 7 10 26 11 8 12 9 13
REMARK SMILES IDX 10 14 11 15 12 16 13 18 14 19 15 20 25 21 16 22 24 23 17 24
REMARK SMILES IDX 23 25 18 26 22 27 19 28 20 29 21 30 30 31 31 32 32 33 33 34
REMARK SMILES IDX 34 35 35 36 36 37 37 38 38 39 102 40 39 41 101 42 40 43
REMARK SMILES IDX 41 44 42 45 95 46 43 47 100 48 94 49 96 50 44 51 99 52 93 53
REMARK SMILES IDX 92 54 45 56 79 57 58 58 78 59 59 60 62 61 77 62 97 63 60 64
REMARK SMILES IDX 61 65 76 67 98 68 63 69 46 70 47 71 56 72 48 73 49 74 55 75
REMARK SMILES IDX 57 76 50 77 51 78 52 79 53 80 54 81 80 82 81 83 90 84 82 85
REMARK SMILES IDX 83 86 89 87 91 88 84 89 85 90 86 91 87 92 88 93 64 94 65 95
REMARK SMILES IDX 74 96 66 97 67 98 73 99 75 100 68 101 69 102 70 103 71 104
REMARK SMILES IDX 72 105
REMARK H PARENT 11 17 96 55 62 66
REMARK Flexibility Score: inf
ROOT
ATOM      1  C   UNL A   1      36.218  33.378  28.525  1.00  0.00     0.261 C 
ENDROOT
BRANCH   1   2
ATOM      2  O   UNL A   1      35.099  33.377  27.620  1.00  0.00    -0.461 OA
BRANCH   2   3
ATOM      3  C   UNL A   1      33.821  33.120  27.981  1.00  0.00     0.344 C 
ATOM      4  O   UNL A   1      33.135  34.012  28.483  1.00  0.00    -0.248 OA
BRANCH   3   5
ATOM      5  C   UNL A   1      33.239  31.727  27.767  1.00  0.00     0.351 C 
BRANCH   5   6
ATOM      6  O   UNL A   1      33.807  30.835  26.830  1.00  0.00    -0.482 OA
BRANCH   6   7
ATOM      7  C   UNL A   1      33.276  29.581  26.786  1.00  0.00     0.120 A 
ATOM      8  C   UNL A   1      34.092  28.630  26.176  1.00  0.00     0.047 A 
ATOM      9  C   UNL A   1      32.001  29.223  27.233  1.00  0.00     0.047 A 
ATOM     10  C   UNL A   1      33.664  27.311  26.075  1.00  0.00     0.013 A 
ATOM     11  C   UNL A   1      31.557  27.909  27.116  1.00  0.00     0.013 A 
ATOM     12  C   UNL A   1      32.402  26.956  26.557  1.00  0.00    -0.005 A 
BRANCH  12  13
ATOM     13  C   UNL A   1      31.912  25.580  26.410  1.00  0.00     0.141 C 
ATOM     14  N   UNL A   1      32.738  24.594  26.479  1.00  0.00    -0.180 NA
BRANCH  14  15
ATOM     15  N   UNL A   1      32.311  23.348  26.182  1.00  0.00    -0.240 N 
ATOM     16  C   UNL A   1      32.118  22.674  25.000  1.00  0.00     0.307 C 
ATOM     17  H   UNL A   1      32.094  22.809  26.977  1.00  0.00     0.194 HD
ATOM     18  O   UNL A   1      32.093  21.441  25.059  1.00  0.00    -0.264 OA
BRANCH  16  19
ATOM     19  C   UNL A   1      31.823  23.350  23.753  1.00  0.00     0.194 A 
ATOM     20  C   UNL A   1      30.656  24.001  23.369  1.00  0.00     0.065 A 
ATOM     21  O   UNL A   1      32.895  23.973  23.159  1.00  0.00    -0.451 OA
ATOM     22  C   UNL A   1      31.081  25.285  22.913  1.00  0.00     0.028 A 
ATOM     23  C   UNL A   1      32.462  25.208  22.794  1.00  0.00     0.135 A 
ATOM     24  C   UNL A   1      30.453  26.533  22.756  1.00  0.00     0.097 A 
ATOM     25  C   UNL A   1      33.295  26.284  22.499  1.00  0.00     0.055 A 
ATOM     26  C   UNL A   1      31.287  27.660  22.611  1.00  0.00     0.270 A 
ATOM     27  C   UNL A   1      32.680  27.540  22.464  1.00  0.00     0.089 A 
BRANCH  26  28
ATOM     28  N   UNL A   1      30.698  28.999  22.740  1.00  0.00     0.062 N 
ATOM     29  O   UNL A   1      30.668  29.508  23.868  1.00  0.00    -0.258 OA
ATOM     30  O   UNL A   1      30.281  29.544  21.707  1.00  0.00    -0.258 OA
ENDBRANCH  26  28
ENDBRANCH  16  19
ENDBRANCH  14  15
ENDBRANCH  12  13
ENDBRANCH   6   7
ENDBRANCH   5   6
ENDBRANCH   3   5
ENDBRANCH   2   3
ENDBRANCH   1   2
BRANCH   1  31
ATOM     31  C   UNL A   1      36.224  32.155  29.437  1.00  0.00     0.202 C 
BRANCH  31  32
ATOM     32  O   UNL A   1      36.589  30.926  28.812  1.00  0.00    -0.374 OA
BRANCH  32  33
ATOM     33  C   UNL A   1      36.149  29.723  29.455  1.00  0.00     0.202 C 
BRANCH  33  34
ATOM     34  C   UNL A   1      37.170  28.981  30.322  1.00  0.00     0.261 C 
BRANCH  34  35
ATOM     35  O   UNL A   1      37.022  29.317  31.711  1.00  0.00    -0.460 OA
BRANCH  35  36
ATOM     36  C   UNL A   1      37.654  30.458  32.078  1.00  0.00     0.338 C 
ATOM     37  O   UNL A   1      37.167  31.399  32.679  1.00  0.00    -0.246 OA
BRANCH  36  38
ATOM     38  C   UNL A   1      39.106  30.339  31.828  1.00  0.00     0.060 A 
ATOM     39  C   UNL A   1      39.577  30.850  30.611  1.00  0.00     0.016 A 
ATOM     40  C   UNL A   1      39.981  29.709  32.718  1.00  0.00     0.016 A 
ATOM     41  C   UNL A   1      40.900  30.647  30.238  1.00  0.00     0.010 A 
ATOM     42  C   UNL A   1      41.312  29.502  32.341  1.00  0.00     0.010 A 
ATOM     43  C   UNL A   1      41.757  29.922  31.075  1.00  0.00    -0.014 A 
BRANCH  43  44
ATOM     44  C   UNL A   1      43.044  29.448  30.514  1.00  0.00     0.031 A 
ATOM     45  C   UNL A   1      43.080  28.106  29.833  1.00  0.00     0.074 A 
ATOM     46  C   UNL A   1      44.126  30.245  30.520  1.00  0.00     0.049 A 
ATOM     47  N   UNL A   1      44.060  27.526  29.194  1.00  0.00    -0.248 NA
ATOM     48  C   UNL A   1      41.839  27.312  29.876  1.00  0.00     0.031 C 
ATOM     49  C   UNL A   1      44.193  31.572  31.131  1.00  0.00     0.029 A 
ATOM     50  N   UNL A   1      45.374  30.055  29.985  1.00  0.00    -0.354 N 
ATOM     51  C   UNL A   1      43.553  26.312  28.744  1.00  0.00     0.074 A 
ATOM     52  C   UNL A   1      42.194  26.215  29.224  1.00  0.00     0.031 C 
ATOM     53  C   UNL A   1      45.424  32.077  30.940  1.00  0.00     0.029 A 
ATOM     54  C   UNL A   1      46.231  31.106  30.203  1.00  0.00     0.049 A 
ATOM     55  H   UNL A   1      45.631  29.244  29.492  1.00  0.00     0.167 HD
ATOM     56  C   UNL A   1      44.161  25.371  27.983  1.00  0.00     0.037 A 
ATOM     57  C   UNL A   1      47.522  31.261  29.849  1.00  0.00     0.037 A 
ATOM     58  C   UNL A   1      45.520  25.471  27.519  1.00  0.00     0.049 A 
ATOM     59  C   UNL A   1      48.189  30.185  29.034  1.00  0.00     0.074 A 
ATOM     60  C   UNL A   1      46.240  24.571  26.754  1.00  0.00     0.029 A 
ATOM     61  N   UNL A   1      46.365  26.541  27.777  1.00  0.00    -0.354 N 
ATOM     62  N   UNL A   1      47.692  29.048  28.604  1.00  0.00    -0.248 NA
ATOM     63  C   UNL A   1      49.584  30.419  28.639  1.00  0.00     0.031 C 
ATOM     64  C   UNL A   1      47.532  25.081  26.580  1.00  0.00     0.029 A 
ATOM     65  C   UNL A   1      47.602  26.319  27.199  1.00  0.00     0.049 A 
ATOM     66  H   UNL A   1      46.120  27.341  28.297  1.00  0.00     0.167 HD
ATOM     67  C   UNL A   1      48.710  28.436  27.880  1.00  0.00     0.074 A 
ATOM     68  C   UNL A   1      49.839  29.344  27.908  1.00  0.00     0.031 C 
ATOM     69  C   UNL A   1      48.714  27.234  27.251  1.00  0.00     0.037 A 
BRANCH  56  70
ATOM     70  C   UNL A   1      43.361  24.153  27.616  1.00  0.00     0.058 A 
ATOM     71  C   UNL A   1      43.331  23.018  28.441  1.00  0.00     0.135 A 
ATOM     72  C   UNL A   1      42.596  24.126  26.439  1.00  0.00     0.135 A 
ATOM     73  F   UNL A   1      44.062  22.981  29.567  1.00  0.00    -0.206 F 
ATOM     74  C   UNL A   1      42.588  21.891  28.104  1.00  0.00     0.059 A 
ATOM     75  C   UNL A   1      41.826  23.019  26.093  1.00  0.00     0.059 A 
ATOM     76  F   UNL A   1      42.595  25.182  25.609  1.00  0.00    -0.206 F 
ATOM     77  C   UNL A   1      41.838  21.902  26.927  1.00  0.00     0.060 A 
BRANCH  77  78
ATOM     78  S   UNL A   1      40.868  20.436  26.507  1.00  0.00     0.124 S 
ATOM     79  O   UNL A   1      40.782  19.764  27.801  1.00  0.00    -0.237 OA
ATOM     80  O   UNL A   1      39.625  21.016  26.011  1.00  0.00    -0.237 OA
ATOM     81  O   UNL A   1      41.687  19.763  25.504  1.00  0.00    -0.744 OA
ENDBRANCH  77  78
ENDBRANCH  56  70
BRANCH  57  82
ATOM     82  C   UNL A   1      48.265  32.477  30.270  1.00  0.00     0.058 A 
ATOM     83  C   UNL A   1      48.339  33.613  29.450  1.00  0.00     0.135 A 
ATOM     84  C   UNL A   1      48.916  32.524  31.513  1.00  0.00     0.135 A 
ATOM     85  F   UNL A   1      47.739  33.613  28.251  1.00  0.00    -0.206 F 
ATOM     86  C   UNL A   1      49.044  34.747  29.841  1.00  0.00     0.059 A 
ATOM     87  C   UNL A   1      49.606  33.655  31.936  1.00  0.00     0.059 A 
ATOM     88  F   UNL A   1      48.864  31.468  32.340  1.00  0.00    -0.206 F 
ATOM     89  C   UNL A   1      49.673  34.759  31.087  1.00  0.00     0.060 A 
BRANCH  89  90
ATOM     90  S   UNL A   1      50.539  36.255  31.612  1.00  0.00     0.124 S 
ATOM     91  O   UNL A   1      50.243  37.166  30.513  1.00  0.00    -0.237 OA
ATOM     92  O   UNL A   1      49.892  36.554  32.885  1.00  0.00    -0.237 OA
ATOM     93  O   UNL A   1      51.929  35.816  31.713  1.00  0.00    -0.744 OA
ENDBRANCH  89  90
ENDBRANCH  57  82
BRANCH  69  94
ATOM     94  C   UNL A   1      49.979  26.846  26.538  1.00  0.00     0.058 A 
ATOM     95  C   UNL A   1      50.163  27.112  25.172  1.00  0.00     0.135 A 
ATOM     96  C   UNL A   1      51.022  26.210  27.230  1.00  0.00     0.135 A 
ATOM     97  F   UNL A   1      49.196  27.717  24.465  1.00  0.00    -0.206 F 
ATOM     98  C   UNL A   1      51.321  26.722  24.507  1.00  0.00     0.059 A 
ATOM     99  C   UNL A   1      52.198  25.835  26.591  1.00  0.00     0.059 A 
ATOM    100  F   UNL A   1      50.902  25.947  28.541  1.00  0.00    -0.206 F 
ATOM    101  C   UNL A   1      52.330  26.076  25.223  1.00  0.00     0.060 A 
BRANCH 101 102
ATOM    102  S   UNL A   1      53.822  25.563  24.349  1.00  0.00     0.124 S 
ATOM    103  O   UNL A   1      53.846  24.130  24.627  1.00  0.00    -0.237 OA
ATOM    104  O   UNL A   1      53.525  25.936  22.970  1.00  0.00    -0.237 OA
ATOM    105  O   UNL A   1      54.876  26.345  24.990  1.00  0.00    -0.744 OA
ENDBRANCH 101 102
ENDBRANCH  69  94
ENDBRANCH  43  44
ENDBRANCH  36  38
ENDBRANCH  35  36
ENDBRANCH  34  35
ENDBRANCH  33  34
ENDBRANCH  32  33
ENDBRANCH  31  32
ENDBRANCH   1  31
TORSDOF 23
ENDMDL
