MODEL 1
REMARK VINA RESULT:     -11.0      0.000      0.000
REMARK SMILES CCOC(=O)c1nc(Nc2cccc(C(=O)OCCOCCOC(=O)c3ccc(-c4c5nc(c(-c6c(F)cc(S(=O)(=O)[O-])cc6F)c6ccc([nH]6)c(-c6c(F)cc(S(=O)(=O)[O-])cc6F)c6nc(c(-c7c(F)cc(S(=O)(=O)[O-])cc7F)c7ccc4[nH]7)C=C6)C=C5)cc3)c2)c2ccccc2n1
REMARK SMILES IDX 19 1 18 2 17 3 15 4 16 5 14 6 10 7 11 8 92 9 12 10 13 11
REMARK SMILES IDX 9 12 8 14 6 15 7 16 99 17 98 18 93 19 97 20 94 21 96 22
REMARK SMILES IDX 95 23 4 24 5 25 3 26 2 27 1 28 20 29 21 30 22 31 23 32 24 33
REMARK SMILES IDX 25 34 26 35 27 36 91 37 28 38 90 39 29 40 30 41 31 42 84 43
REMARK SMILES IDX 32 44 89 45 83 46 85 47 33 48 88 49 82 50 81 51 34 53 68 54
REMARK SMILES IDX 47 55 67 56 48 57 51 58 66 59 86 60 49 61 50 62 65 64 87 65
REMARK SMILES IDX 52 66 35 67 36 68 45 69 37 70 38 71 44 72 46 73 39 74 40 75
REMARK SMILES IDX 41 76 42 77 43 78 69 79 70 80 79 81 71 82 72 83 78 84 80 85
REMARK SMILES IDX 73 86 74 87 75 88 76 89 77 90 53 91 54 92 63 93 55 94 56 95
REMARK SMILES IDX 62 96 64 97 57 98 58 99 59 100 60 101 61 102
REMARK H PARENT 9 13 85 52 51 63
REMARK Flexibility Score: inf
ROOT
ATOM      1  C   UNL A   1      31.836  30.650  26.379  1.00  0.00     0.202 C 
ENDROOT
BRANCH   1   2
ATOM      2  C   UNL A   1      32.111  29.743  25.175  1.00  0.00     0.261 C 
BRANCH   2   3
ATOM      3  O   UNL A   1      31.607  28.418  25.409  1.00  0.00    -0.460 OA
BRANCH   3   4
ATOM      4  C   UNL A   1      32.435  27.404  25.062  1.00  0.00     0.338 C 
ATOM      5  O   UNL A   1      33.529  27.503  24.525  1.00  0.00    -0.246 OA
BRANCH   4   6
ATOM      6  C   UNL A   1      31.927  26.129  25.622  1.00  0.00     0.062 A 
ATOM      7  C   UNL A   1      32.257  23.885  26.510  1.00  0.00     0.040 A 
ATOM      8  C   UNL A   1      30.867  23.760  26.646  1.00  0.00     0.026 A 
ATOM      9  C   UNL A   1      32.773  25.066  25.952  1.00  0.00     0.041 A 
ATOM     10  C   UNL A   1      30.015  24.810  26.290  1.00  0.00     0.003 A 
ATOM     11  C   UNL A   1      30.545  25.999  25.798  1.00  0.00     0.016 A 
BRANCH   7  12
ATOM     12  N   UNL A   1      33.096  22.880  27.041  1.00  0.00    -0.340 N 
ATOM     13  H   UNL A   1      33.168  22.831  28.022  1.00  0.00     0.168 HD
BRANCH  12  14
ATOM     14  C   UNL A   1      33.842  21.936  26.299  1.00  0.00     0.142 A 
ATOM     15  C   UNL A   1      33.925  19.873  25.303  1.00  0.00     0.241 A 
ATOM     16  N   UNL A   1      33.219  20.798  25.962  1.00  0.00    -0.204 NA
ATOM     17  N   UNL A   1      35.199  20.000  24.902  1.00  0.00    -0.222 NA
ATOM     18  C   UNL A   1      35.802  21.149  25.210  1.00  0.00     0.077 A 
ATOM     19  C   UNL A   1      35.180  22.180  25.938  1.00  0.00     0.043 A 
ATOM     20  C   UNL A   1      37.109  21.333  24.777  1.00  0.00     0.029 A 
ATOM     21  C   UNL A   1      35.916  23.358  26.236  1.00  0.00     0.014 A 
ATOM     22  C   UNL A   1      37.820  22.504  25.046  1.00  0.00     0.002 A 
ATOM     23  C   UNL A   1      37.225  23.518  25.783  1.00  0.00     0.001 A 
BRANCH  15  24
ATOM     24  C   UNL A   1      33.189  18.617  24.981  1.00  0.00     0.376 C 
ATOM     25  O   UNL A   1      32.182  18.237  25.561  1.00  0.00    -0.242 OA
BRANCH  24  26
ATOM     26  O   UNL A   1      33.879  17.935  24.029  1.00  0.00    -0.460 OA
BRANCH  26  27
ATOM     27  C   UNL A   1      33.079  17.278  23.035  1.00  0.00     0.230 C 
ATOM     28  C   UNL A   1      32.358  18.289  22.157  1.00  0.00     0.049 C 
ENDBRANCH  26  27
ENDBRANCH  24  26
ENDBRANCH  15  24
ENDBRANCH  12  14
ENDBRANCH   7  12
ENDBRANCH   4   6
ENDBRANCH   3   4
ENDBRANCH   2   3
ENDBRANCH   1   2
BRANCH   1  29
ATOM     29  O   UNL A   1      32.993  31.123  27.075  1.00  0.00    -0.374 OA
BRANCH  29  30
ATOM     30  C   UNL A   1      33.958  30.140  27.449  1.00  0.00     0.202 C 
BRANCH  30  31
ATOM     31  C   UNL A   1      35.122  30.636  28.315  1.00  0.00     0.261 C 
BRANCH  31  32
ATOM     32  O   UNL A   1      35.869  29.545  28.880  1.00  0.00    -0.460 OA
BRANCH  32  33
ATOM     33  C   UNL A   1      36.598  29.863  29.975  1.00  0.00     0.338 C 
ATOM     34  O   UNL A   1      36.184  30.010  31.118  1.00  0.00    -0.246 OA
BRANCH  33  35
ATOM     35  C   UNL A   1      38.035  29.852  29.648  1.00  0.00     0.060 A 
ATOM     36  C   UNL A   1      38.387  29.840  28.291  1.00  0.00     0.016 A 
ATOM     37  C   UNL A   1      39.020  29.792  30.636  1.00  0.00     0.016 A 
ATOM     38  C   UNL A   1      39.723  29.713  27.918  1.00  0.00     0.010 A 
ATOM     39  C   UNL A   1      40.361  29.658  30.259  1.00  0.00     0.010 A 
ATOM     40  C   UNL A   1      40.714  29.582  28.899  1.00  0.00    -0.014 A 
BRANCH  40  41
ATOM     41  C   UNL A   1      42.099  29.229  28.499  1.00  0.00     0.031 A 
ATOM     42  C   UNL A   1      42.402  27.811  28.097  1.00  0.00     0.074 A 
ATOM     43  C   UNL A   1      43.064  30.164  28.469  1.00  0.00     0.049 A 
ATOM     44  N   UNL A   1      43.542  27.277  27.744  1.00  0.00    -0.248 NA
ATOM     45  C   UNL A   1      41.269  26.872  28.094  1.00  0.00     0.031 C 
ATOM     46  C   UNL A   1      42.883  31.576  28.805  1.00  0.00     0.029 A 
ATOM     47  N   UNL A   1      44.393  30.064  28.145  1.00  0.00    -0.354 N 
ATOM     48  C   UNL A   1      43.268  25.938  27.483  1.00  0.00     0.074 A 
ATOM     49  C   UNL A   1      41.860  25.736  27.748  1.00  0.00     0.031 C 
ATOM     50  C   UNL A   1      44.062  32.208  28.682  1.00  0.00     0.029 A 
ATOM     51  C   UNL A   1      45.086  31.241  28.287  1.00  0.00     0.049 A 
ATOM     52  H   UNL A   1      44.811  29.226  27.839  1.00  0.00     0.167 HD
ATOM     53  C   UNL A   1      44.111  24.970  27.052  1.00  0.00     0.037 A 
ATOM     54  C   UNL A   1      46.399  31.504  28.136  1.00  0.00     0.037 A 
ATOM     55  C   UNL A   1      45.511  25.178  26.788  1.00  0.00     0.049 A 
ATOM     56  C   UNL A   1      47.330  30.398  27.712  1.00  0.00     0.074 A 
ATOM     57  C   UNL A   1      46.446  24.265  26.331  1.00  0.00     0.029 A 
ATOM     58  N   UNL A   1      46.180  26.381  26.962  1.00  0.00    -0.354 N 
ATOM     59  N   UNL A   1      47.054  29.143  27.447  1.00  0.00    -0.248 NA
ATOM     60  C   UNL A   1      48.751  30.745  27.562  1.00  0.00     0.031 C 
ATOM     61  C   UNL A   1      47.690  24.904  26.274  1.00  0.00     0.029 A 
ATOM     62  C   UNL A   1      47.520  26.228  26.645  1.00  0.00     0.049 A 
ATOM     63  H   UNL A   1      45.765  27.220  27.267  1.00  0.00     0.167 HD
ATOM     64  C   UNL A   1      48.259  28.557  27.074  1.00  0.00     0.074 A 
ATOM     65  C   UNL A   1      49.266  29.597  27.138  1.00  0.00     0.031 C 
ATOM     66  C   UNL A   1      48.510  27.275  26.709  1.00  0.00     0.037 A 
BRANCH  53  67
ATOM     67  C   UNL A   1      43.546  23.590  26.861  1.00  0.00     0.058 A 
ATOM     68  C   UNL A   1      43.191  23.104  25.592  1.00  0.00     0.135 A 
ATOM     69  C   UNL A   1      43.382  22.730  27.959  1.00  0.00     0.135 A 
ATOM     70  F   UNL A   1      43.311  23.890  24.510  1.00  0.00    -0.206 F 
ATOM     71  C   UNL A   1      42.671  21.825  25.423  1.00  0.00     0.059 A 
ATOM     72  C   UNL A   1      42.888  21.438  27.810  1.00  0.00     0.059 A 
ATOM     73  F   UNL A   1      43.703  23.144  29.195  1.00  0.00    -0.206 F 
ATOM     74  C   UNL A   1      42.521  21.000  26.538  1.00  0.00     0.060 A 
BRANCH  74  75
ATOM     75  S   UNL A   1      41.844  19.343  26.302  1.00  0.00     0.124 S 
ATOM     76  O   UNL A   1      42.213  18.697  27.559  1.00  0.00    -0.237 OA
ATOM     77  O   UNL A   1      40.422  19.609  26.120  1.00  0.00    -0.237 OA
ATOM     78  O   UNL A   1      42.544  18.855  25.117  1.00  0.00    -0.744 OA
ENDBRANCH  74  75
ENDBRANCH  53  67
BRANCH  54  79
ATOM     79  C   UNL A   1      46.915  32.874  28.401  1.00  0.00     0.058 A 
ATOM     80  C   UNL A   1      46.995  33.832  27.379  1.00  0.00     0.135 A 
ATOM     81  C   UNL A   1      47.334  33.253  29.687  1.00  0.00     0.135 A 
ATOM     82  F   UNL A   1      46.618  33.513  26.132  1.00  0.00    -0.206 F 
ATOM     83  C   UNL A   1      47.481  35.113  27.618  1.00  0.00     0.059 A 
ATOM     84  C   UNL A   1      47.800  34.537  29.956  1.00  0.00     0.059 A 
ATOM     85  F   UNL A   1      47.270  32.376  30.701  1.00  0.00    -0.206 F 
ATOM     86  C   UNL A   1      47.878  35.456  28.912  1.00  0.00     0.060 A 
BRANCH  86  87
ATOM     87  S   UNL A   1      48.457  37.139  29.223  1.00  0.00     0.124 S 
ATOM     88  O   UNL A   1      47.908  37.399  30.549  1.00  0.00    -0.237 OA
ATOM     89  O   UNL A   1      49.906  36.983  29.150  1.00  0.00    -0.237 OA
ATOM     90  O   UNL A   1      47.862  37.905  28.131  1.00  0.00    -0.744 OA
ENDBRANCH  86  87
ENDBRANCH  54  79
BRANCH  66  91
ATOM     91  C   UNL A   1      49.920  26.927  26.317  1.00  0.00     0.058 A 
ATOM     92  C   UNL A   1      50.861  26.483  27.259  1.00  0.00     0.135 A 
ATOM     93  C   UNL A   1      50.317  26.985  24.971  1.00  0.00     0.135 A 
ATOM     94  F   UNL A   1      50.535  26.415  28.559  1.00  0.00    -0.206 F 
ATOM     95  C   UNL A   1      52.154  26.130  26.883  1.00  0.00     0.059 A 
ATOM     96  C   UNL A   1      51.596  26.611  24.570  1.00  0.00     0.059 A 
ATOM     97  F   UNL A   1      49.453  27.391  24.027  1.00  0.00    -0.206 F 
ATOM     98  C   UNL A   1      52.512  26.196  25.535  1.00  0.00     0.060 A 
BRANCH  98  99
ATOM     99  S   UNL A   1      54.181  25.703  25.057  1.00  0.00     0.124 S 
ATOM    100  O   UNL A   1      54.044  24.254  24.959  1.00  0.00    -0.237 OA
ATOM    101  O   UNL A   1      54.367  26.409  23.792  1.00  0.00    -0.237 OA
ATOM    102  O   UNL A   1      55.007  26.184  26.161  1.00  0.00    -0.744 OA
ENDBRANCH  98  99
ENDBRANCH  66  91
ENDBRANCH  40  41
ENDBRANCH  33  35
ENDBRANCH  32  33
ENDBRANCH  31  32
ENDBRANCH  30  31
ENDBRANCH  29  30
ENDBRANCH   1  29
TORSDOF 22
ENDMDL
MODEL 2
REMARK VINA RESULT:     -10.8      6.553     11.917
REMARK SMILES CCOC(=O)c1nc(Nc2cccc(C(=O)OCCOCCOC(=O)c3ccc(-c4c5nc(c(-c6c(F)cc(S(=O)(=O)[O-])cc6F)c6ccc([nH]6)c(-c6c(F)cc(S(=O)(=O)[O-])cc6F)c6nc(c(-c7c(F)cc(S(=O)(=O)[O-])cc7F)c7ccc4[nH]7)C=C6)C=C5)cc3)c2)c2ccccc2n1
REMARK SMILES IDX 19 1 18 2 17 3 15 4 16 5 14 6 10 7 11 8 92 9 12 10 13 11
REMARK SMILES IDX 9 12 8 14 6 15 7 16 99 17 98 18 93 19 97 20 94 21 96 22
REMARK SMILES IDX 95 23 4 24 5 25 3 26 2 27 1 28 20 29 21 30 22 31 23 32 24 33
REMARK SMILES IDX 25 34 26 35 27 36 91 37 28 38 90 39 29 40 30 41 31 42 84 43
REMARK SMILES IDX 32 44 89 45 83 46 85 47 33 48 88 49 82 50 81 51 34 53 68 54
REMARK SMILES IDX 47 55 67 56 48 57 51 58 66 59 86 60 49 61 50 62 65 64 87 65
REMARK SMILES IDX 52 66 35 67 36 68 45 69 37 70 38 71 44 72 46 73 39 74 40 75
REMARK SMILES IDX 41 76 42 77 43 78 69 79 70 80 79 81 71 82 72 83 78 84 80 85
REMARK SMILES IDX 73 86 74 87 75 88 76 89 77 90 53 91 54 92 63 93 55 94 56 95
REMARK SMILES IDX 62 96 64 97 57 98 58 99 59 100 60 101 61 102
REMARK H PARENT 9 13 85 52 51 63
REMARK Flexibility Score: inf
ROOT
ATOM      1  C   UNL A   1      39.297  21.698  26.249  1.00  0.00     0.202 C 
ENDROOT
BRANCH   1   2
ATOM      2  C   UNL A   1      38.136  21.237  25.362  1.00  0.00     0.261 C 
BRANCH   2   3
ATOM      3  O   UNL A   1      37.191  22.301  25.167  1.00  0.00    -0.460 OA
BRANCH   3   4
ATOM      4  C   UNL A   1      35.895  21.988  25.406  1.00  0.00     0.338 C 
ATOM      5  O   UNL A   1      35.478  21.083  26.116  1.00  0.00    -0.246 OA
BRANCH   4   6
ATOM      6  C   UNL A   1      35.013  23.042  24.848  1.00  0.00     0.062 A 
ATOM      7  C   UNL A   1      33.272  24.730  25.067  1.00  0.00     0.040 A 
ATOM      8  C   UNL A   1      33.385  24.991  23.695  1.00  0.00     0.026 A 
ATOM      9  C   UNL A   1      34.067  23.715  25.626  1.00  0.00     0.041 A 
ATOM     10  C   UNL A   1      34.311  24.300  22.908  1.00  0.00     0.003 A 
ATOM     11  C   UNL A   1      35.137  23.342  23.487  1.00  0.00     0.016 A 
BRANCH   7  12
ATOM     12  N   UNL A   1      32.456  25.564  25.865  1.00  0.00    -0.340 N 
ATOM     13  H   UNL A   1      32.223  25.234  26.763  1.00  0.00     0.168 HD
BRANCH  12  14
ATOM     14  C   UNL A   1      31.944  26.829  25.497  1.00  0.00     0.142 A 
ATOM     15  C   UNL A   1      30.428  28.028  24.264  1.00  0.00     0.241 A 
ATOM     16  N   UNL A   1      30.894  26.840  24.662  1.00  0.00    -0.204 NA
ATOM     17  N   UNL A   1      30.889  29.223  24.663  1.00  0.00    -0.222 NA
ATOM     18  C   UNL A   1      31.910  29.205  25.521  1.00  0.00     0.077 A 
ATOM     19  C   UNL A   1      32.516  28.020  25.979  1.00  0.00     0.043 A 
ATOM     20  C   UNL A   1      32.388  30.423  25.988  1.00  0.00     0.029 A 
ATOM     21  C   UNL A   1      33.615  28.108  26.875  1.00  0.00     0.014 A 
ATOM     22  C   UNL A   1      33.450  30.504  26.891  1.00  0.00     0.002 A 
ATOM     23  C   UNL A   1      34.070  29.343  27.332  1.00  0.00     0.001 A 
BRANCH  15  24
ATOM     24  C   UNL A   1      29.280  27.978  23.315  1.00  0.00     0.376 C 
ATOM     25  O   UNL A   1      28.379  27.153  23.361  1.00  0.00    -0.242 OA
BRANCH  24  26
ATOM     26  O   UNL A   1      29.465  28.918  22.351  1.00  0.00    -0.460 OA
BRANCH  26  27
ATOM     27  C   UNL A   1      28.306  29.692  22.008  1.00  0.00     0.230 C 
ATOM     28  C   UNL A   1      27.932  30.645  23.133  1.00  0.00     0.049 C 
ENDBRANCH  26  27
ENDBRANCH  24  26
ENDBRANCH  15  24
ENDBRANCH  12  14
ENDBRANCH   7  12
ENDBRANCH   4   6
ENDBRANCH   3   4
ENDBRANCH   2   3
ENDBRANCH   1   2
BRANCH   1  29
ATOM     29  O   UNL A   1      40.583  21.170  25.912  1.00  0.00    -0.374 OA
BRANCH  29  30
ATOM     30  C   UNL A   1      41.709  21.780  26.542  1.00  0.00     0.202 C 
BRANCH  30  31
ATOM     31  C   UNL A   1      42.128  23.149  25.992  1.00  0.00     0.261 C 
BRANCH  31  32
ATOM     32  O   UNL A   1      41.158  24.166  26.298  1.00  0.00    -0.460 OA
BRANCH  32  33
ATOM     33  C   UNL A   1      41.573  25.433  26.067  1.00  0.00     0.338 C 
ATOM     34  O   UNL A   1      41.789  25.950  24.978  1.00  0.00    -0.246 OA
BRANCH  33  35
ATOM     35  C   UNL A   1      41.577  26.202  27.325  1.00  0.00     0.060 A 
ATOM     36  C   UNL A   1      40.556  25.934  28.247  1.00  0.00     0.016 A 
ATOM     37  C   UNL A   1      42.516  27.204  27.578  1.00  0.00     0.016 A 
ATOM     38  C   UNL A   1      40.438  26.706  29.401  1.00  0.00     0.010 A 
ATOM     39  C   UNL A   1      42.392  27.982  28.734  1.00  0.00     0.010 A 
ATOM     40  C   UNL A   1      41.333  27.759  29.633  1.00  0.00    -0.014 A 
BRANCH  40  41
ATOM     41  C   UNL A   1      41.073  28.709  30.742  1.00  0.00     0.031 A 
ATOM     42  C   UNL A   1      41.903  28.613  31.994  1.00  0.00     0.074 A 
ATOM     43  C   UNL A   1      40.130  29.660  30.625  1.00  0.00     0.049 A 
ATOM     44  N   UNL A   1      41.826  29.315  33.094  1.00  0.00    -0.248 NA
ATOM     45  C   UNL A   1      42.957  27.587  32.006  1.00  0.00     0.031 C 
ATOM     46  C   UNL A   1      39.286  29.872  29.450  1.00  0.00     0.029 A 
ATOM     47  N   UNL A   1      39.719  30.623  31.512  1.00  0.00    -0.354 N 
ATOM     48  C   UNL A   1      42.816  28.815  33.933  1.00  0.00     0.074 A 
ATOM     49  C   UNL A   1      43.459  27.729  33.226  1.00  0.00     0.031 C 
ATOM     50  C   UNL A   1      38.448  30.894  29.693  1.00  0.00     0.029 A 
ATOM     51  C   UNL A   1      38.676  31.389  31.050  1.00  0.00     0.049 A 
ATOM     52  H   UNL A   1      40.134  30.754  32.395  1.00  0.00     0.167 HD
ATOM     53  C   UNL A   1      43.163  29.230  35.174  1.00  0.00     0.037 A 
ATOM     54  C   UNL A   1      37.972  32.363  31.661  1.00  0.00     0.037 A 
ATOM     55  C   UNL A   1      42.522  30.313  35.872  1.00  0.00     0.049 A 
ATOM     56  C   UNL A   1      38.338  32.770  33.065  1.00  0.00     0.074 A 
ATOM     57  C   UNL A   1      42.811  30.822  37.126  1.00  0.00     0.029 A 
ATOM     58  N   UNL A   1      41.456  31.052  35.379  1.00  0.00    -0.354 N 
ATOM     59  N   UNL A   1      39.290  32.303  33.837  1.00  0.00    -0.248 NA
ATOM     60  C   UNL A   1      37.537  33.839  33.678  1.00  0.00     0.031 C 
ATOM     61  C   UNL A   1      41.892  31.837  37.411  1.00  0.00     0.029 A 
ATOM     62  C   UNL A   1      41.061  31.996  36.313  1.00  0.00     0.049 A 
ATOM     63  H   UNL A   1      41.040  30.924  34.496  1.00  0.00     0.167 HD
ATOM     64  C   UNL A   1      39.220  33.038  35.016  1.00  0.00     0.074 A 
ATOM     65  C   UNL A   1      38.138  33.987  34.852  1.00  0.00     0.031 C 
ATOM     66  C   UNL A   1      39.984  32.938  36.133  1.00  0.00     0.037 A 
BRANCH  53  67
ATOM     67  C   UNL A   1      44.276  28.493  35.868  1.00  0.00     0.058 A 
ATOM     68  C   UNL A   1      44.025  27.394  36.706  1.00  0.00     0.135 A 
ATOM     69  C   UNL A   1      45.613  28.873  35.671  1.00  0.00     0.135 A 
ATOM     70  F   UNL A   1      42.764  26.999  36.943  1.00  0.00    -0.206 F 
ATOM     71  C   UNL A   1      45.059  26.715  37.342  1.00  0.00     0.059 A 
ATOM     72  C   UNL A   1      46.664  28.193  36.277  1.00  0.00     0.059 A 
ATOM     73  F   UNL A   1      45.908  29.919  34.882  1.00  0.00    -0.206 F 
ATOM     74  C   UNL A   1      46.375  27.123  37.123  1.00  0.00     0.060 A 
BRANCH  74  75
ATOM     75  S   UNL A   1      47.707  26.232  37.957  1.00  0.00     0.124 S 
ATOM     76  O   UNL A   1      48.725  27.273  38.071  1.00  0.00    -0.237 OA
ATOM     77  O   UNL A   1      47.075  25.825  39.207  1.00  0.00    -0.237 OA
ATOM     78  O   UNL A   1      48.020  25.147  37.033  1.00  0.00    -0.744 OA
ENDBRANCH  74  75
ENDBRANCH  53  67
BRANCH  54  79
ATOM     79  C   UNL A   1      36.839  33.014  30.950  1.00  0.00     0.058 A 
ATOM     80  C   UNL A   1      37.062  33.956  29.935  1.00  0.00     0.135 A 
ATOM     81  C   UNL A   1      35.509  32.700  31.270  1.00  0.00     0.135 A 
ATOM     82  F   UNL A   1      38.316  34.298  29.602  1.00  0.00    -0.206 F 
ATOM     83  C   UNL A   1      36.008  34.573  29.270  1.00  0.00     0.059 A 
ATOM     84  C   UNL A   1      34.438  33.285  30.601  1.00  0.00     0.059 A 
ATOM     85  F   UNL A   1      35.242  31.798  32.228  1.00  0.00    -0.206 F 
ATOM     86  C   UNL A   1      34.698  34.227  29.609  1.00  0.00     0.060 A 
BRANCH  86  87
ATOM     87  S   UNL A   1      33.337  34.993  28.701  1.00  0.00     0.124 S 
ATOM     88  O   UNL A   1      32.510  35.505  29.788  1.00  0.00    -0.237 OA
ATOM     89  O   UNL A   1      34.030  35.996  27.899  1.00  0.00    -0.237 OA
ATOM     90  O   UNL A   1      32.770  33.881  27.945  1.00  0.00    -0.744 OA
ENDBRANCH  86  87
ENDBRANCH  54  79
BRANCH  66  91
ATOM     91  C   UNL A   1      39.703  33.899  37.255  1.00  0.00     0.058 A 
ATOM     92  C   UNL A   1      38.892  33.546  38.346  1.00  0.00     0.135 A 
ATOM     93  C   UNL A   1      40.298  35.171  37.267  1.00  0.00     0.135 A 
ATOM     94  F   UNL A   1      38.294  32.345  38.382  1.00  0.00    -0.206 F 
ATOM     95  C   UNL A   1      38.665  34.428  39.398  1.00  0.00     0.059 A 
ATOM     96  C   UNL A   1      40.105  36.059  38.321  1.00  0.00     0.059 A 
ATOM     97  F   UNL A   1      41.092  35.556  36.254  1.00  0.00    -0.206 F 
ATOM     98  C   UNL A   1      39.277  35.683  39.377  1.00  0.00     0.060 A 
BRANCH  98  99
ATOM     99  S   UNL A   1      39.001  36.805  40.764  1.00  0.00     0.124 S 
ATOM    100  O   UNL A   1      40.352  36.964  41.288  1.00  0.00    -0.237 OA
ATOM    101  O   UNL A   1      38.434  37.980  40.108  1.00  0.00    -0.237 OA
ATOM    102  O   UNL A   1      38.077  36.066  41.619  1.00  0.00    -0.744 OA
ENDBRANCH  98  99
ENDBRANCH  66  91
ENDBRANCH  40  41
ENDBRANCH  33  35
ENDBRANCH  32  33
ENDBRANCH  31  32
ENDBRANCH  30  31
ENDBRANCH  29  30
ENDBRANCH   1  29
TORSDOF 22
ENDMDL
MODEL 3
REMARK VINA RESULT:     -10.6      3.039      4.313
REMARK SMILES CCOC(=O)c1nc(Nc2cccc(C(=O)OCCOCCOC(=O)c3ccc(-c4c5nc(c(-c6c(F)cc(S(=O)(=O)[O-])cc6F)c6ccc([nH]6)c(-c6c(F)cc(S(=O)(=O)[O-])cc6F)c6nc(c(-c7c(F)cc(S(=O)(=O)[O-])cc7F)c7ccc4[nH]7)C=C6)C=C5)cc3)c2)c2ccccc2n1
REMARK SMILES IDX 19 1 18 2 17 3 15 4 16 5 14 6 10 7 11 8 92 9 12 10 13 11
REMARK SMILES IDX 9 12 8 14 6 15 7 16 99 17 98 18 93 19 97 20 94 21 96 22
REMARK SMILES IDX 95 23 4 24 5 25 3 26 2 27 1 28 20 29 21 30 22 31 23 32 24 33
REMARK SMILES IDX 25 34 26 35 27 36 91 37 28 38 90 39 29 40 30 41 31 42 84 43
REMARK SMILES IDX 32 44 89 45 83 46 85 47 33 48 88 49 82 50 81 51 34 53 68 54
REMARK SMILES IDX 47 55 67 56 48 57 51 58 66 59 86 60 49 61 50 62 65 64 87 65
REMARK SMILES IDX 52 66 35 67 36 68 45 69 37 70 38 71 44 72 46 73 39 74 40 75
REMARK SMILES IDX 41 76 42 77 43 78 69 79 70 80 79 81 71 82 72 83 78 84 80 85
REMARK SMILES IDX 73 86 74 87 75 88 76 89 77 90 53 91 54 92 63 93 55 94 56 95
REMARK SMILES IDX 62 96 64 97 57 98 58 99 59 100 60 101 61 102
REMARK H PARENT 9 13 85 52 51 63
REMARK Flexibility Score: inf
ROOT
ATOM      1  C   UNL A   1      31.588  29.065  23.452  1.00  0.00     0.202 C 
ENDROOT
BRANCH   1   2
ATOM      2  C   UNL A   1      31.139  27.683  22.967  1.00  0.00     0.261 C 
BRANCH   2   3
ATOM      3  O   UNL A   1      31.957  26.651  23.544  1.00  0.00    -0.460 OA
BRANCH   3   4
ATOM      4  C   UNL A   1      31.708  25.392  23.111  1.00  0.00     0.338 C 
ATOM      5  O   UNL A   1      31.818  24.976  21.966  1.00  0.00    -0.246 OA
BRANCH   4   6
ATOM      6  C   UNL A   1      31.478  24.499  24.272  1.00  0.00     0.062 A 
ATOM      7  C   UNL A   1      31.469  22.307  25.333  1.00  0.00     0.040 A 
ATOM      8  C   UNL A   1      30.993  22.905  26.509  1.00  0.00     0.026 A 
ATOM      9  C   UNL A   1      31.667  23.116  24.201  1.00  0.00     0.041 A 
ATOM     10  C   UNL A   1      30.776  24.284  26.574  1.00  0.00     0.003 A 
ATOM     11  C   UNL A   1      31.036  25.082  25.465  1.00  0.00     0.016 A 
BRANCH   7  12
ATOM     12  N   UNL A   1      31.846  20.945  25.353  1.00  0.00    -0.340 N 
ATOM     13  H   UNL A   1      31.127  20.286  25.489  1.00  0.00     0.168 HD
BRANCH  12  14
ATOM     14  C   UNL A   1      33.155  20.438  25.196  1.00  0.00     0.142 A 
ATOM     15  C   UNL A   1      35.413  20.820  25.302  1.00  0.00     0.241 A 
ATOM     16  N   UNL A   1      34.167  21.267  25.492  1.00  0.00    -0.204 NA
ATOM     17  N   UNL A   1      35.749  19.591  24.881  1.00  0.00    -0.222 NA
ATOM     18  C   UNL A   1      34.738  18.761  24.621  1.00  0.00     0.077 A 
ATOM     19  C   UNL A   1      33.384  19.127  24.740  1.00  0.00     0.043 A 
ATOM     20  C   UNL A   1      35.046  17.467  24.222  1.00  0.00     0.029 A 
ATOM     21  C   UNL A   1      32.380  18.175  24.417  1.00  0.00     0.014 A 
ATOM     22  C   UNL A   1      34.057  16.525  23.933  1.00  0.00     0.002 A 
ATOM     23  C   UNL A   1      32.719  16.882  24.025  1.00  0.00     0.001 A 
BRANCH  15  24
ATOM     24  C   UNL A   1      36.496  21.794  25.621  1.00  0.00     0.376 C 
ATOM     25  O   UNL A   1      37.687  21.590  25.435  1.00  0.00    -0.242 OA
BRANCH  24  26
ATOM     26  O   UNL A   1      35.949  22.874  26.239  1.00  0.00    -0.460 OA
BRANCH  26  27
ATOM     27  C   UNL A   1      36.148  24.133  25.580  1.00  0.00     0.230 C 
ATOM     28  C   UNL A   1      34.830  24.868  25.396  1.00  0.00     0.049 C 
ENDBRANCH  26  27
ENDBRANCH  24  26
ENDBRANCH  15  24
ENDBRANCH  12  14
ENDBRANCH   7  12
ENDBRANCH   4   6
ENDBRANCH   3   4
ENDBRANCH   2   3
ENDBRANCH   1   2
BRANCH   1  29
ATOM     29  O   UNL A   1      32.838  29.103  24.146  1.00  0.00    -0.374 OA
BRANCH  29  30
ATOM     30  C   UNL A   1      32.795  29.497  25.517  1.00  0.00     0.202 C 
BRANCH  30  31
ATOM     31  C   UNL A   1      33.830  28.842  26.439  1.00  0.00     0.261 C 
BRANCH  31  32
ATOM     32  O   UNL A   1      33.797  29.404  27.762  1.00  0.00    -0.460 OA
BRANCH  32  33
ATOM     33  C   UNL A   1      34.658  30.429  27.965  1.00  0.00     0.338 C 
ATOM     34  O   UNL A   1      34.373  31.607  28.137  1.00  0.00    -0.246 OA
BRANCH  33  35
ATOM     35  C   UNL A   1      36.030  29.913  28.124  1.00  0.00     0.060 A 
ATOM     36  C   UNL A   1      36.403  29.455  29.395  1.00  0.00     0.016 A 
ATOM     37  C   UNL A   1      36.954  29.931  27.078  1.00  0.00     0.016 A 
ATOM     38  C   UNL A   1      37.717  29.064  29.638  1.00  0.00     0.010 A 
ATOM     39  C   UNL A   1      38.276  29.544  27.325  1.00  0.00     0.010 A 
ATOM     40  C   UNL A   1      38.671  29.143  28.615  1.00  0.00    -0.014 A 
BRANCH  40  41
ATOM     41  C   UNL A   1      40.105  28.936  28.933  1.00  0.00     0.031 A 
ATOM     42  C   UNL A   1      40.740  27.609  28.614  1.00  0.00     0.074 A 
ATOM     43  C   UNL A   1      40.838  29.926  29.474  1.00  0.00     0.049 A 
ATOM     44  N   UNL A   1      41.962  27.201  28.835  1.00  0.00    -0.248 NA
ATOM     45  C   UNL A   1      39.880  26.610  27.960  1.00  0.00     0.031 C 
ATOM     46  C   UNL A   1      40.342  31.263  29.798  1.00  0.00     0.029 A 
ATOM     47  N   UNL A   1      42.156  29.954  29.853  1.00  0.00    -0.354 N 
ATOM     48  C   UNL A   1      42.019  25.898  28.355  1.00  0.00     0.074 A 
ATOM     49  C   UNL A   1      40.700  25.573  27.858  1.00  0.00     0.031 C 
ATOM     50  C   UNL A   1      41.342  31.979  30.339  1.00  0.00     0.029 A 
ATOM     51  C   UNL A   1      42.539  31.143  30.427  1.00  0.00     0.049 A 
ATOM     52  H   UNL A   1      42.770  29.195  29.726  1.00  0.00     0.167 HD
ATOM     53  C   UNL A   1      43.077  25.053  28.321  1.00  0.00     0.037 A 
ATOM     54  C   UNL A   1      43.713  31.506  30.980  1.00  0.00     0.037 A 
ATOM     55  C   UNL A   1      44.389  25.383  28.814  1.00  0.00     0.049 A 
ATOM     56  C   UNL A   1      44.861  30.530  30.984  1.00  0.00     0.074 A 
ATOM     57  C   UNL A   1      45.532  24.603  28.810  1.00  0.00     0.029 A 
ATOM     58  N   UNL A   1      44.732  26.590  29.406  1.00  0.00    -0.354 N 
ATOM     59  N   UNL A   1      44.907  29.309  30.506  1.00  0.00    -0.248 NA
ATOM     60  C   UNL A   1      46.118  30.982  31.598  1.00  0.00     0.031 C 
ATOM     61  C   UNL A   1      46.555  25.320  29.441  1.00  0.00     0.029 A 
ATOM     62  C   UNL A   1      46.063  26.567  29.792  1.00  0.00     0.049 A 
ATOM     63  H   UNL A   1      44.121  27.351  29.535  1.00  0.00     0.167 HD
ATOM     64  C   UNL A   1      46.202  28.857  30.738  1.00  0.00     0.074 A 
ATOM     65  C   UNL A   1      46.911  29.939  31.390  1.00  0.00     0.031 C 
ATOM     66  C   UNL A   1      46.756  27.655  30.437  1.00  0.00     0.037 A 
BRANCH  53  67
ATOM     67  C   UNL A   1      42.853  23.680  27.751  1.00  0.00     0.058 A 
ATOM     68  C   UNL A   1      42.453  22.601  28.556  1.00  0.00     0.135 A 
ATOM     69  C   UNL A   1      43.014  23.445  26.376  1.00  0.00     0.135 A 
ATOM     70  F   UNL A   1      42.301  22.766  29.880  1.00  0.00    -0.206 F 
ATOM     71  C   UNL A   1      42.245  21.333  28.022  1.00  0.00     0.059 A 
ATOM     72  C   UNL A   1      42.787  22.191  25.817  1.00  0.00     0.059 A 
ATOM     73  F   UNL A   1      43.398  24.440  25.561  1.00  0.00    -0.206 F 
ATOM     74  C   UNL A   1      42.416  21.138  26.651  1.00  0.00     0.060 A 
BRANCH  74  75
ATOM     75  S   UNL A   1      42.143  19.487  25.973  1.00  0.00     0.124 S 
ATOM     76  O   UNL A   1      42.648  18.643  27.052  1.00  0.00    -0.237 OA
ATOM     77  O   UNL A   1      40.698  19.465  25.775  1.00  0.00    -0.237 OA
ATOM     78  O   UNL A   1      42.940  19.486  24.750  1.00  0.00    -0.744 OA
ENDBRANCH  74  75
ENDBRANCH  53  67
BRANCH  54  79
ATOM     79  C   UNL A   1      43.859  32.855  31.587  1.00  0.00     0.058 A 
ATOM     80  C   UNL A   1      43.624  33.068  32.954  1.00  0.00     0.135 A 
ATOM     81  C   UNL A   1      44.242  33.961  30.810  1.00  0.00     0.135 A 
ATOM     82  F   UNL A   1      43.244  32.045  33.735  1.00  0.00    -0.206 F 
ATOM     83  C   UNL A   1      43.754  34.327  33.528  1.00  0.00     0.059 A 
ATOM     84  C   UNL A   1      44.402  35.226  31.367  1.00  0.00     0.059 A 
ATOM     85  F   UNL A   1      44.486  33.809  29.499  1.00  0.00    -0.206 F 
ATOM     86  C   UNL A   1      44.147  35.401  32.725  1.00  0.00     0.060 A 
BRANCH  86  87
ATOM     87  S   UNL A   1      44.364  37.022  33.492  1.00  0.00     0.124 S 
ATOM     88  O   UNL A   1      43.506  36.911  34.665  1.00  0.00    -0.237 OA
ATOM     89  O   UNL A   1      45.801  37.049  33.750  1.00  0.00    -0.237 OA
ATOM     90  O   UNL A   1      43.905  37.945  32.458  1.00  0.00    -0.744 OA
ENDBRANCH  86  87
ENDBRANCH  54  79
BRANCH  66  91
ATOM     91  C   UNL A   1      48.208  27.455  30.775  1.00  0.00     0.058 A 
ATOM     92  C   UNL A   1      49.231  27.810  29.882  1.00  0.00     0.135 A 
ATOM     93  C   UNL A   1      48.581  26.952  32.032  1.00  0.00     0.135 A 
ATOM     94  F   UNL A   1      48.929  28.290  28.665  1.00  0.00    -0.206 F 
ATOM     95  C   UNL A   1      50.573  27.654  30.215  1.00  0.00     0.059 A 
ATOM     96  C   UNL A   1      49.917  26.812  32.396  1.00  0.00     0.059 A 
ATOM     97  F   UNL A   1      47.643  26.607  32.929  1.00  0.00    -0.206 F 
ATOM     98  C   UNL A   1      50.906  27.155  31.477  1.00  0.00     0.060 A 
BRANCH  98  99
ATOM     99  S   UNL A   1      52.651  26.989  31.909  1.00  0.00     0.124 S 
ATOM    100  O   UNL A   1      52.666  27.497  33.276  1.00  0.00    -0.237 OA
ATOM    101  O   UNL A   1      52.874  25.553  31.764  1.00  0.00    -0.237 OA
ATOM    102  O   UNL A   1      53.327  27.823  30.920  1.00  0.00    -0.744 OA
ENDBRANCH  98  99
ENDBRANCH  66  91
ENDBRANCH  40  41
ENDBRANCH  33  35
ENDBRANCH  32  33
ENDBRANCH  31  32
ENDBRANCH  30  31
ENDBRANCH  29  30
ENDBRANCH   1  29
TORSDOF 22
ENDMDL
