MODEL 1
REMARK VINA RESULT:     -10.5      0.000      0.000
REMARK SMILES CC/C(=C/C(=O)[C@H](Cc1ccc(Cl)cc1Cl)C(=O)OCCOCCOC(=O)c1ccc(-c2c3nc(c(-c4c(F)cc(S(=O)(=O)[O-])cc4F)c4ccc([nH]4)c(-c4c(F)cc(S(=O)(=O)[O-])cc4F)c4nc(c(-c5c(F)cc(S(=O)(=O)[O-])cc5F)c5ccc2[nH]5)C=C4)C=C3)cc1)N(C)C
REMARK SMILES IDX 22 1 21 2 20 3 19 4 17 5 18 6 7 7 5 8 6 9 4 10 3 11 2 12
REMARK SMILES IDX 1 13 94 14 95 15 96 16 8 17 9 18 10 19 15 20 11 21 14 22
REMARK SMILES IDX 16 23 12 24 13 25 23 26 24 27 25 28 26 29 27 30 28 31 29 32
REMARK SMILES IDX 93 33 30 34 92 35 31 36 32 37 33 38 86 39 34 40 91 41 85 42
REMARK SMILES IDX 87 43 35 44 90 45 84 46 83 47 36 49 70 50 49 51 69 52 50 53
REMARK SMILES IDX 53 54 68 55 88 56 51 57 52 58 67 60 89 61 54 62 37 63 38 64
REMARK SMILES IDX 47 65 39 66 40 67 46 68 48 69 41 70 42 71 43 72 44 73 45 74
REMARK SMILES IDX 71 75 72 76 81 77 73 78 74 79 80 80 82 81 75 82 76 83 77 84
REMARK SMILES IDX 78 85 79 86 55 87 56 88 65 89 57 90 58 91 64 92 66 93 59 94
REMARK SMILES IDX 60 95 61 96 62 97 63 98
REMARK H PARENT 87 48 53 59
REMARK Flexibility Score: inf
ROOT
ATOM      1  O   UNL A   1      37.810  22.291  26.237  1.00  0.00    -0.374 OA
ENDROOT
BRANCH   1   2
ATOM      2  C   UNL A   1      37.035  22.181  25.045  1.00  0.00     0.202 C 
BRANCH   2   3
ATOM      3  C   UNL A   1      35.540  21.865  25.185  1.00  0.00     0.261 C 
BRANCH   3   4
ATOM      4  O   UNL A   1      34.731  23.002  25.555  1.00  0.00    -0.463 OA
BRANCH   4   5
ATOM      5  C   UNL A   1      33.765  23.333  24.657  1.00  0.00     0.317 C 
ATOM      6  O   UNL A   1      34.001  23.713  23.512  1.00  0.00    -0.251 OA
BRANCH   5   7
ATOM      7  C   UNL A   1      32.335  23.130  25.130  1.00  0.00     0.175 C 
BRANCH   7   8
ATOM      8  C   UNL A   1      32.201  23.884  26.456  1.00  0.00     0.171 C 
ATOM      9  O   UNL A   1      32.156  23.269  27.528  1.00  0.00    -0.294 OA
BRANCH   8  10
ATOM     10  C   UNL A   1      32.316  25.371  26.558  1.00  0.00     0.069 C 
ATOM     11  C   UNL A   1      32.031  26.448  25.793  1.00  0.00     0.016 C 
BRANCH  11  12
ATOM     12  C   UNL A   1      32.305  27.792  26.494  1.00  0.00     0.050 C 
ATOM     13  C   UNL A   1      33.748  28.266  26.375  1.00  0.00     0.010 C 
ENDBRANCH  11  12
BRANCH  11  14
ATOM     14  N   UNL A   1      31.431  26.539  24.524  1.00  0.00    -0.381 N 
ATOM     15  C   UNL A   1      32.195  26.838  23.300  1.00  0.00     0.143 C 
ATOM     16  C   UNL A   1      30.100  26.065  24.201  1.00  0.00     0.143 C 
ENDBRANCH  11  14
ENDBRANCH   8  10
ENDBRANCH   7   8
BRANCH   7  17
ATOM     17  C   UNL A   1      31.828  21.681  25.372  1.00  0.00     0.060 C 
BRANCH  17  18
ATOM     18  C   UNL A   1      32.314  20.387  24.708  1.00  0.00    -0.028 A 
ATOM     19  C   UNL A   1      32.760  19.409  25.638  1.00  0.00     0.007 A 
ATOM     20  C   UNL A   1      32.313  19.993  23.360  1.00  0.00     0.045 A 
ATOM     21  C   UNL A   1      33.233  18.152  25.247  1.00  0.00     0.021 A 
ATOM     22  C   UNL A   1      32.775  18.721  22.967  1.00  0.00     0.041 A 
ATOM     23  Cl  UNL A   1      31.872  20.985  22.034  1.00  0.00    -0.084 Cl
ATOM     24  C   UNL A   1      33.252  17.818  23.904  1.00  0.00     0.042 A 
ATOM     25  Cl  UNL A   1      33.888  16.307  23.389  1.00  0.00    -0.084 Cl
ENDBRANCH  17  18
ENDBRANCH   7  17
ENDBRANCH   5   7
ENDBRANCH   4   5
ENDBRANCH   3   4
ENDBRANCH   2   3
ENDBRANCH   1   2
BRANCH   1  26
ATOM     26  C   UNL A   1      39.207  22.035  26.137  1.00  0.00     0.202 C 
BRANCH  26  27
ATOM     27  C   UNL A   1      40.166  23.156  26.548  1.00  0.00     0.261 C 
BRANCH  27  28
ATOM     28  O   UNL A   1      39.551  24.447  26.544  1.00  0.00    -0.460 OA
BRANCH  28  29
ATOM     29  C   UNL A   1      40.439  25.463  26.417  1.00  0.00     0.338 C 
ATOM     30  O   UNL A   1      40.937  25.894  25.393  1.00  0.00    -0.246 OA
BRANCH  29  31
ATOM     31  C   UNL A   1      40.589  26.134  27.712  1.00  0.00     0.060 A 
ATOM     32  C   UNL A   1      39.523  26.029  28.613  1.00  0.00     0.016 A 
ATOM     33  C   UNL A   1      41.699  26.933  27.983  1.00  0.00     0.016 A 
ATOM     34  C   UNL A   1      39.535  26.778  29.779  1.00  0.00     0.010 A 
ATOM     35  C   UNL A   1      41.705  27.695  29.151  1.00  0.00     0.010 A 
ATOM     36  C   UNL A   1      40.602  27.652  30.023  1.00  0.00    -0.014 A 
BRANCH  36  37
ATOM     37  C   UNL A   1      40.447  28.669  31.083  1.00  0.00     0.031 A 
ATOM     38  C   UNL A   1      41.346  28.583  32.283  1.00  0.00     0.074 A 
ATOM     39  C   UNL A   1      39.570  29.674  30.928  1.00  0.00     0.049 A 
ATOM     40  N   UNL A   1      41.401  29.354  33.334  1.00  0.00    -0.248 NA
ATOM     41  C   UNL A   1      42.319  27.475  32.299  1.00  0.00     0.031 C 
ATOM     42  C   UNL A   1      38.695  29.858  29.769  1.00  0.00     0.029 A 
ATOM     43  N   UNL A   1      39.275  30.732  31.745  1.00  0.00    -0.354 N 
ATOM     44  C   UNL A   1      42.406  28.827  34.137  1.00  0.00     0.074 A 
ATOM     45  C   UNL A   1      42.914  27.650  33.470  1.00  0.00     0.031 C 
ATOM     46  C   UNL A   1      37.954  30.963  29.954  1.00  0.00     0.029 A 
ATOM     47  C   UNL A   1      38.282  31.545  31.253  1.00  0.00     0.049 A 
ATOM     48  H   UNL A   1      39.730  30.894  32.602  1.00  0.00     0.167 HD
ATOM     49  C   UNL A   1      42.867  29.294  35.319  1.00  0.00     0.037 A 
ATOM     50  C   UNL A   1      37.699  32.624  31.807  1.00  0.00     0.037 A 
ATOM     51  C   UNL A   1      42.343  30.470  35.960  1.00  0.00     0.049 A 
ATOM     52  C   UNL A   1      38.190  33.091  33.154  1.00  0.00     0.074 A 
ATOM     53  C   UNL A   1      42.722  31.041  37.161  1.00  0.00     0.029 A 
ATOM     54  N   UNL A   1      41.319  31.256  35.446  1.00  0.00    -0.354 N 
ATOM     55  N   UNL A   1      39.144  32.588  33.902  1.00  0.00    -0.248 NA
ATOM     56  C   UNL A   1      37.534  34.272  33.728  1.00  0.00     0.031 C 
ATOM     57  C   UNL A   1      41.897  32.146  37.394  1.00  0.00     0.029 A 
ATOM     58  C   UNL A   1      41.041  32.297  36.314  1.00  0.00     0.049 A 
ATOM     59  H   UNL A   1      40.859  31.094  34.591  1.00  0.00     0.167 HD
ATOM     60  C   UNL A   1      39.225  33.409  35.021  1.00  0.00     0.074 A 
ATOM     61  C   UNL A   1      38.226  34.446  34.845  1.00  0.00     0.031 C 
ATOM     62  C   UNL A   1      40.047  33.320  36.095  1.00  0.00     0.037 A 
BRANCH  49  63
ATOM     63  C   UNL A   1      43.963  28.522  36.000  1.00  0.00     0.058 A 
ATOM     64  C   UNL A   1      43.690  27.433  36.844  1.00  0.00     0.135 A 
ATOM     65  C   UNL A   1      45.310  28.860  35.787  1.00  0.00     0.135 A 
ATOM     66  F   UNL A   1      42.421  27.081  37.103  1.00  0.00    -0.206 F 
ATOM     67  C   UNL A   1      44.710  26.721  37.468  1.00  0.00     0.059 A 
ATOM     68  C   UNL A   1      46.347  28.145  36.380  1.00  0.00     0.059 A 
ATOM     69  F   UNL A   1      45.629  29.897  34.997  1.00  0.00    -0.206 F 
ATOM     70  C   UNL A   1      46.037  27.084  37.229  1.00  0.00     0.060 A 
BRANCH  70  71
ATOM     71  S   UNL A   1      47.349  26.141  38.033  1.00  0.00     0.124 S 
ATOM     72  O   UNL A   1      46.944  24.769  37.742  1.00  0.00    -0.237 OA
ATOM     73  O   UNL A   1      48.542  26.610  37.336  1.00  0.00    -0.237 OA
ATOM     74  O   UNL A   1      47.247  26.540  39.433  1.00  0.00    -0.744 OA
ENDBRANCH  70  71
ENDBRANCH  49  63
BRANCH  50  75
ATOM     75  C   UNL A   1      36.592  33.321  31.099  1.00  0.00     0.058 A 
ATOM     76  C   UNL A   1      36.836  34.120  29.973  1.00  0.00     0.135 A 
ATOM     77  C   UNL A   1      35.262  33.194  31.533  1.00  0.00     0.135 A 
ATOM     78  F   UNL A   1      38.089  34.277  29.521  1.00  0.00    -0.206 F 
ATOM     79  C   UNL A   1      35.806  34.784  29.313  1.00  0.00     0.059 A 
ATOM     80  C   UNL A   1      34.212  33.825  30.874  1.00  0.00     0.059 A 
ATOM     81  F   UNL A   1      34.972  32.428  32.596  1.00  0.00    -0.206 F 
ATOM     82  C   UNL A   1      34.496  34.629  29.771  1.00  0.00     0.060 A 
BRANCH  82  83
ATOM     83  S   UNL A   1      33.162  35.466  28.886  1.00  0.00     0.124 S 
ATOM     84  O   UNL A   1      32.536  34.354  28.179  1.00  0.00    -0.237 OA
ATOM     85  O   UNL A   1      32.387  36.046  29.978  1.00  0.00    -0.237 OA
ATOM     86  O   UNL A   1      33.868  36.430  28.048  1.00  0.00    -0.744 OA
ENDBRANCH  82  83
ENDBRANCH  50  75
BRANCH  62  87
ATOM     87  C   UNL A   1      39.935  34.395  37.139  1.00  0.00     0.058 A 
ATOM     88  C   UNL A   1      40.752  35.535  37.116  1.00  0.00     0.135 A 
ATOM     89  C   UNL A   1      38.949  34.309  38.135  1.00  0.00     0.135 A 
ATOM     90  F   UNL A   1      41.711  35.662  36.186  1.00  0.00    -0.206 F 
ATOM     91  C   UNL A   1      40.608  36.546  38.060  1.00  0.00     0.059 A 
ATOM     92  C   UNL A   1      38.770  35.321  39.071  1.00  0.00     0.059 A 
ATOM     93  F   UNL A   1      38.135  33.243  38.192  1.00  0.00    -0.206 F 
ATOM     94  C   UNL A   1      39.612  36.431  39.031  1.00  0.00     0.060 A 
BRANCH  94  95
ATOM     95  S   UNL A   1      39.411  37.769  40.225  1.00  0.00     0.124 S 
ATOM     96  O   UNL A   1      38.105  38.302  39.852  1.00  0.00    -0.237 OA
ATOM     97  O   UNL A   1      39.467  37.061  41.500  1.00  0.00    -0.237 OA
ATOM     98  O   UNL A   1      40.547  38.644  39.951  1.00  0.00    -0.744 OA
ENDBRANCH  94  95
ENDBRANCH  62  87
ENDBRANCH  36  37
ENDBRANCH  29  31
ENDBRANCH  28  29
ENDBRANCH  27  28
ENDBRANCH  26  27
ENDBRANCH   1  26
TORSDOF 23
ENDMDL
MODEL 2
REMARK VINA RESULT:     -10.0      0.535      8.143
REMARK SMILES CC/C(=C/C(=O)[C@H](Cc1ccc(Cl)cc1Cl)C(=O)OCCOCCOC(=O)c1ccc(-c2c3nc(c(-c4c(F)cc(S(=O)(=O)[O-])cc4F)c4ccc([nH]4)c(-c4c(F)cc(S(=O)(=O)[O-])cc4F)c4nc(c(-c5c(F)cc(S(=O)(=O)[O-])cc5F)c5ccc2[nH]5)C=C4)C=C3)cc1)N(C)C
REMARK SMILES IDX 22 1 21 2 20 3 19 4 17 5 18 6 7 7 5 8 6 9 4 10 3 11 2 12
REMARK SMILES IDX 1 13 94 14 95 15 96 16 8 17 9 18 10 19 15 20 11 21 14 22
REMARK SMILES IDX 16 23 12 24 13 25 23 26 24 27 25 28 26 29 27 30 28 31 29 32
REMARK SMILES IDX 93 33 30 34 92 35 31 36 32 37 33 38 86 39 34 40 91 41 85 42
REMARK SMILES IDX 87 43 35 44 90 45 84 46 83 47 36 49 70 50 49 51 69 52 50 53
REMARK SMILES IDX 53 54 68 55 88 56 51 57 52 58 67 60 89 61 54 62 37 63 38 64
REMARK SMILES IDX 47 65 39 66 40 67 46 68 48 69 41 70 42 71 43 72 44 73 45 74
REMARK SMILES IDX 71 75 72 76 81 77 73 78 74 79 80 80 82 81 75 82 76 83 77 84
REMARK SMILES IDX 78 85 79 86 55 87 56 88 65 89 57 90 58 91 64 92 66 93 59 94
REMARK SMILES IDX 60 95 61 96 62 97 63 98
REMARK H PARENT 87 48 53 59
REMARK Flexibility Score: inf
ROOT
ATOM      1  O   UNL A   1      37.732  22.594  26.139  1.00  0.00    -0.374 OA
ENDROOT
BRANCH   1   2
ATOM      2  C   UNL A   1      37.101  22.784  24.875  1.00  0.00     0.202 C 
BRANCH   2   3
ATOM      3  C   UNL A   1      35.699  22.192  24.675  1.00  0.00     0.261 C 
BRANCH   3   4
ATOM      4  O   UNL A   1      34.657  22.899  25.382  1.00  0.00    -0.463 OA
BRANCH   4   5
ATOM      5  C   UNL A   1      33.647  23.362  24.598  1.00  0.00     0.317 C 
ATOM      6  O   UNL A   1      33.823  23.898  23.506  1.00  0.00    -0.251 OA
BRANCH   5   7
ATOM      7  C   UNL A   1      32.243  23.106  25.123  1.00  0.00     0.175 C 
BRANCH   7   8
ATOM      8  C   UNL A   1      32.140  23.829  26.468  1.00  0.00     0.171 C 
ATOM      9  O   UNL A   1      31.943  23.193  27.511  1.00  0.00    -0.294 OA
BRANCH   8  10
ATOM     10  C   UNL A   1      32.461  25.279  26.637  1.00  0.00     0.069 C 
ATOM     11  C   UNL A   1      32.307  26.423  25.933  1.00  0.00     0.016 C 
BRANCH  11  12
ATOM     12  C   UNL A   1      32.781  27.679  26.688  1.00  0.00     0.050 C 
ATOM     13  C   UNL A   1      31.766  28.816  26.690  1.00  0.00     0.010 C 
ENDBRANCH  11  12
BRANCH  11  14
ATOM     14  N   UNL A   1      31.693  26.660  24.690  1.00  0.00    -0.381 N 
ATOM     15  C   UNL A   1      30.231  26.660  24.509  1.00  0.00     0.143 C 
ATOM     16  C   UNL A   1      32.359  27.223  23.532  1.00  0.00     0.143 C 
ENDBRANCH  11  14
ENDBRANCH   8  10
ENDBRANCH   7   8
BRANCH   7  17
ATOM     17  C   UNL A   1      31.789  21.638  25.352  1.00  0.00     0.060 C 
BRANCH  17  18
ATOM     18  C   UNL A   1      32.317  20.369  24.675  1.00  0.00    -0.028 A 
ATOM     19  C   UNL A   1      32.796  19.396  25.594  1.00  0.00     0.007 A 
ATOM     20  C   UNL A   1      32.330  19.990  23.322  1.00  0.00     0.045 A 
ATOM     21  C   UNL A   1      33.312  18.160  25.189  1.00  0.00     0.021 A 
ATOM     22  C   UNL A   1      32.833  18.738  22.916  1.00  0.00     0.041 A 
ATOM     23  Cl  UNL A   1      31.855  20.981  22.007  1.00  0.00    -0.084 Cl
ATOM     24  C   UNL A   1      33.341  17.841  23.843  1.00  0.00     0.042 A 
ATOM     25  Cl  UNL A   1      34.027  16.358  23.312  1.00  0.00    -0.084 Cl
ENDBRANCH  17  18
ENDBRANCH   7  17
ENDBRANCH   5   7
ENDBRANCH   4   5
ENDBRANCH   3   4
ENDBRANCH   2   3
ENDBRANCH   1   2
BRANCH   1  26
ATOM     26  C   UNL A   1      39.110  22.231  26.137  1.00  0.00     0.202 C 
BRANCH  26  27
ATOM     27  C   UNL A   1      40.128  23.306  26.531  1.00  0.00     0.261 C 
BRANCH  27  28
ATOM     28  O   UNL A   1      39.583  24.628  26.503  1.00  0.00    -0.460 OA
BRANCH  28  29
ATOM     29  C   UNL A   1      40.526  25.592  26.368  1.00  0.00     0.338 C 
ATOM     30  O   UNL A   1      41.006  26.025  25.337  1.00  0.00    -0.246 OA
BRANCH  29  31
ATOM     31  C   UNL A   1      40.771  26.211  27.674  1.00  0.00     0.060 A 
ATOM     32  C   UNL A   1      39.777  26.061  28.648  1.00  0.00     0.016 A 
ATOM     33  C   UNL A   1      41.896  27.005  27.894  1.00  0.00     0.016 A 
ATOM     34  C   UNL A   1      39.875  26.762  29.840  1.00  0.00     0.010 A 
ATOM     35  C   UNL A   1      41.988  27.718  29.088  1.00  0.00     0.010 A 
ATOM     36  C   UNL A   1      40.954  27.633  30.038  1.00  0.00    -0.014 A 
BRANCH  36  37
ATOM     37  C   UNL A   1      40.876  28.604  31.148  1.00  0.00     0.031 A 
ATOM     38  C   UNL A   1      39.848  29.696  31.062  1.00  0.00     0.074 A 
ATOM     39  C   UNL A   1      41.661  28.458  32.228  1.00  0.00     0.049 A 
ATOM     40  N   UNL A   1      39.587  30.657  31.905  1.00  0.00    -0.248 NA
ATOM     41  C   UNL A   1      38.994  29.704  29.859  1.00  0.00     0.031 C 
ATOM     42  C   UNL A   1      42.651  27.395  32.412  1.00  0.00     0.029 A 
ATOM     43  N   UNL A   1      41.747  29.200  33.374  1.00  0.00    -0.354 N 
ATOM     44  C   UNL A   1      38.547  31.385  31.337  1.00  0.00     0.074 A 
ATOM     45  C   UNL A   1      38.244  30.777  30.062  1.00  0.00     0.031 C 
ATOM     46  C   UNL A   1      43.250  27.559  33.603  1.00  0.00     0.029 A 
ATOM     47  C   UNL A   1      42.708  28.752  34.248  1.00  0.00     0.049 A 
ATOM     48  H   UNL A   1      41.175  29.981  33.555  1.00  0.00     0.167 HD
ATOM     49  C   UNL A   1      37.899  32.458  31.846  1.00  0.00     0.037 A 
ATOM     50  C   UNL A   1      43.108  29.266  35.426  1.00  0.00     0.037 A 
ATOM     51  C   UNL A   1      38.222  33.042  33.120  1.00  0.00     0.049 A 
ATOM     52  C   UNL A   1      42.411  30.498  35.944  1.00  0.00     0.074 A 
ATOM     53  C   UNL A   1      37.641  34.133  33.741  1.00  0.00     0.029 A 
ATOM     54  N   UNL A   1      39.219  32.578  33.969  1.00  0.00    -0.354 N 
ATOM     55  N   UNL A   1      41.425  31.175  35.402  1.00  0.00    -0.248 NA
ATOM     56  C   UNL A   1      42.870  31.030  37.232  1.00  0.00     0.031 C 
ATOM     57  C   UNL A   1      38.319  34.355  34.945  1.00  0.00     0.029 A 
ATOM     58  C   UNL A   1      39.283  33.370  35.101  1.00  0.00     0.049 A 
ATOM     59  H   UNL A   1      39.795  31.799  33.790  1.00  0.00     0.167 HD
ATOM     60  C   UNL A   1      41.126  32.196  36.296  1.00  0.00     0.074 A 
ATOM     61  C   UNL A   1      42.031  32.040  37.419  1.00  0.00     0.031 C 
ATOM     62  C   UNL A   1      40.189  33.173  36.206  1.00  0.00     0.037 A 
BRANCH  49  63
ATOM     63  C   UNL A   1      36.809  33.077  31.016  1.00  0.00     0.058 A 
ATOM     64  C   UNL A   1      37.090  33.980  29.977  1.00  0.00     0.135 A 
ATOM     65  C   UNL A   1      35.464  32.746  31.247  1.00  0.00     0.135 A 
ATOM     66  F   UNL A   1      38.355  34.352  29.728  1.00  0.00    -0.206 F 
ATOM     67  C   UNL A   1      36.075  34.547  29.211  1.00  0.00     0.059 A 
ATOM     68  C   UNL A   1      34.436  33.281  30.475  1.00  0.00     0.059 A 
ATOM     69  F   UNL A   1      35.137  31.895  32.232  1.00  0.00    -0.206 F 
ATOM     70  C   UNL A   1      34.750  34.190  29.467  1.00  0.00     0.060 A 
BRANCH  70  71
ATOM     71  S   UNL A   1      33.447  34.922  28.455  1.00  0.00     0.124 S 
ATOM     72  O   UNL A   1      32.874  33.741  27.817  1.00  0.00    -0.237 OA
ATOM     73  O   UNL A   1      32.605  35.573  29.453  1.00  0.00    -0.237 OA
ATOM     74  O   UNL A   1      34.172  35.825  27.566  1.00  0.00    -0.744 OA
ENDBRANCH  70  71
ENDBRANCH  49  63
BRANCH  50  75
ATOM     75  C   UNL A   1      44.220  28.628  36.180  1.00  0.00     0.058 A 
ATOM     76  C   UNL A   1      45.538  29.092  36.069  1.00  0.00     0.135 A 
ATOM     77  C   UNL A   1      43.981  27.541  37.038  1.00  0.00     0.135 A 
ATOM     78  F   UNL A   1      45.819  30.124  35.260  1.00  0.00    -0.206 F 
ATOM     79  C   UNL A   1      46.584  28.491  36.764  1.00  0.00     0.059 A 
ATOM     80  C   UNL A   1      45.005  26.941  37.764  1.00  0.00     0.059 A 
ATOM     81  F   UNL A   1      42.735  27.068  37.193  1.00  0.00    -0.206 F 
ATOM     82  C   UNL A   1      46.306  27.416  37.610  1.00  0.00     0.060 A 
BRANCH  82  83
ATOM     83  S   UNL A   1      47.665  26.666  38.534  1.00  0.00     0.124 S 
ATOM     84  O   UNL A   1      46.975  26.174  39.722  1.00  0.00    -0.237 OA
ATOM     85  O   UNL A   1      48.141  25.646  37.605  1.00  0.00    -0.237 OA
ATOM     86  O   UNL A   1      48.581  27.781  38.751  1.00  0.00    -0.744 OA
ENDBRANCH  82  83
ENDBRANCH  50  75
BRANCH  62  87
ATOM     87  C   UNL A   1      40.065  34.118  37.367  1.00  0.00     0.058 A 
ATOM     88  C   UNL A   1      39.267  33.817  38.482  1.00  0.00     0.135 A 
ATOM     89  C   UNL A   1      40.808  35.308  37.389  1.00  0.00     0.135 A 
ATOM     90  F   UNL A   1      38.534  32.693  38.505  1.00  0.00    -0.206 F 
ATOM     91  C   UNL A   1      39.195  34.678  39.571  1.00  0.00     0.059 A 
ATOM     92  C   UNL A   1      40.773  36.168  38.480  1.00  0.00     0.059 A 
ATOM     93  F   UNL A   1      41.596  35.634  36.352  1.00  0.00    -0.206 F 
ATOM     94  C   UNL A   1      39.955  35.849  39.563  1.00  0.00     0.060 A 
BRANCH  94  95
ATOM     95  S   UNL A   1      39.883  36.936  41.001  1.00  0.00     0.124 S 
ATOM     96  O   UNL A   1      38.693  36.440  41.685  1.00  0.00    -0.237 OA
ATOM     97  O   UNL A   1      41.155  36.663  41.663  1.00  0.00    -0.237 OA
ATOM     98  O   UNL A   1      39.761  38.267  40.415  1.00  0.00    -0.744 OA
ENDBRANCH  94  95
ENDBRANCH  62  87
ENDBRANCH  36  37
ENDBRANCH  29  31
ENDBRANCH  28  29
ENDBRANCH  27  28
ENDBRANCH  26  27
ENDBRANCH   1  26
TORSDOF 23
ENDMDL
MODEL 3
REMARK VINA RESULT:      -9.9      5.161      7.018
REMARK SMILES CC/C(=C/C(=O)[C@H](Cc1ccc(Cl)cc1Cl)C(=O)OCCOCCOC(=O)c1ccc(-c2c3nc(c(-c4c(F)cc(S(=O)(=O)[O-])cc4F)c4ccc([nH]4)c(-c4c(F)cc(S(=O)(=O)[O-])cc4F)c4nc(c(-c5c(F)cc(S(=O)(=O)[O-])cc5F)c5ccc2[nH]5)C=C4)C=C3)cc1)N(C)C
REMARK SMILES IDX 22 1 21 2 20 3 19 4 17 5 18 6 7 7 5 8 6 9 4 10 3 11 2 12
REMARK SMILES IDX 1 13 94 14 95 15 96 16 8 17 9 18 10 19 15 20 11 21 14 22
REMARK SMILES IDX 16 23 12 24 13 25 23 26 24 27 25 28 26 29 27 30 28 31 29 32
REMARK SMILES IDX 93 33 30 34 92 35 31 36 32 37 33 38 86 39 34 40 91 41 85 42
REMARK SMILES IDX 87 43 35 44 90 45 84 46 83 47 36 49 70 50 49 51 69 52 50 53
REMARK SMILES IDX 53 54 68 55 88 56 51 57 52 58 67 60 89 61 54 62 37 63 38 64
REMARK SMILES IDX 47 65 39 66 40 67 46 68 48 69 41 70 42 71 43 72 44 73 45 74
REMARK SMILES IDX 71 75 72 76 81 77 73 78 74 79 80 80 82 81 75 82 76 83 77 84
REMARK SMILES IDX 78 85 79 86 55 87 56 88 65 89 57 90 58 91 64 92 66 93 59 94
REMARK SMILES IDX 60 95 61 96 62 97 63 98
REMARK H PARENT 87 48 53 59
REMARK Flexibility Score: inf
ROOT
ATOM      1  O   UNL A   1      36.790  23.054  23.872  1.00  0.00    -0.374 OA
ENDROOT
BRANCH   1   2
ATOM      2  C   UNL A   1      35.453  23.524  23.720  1.00  0.00     0.202 C 
BRANCH   2   3
ATOM      3  C   UNL A   1      34.948  24.589  24.703  1.00  0.00     0.261 C 
BRANCH   3   4
ATOM      4  O   UNL A   1      34.273  25.699  24.071  1.00  0.00    -0.463 OA
BRANCH   4   5
ATOM      5  C   UNL A   1      33.032  25.415  23.594  1.00  0.00     0.317 C 
ATOM      6  O   UNL A   1      32.737  25.445  22.401  1.00  0.00    -0.251 OA
BRANCH   5   7
ATOM      7  C   UNL A   1      32.017  24.971  24.635  1.00  0.00     0.175 C 
BRANCH   7   8
ATOM      8  C   UNL A   1      31.331  23.723  24.074  1.00  0.00     0.171 C 
ATOM      9  O   UNL A   1      30.374  23.827  23.297  1.00  0.00    -0.294 OA
BRANCH   8  10
ATOM     10  C   UNL A   1      31.878  22.345  24.259  1.00  0.00     0.069 C 
ATOM     11  C   UNL A   1      32.608  21.677  25.180  1.00  0.00     0.016 C 
BRANCH  11  12
ATOM     12  C   UNL A   1      32.799  20.184  24.852  1.00  0.00     0.050 C 
ATOM     13  C   UNL A   1      32.423  19.815  23.422  1.00  0.00     0.010 C 
ENDBRANCH  11  12
BRANCH  11  14
ATOM     14  N   UNL A   1      33.119  22.093  26.424  1.00  0.00    -0.381 N 
ATOM     15  C   UNL A   1      32.293  22.766  27.441  1.00  0.00     0.143 C 
ATOM     16  C   UNL A   1      34.383  21.660  26.987  1.00  0.00     0.143 C 
ENDBRANCH  11  14
ENDBRANCH   8  10
ENDBRANCH   7   8
BRANCH   7  17
ATOM     17  C   UNL A   1      30.896  25.964  25.053  1.00  0.00     0.060 C 
BRANCH  17  18
ATOM     18  C   UNL A   1      30.325  27.137  24.249  1.00  0.00    -0.028 A 
ATOM     19  C   UNL A   1      28.979  26.938  23.840  1.00  0.00     0.007 A 
ATOM     20  C   UNL A   1      30.883  28.386  23.928  1.00  0.00     0.045 A 
ATOM     21  C   UNL A   1      28.261  27.888  23.105  1.00  0.00     0.021 A 
ATOM     22  C   UNL A   1      30.154  29.349  23.202  1.00  0.00     0.041 A 
ATOM     23  Cl  UNL A   1      32.492  28.870  24.259  1.00  0.00    -0.084 Cl
ATOM     24  C   UNL A   1      28.861  29.090  22.776  1.00  0.00     0.042 A 
ATOM     25  Cl  UNL A   1      28.027  30.249  21.820  1.00  0.00    -0.084 Cl
ENDBRANCH  17  18
ENDBRANCH   7  17
ENDBRANCH   5   7
ENDBRANCH   4   5
ENDBRANCH   3   4
ENDBRANCH   2   3
ENDBRANCH   1   2
BRANCH   1  26
ATOM     26  C   UNL A   1      36.969  21.683  24.215  1.00  0.00     0.202 C 
BRANCH  26  27
ATOM     27  C   UNL A   1      38.051  21.343  25.244  1.00  0.00     0.261 C 
BRANCH  27  28
ATOM     28  O   UNL A   1      38.261  22.388  26.199  1.00  0.00    -0.460 OA
BRANCH  28  29
ATOM     29  C   UNL A   1      39.572  22.643  26.432  1.00  0.00     0.338 C 
ATOM     30  O   UNL A   1      40.528  21.944  26.151  1.00  0.00    -0.246 OA
BRANCH  29  31
ATOM     31  C   UNL A   1      39.713  24.018  26.920  1.00  0.00     0.060 A 
ATOM     32  C   UNL A   1      40.178  24.973  26.009  1.00  0.00     0.016 A 
ATOM     33  C   UNL A   1      39.499  24.330  28.262  1.00  0.00     0.016 A 
ATOM     34  C   UNL A   1      40.491  26.248  26.455  1.00  0.00     0.010 A 
ATOM     35  C   UNL A   1      39.826  25.609  28.711  1.00  0.00     0.010 A 
ATOM     36  C   UNL A   1      40.366  26.550  27.817  1.00  0.00    -0.014 A 
BRANCH  36  37
ATOM     37  C   UNL A   1      41.004  27.783  28.323  1.00  0.00     0.031 A 
ATOM     38  C   UNL A   1      42.500  27.892  28.236  1.00  0.00     0.074 A 
ATOM     39  C   UNL A   1      40.248  28.794  28.779  1.00  0.00     0.049 A 
ATOM     40  N   UNL A   1      43.282  28.867  28.609  1.00  0.00    -0.248 NA
ATOM     41  C   UNL A   1      43.211  26.742  27.645  1.00  0.00     0.031 C 
ATOM     42  C   UNL A   1      38.786  28.788  28.850  1.00  0.00     0.029 A 
ATOM     43  N   UNL A   1      40.603  30.024  29.262  1.00  0.00    -0.354 N 
ATOM     44  C   UNL A   1      44.574  28.452  28.304  1.00  0.00     0.074 A 
ATOM     45  C   UNL A   1      44.477  27.123  27.746  1.00  0.00     0.031 C 
ATOM     46  C   UNL A   1      38.369  29.960  29.356  1.00  0.00     0.029 A 
ATOM     47  C   UNL A   1      39.533  30.784  29.670  1.00  0.00     0.049 A 
ATOM     48  H   UNL A   1      41.536  30.334  29.314  1.00  0.00     0.167 HD
ATOM     49  C   UNL A   1      45.733  29.129  28.467  1.00  0.00     0.037 A 
ATOM     50  C   UNL A   1      39.510  32.000  30.248  1.00  0.00     0.037 A 
ATOM     51  C   UNL A   1      45.800  30.453  29.025  1.00  0.00     0.049 A 
ATOM     52  C   UNL A   1      40.820  32.710  30.474  1.00  0.00     0.074 A 
ATOM     53  C   UNL A   1      46.915  31.242  29.246  1.00  0.00     0.029 A 
ATOM     54  N   UNL A   1      44.699  31.184  29.452  1.00  0.00    -0.354 N 
ATOM     55  N   UNL A   1      42.035  32.310  30.178  1.00  0.00    -0.248 NA
ATOM     56  C   UNL A   1      40.759  34.035  31.104  1.00  0.00     0.031 C 
ATOM     57  C   UNL A   1      46.490  32.431  29.849  1.00  0.00     0.029 A 
ATOM     58  C   UNL A   1      45.107  32.408  29.951  1.00  0.00     0.049 A 
ATOM     59  H   UNL A   1      43.764  30.876  29.405  1.00  0.00     0.167 HD
ATOM     60  C   UNL A   1      42.881  33.347  30.556  1.00  0.00     0.074 A 
ATOM     61  C   UNL A   1      42.035  34.394  31.095  1.00  0.00     0.031 C 
ATOM     62  C   UNL A   1      44.231  33.432  30.466  1.00  0.00     0.037 A 
BRANCH  49  63
ATOM     63  C   UNL A   1      47.010  28.442  28.068  1.00  0.00     0.058 A 
ATOM     64  C   UNL A   1      47.521  28.527  26.762  1.00  0.00     0.135 A 
ATOM     65  C   UNL A   1      47.746  27.704  29.010  1.00  0.00     0.135 A 
ATOM     66  F   UNL A   1      46.846  29.197  25.815  1.00  0.00    -0.206 F 
ATOM     67  C   UNL A   1      48.704  27.889  26.401  1.00  0.00     0.059 A 
ATOM     68  C   UNL A   1      48.945  27.082  28.676  1.00  0.00     0.059 A 
ATOM     69  F   UNL A   1      47.299  27.582  30.270  1.00  0.00    -0.206 F 
ATOM     70  C   UNL A   1      49.411  27.170  27.365  1.00  0.00     0.060 A 
BRANCH  70  71
ATOM     71  S   UNL A   1      50.952  26.362  26.885  1.00  0.00     0.124 S 
ATOM     72  O   UNL A   1      51.912  27.015  27.770  1.00  0.00    -0.237 OA
ATOM     73  O   UNL A   1      50.674  24.960  27.177  1.00  0.00    -0.237 OA
ATOM     74  O   UNL A   1      51.082  26.690  25.469  1.00  0.00    -0.744 OA
ENDBRANCH  70  71
ENDBRANCH  49  63
BRANCH  50  75
ATOM     75  C   UNL A   1      38.216  32.608  30.655  1.00  0.00     0.058 A 
ATOM     76  C   UNL A   1      37.727  32.476  31.963  1.00  0.00     0.135 A 
ATOM     77  C   UNL A   1      37.444  33.345  29.742  1.00  0.00     0.135 A 
ATOM     78  F   UNL A   1      38.425  31.778  32.872  1.00  0.00    -0.206 F 
ATOM     79  C   UNL A   1      36.511  33.034  32.347  1.00  0.00     0.059 A 
ATOM     80  C   UNL A   1      36.238  33.935  30.109  1.00  0.00     0.059 A 
ATOM     81  F   UNL A   1      37.873  33.516  28.482  1.00  0.00    -0.206 F 
ATOM     82  C   UNL A   1      35.774  33.763  31.412  1.00  0.00     0.060 A 
BRANCH  82  83
ATOM     83  S   UNL A   1      34.214  34.512  31.929  1.00  0.00     0.124 S 
ATOM     84  O   UNL A   1      33.678  33.488  32.818  1.00  0.00    -0.237 OA
ATOM     85  O   UNL A   1      34.664  35.743  32.572  1.00  0.00    -0.237 OA
ATOM     86  O   UNL A   1      33.496  34.697  30.673  1.00  0.00    -0.744 OA
ENDBRANCH  82  83
ENDBRANCH  50  75
BRANCH  62  87
ATOM     87  C   UNL A   1      44.872  34.714  30.917  1.00  0.00     0.058 A 
ATOM     88  C   UNL A   1      45.348  34.882  32.227  1.00  0.00     0.135 A 
ATOM     89  C   UNL A   1      45.070  35.761  30.004  1.00  0.00     0.135 A 
ATOM     90  F   UNL A   1      45.178  33.910  33.138  1.00  0.00    -0.206 F 
ATOM     91  C   UNL A   1      45.980  36.055  32.620  1.00  0.00     0.059 A 
ATOM     92  C   UNL A   1      45.725  36.931  30.369  1.00  0.00     0.059 A 
ATOM     93  F   UNL A   1      44.643  35.644  28.736  1.00  0.00    -0.206 F 
ATOM     94  C   UNL A   1      46.167  37.072  31.683  1.00  0.00     0.060 A 
BRANCH  94  95
ATOM     95  S   UNL A   1      47.026  38.574  32.198  1.00  0.00     0.124 S 
ATOM     96  O   UNL A   1      45.914  39.499  32.387  1.00  0.00    -0.237 OA
ATOM     97  O   UNL A   1      47.707  38.143  33.415  1.00  0.00    -0.237 OA
ATOM     98  O   UNL A   1      47.903  38.868  31.068  1.00  0.00    -0.744 OA
ENDBRANCH  94  95
ENDBRANCH  62  87
ENDBRANCH  36  37
ENDBRANCH  29  31
ENDBRANCH  28  29
ENDBRANCH  27  28
ENDBRANCH  26  27
ENDBRANCH   1  26
TORSDOF 23
ENDMDL
