MODEL 1
REMARK VINA RESULT:     -10.4      0.000      0.000
REMARK SMILES CCN(CC(C)(C)O)C(=O)Nc1ccc(C(=O)OCCOCCOC(=O)c2ccc(-c3c4nc(c(-c5c(F)cc(S(=O)(=O)[O-])cc5F)c5ccc([nH]5)c(-c5c(F)cc(S(=O)(=O)[O-])cc5F)c5nc(c(-c6c(F)cc(S(=O)(=O)[O-])cc6F)c6ccc3[nH]6)C=C5)C=C4)cc2)c(O)c1
REMARK SMILES IDX 20 1 19 2 18 3 16 4 17 5 15 6 12 7 13 8 95 9 14 10 93 11
REMARK SMILES IDX 11 12 9 13 10 14 3 16 2 17 1 18 4 19 5 20 6 21 7 22 8 23
REMARK SMILES IDX 94 25 21 27 22 28 23 29 24 30 25 31 26 32 27 33 28 34 92 35
REMARK SMILES IDX 29 36 91 37 30 38 31 39 32 40 85 41 33 42 90 43 84 44 86 45
REMARK SMILES IDX 34 46 89 47 83 48 82 49 35 51 69 52 48 53 68 54 49 55 52 56
REMARK SMILES IDX 67 57 87 58 50 59 51 60 66 62 88 63 53 64 36 65 37 66 46 67
REMARK SMILES IDX 38 68 39 69 45 70 47 71 40 72 41 73 42 74 43 75 44 76 70 77
REMARK SMILES IDX 71 78 80 79 72 80 73 81 79 82 81 83 74 84 75 85 76 86 77 87
REMARK SMILES IDX 78 88 54 89 55 90 64 91 56 92 57 93 63 94 65 95 58 96 59 97
REMARK SMILES IDX 60 98 61 99 62 100
REMARK H PARENT 11 15 8 24 94 26 86 50 52 61
REMARK Flexibility Score: inf
ROOT
ATOM      1  C   UNL A   1      31.997  30.644  26.694  1.00  0.00     0.202 C 
ENDROOT
BRANCH   1   2
ATOM      2  C   UNL A   1      32.066  29.757  25.447  1.00  0.00     0.261 C 
BRANCH   2   3
ATOM      3  O   UNL A   1      31.149  28.656  25.563  1.00  0.00    -0.460 OA
BRANCH   3   4
ATOM      4  C   UNL A   1      31.567  27.682  26.405  1.00  0.00     0.341 C 
ATOM      5  O   UNL A   1      31.192  27.474  27.543  1.00  0.00    -0.246 OA
BRANCH   4   6
ATOM      6  C   UNL A   1      32.300  26.697  25.601  1.00  0.00     0.101 A 
ATOM      7  C   UNL A   1      33.925  24.814  24.258  1.00  0.00     0.046 A 
ATOM      8  C   UNL A   1      34.391  25.528  25.344  1.00  0.00     0.027 A 
ATOM      9  C   UNL A   1      32.616  25.088  23.827  1.00  0.00     0.073 A 
ATOM     10  C   UNL A   1      33.605  26.456  26.020  1.00  0.00     0.022 A 
ATOM     11  C   UNL A   1      31.800  26.017  24.497  1.00  0.00     0.132 A 
BRANCH   7  12
ATOM     12  N   UNL A   1      34.709  23.941  23.488  1.00  0.00    -0.308 N 
ATOM     13  C   UNL A   1      35.663  22.994  23.606  1.00  0.00     0.321 C 
ATOM     14  O   UNL A   1      36.332  22.855  22.569  1.00  0.00    -0.248 OA
ATOM     15  H   UNL A   1      34.486  24.060  22.537  1.00  0.00     0.171 HD
BRANCH  13  16
ATOM     16  N   UNL A   1      35.872  22.154  24.669  1.00  0.00    -0.322 N 
BRANCH  16  17
ATOM     17  C   UNL A   1      37.164  22.322  25.365  1.00  0.00     0.118 C 
ATOM     18  C   UNL A   1      37.318  23.701  26.004  1.00  0.00     0.027 C 
ENDBRANCH  16  17
BRANCH  16  19
ATOM     19  C   UNL A   1      35.097  20.995  25.133  1.00  0.00     0.155 C 
BRANCH  19  20
ATOM     20  C   UNL A   1      33.855  21.346  26.040  1.00  0.00     0.077 C 
ATOM     21  C   UNL A   1      34.069  22.478  27.065  1.00  0.00     0.043 C 
ATOM     22  C   UNL A   1      32.627  21.615  25.152  1.00  0.00     0.043 C 
BRANCH  20  23
ATOM     23  O   UNL A   1      33.518  20.183  26.826  1.00  0.00    -0.389 OA
ATOM     24  H   UNL A   1      34.293  19.603  26.894  1.00  0.00     0.211 HD
ENDBRANCH  20  23
ENDBRANCH  19  20
ENDBRANCH  16  19
ENDBRANCH  13  16
ENDBRANCH   7  12
BRANCH  11  25
ATOM     25  O   UNL A   1      30.547  26.200  23.988  1.00  0.00    -0.507 OA
ATOM     26  H   UNL A   1      30.305  25.793  23.180  1.00  0.00     0.293 HD
ENDBRANCH  11  25
ENDBRANCH   4   6
ENDBRANCH   3   4
ENDBRANCH   2   3
ENDBRANCH   1   2
BRANCH   1  27
ATOM     27  O   UNL A   1      33.176  30.670  27.504  1.00  0.00    -0.374 OA
BRANCH  27  28
ATOM     28  C   UNL A   1      34.314  29.941  27.043  1.00  0.00     0.202 C 
BRANCH  28  29
ATOM     29  C   UNL A   1      35.289  29.433  28.112  1.00  0.00     0.261 C 
BRANCH  29  30
ATOM     30  O   UNL A   1      35.819  30.509  28.905  1.00  0.00    -0.460 OA
BRANCH  30  31
ATOM     31  C   UNL A   1      36.486  30.123  30.021  1.00  0.00     0.338 C 
ATOM     32  O   UNL A   1      36.006  29.793  31.091  1.00  0.00    -0.246 OA
BRANCH  31  33
ATOM     33  C   UNL A   1      37.916  29.960  29.704  1.00  0.00     0.060 A 
ATOM     34  C   UNL A   1      38.284  29.944  28.352  1.00  0.00     0.016 A 
ATOM     35  C   UNL A   1      38.871  29.763  30.703  1.00  0.00     0.016 A 
ATOM     36  C   UNL A   1      39.607  29.702  27.992  1.00  0.00     0.010 A 
ATOM     37  C   UNL A   1      40.196  29.503  30.340  1.00  0.00     0.010 A 
ATOM     38  C   UNL A   1      40.563  29.445  28.983  1.00  0.00    -0.014 A 
BRANCH  38  39
ATOM     39  C   UNL A   1      41.915  28.984  28.589  1.00  0.00     0.031 A 
ATOM     40  C   UNL A   1      43.042  29.980  28.551  1.00  0.00     0.074 A 
ATOM     41  C   UNL A   1      42.139  27.692  28.293  1.00  0.00     0.049 A 
ATOM     42  N   UNL A   1      44.292  29.802  28.213  1.00  0.00    -0.248 NA
ATOM     43  C   UNL A   1      42.714  31.359  28.948  1.00  0.00     0.031 C 
ATOM     44  C   UNL A   1      41.131  26.632  28.327  1.00  0.00     0.029 A 
ATOM     45  N   UNL A   1      43.286  27.053  27.896  1.00  0.00    -0.354 N 
ATOM     46  C   UNL A   1      44.900  31.043  28.350  1.00  0.00     0.074 A 
ATOM     47  C   UNL A   1      43.876  31.972  28.780  1.00  0.00     0.031 C 
ATOM     48  C   UNL A   1      41.703  25.475  27.949  1.00  0.00     0.029 A 
ATOM     49  C   UNL A   1      43.108  25.719  27.623  1.00  0.00     0.049 A 
ATOM     50  H   UNL A   1      44.155  27.509  27.815  1.00  0.00     0.167 HD
ATOM     51  C   UNL A   1      46.196  31.377  28.142  1.00  0.00     0.037 A 
ATOM     52  C   UNL A   1      43.975  24.805  27.145  1.00  0.00     0.037 A 
ATOM     53  C   UNL A   1      47.210  30.450  27.714  1.00  0.00     0.049 A 
ATOM     54  C   UNL A   1      45.399  25.211  26.869  1.00  0.00     0.074 A 
ATOM     55  C   UNL A   1      48.556  30.686  27.496  1.00  0.00     0.029 A 
ATOM     56  N   UNL A   1      46.988  29.111  27.429  1.00  0.00    -0.354 N 
ATOM     57  N   UNL A   1      45.968  26.383  27.031  1.00  0.00    -0.248 NA
ATOM     58  C   UNL A   1      46.300  24.172  26.351  1.00  0.00     0.031 C 
ATOM     59  C   UNL A   1      49.139  29.498  27.041  1.00  0.00     0.029 A 
ATOM     60  C   UNL A   1      48.166  28.512  27.016  1.00  0.00     0.049 A 
ATOM     61  H   UNL A   1      46.120  28.653  27.509  1.00  0.00     0.167 HD
ATOM     62  C   UNL A   1      47.297  26.216  26.657  1.00  0.00     0.074 A 
ATOM     63  C   UNL A   1      47.450  24.829  26.269  1.00  0.00     0.031 C 
ATOM     64  C   UNL A   1      48.302  27.128  26.639  1.00  0.00     0.037 A 
BRANCH  51  65
ATOM     65  C   UNL A   1      46.584  32.813  28.353  1.00  0.00     0.058 A 
ATOM     66  C   UNL A   1      47.054  33.275  29.592  1.00  0.00     0.135 A 
ATOM     67  C   UNL A   1      46.511  33.731  27.294  1.00  0.00     0.135 A 
ATOM     68  F   UNL A   1      47.124  32.442  30.642  1.00  0.00    -0.206 F 
ATOM     69  C   UNL A   1      47.417  34.605  29.780  1.00  0.00     0.059 A 
ATOM     70  C   UNL A   1      46.890  35.061  27.453  1.00  0.00     0.059 A 
ATOM     71  F   UNL A   1      46.065  33.341  26.090  1.00  0.00    -0.206 F 
ATOM     72  C   UNL A   1      47.329  35.491  28.705  1.00  0.00     0.060 A 
BRANCH  72  73
ATOM     73  S   UNL A   1      47.804  37.213  28.963  1.00  0.00     0.124 S 
ATOM     74  O   UNL A   1      47.414  37.816  27.693  1.00  0.00    -0.237 OA
ATOM     75  O   UNL A   1      46.996  37.593  30.118  1.00  0.00    -0.237 OA
ATOM     76  O   UNL A   1      49.241  37.136  29.207  1.00  0.00    -0.744 OA
ENDBRANCH  72  73
ENDBRANCH  51  65
BRANCH  52  77
ATOM     77  C   UNL A   1      43.516  23.416  26.881  1.00  0.00     0.058 A 
ATOM     78  C   UNL A   1      43.366  22.938  25.571  1.00  0.00     0.135 A 
ATOM     79  C   UNL A   1      43.223  22.539  27.936  1.00  0.00     0.135 A 
ATOM     80  F   UNL A   1      43.625  23.743  24.530  1.00  0.00    -0.206 F 
ATOM     81  C   UNL A   1      42.929  21.642  25.315  1.00  0.00     0.059 A 
ATOM     82  C   UNL A   1      42.806  21.232  27.706  1.00  0.00     0.059 A 
ATOM     83  F   UNL A   1      43.361  22.946  29.208  1.00  0.00    -0.206 F 
ATOM     84  C   UNL A   1      42.654  20.795  26.391  1.00  0.00     0.060 A 
BRANCH  84  85
ATOM     85  S   UNL A   1      42.139  19.098  26.050  1.00  0.00     0.124 S 
ATOM     86  O   UNL A   1      42.625  18.401  27.236  1.00  0.00    -0.237 OA
ATOM     87  O   UNL A   1      40.691  19.231  25.935  1.00  0.00    -0.237 OA
ATOM     88  O   UNL A   1      42.833  18.783  24.804  1.00  0.00    -0.744 OA
ENDBRANCH  84  85
ENDBRANCH  52  77
BRANCH  64  89
ATOM     89  C   UNL A   1      49.663  26.651  26.215  1.00  0.00     0.058 A 
ATOM     90  C   UNL A   1      50.137  26.846  24.908  1.00  0.00     0.135 A 
ATOM     91  C   UNL A   1      50.523  26.043  27.142  1.00  0.00     0.135 A 
ATOM     92  F   UNL A   1      49.351  27.418  23.983  1.00  0.00    -0.206 F 
ATOM     93  C   UNL A   1      51.412  26.437  24.531  1.00  0.00     0.059 A 
ATOM     94  C   UNL A   1      51.810  25.648  26.794  1.00  0.00     0.059 A 
ATOM     95  F   UNL A   1      50.121  25.843  28.408  1.00  0.00    -0.206 F 
ATOM     96  C   UNL A   1      52.242  25.839  25.481  1.00  0.00     0.060 A 
BRANCH  96  97
ATOM     97  S   UNL A   1      53.909  25.345  24.991  1.00  0.00     0.124 S 
ATOM     98  O   UNL A   1      54.060  26.047  23.722  1.00  0.00    -0.237 OA
ATOM     99  O   UNL A   1      54.723  25.847  26.094  1.00  0.00    -0.237 OA
ATOM    100  O   UNL A   1      53.818  23.892  24.899  1.00  0.00    -0.744 OA
ENDBRANCH  96  97
ENDBRANCH  64  89
ENDBRANCH  38  39
ENDBRANCH  31  33
ENDBRANCH  30  31
ENDBRANCH  29  30
ENDBRANCH  28  29
ENDBRANCH  27  28
ENDBRANCH   1  27
TORSDOF 24
ENDMDL
MODEL 2
REMARK VINA RESULT:     -10.1      6.490     12.090
REMARK SMILES CCN(CC(C)(C)O)C(=O)Nc1ccc(C(=O)OCCOCCOC(=O)c2ccc(-c3c4nc(c(-c5c(F)cc(S(=O)(=O)[O-])cc5F)c5ccc([nH]5)c(-c5c(F)cc(S(=O)(=O)[O-])cc5F)c5nc(c(-c6c(F)cc(S(=O)(=O)[O-])cc6F)c6ccc3[nH]6)C=C5)C=C4)cc2)c(O)c1
REMARK SMILES IDX 20 1 19 2 18 3 16 4 17 5 15 6 12 7 13 8 95 9 14 10 93 11
REMARK SMILES IDX 11 12 9 13 10 14 3 16 2 17 1 18 4 19 5 20 6 21 7 22 8 23
REMARK SMILES IDX 94 25 21 27 22 28 23 29 24 30 25 31 26 32 27 33 28 34 92 35
REMARK SMILES IDX 29 36 91 37 30 38 31 39 32 40 85 41 33 42 90 43 84 44 86 45
REMARK SMILES IDX 34 46 89 47 83 48 82 49 35 51 69 52 48 53 68 54 49 55 52 56
REMARK SMILES IDX 67 57 87 58 50 59 51 60 66 62 88 63 53 64 36 65 37 66 46 67
REMARK SMILES IDX 38 68 39 69 45 70 47 71 40 72 41 73 42 74 43 75 44 76 70 77
REMARK SMILES IDX 71 78 80 79 72 80 73 81 79 82 81 83 74 84 75 85 76 86 77 87
REMARK SMILES IDX 78 88 54 89 55 90 64 91 56 92 57 93 63 94 65 95 58 96 59 97
REMARK SMILES IDX 60 98 61 99 62 100
REMARK H PARENT 11 15 8 24 94 26 86 50 52 61
REMARK Flexibility Score: inf
ROOT
ATOM      1  C   UNL A   1      37.200  22.036  25.833  1.00  0.00     0.202 C 
ENDROOT
BRANCH   1   2
ATOM      2  C   UNL A   1      36.277  20.909  25.360  1.00  0.00     0.261 C 
BRANCH   2   3
ATOM      3  O   UNL A   1      35.405  21.379  24.319  1.00  0.00    -0.460 OA
BRANCH   3   4
ATOM      4  C   UNL A   1      34.143  20.895  24.402  1.00  0.00     0.341 C 
ATOM      5  O   UNL A   1      33.792  19.804  24.812  1.00  0.00    -0.246 OA
BRANCH   4   6
ATOM      6  C   UNL A   1      33.229  22.032  24.243  1.00  0.00     0.101 A 
ATOM      7  C   UNL A   1      31.331  24.125  24.180  1.00  0.00     0.046 A 
ATOM      8  C   UNL A   1      31.206  23.061  25.050  1.00  0.00     0.027 A 
ATOM      9  C   UNL A   1      32.427  24.107  23.301  1.00  0.00     0.073 A 
ATOM     10  C   UNL A   1      32.132  22.023  25.099  1.00  0.00     0.022 A 
ATOM     11  C   UNL A   1      33.380  23.072  23.335  1.00  0.00     0.132 A 
BRANCH   7  12
ATOM     12  N   UNL A   1      30.376  25.142  24.029  1.00  0.00    -0.308 N 
ATOM     13  C   UNL A   1      29.983  26.313  24.572  1.00  0.00     0.321 C 
ATOM     14  O   UNL A   1      28.795  26.581  24.329  1.00  0.00    -0.248 OA
ATOM     15  H   UNL A   1      29.793  24.928  23.266  1.00  0.00     0.171 HD
BRANCH  13  16
ATOM     16  N   UNL A   1      30.764  27.223  25.237  1.00  0.00    -0.322 N 
BRANCH  16  17
ATOM     17  C   UNL A   1      30.978  26.946  26.671  1.00  0.00     0.118 C 
ATOM     18  C   UNL A   1      31.536  28.150  27.430  1.00  0.00     0.027 C 
ENDBRANCH  16  17
BRANCH  16  19
ATOM     19  C   UNL A   1      31.291  28.524  24.801  1.00  0.00     0.155 C 
BRANCH  19  20
ATOM     20  C   UNL A   1      32.626  28.455  23.965  1.00  0.00     0.077 C 
ATOM     21  C   UNL A   1      33.628  27.361  24.385  1.00  0.00     0.043 C 
ATOM     22  C   UNL A   1      32.292  28.365  22.465  1.00  0.00     0.043 C 
BRANCH  20  23
ATOM     23  O   UNL A   1      33.336  29.701  24.131  1.00  0.00    -0.389 OA
ATOM     24  H   UNL A   1      33.244  30.236  23.327  1.00  0.00     0.211 HD
ENDBRANCH  20  23
ENDBRANCH  19  20
ENDBRANCH  16  19
ENDBRANCH  13  16
ENDBRANCH   7  12
BRANCH  11  25
ATOM     25  O   UNL A   1      34.401  23.161  22.434  1.00  0.00    -0.507 OA
ATOM     26  H   UNL A   1      34.514  22.494  21.786  1.00  0.00     0.293 HD
ENDBRANCH  11  25
ENDBRANCH   4   6
ENDBRANCH   3   4
ENDBRANCH   2   3
ENDBRANCH   1   2
BRANCH   1  27
ATOM     27  O   UNL A   1      38.544  21.983  25.344  1.00  0.00    -0.374 OA
BRANCH  27  28
ATOM     28  C   UNL A   1      39.523  21.342  26.162  1.00  0.00     0.202 C 
BRANCH  28  29
ATOM     29  C   UNL A   1      40.389  22.249  27.045  1.00  0.00     0.261 C 
BRANCH  29  30
ATOM     30  O   UNL A   1      40.289  23.628  26.652  1.00  0.00    -0.460 OA
BRANCH  30  31
ATOM     31  C   UNL A   1      41.409  24.365  26.857  1.00  0.00     0.338 C 
ATOM     32  O   UNL A   1      42.487  24.239  26.303  1.00  0.00    -0.246 OA
BRANCH  31  33
ATOM     33  C   UNL A   1      41.089  25.508  27.730  1.00  0.00     0.060 A 
ATOM     34  C   UNL A   1      42.062  26.506  27.875  1.00  0.00     0.016 A 
ATOM     35  C   UNL A   1      39.889  25.575  28.441  1.00  0.00     0.016 A 
ATOM     36  C   UNL A   1      41.850  27.563  28.758  1.00  0.00     0.010 A 
ATOM     37  C   UNL A   1      39.686  26.627  29.339  1.00  0.00     0.010 A 
ATOM     38  C   UNL A   1      40.676  27.610  29.521  1.00  0.00    -0.014 A 
BRANCH  38  39
ATOM     39  C   UNL A   1      40.550  28.615  30.602  1.00  0.00     0.031 A 
ATOM     40  C   UNL A   1      41.437  28.499  31.811  1.00  0.00     0.074 A 
ATOM     41  C   UNL A   1      39.673  29.629  30.495  1.00  0.00     0.049 A 
ATOM     42  N   UNL A   1      41.478  29.249  32.881  1.00  0.00    -0.248 NA
ATOM     43  C   UNL A   1      42.405  27.391  31.812  1.00  0.00     0.031 C 
ATOM     44  C   UNL A   1      38.786  29.860  29.355  1.00  0.00     0.029 A 
ATOM     45  N   UNL A   1      39.380  30.649  31.363  1.00  0.00    -0.354 N 
ATOM     46  C   UNL A   1      42.471  28.703  33.686  1.00  0.00     0.074 A 
ATOM     47  C   UNL A   1      42.991  27.545  32.991  1.00  0.00     0.031 C 
ATOM     48  C   UNL A   1      38.034  30.947  29.604  1.00  0.00     0.029 A 
ATOM     49  C   UNL A   1      38.369  31.470  30.927  1.00  0.00     0.049 A 
ATOM     50  H   UNL A   1      39.850  30.780  32.218  1.00  0.00     0.167 HD
ATOM     51  C   UNL A   1      42.912  29.133  34.891  1.00  0.00     0.037 A 
ATOM     52  C   UNL A   1      37.770  32.512  31.537  1.00  0.00     0.037 A 
ATOM     53  C   UNL A   1      42.391  30.285  35.579  1.00  0.00     0.049 A 
ATOM     54  C   UNL A   1      38.241  32.940  32.902  1.00  0.00     0.074 A 
ATOM     55  C   UNL A   1      42.786  30.815  36.794  1.00  0.00     0.029 A 
ATOM     56  N   UNL A   1      41.354  31.081  35.114  1.00  0.00    -0.354 N 
ATOM     57  N   UNL A   1      39.201  32.433  33.639  1.00  0.00    -0.248 NA
ATOM     58  C   UNL A   1      37.552  34.084  33.517  1.00  0.00     0.031 C 
ATOM     59  C   UNL A   1      41.961  31.907  37.084  1.00  0.00     0.029 A 
ATOM     60  C   UNL A   1      41.081  32.084  36.029  1.00  0.00     0.049 A 
ATOM     61  H   UNL A   1      40.883  30.952  34.260  1.00  0.00     0.167 HD
ATOM     62  C   UNL A   1      39.246  33.208  34.793  1.00  0.00     0.074 A 
ATOM     63  C   UNL A   1      38.225  34.225  34.652  1.00  0.00     0.031 C 
ATOM     64  C   UNL A   1      40.063  33.092  35.870  1.00  0.00     0.037 A 
BRANCH  51  65
ATOM     65  C   UNL A   1      43.999  28.336  35.556  1.00  0.00     0.058 A 
ATOM     66  C   UNL A   1      43.708  27.287  36.440  1.00  0.00     0.135 A 
ATOM     67  C   UNL A   1      45.349  28.609  35.282  1.00  0.00     0.135 A 
ATOM     68  F   UNL A   1      42.434  26.997  36.750  1.00  0.00    -0.206 F 
ATOM     69  C   UNL A   1      44.718  26.549  37.049  1.00  0.00     0.059 A 
ATOM     70  C   UNL A   1      46.375  27.870  35.863  1.00  0.00     0.059 A 
ATOM     71  F   UNL A   1      45.681  29.606  34.447  1.00  0.00    -0.206 F 
ATOM     72  C   UNL A   1      46.050  26.850  36.755  1.00  0.00     0.060 A 
BRANCH  72  73
ATOM     73  S   UNL A   1      47.350  25.884  37.551  1.00  0.00     0.124 S 
ATOM     74  O   UNL A   1      46.981  26.004  38.958  1.00  0.00    -0.237 OA
ATOM     75  O   UNL A   1      47.166  24.561  36.960  1.00  0.00    -0.237 OA
ATOM     76  O   UNL A   1      48.574  26.576  37.161  1.00  0.00    -0.744 OA
ENDBRANCH  72  73
ENDBRANCH  51  65
BRANCH  52  77
ATOM     77  C   UNL A   1      36.646  33.216  30.865  1.00  0.00     0.058 A 
ATOM     78  C   UNL A   1      36.880  34.139  29.835  1.00  0.00     0.135 A 
ATOM     79  C   UNL A   1      35.315  32.974  31.239  1.00  0.00     0.135 A 
ATOM     80  F   UNL A   1      38.135  34.411  29.451  1.00  0.00    -0.206 F 
ATOM     81  C   UNL A   1      35.834  34.808  29.206  1.00  0.00     0.059 A 
ATOM     82  C   UNL A   1      34.252  33.613  30.610  1.00  0.00     0.059 A 
ATOM     83  F   UNL A   1      35.039  32.091  32.211  1.00  0.00    -0.206 F 
ATOM     84  C   UNL A   1      34.522  34.535  29.600  1.00  0.00     0.060 A 
BRANCH  84  85
ATOM     85  S   UNL A   1      33.168  35.367  28.742  1.00  0.00     0.124 S 
ATOM     86  O   UNL A   1      33.892  36.291  27.877  1.00  0.00    -0.237 OA
ATOM     87  O   UNL A   1      32.498  34.257  28.073  1.00  0.00    -0.237 OA
ATOM     88  O   UNL A   1      32.411  35.981  29.830  1.00  0.00    -0.744 OA
ENDBRANCH  84  85
ENDBRANCH  52  77
BRANCH  64  89
ATOM     89  C   UNL A   1      39.907  34.105  36.970  1.00  0.00     0.058 A 
ATOM     90  C   UNL A   1      40.545  35.354  36.915  1.00  0.00     0.135 A 
ATOM     91  C   UNL A   1      39.064  33.844  38.061  1.00  0.00     0.135 A 
ATOM     92  F   UNL A   1      41.366  35.650  35.896  1.00  0.00    -0.206 F 
ATOM     93  C   UNL A   1      40.367  36.303  37.917  1.00  0.00     0.059 A 
ATOM     94  C   UNL A   1      38.853  34.787  39.061  1.00  0.00     0.059 A 
ATOM     95  F   UNL A   1      38.422  32.668  38.154  1.00  0.00    -0.206 F 
ATOM     96  C   UNL A   1      39.518  36.011  38.987  1.00  0.00     0.060 A 
BRANCH  96  97
ATOM     97  S   UNL A   1      39.265  37.263  40.262  1.00  0.00     0.124 S 
ATOM     98  O   UNL A   1      38.449  38.243  39.552  1.00  0.00    -0.237 OA
ATOM     99  O   UNL A   1      38.583  36.511  41.311  1.00  0.00    -0.237 OA
ATOM    100  O   UNL A   1      40.620  37.693  40.589  1.00  0.00    -0.744 OA
ENDBRANCH  96  97
ENDBRANCH  64  89
ENDBRANCH  38  39
ENDBRANCH  31  33
ENDBRANCH  30  31
ENDBRANCH  29  30
ENDBRANCH  28  29
ENDBRANCH  27  28
ENDBRANCH   1  27
TORSDOF 24
ENDMDL
MODEL 3
REMARK VINA RESULT:     -10.0      2.798      3.645
REMARK SMILES CCN(CC(C)(C)O)C(=O)Nc1ccc(C(=O)OCCOCCOC(=O)c2ccc(-c3c4nc(c(-c5c(F)cc(S(=O)(=O)[O-])cc5F)c5ccc([nH]5)c(-c5c(F)cc(S(=O)(=O)[O-])cc5F)c5nc(c(-c6c(F)cc(S(=O)(=O)[O-])cc6F)c6ccc3[nH]6)C=C5)C=C4)cc2)c(O)c1
REMARK SMILES IDX 20 1 19 2 18 3 16 4 17 5 15 6 12 7 13 8 95 9 14 10 93 11
REMARK SMILES IDX 11 12 9 13 10 14 3 16 2 17 1 18 4 19 5 20 6 21 7 22 8 23
REMARK SMILES IDX 94 25 21 27 22 28 23 29 24 30 25 31 26 32 27 33 28 34 92 35
REMARK SMILES IDX 29 36 91 37 30 38 31 39 32 40 85 41 33 42 90 43 84 44 86 45
REMARK SMILES IDX 34 46 89 47 83 48 82 49 35 51 69 52 48 53 68 54 49 55 52 56
REMARK SMILES IDX 67 57 87 58 50 59 51 60 66 62 88 63 53 64 36 65 37 66 46 67
REMARK SMILES IDX 38 68 39 69 45 70 47 71 40 72 41 73 42 74 43 75 44 76 70 77
REMARK SMILES IDX 71 78 80 79 72 80 73 81 79 82 81 83 74 84 75 85 76 86 77 87
REMARK SMILES IDX 78 88 54 89 55 90 64 91 56 92 57 93 63 94 65 95 58 96 59 97
REMARK SMILES IDX 60 98 61 99 62 100
REMARK H PARENT 11 15 8 24 94 26 86 50 52 61
REMARK Flexibility Score: inf
ROOT
ATOM      1  C   UNL A   1      32.194  28.711  23.048  1.00  0.00     0.202 C 
ENDROOT
BRANCH   1   2
ATOM      2  C   UNL A   1      31.105  27.642  22.910  1.00  0.00     0.261 C 
BRANCH   2   3
ATOM      3  O   UNL A   1      30.783  27.085  24.195  1.00  0.00    -0.460 OA
BRANCH   3   4
ATOM      4  C   UNL A   1      29.879  26.079  24.144  1.00  0.00     0.341 C 
ATOM      5  O   UNL A   1      28.760  26.110  23.666  1.00  0.00    -0.246 OA
BRANCH   4   6
ATOM      6  C   UNL A   1      30.594  24.834  24.448  1.00  0.00     0.101 A 
ATOM      7  C   UNL A   1      32.060  22.437  24.751  1.00  0.00     0.046 A 
ATOM      8  C   UNL A   1      31.849  23.004  23.511  1.00  0.00     0.027 A 
ATOM      9  C   UNL A   1      31.486  23.086  25.857  1.00  0.00     0.073 A 
ATOM     10  C   UNL A   1      31.134  24.185  23.342  1.00  0.00     0.022 A 
ATOM     11  C   UNL A   1      30.763  24.284  25.713  1.00  0.00     0.132 A 
BRANCH   7  12
ATOM     12  N   UNL A   1      32.691  21.201  24.961  1.00  0.00    -0.308 N 
ATOM     13  C   UNL A   1      33.860  20.561  24.749  1.00  0.00     0.321 C 
ATOM     14  O   UNL A   1      33.735  19.325  24.731  1.00  0.00    -0.248 OA
ATOM     15  H   UNL A   1      32.068  20.593  25.419  1.00  0.00     0.171 HD
BRANCH  13  16
ATOM     16  N   UNL A   1      35.109  21.120  24.664  1.00  0.00    -0.322 N 
BRANCH  16  17
ATOM     17  C   UNL A   1      36.224  20.248  25.086  1.00  0.00     0.118 C 
ATOM     18  C   UNL A   1      37.586  20.760  24.619  1.00  0.00     0.027 C 
ENDBRANCH  16  17
BRANCH  16  19
ATOM     19  C   UNL A   1      35.515  22.504  24.382  1.00  0.00     0.155 C 
BRANCH  19  20
ATOM     20  C   UNL A   1      35.604  23.442  25.647  1.00  0.00     0.077 C 
ATOM     21  C   UNL A   1      37.026  23.808  26.116  1.00  0.00     0.043 C 
ATOM     22  C   UNL A   1      34.745  24.699  25.418  1.00  0.00     0.043 C 
BRANCH  20  23
ATOM     23  O   UNL A   1      35.001  22.759  26.767  1.00  0.00    -0.389 OA
ATOM     24  H   UNL A   1      34.063  22.996  26.824  1.00  0.00     0.211 HD
ENDBRANCH  20  23
ENDBRANCH  19  20
ENDBRANCH  16  19
ENDBRANCH  13  16
ENDBRANCH   7  12
BRANCH  11  25
ATOM     25  O   UNL A   1      30.252  24.824  26.857  1.00  0.00    -0.507 OA
ATOM     26  H   UNL A   1      29.395  24.581  27.148  1.00  0.00     0.293 HD
ENDBRANCH  11  25
ENDBRANCH   4   6
ENDBRANCH   3   4
ENDBRANCH   2   3
ENDBRANCH   1   2
BRANCH   1  27
ATOM     27  O   UNL A   1      33.303  28.363  23.882  1.00  0.00    -0.374 OA
BRANCH  27  28
ATOM     28  C   UNL A   1      33.352  28.927  25.193  1.00  0.00     0.202 C 
BRANCH  28  29
ATOM     29  C   UNL A   1      34.065  28.107  26.274  1.00  0.00     0.261 C 
BRANCH  29  30
ATOM     30  O   UNL A   1      33.844  28.649  27.587  1.00  0.00    -0.460 OA
BRANCH  30  31
ATOM     31  C   UNL A   1      34.337  29.897  27.782  1.00  0.00     0.338 C 
ATOM     32  O   UNL A   1      33.712  30.943  27.795  1.00  0.00    -0.246 OA
BRANCH  31  33
ATOM     33  C   UNL A   1      35.751  29.806  28.187  1.00  0.00     0.060 A 
ATOM     34  C   UNL A   1      36.723  30.103  27.223  1.00  0.00     0.016 A 
ATOM     35  C   UNL A   1      36.122  29.381  29.464  1.00  0.00     0.016 A 
ATOM     36  C   UNL A   1      38.074  29.945  27.523  1.00  0.00     0.010 A 
ATOM     37  C   UNL A   1      37.478  29.207  29.759  1.00  0.00     0.010 A 
ATOM     38  C   UNL A   1      38.457  29.463  28.781  1.00  0.00    -0.014 A 
BRANCH  38  39
ATOM     39  C   UNL A   1      39.874  29.102  29.022  1.00  0.00     0.031 A 
ATOM     40  C   UNL A   1      40.802  30.137  29.596  1.00  0.00     0.074 A 
ATOM     41  C   UNL A   1      40.318  27.861  28.756  1.00  0.00     0.049 A 
ATOM     42  N   UNL A   1      42.078  30.045  29.863  1.00  0.00    -0.248 NA
ATOM     43  C   UNL A   1      40.211  31.448  29.910  1.00  0.00     0.031 C 
ATOM     44  C   UNL A   1      39.502  26.767  28.229  1.00  0.00     0.029 A 
ATOM     45  N   UNL A   1      41.570  27.316  28.884  1.00  0.00    -0.354 N 
ATOM     46  C   UNL A   1      42.447  31.285  30.371  1.00  0.00     0.074 A 
ATOM     47  C   UNL A   1      41.264  32.119  30.354  1.00  0.00     0.031 C 
ATOM     48  C   UNL A   1      40.282  25.684  28.063  1.00  0.00     0.029 A 
ATOM     49  C   UNL A   1      41.653  26.016  28.448  1.00  0.00     0.049 A 
ATOM     50  H   UNL A   1      42.337  27.810  29.255  1.00  0.00     0.167 HD
ATOM     51  C   UNL A   1      43.659  31.689  30.818  1.00  0.00     0.037 A 
ATOM     52  C   UNL A   1      42.718  25.197  28.352  1.00  0.00     0.037 A 
ATOM     53  C   UNL A   1      44.833  30.856  30.832  1.00  0.00     0.049 A 
ATOM     54  C   UNL A   1      44.069  25.684  28.804  1.00  0.00     0.074 A 
ATOM     55  C   UNL A   1      46.103  31.165  31.285  1.00  0.00     0.029 A 
ATOM     56  N   UNL A   1      44.882  29.550  30.365  1.00  0.00    -0.354 N 
ATOM     57  N   UNL A   1      44.397  26.850  29.311  1.00  0.00    -0.248 NA
ATOM     58  C   UNL A   1      45.194  24.746  28.678  1.00  0.00     0.031 C 
ATOM     59  C   UNL A   1      46.930  30.061  31.054  1.00  0.00     0.029 A 
ATOM     60  C   UNL A   1      46.165  29.048  30.497  1.00  0.00     0.049 A 
ATOM     61  H   UNL A   1      44.117  29.055  29.994  1.00  0.00     0.167 HD
ATOM     62  C   UNL A   1      45.759  26.777  29.583  1.00  0.00     0.074 A 
ATOM     63  C   UNL A   1      46.192  25.451  29.196  1.00  0.00     0.031 C 
ATOM     64  C   UNL A   1      46.578  27.722  30.111  1.00  0.00     0.037 A 
BRANCH  51  65
ATOM     65  C   UNL A   1      43.783  33.104  31.305  1.00  0.00     0.058 A 
ATOM     66  C   UNL A   1      43.639  33.432  32.662  1.00  0.00     0.135 A 
ATOM     67  C   UNL A   1      44.075  34.142  30.407  1.00  0.00     0.135 A 
ATOM     68  F   UNL A   1      43.340  32.479  33.560  1.00  0.00    -0.206 F 
ATOM     69  C   UNL A   1      43.759  34.744  33.109  1.00  0.00     0.059 A 
ATOM     70  C   UNL A   1      44.222  35.459  30.834  1.00  0.00     0.059 A 
ATOM     71  F   UNL A   1      44.218  33.883  29.098  1.00  0.00    -0.206 F 
ATOM     72  C   UNL A   1      44.049  35.752  32.186  1.00  0.00     0.060 A 
BRANCH  72  73
ATOM     73  S   UNL A   1      44.203  37.449  32.780  1.00  0.00     0.124 S 
ATOM     74  O   UNL A   1      45.544  37.435  33.355  1.00  0.00    -0.237 OA
ATOM     75  O   UNL A   1      44.048  38.226  31.554  1.00  0.00    -0.237 OA
ATOM     76  O   UNL A   1      43.109  37.573  33.738  1.00  0.00    -0.744 OA
ENDBRANCH  72  73
ENDBRANCH  51  65
BRANCH  52  77
ATOM     77  C   UNL A   1      42.552  23.831  27.789  1.00  0.00     0.058 A 
ATOM     78  C   UNL A   1      42.505  23.618  26.404  1.00  0.00     0.135 A 
ATOM     79  C   UNL A   1      42.442  22.712  28.628  1.00  0.00     0.135 A 
ATOM     80  F   UNL A   1      42.597  24.658  25.562  1.00  0.00    -0.206 F 
ATOM     81  C   UNL A   1      42.343  22.344  25.868  1.00  0.00     0.059 A 
ATOM     82  C   UNL A   1      42.301  21.426  28.116  1.00  0.00     0.059 A 
ATOM     83  F   UNL A   1      42.492  22.862  29.961  1.00  0.00    -0.206 F 
ATOM     84  C   UNL A   1      42.244  21.253  26.735  1.00  0.00     0.060 A 
BRANCH  84  85
ATOM     85  S   UNL A   1      42.087  19.597  26.030  1.00  0.00     0.124 S 
ATOM     86  O   UNL A   1      43.004  19.672  24.898  1.00  0.00    -0.237 OA
ATOM     87  O   UNL A   1      42.509  18.749  27.140  1.00  0.00    -0.237 OA
ATOM     88  O   UNL A   1      40.669  19.511  25.691  1.00  0.00    -0.744 OA
ENDBRANCH  84  85
ENDBRANCH  52  77
BRANCH  64  89
ATOM     89  C   UNL A   1      48.017  27.348  30.328  1.00  0.00     0.058 A 
ATOM     90  C   UNL A   1      49.005  27.640  29.375  1.00  0.00     0.135 A 
ATOM     91  C   UNL A   1      48.420  26.743  31.529  1.00  0.00     0.135 A 
ATOM     92  F   UNL A   1      48.671  28.213  28.209  1.00  0.00    -0.206 F 
ATOM     93  C   UNL A   1      50.343  27.327  29.598  1.00  0.00     0.059 A 
ATOM     94  C   UNL A   1      49.755  26.443  31.783  1.00  0.00     0.059 A 
ATOM     95  F   UNL A   1      47.515  26.453  32.477  1.00  0.00    -0.206 F 
ATOM     96  C   UNL A   1      50.708  26.728  30.806  1.00  0.00     0.060 A 
BRANCH  96  97
ATOM     97  S   UNL A   1      52.451  26.359  31.100  1.00  0.00     0.124 S 
ATOM     98  O   UNL A   1      52.962  26.255  29.738  1.00  0.00    -0.237 OA
ATOM     99  O   UNL A   1      52.896  27.525  31.857  1.00  0.00    -0.237 OA
ATOM    100  O   UNL A   1      52.410  25.110  31.853  1.00  0.00    -0.744 OA
ENDBRANCH  96  97
ENDBRANCH  64  89
ENDBRANCH  38  39
ENDBRANCH  31  33
ENDBRANCH  30  31
ENDBRANCH  29  30
ENDBRANCH  28  29
ENDBRANCH  27  28
ENDBRANCH   1  27
TORSDOF 24
ENDMDL
