MODEL 1
REMARK VINA RESULT:     -11.3      0.000      0.000
REMARK SMILES Cc1cccc(C[C@H](C(=O)OCCOCCOC(=O)c2ccc(-c3c4nc(c(-c5c(F)cc(S(=O)(=O)[O-])cc5F)c5ccc([nH]5)c(-c5c(F)cc(S(=O)(=O)[O-])cc5F)c5nc(c(-c6c(F)cc(S(=O)(=O)[O-])cc6F)c6ccc3[nH]6)C=C5)C=C4)cc2)[C@@H]2CCCC[C@@H]2O)c1
REMARK SMILES IDX 15 1 14 2 13 3 12 4 11 5 9 6 10 7 8 8 7 9 6 10 1 11 2 12
REMARK SMILES IDX 3 13 93 14 4 15 5 16 86 17 87 18 91 19 88 20 90 21 89 22
REMARK SMILES IDX 92 23 16 25 17 26 18 27 19 28 20 29 21 30 85 31 22 32 84 33
REMARK SMILES IDX 23 34 24 35 25 36 78 37 26 38 83 39 77 40 79 41 27 42 82 43
REMARK SMILES IDX 76 44 75 45 28 47 62 48 41 49 61 50 42 51 45 52 60 53 80 54
REMARK SMILES IDX 43 55 44 56 59 58 81 59 46 60 29 61 30 62 39 63 31 64 32 65
REMARK SMILES IDX 38 66 40 67 33 68 34 69 35 70 36 71 37 72 63 73 64 74 73 75
REMARK SMILES IDX 65 76 66 77 72 78 74 79 67 80 68 81 69 82 70 83 71 84 47 85
REMARK SMILES IDX 48 86 57 87 49 88 50 89 56 90 58 91 51 92 52 93 53 94 54 95
REMARK SMILES IDX 55 96
REMARK H PARENT 92 24 79 46 45 57
REMARK Flexibility Score: inf
ROOT
ATOM      1  C   UNL A   1      40.186  22.060  26.965  1.00  0.00     0.202 C 
ENDROOT
BRANCH   1   2
ATOM      2  O   UNL A   1      39.581  21.552  25.802  1.00  0.00    -0.374 OA
BRANCH   2   3
ATOM      3  C   UNL A   1      38.222  21.929  25.795  1.00  0.00     0.202 C 
BRANCH   3   4
ATOM      4  C   UNL A   1      37.659  21.120  24.729  1.00  0.00     0.261 C 
BRANCH   4   5
ATOM      5  O   UNL A   1      36.519  21.797  24.286  1.00  0.00    -0.463 OA
BRANCH   5   6
ATOM      6  C   UNL A   1      35.357  21.237  24.619  1.00  0.00     0.309 C 
ATOM      7  O   UNL A   1      35.155  20.049  24.806  1.00  0.00    -0.252 OA
BRANCH   6   8
ATOM      8  C   UNL A   1      34.428  22.370  24.891  1.00  0.00     0.109 C 
BRANCH   8   9
ATOM      9  C   UNL A   1      34.472  23.566  23.802  1.00  0.00     0.051 C 
BRANCH   9  10
ATOM     10  C   UNL A   1      33.913  25.045  23.828  1.00  0.00    -0.047 A 
ATOM     11  C   UNL A   1      33.677  28.412  26.823  1.00  0.00     0.044 C 
ATOM     12  C   UNL A   1      33.745  27.718  25.504  1.00  0.00    -0.051 A 
ATOM     13  C   UNL A   1      33.496  28.787  24.140  1.00  0.00     0.003 A 
ATOM     14  C   UNL A   1      33.974  25.938  25.372  1.00  0.00     0.007 A 
ATOM     15  C   UNL A   1      33.412  28.056  22.538  1.00  0.00     0.001 A 
ATOM     16  C   UNL A   1      33.583  26.047  22.354  1.00  0.00     0.004 A 
ENDBRANCH   9  10
ENDBRANCH   8   9
BRANCH   8  17
ATOM     17  C   UNL A   1      33.115  21.666  25.415  1.00  0.00     0.032 C 
ATOM     18  C   UNL A   1      31.822  22.077  24.724  1.00  0.00     0.007 C 
ATOM     19  C   UNL A   1      32.934  21.646  26.935  1.00  0.00     0.118 C 
ATOM     20  C   UNL A   1      31.219  23.366  25.251  1.00  0.00     0.001 C 
ATOM     21  C   UNL A   1      32.609  23.038  27.419  1.00  0.00     0.032 C 
ATOM     22  C   UNL A   1      31.334  23.561  26.766  1.00  0.00     0.003 C 
BRANCH  19  23
ATOM     23  O   UNL A   1      34.080  21.170  27.635  1.00  0.00    -0.393 OA
ATOM     24  H   UNL A   1      33.796  20.620  28.382  1.00  0.00     0.210 HD
ENDBRANCH  19  23
ENDBRANCH   8  17
ENDBRANCH   6   8
ENDBRANCH   5   6
ENDBRANCH   4   5
ENDBRANCH   3   4
ENDBRANCH   2   3
ENDBRANCH   1   2
BRANCH   1  25
ATOM     25  C   UNL A   1      39.689  23.498  27.259  1.00  0.00     0.261 C 
BRANCH  25  26
ATOM     26  O   UNL A   1      40.358  24.437  26.351  1.00  0.00    -0.460 OA
BRANCH  26  27
ATOM     27  C   UNL A   1      41.130  25.477  26.830  1.00  0.00     0.338 C 
ATOM     28  O   UNL A   1      42.311  25.653  26.596  1.00  0.00    -0.246 OA
BRANCH  27  29
ATOM     29  C   UNL A   1      40.324  26.346  27.768  1.00  0.00     0.060 A 
ATOM     30  C   UNL A   1      39.373  27.309  27.341  1.00  0.00     0.016 A 
ATOM     31  C   UNL A   1      40.780  26.413  29.066  1.00  0.00     0.016 A 
ATOM     32  C   UNL A   1      39.064  28.445  28.144  1.00  0.00     0.010 A 
ATOM     33  C   UNL A   1      40.580  27.585  29.762  1.00  0.00     0.010 A 
ATOM     34  C   UNL A   1      39.783  28.655  29.315  1.00  0.00    -0.014 A 
BRANCH  34  35
ATOM     35  C   UNL A   1      39.976  29.925  30.089  1.00  0.00     0.031 A 
ATOM     36  C   UNL A   1      38.842  30.858  29.924  1.00  0.00     0.074 A 
ATOM     37  C   UNL A   1      40.999  30.191  30.952  1.00  0.00     0.049 A 
ATOM     38  N   UNL A   1      38.890  31.946  29.215  1.00  0.00    -0.248 NA
ATOM     39  C   UNL A   1      37.465  30.498  30.323  1.00  0.00     0.031 C 
ATOM     40  C   UNL A   1      41.181  31.223  31.973  1.00  0.00     0.029 A 
ATOM     41  N   UNL A   1      42.189  29.500  31.078  1.00  0.00    -0.354 N 
ATOM     42  C   UNL A   1      37.685  32.557  29.504  1.00  0.00     0.074 A 
ATOM     43  C   UNL A   1      36.775  31.465  29.730  1.00  0.00     0.031 C 
ATOM     44  C   UNL A   1      42.472  31.268  32.382  1.00  0.00     0.029 A 
ATOM     45  C   UNL A   1      43.188  30.181  31.746  1.00  0.00     0.049 A 
ATOM     46  H   UNL A   1      42.315  28.592  30.720  1.00  0.00     0.167 HD
ATOM     47  C   UNL A   1      37.648  33.684  30.288  1.00  0.00     0.037 A 
ATOM     48  C   UNL A   1      44.449  30.078  31.263  1.00  0.00     0.037 A 
ATOM     49  C   UNL A   1      38.988  34.011  30.829  1.00  0.00     0.049 A 
ATOM     50  C   UNL A   1      44.422  31.341  30.345  1.00  0.00     0.074 A 
ATOM     51  C   UNL A   1      39.517  34.190  32.098  1.00  0.00     0.029 A 
ATOM     52  N   UNL A   1      40.109  33.922  29.992  1.00  0.00    -0.354 N 
ATOM     53  N   UNL A   1      43.307  31.945  29.944  1.00  0.00    -0.248 NA
ATOM     54  C   UNL A   1      45.557  32.256  30.267  1.00  0.00     0.031 C 
ATOM     55  C   UNL A   1      40.940  34.319  31.984  1.00  0.00     0.029 A 
ATOM     56  C   UNL A   1      41.304  34.095  30.661  1.00  0.00     0.049 A 
ATOM     57  H   UNL A   1      40.051  33.753  29.023  1.00  0.00     0.167 HD
ATOM     58  C   UNL A   1      43.507  33.308  29.861  1.00  0.00     0.074 A 
ATOM     59  C   UNL A   1      44.949  33.430  30.026  1.00  0.00     0.031 C 
ATOM     60  C   UNL A   1      42.547  34.302  29.908  1.00  0.00     0.037 A 
BRANCH  47  61
ATOM     61  C   UNL A   1      36.300  34.228  30.790  1.00  0.00     0.058 A 
ATOM     62  C   UNL A   1      36.050  34.508  32.146  1.00  0.00     0.135 A 
ATOM     63  C   UNL A   1      35.218  34.562  29.927  1.00  0.00     0.135 A 
ATOM     64  F   UNL A   1      36.985  34.332  33.085  1.00  0.00    -0.206 F 
ATOM     65  C   UNL A   1      34.836  35.034  32.611  1.00  0.00     0.059 A 
ATOM     66  C   UNL A   1      33.974  35.025  30.374  1.00  0.00     0.059 A 
ATOM     67  F   UNL A   1      35.344  34.511  28.592  1.00  0.00    -0.206 F 
ATOM     68  C   UNL A   1      33.803  35.292  31.720  1.00  0.00     0.060 A 
BRANCH  68  69
ATOM     69  S   UNL A   1      32.305  36.096  32.322  1.00  0.00     0.124 S 
ATOM     70  O   UNL A   1      31.485  34.961  32.731  1.00  0.00    -0.237 OA
ATOM     71  O   UNL A   1      32.828  36.925  33.404  1.00  0.00    -0.237 OA
ATOM     72  O   UNL A   1      31.815  36.827  31.157  1.00  0.00    -0.744 OA
ENDBRANCH  68  69
ENDBRANCH  47  61
BRANCH  48  73
ATOM     73  C   UNL A   1      44.960  28.428  31.163  1.00  0.00     0.058 A 
ATOM     74  C   UNL A   1      45.058  26.816  32.416  1.00  0.00     0.135 A 
ATOM     75  C   UNL A   1      44.914  28.023  29.402  1.00  0.00     0.135 A 
ATOM     76  F   UNL A   1      45.085  26.702  33.779  1.00  0.00    -0.206 F 
ATOM     77  C   UNL A   1      44.991  25.143  31.718  1.00  0.00     0.059 A 
ATOM     78  C   UNL A   1      44.831  26.350  28.863  1.00  0.00     0.059 A 
ATOM     79  F   UNL A   1      45.103  28.988  28.494  1.00  0.00    -0.206 F 
ATOM     80  C   UNL A   1      44.852  24.979  29.977  1.00  0.00     0.060 A 
BRANCH  80  81
ATOM     81  S   UNL A   1      44.364  23.365  29.326  1.00  0.00     0.124 S 
ATOM     82  O   UNL A   1      42.942  23.544  29.069  1.00  0.00    -0.237 OA
ATOM     83  O   UNL A   1      45.227  23.250  28.153  1.00  0.00    -0.237 OA
ATOM     84  O   UNL A   1      44.704  22.466  30.419  1.00  0.00    -0.744 OA
ENDBRANCH  80  81
ENDBRANCH  48  73
BRANCH  60  85
ATOM     85  C   UNL A   1      42.678  35.674  29.232  1.00  0.00     0.058 A 
ATOM     86  C   UNL A   1      41.976  36.076  28.089  1.00  0.00     0.135 A 
ATOM     87  C   UNL A   1      43.428  36.721  29.855  1.00  0.00     0.135 A 
ATOM     88  F   UNL A   1      41.175  35.254  27.406  1.00  0.00    -0.206 F 
ATOM     89  C   UNL A   1      42.022  37.379  27.598  1.00  0.00     0.059 A 
ATOM     90  C   UNL A   1      43.418  38.043  29.430  1.00  0.00     0.059 A 
ATOM     91  F   UNL A   1      44.202  36.534  30.929  1.00  0.00    -0.206 F 
ATOM     92  C   UNL A   1      42.722  38.360  28.288  1.00  0.00     0.060 A 
BRANCH  92  93
ATOM     93  S   UNL A   1      42.681  40.042  27.676  1.00  0.00     0.124 S 
ATOM     94  O   UNL A   1      43.937  40.107  26.934  1.00  0.00    -0.237 OA
ATOM     95  O   UNL A   1      41.466  40.038  26.868  1.00  0.00    -0.237 OA
ATOM     96  O   UNL A   1      42.623  40.851  28.889  1.00  0.00    -0.744 OA
ENDBRANCH  92  93
ENDBRANCH  60  85
ENDBRANCH  34  35
ENDBRANCH  27  29
ENDBRANCH  26  27
ENDBRANCH  25  26
ENDBRANCH   1  25
TORSDOF 21
ENDMDL
MODEL 2
REMARK VINA RESULT:     -11.1      5.408     12.634
REMARK SMILES Cc1cccc(C[C@H](C(=O)OCCOCCOC(=O)c2ccc(-c3c4nc(c(-c5c(F)cc(S(=O)(=O)[O-])cc5F)c5ccc([nH]5)c(-c5c(F)cc(S(=O)(=O)[O-])cc5F)c5nc(c(-c6c(F)cc(S(=O)(=O)[O-])cc6F)c6ccc3[nH]6)C=C5)C=C4)cc2)[C@@H]2CCCC[C@@H]2O)c1
REMARK SMILES IDX 15 1 14 2 13 3 12 4 11 5 9 6 10 7 8 8 7 9 6 10 1 11 2 12
REMARK SMILES IDX 3 13 93 14 4 15 5 16 86 17 87 18 91 19 88 20 90 21 89 22
REMARK SMILES IDX 92 23 16 25 17 26 18 27 19 28 20 29 21 30 85 31 22 32 84 33
REMARK SMILES IDX 23 34 24 35 25 36 78 37 26 38 83 39 77 40 79 41 27 42 82 43
REMARK SMILES IDX 76 44 75 45 28 47 62 48 41 49 61 50 42 51 45 52 60 53 80 54
REMARK SMILES IDX 43 55 44 56 59 58 81 59 46 60 29 61 30 62 39 63 31 64 32 65
REMARK SMILES IDX 38 66 40 67 33 68 34 69 35 70 36 71 37 72 63 73 64 74 73 75
REMARK SMILES IDX 65 76 66 77 72 78 74 79 67 80 68 81 69 82 70 83 71 84 47 85
REMARK SMILES IDX 48 86 57 87 49 88 50 89 56 90 58 91 51 92 52 93 53 94 54 95
REMARK SMILES IDX 55 96
REMARK H PARENT 92 24 79 46 45 57
REMARK Flexibility Score: inf
ROOT
ATOM      1  C   UNL A   1      44.475  33.790  36.875  1.00  0.00     0.202 C 
ENDROOT
BRANCH   1   2
ATOM      2  O   UNL A   1      44.494  33.510  35.498  1.00  0.00    -0.374 OA
BRANCH   2   3
ATOM      3  C   UNL A   1      45.657  34.074  34.936  1.00  0.00     0.202 C 
BRANCH   3   4
ATOM      4  C   UNL A   1      45.232  34.448  33.599  1.00  0.00     0.261 C 
BRANCH   4   5
ATOM      5  O   UNL A   1      44.210  33.560  33.251  1.00  0.00    -0.463 OA
BRANCH   5   6
ATOM      6  C   UNL A   1      43.929  33.493  31.951  1.00  0.00     0.309 C 
ATOM      7  O   UNL A   1      44.688  33.130  31.066  1.00  0.00    -0.252 OA
BRANCH   6   8
ATOM      8  C   UNL A   1      42.470  33.770  31.838  1.00  0.00     0.109 C 
BRANCH   8   9
ATOM      9  C   UNL A   1      41.943  35.027  32.711  1.00  0.00     0.051 C 
BRANCH   9  10
ATOM     10  C   UNL A   1      40.787  35.165  33.780  1.00  0.00    -0.047 A 
ATOM     11  C   UNL A   1      36.658  33.451  34.390  1.00  0.00     0.044 C 
ATOM     12  C   UNL A   1      37.984  34.050  34.719  1.00  0.00    -0.051 A 
ATOM     13  C   UNL A   1      38.135  34.529  36.395  1.00  0.00     0.003 A 
ATOM     14  C   UNL A   1      39.248  34.318  33.467  1.00  0.00     0.007 A 
ATOM     15  C   UNL A   1      39.606  35.380  36.869  1.00  0.00     0.001 A 
ATOM     16  C   UNL A   1      41.017  35.775  35.472  1.00  0.00     0.004 A 
ENDBRANCH   9  10
ENDBRANCH   8   9
BRANCH   8  17
ATOM     17  C   UNL A   1      42.154  33.529  30.309  1.00  0.00     0.032 C 
ATOM     18  C   UNL A   1      41.382  34.639  29.610  1.00  0.00     0.007 C 
ATOM     19  C   UNL A   1      41.569  32.158  29.961  1.00  0.00     0.118 C 
ATOM     20  C   UNL A   1      39.881  34.580  29.824  1.00  0.00     0.001 C 
ATOM     21  C   UNL A   1      40.148  32.078  30.462  1.00  0.00     0.032 C 
ATOM     22  C   UNL A   1      39.285  33.170  29.838  1.00  0.00     0.003 C 
BRANCH  19  23
ATOM     23  O   UNL A   1      42.311  31.071  30.503  1.00  0.00    -0.393 OA
ATOM     24  H   UNL A   1      43.157  30.992  30.034  1.00  0.00     0.210 HD
ENDBRANCH  19  23
ENDBRANCH   8  17
ENDBRANCH   6   8
ENDBRANCH   5   6
ENDBRANCH   4   5
ENDBRANCH   3   4
ENDBRANCH   2   3
ENDBRANCH   1   2
BRANCH   1  25
ATOM     25  C   UNL A   1      43.045  33.620  37.450  1.00  0.00     0.261 C 
BRANCH  25  26
ATOM     26  O   UNL A   1      42.484  32.345  36.985  1.00  0.00    -0.460 OA
BRANCH  26  27
ATOM     27  C   UNL A   1      41.121  32.142  36.911  1.00  0.00     0.338 C 
ATOM     28  O   UNL A   1      40.332  32.264  37.829  1.00  0.00    -0.246 OA
BRANCH  27  29
ATOM     29  C   UNL A   1      40.732  31.660  35.531  1.00  0.00     0.060 A 
ATOM     30  C   UNL A   1      39.569  30.896  35.256  1.00  0.00     0.016 A 
ATOM     31  C   UNL A   1      41.724  31.704  34.578  1.00  0.00     0.016 A 
ATOM     32  C   UNL A   1      39.514  30.017  34.135  1.00  0.00     0.010 A 
ATOM     33  C   UNL A   1      41.711  30.746  33.587  1.00  0.00     0.010 A 
ATOM     34  C   UNL A   1      40.658  29.839  33.365  1.00  0.00    -0.014 A 
BRANCH  34  35
ATOM     35  C   UNL A   1      41.010  28.708  32.446  1.00  0.00     0.031 A 
ATOM     36  C   UNL A   1      42.315  28.100  32.780  1.00  0.00     0.074 A 
ATOM     37  C   UNL A   1      40.207  28.183  31.476  1.00  0.00     0.049 A 
ATOM     38  N   UNL A   1      43.397  28.263  32.078  1.00  0.00    -0.248 NA
ATOM     39  C   UNL A   1      42.577  27.479  34.095  1.00  0.00     0.031 C 
ATOM     40  C   UNL A   1      40.274  26.938  30.711  1.00  0.00     0.029 A 
ATOM     41  N   UNL A   1      39.057  28.739  30.950  1.00  0.00    -0.354 N 
ATOM     42  C   UNL A   1      44.282  27.381  32.668  1.00  0.00     0.074 A 
ATOM     43  C   UNL A   1      43.899  27.361  34.054  1.00  0.00     0.031 C 
ATOM     44  C   UNL A   1      39.420  26.976  29.659  1.00  0.00     0.029 A 
ATOM     45  C   UNL A   1      38.648  28.199  29.746  1.00  0.00     0.049 A 
ATOM     46  H   UNL A   1      38.565  29.465  31.399  1.00  0.00     0.167 HD
ATOM     47  C   UNL A   1      44.652  26.229  32.017  1.00  0.00     0.037 A 
ATOM     48  C   UNL A   1      38.177  29.050  28.803  1.00  0.00     0.037 A 
ATOM     49  C   UNL A   1      43.894  26.053  30.757  1.00  0.00     0.049 A 
ATOM     50  C   UNL A   1      39.526  29.293  28.054  1.00  0.00     0.074 A 
ATOM     51  C   UNL A   1      43.075  25.063  30.234  1.00  0.00     0.029 A 
ATOM     52  N   UNL A   1      43.691  27.155  29.915  1.00  0.00    -0.354 N 
ATOM     53  N   UNL A   1      40.722  29.031  28.571  1.00  0.00    -0.248 NA
ATOM     54  C   UNL A   1      39.595  29.332  26.596  1.00  0.00     0.031 C 
ATOM     55  C   UNL A   1      42.484  25.553  29.024  1.00  0.00     0.029 A 
ATOM     56  C   UNL A   1      42.837  26.888  28.863  1.00  0.00     0.049 A 
ATOM     57  H   UNL A   1      44.115  28.032  30.058  1.00  0.00     0.167 HD
ATOM     58  C   UNL A   1      41.582  28.592  27.586  1.00  0.00     0.074 A 
ATOM     59  C   UNL A   1      40.830  28.853  26.366  1.00  0.00     0.031 C 
ATOM     60  C   UNL A   1      42.727  27.833  27.746  1.00  0.00     0.037 A 
BRANCH  47  61
ATOM     61  C   UNL A   1      45.455  25.150  32.762  1.00  0.00     0.058 A 
ATOM     62  C   UNL A   1      46.831  25.276  33.032  1.00  0.00     0.135 A 
ATOM     63  C   UNL A   1      44.871  23.970  33.305  1.00  0.00     0.135 A 
ATOM     64  F   UNL A   1      47.523  26.360  32.667  1.00  0.00    -0.206 F 
ATOM     65  C   UNL A   1      47.566  24.314  33.739  1.00  0.00     0.059 A 
ATOM     66  C   UNL A   1      45.596  22.964  33.955  1.00  0.00     0.059 A 
ATOM     67  F   UNL A   1      43.544  23.770  33.280  1.00  0.00    -0.206 F 
ATOM     68  C   UNL A   1      46.943  23.162  34.199  1.00  0.00     0.060 A 
BRANCH  68  69
ATOM     69  S   UNL A   1      47.879  22.008  35.222  1.00  0.00     0.124 S 
ATOM     70  O   UNL A   1      49.128  22.728  35.442  1.00  0.00    -0.237 OA
ATOM     71  O   UNL A   1      47.010  21.872  36.387  1.00  0.00    -0.237 OA
ATOM     72  O   UNL A   1      47.989  20.817  34.384  1.00  0.00    -0.744 OA
ENDBRANCH  68  69
ENDBRANCH  47  61
BRANCH  48  73
ATOM     73  C   UNL A   1      36.851  29.988  29.397  1.00  0.00     0.058 A 
ATOM     74  C   UNL A   1      36.411  31.052  31.087  1.00  0.00     0.135 A 
ATOM     75  C   UNL A   1      35.914  30.470  27.928  1.00  0.00     0.135 A 
ATOM     76  F   UNL A   1      36.904  31.011  32.362  1.00  0.00    -0.206 F 
ATOM     77  C   UNL A   1      35.233  32.428  30.989  1.00  0.00     0.059 A 
ATOM     78  C   UNL A   1      34.815  31.843  27.970  1.00  0.00     0.059 A 
ATOM     79  F   UNL A   1      35.933  29.686  26.843  1.00  0.00    -0.206 F 
ATOM     80  C   UNL A   1      34.505  32.784  29.432  1.00  0.00     0.060 A 
BRANCH  80  81
ATOM     81  S   UNL A   1      33.681  34.381  29.241  1.00  0.00     0.124 S 
ATOM     82  O   UNL A   1      32.577  34.062  28.347  1.00  0.00    -0.237 OA
ATOM     83  O   UNL A   1      33.329  34.695  30.623  1.00  0.00    -0.237 OA
ATOM     84  O   UNL A   1      34.734  35.215  28.679  1.00  0.00    -0.744 OA
ENDBRANCH  80  81
ENDBRANCH  48  73
BRANCH  60  85
ATOM     85  C   UNL A   1      43.939  27.874  26.806  1.00  0.00     0.058 A 
ATOM     86  C   UNL A   1      45.003  28.780  26.906  1.00  0.00     0.135 A 
ATOM     87  C   UNL A   1      44.144  26.840  25.839  1.00  0.00     0.135 A 
ATOM     88  F   UNL A   1      45.021  29.779  27.793  1.00  0.00    -0.206 F 
ATOM     89  C   UNL A   1      46.148  28.685  26.118  1.00  0.00     0.059 A 
ATOM     90  C   UNL A   1      45.312  26.680  25.106  1.00  0.00     0.059 A 
ATOM     91  F   UNL A   1      43.231  25.904  25.557  1.00  0.00    -0.206 F 
ATOM     92  C   UNL A   1      46.306  27.621  25.243  1.00  0.00     0.060 A 
BRANCH  92  93
ATOM     93  S   UNL A   1      47.831  27.483  24.316  1.00  0.00     0.124 S 
ATOM     94  O   UNL A   1      48.808  27.929  25.305  1.00  0.00    -0.237 OA
ATOM     95  O   UNL A   1      47.860  26.060  23.994  1.00  0.00    -0.237 OA
ATOM     96  O   UNL A   1      47.630  28.377  23.181  1.00  0.00    -0.744 OA
ENDBRANCH  92  93
ENDBRANCH  60  85
ENDBRANCH  34  35
ENDBRANCH  27  29
ENDBRANCH  26  27
ENDBRANCH  25  26
ENDBRANCH   1  25
TORSDOF 21
ENDMDL
MODEL 3
REMARK VINA RESULT:     -11.1      5.828     15.953
REMARK SMILES Cc1cccc(C[C@H](C(=O)OCCOCCOC(=O)c2ccc(-c3c4nc(c(-c5c(F)cc(S(=O)(=O)[O-])cc5F)c5ccc([nH]5)c(-c5c(F)cc(S(=O)(=O)[O-])cc5F)c5nc(c(-c6c(F)cc(S(=O)(=O)[O-])cc6F)c6ccc3[nH]6)C=C5)C=C4)cc2)[C@@H]2CCCC[C@@H]2O)c1
REMARK SMILES IDX 15 1 14 2 13 3 12 4 11 5 9 6 10 7 8 8 7 9 6 10 1 11 2 12
REMARK SMILES IDX 3 13 93 14 4 15 5 16 86 17 87 18 91 19 88 20 90 21 89 22
REMARK SMILES IDX 92 23 16 25 17 26 18 27 19 28 20 29 21 30 85 31 22 32 84 33
REMARK SMILES IDX 23 34 24 35 25 36 78 37 26 38 83 39 77 40 79 41 27 42 82 43
REMARK SMILES IDX 76 44 75 45 28 47 62 48 41 49 61 50 42 51 45 52 60 53 80 54
REMARK SMILES IDX 43 55 44 56 59 58 81 59 46 60 29 61 30 62 39 63 31 64 32 65
REMARK SMILES IDX 38 66 40 67 33 68 34 69 35 70 36 71 37 72 63 73 64 74 73 75
REMARK SMILES IDX 65 76 66 77 72 78 74 79 67 80 68 81 69 82 70 83 71 84 47 85
REMARK SMILES IDX 48 86 57 87 49 88 50 89 56 90 58 91 51 92 52 93 53 94 54 95
REMARK SMILES IDX 55 96
REMARK H PARENT 92 24 79 46 45 57
REMARK Flexibility Score: inf
ROOT
ATOM      1  C   UNL A   1      44.603  39.559  26.548  1.00  0.00     0.202 C 
ENDROOT
BRANCH   1   2
ATOM      2  O   UNL A   1      43.442  39.864  25.816  1.00  0.00    -0.374 OA
BRANCH   2   3
ATOM      3  C   UNL A   1      43.048  41.183  26.119  1.00  0.00     0.202 C 
BRANCH   3   4
ATOM      4  C   UNL A   1      42.441  41.640  24.881  1.00  0.00     0.261 C 
BRANCH   4   5
ATOM      5  O   UNL A   1      43.496  41.974  24.028  1.00  0.00    -0.463 OA
BRANCH   5   6
ATOM      6  C   UNL A   1      43.274  43.015  23.226  1.00  0.00     0.309 C 
ATOM      7  O   UNL A   1      42.295  43.742  23.241  1.00  0.00    -0.252 OA
BRANCH   6   8
ATOM      8  C   UNL A   1      44.535  43.206  22.456  1.00  0.00     0.109 C 
BRANCH   8   9
ATOM      9  C   UNL A   1      44.353  43.251  20.848  1.00  0.00     0.051 C 
BRANCH   9  10
ATOM     10  C   UNL A   1      43.400  44.097  19.913  1.00  0.00    -0.047 A 
ATOM     11  C   UNL A   1      43.880  47.344  16.815  1.00  0.00     0.044 C 
ATOM     12  C   UNL A   1      43.289  46.182  17.542  1.00  0.00    -0.051 A 
ATOM     13  C   UNL A   1      41.690  45.748  16.975  1.00  0.00     0.003 A 
ATOM     14  C   UNL A   1      44.130  45.388  18.919  1.00  0.00     0.007 A 
ATOM     15  C   UNL A   1      40.832  44.483  17.853  1.00  0.00     0.001 A 
ATOM     16  C   UNL A   1      41.711  43.620  19.460  1.00  0.00     0.004 A 
ENDBRANCH   9  10
ENDBRANCH   8   9
BRANCH   8  17
ATOM     17  C   UNL A   1      45.346  44.259  23.308  1.00  0.00     0.032 C 
ATOM     18  C   UNL A   1      45.533  45.627  22.667  1.00  0.00     0.007 C 
ATOM     19  C   UNL A   1      46.662  43.756  23.906  1.00  0.00     0.118 C 
ATOM     20  C   UNL A   1      46.681  45.696  21.678  1.00  0.00     0.001 C 
ATOM     21  C   UNL A   1      47.679  43.581  22.805  1.00  0.00     0.032 C 
ATOM     22  C   UNL A   1      47.926  44.897  22.075  1.00  0.00     0.003 C 
BRANCH  19  23
ATOM     23  O   UNL A   1      46.530  42.526  24.611  1.00  0.00    -0.393 OA
ATOM     24  H   UNL A   1      45.604  42.401  24.871  1.00  0.00     0.210 HD
ENDBRANCH  19  23
ENDBRANCH   8  17
ENDBRANCH   6   8
ENDBRANCH   5   6
ENDBRANCH   4   5
ENDBRANCH   3   4
ENDBRANCH   2   3
ENDBRANCH   1   2
BRANCH   1  25
ATOM     25  C   UNL A   1      44.342  38.390  27.530  1.00  0.00     0.261 C 
BRANCH  25  26
ATOM     26  O   UNL A   1      43.957  37.194  26.770  1.00  0.00    -0.460 OA
BRANCH  26  27
ATOM     27  C   UNL A   1      44.798  36.105  26.666  1.00  0.00     0.338 C 
ATOM     28  O   UNL A   1      45.916  36.111  26.187  1.00  0.00    -0.246 OA
BRANCH  27  29
ATOM     29  C   UNL A   1      44.108  34.854  27.164  1.00  0.00     0.060 A 
ATOM     30  C   UNL A   1      43.666  34.668  28.499  1.00  0.00     0.016 A 
ATOM     31  C   UNL A   1      44.213  33.747  26.351  1.00  0.00     0.016 A 
ATOM     32  C   UNL A   1      43.550  33.362  29.060  1.00  0.00     0.010 A 
ATOM     33  C   UNL A   1      44.235  32.506  26.949  1.00  0.00     0.010 A 
ATOM     34  C   UNL A   1      43.974  32.270  28.312  1.00  0.00    -0.014 A 
BRANCH  34  35
ATOM     35  C   UNL A   1      44.365  30.900  28.780  1.00  0.00     0.031 A 
ATOM     36  C   UNL A   1      45.672  30.475  28.239  1.00  0.00     0.074 A 
ATOM     37  C   UNL A   1      43.690  30.141  29.692  1.00  0.00     0.049 A 
ATOM     38  N   UNL A   1      45.821  29.583  27.305  1.00  0.00    -0.248 NA
ATOM     39  C   UNL A   1      46.916  31.226  28.513  1.00  0.00     0.031 C 
ATOM     40  C   UNL A   1      44.068  28.950  30.453  1.00  0.00     0.029 A 
ATOM     41  N   UNL A   1      42.399  30.330  30.146  1.00  0.00    -0.354 N 
ATOM     42  C   UNL A   1      47.190  29.401  27.267  1.00  0.00     0.074 A 
ATOM     43  C   UNL A   1      47.733  30.688  27.615  1.00  0.00     0.031 C 
ATOM     44  C   UNL A   1      42.978  28.378  31.018  1.00  0.00     0.029 A 
ATOM     45  C   UNL A   1      41.835  29.233  30.767  1.00  0.00     0.049 A 
ATOM     46  H   UNL A   1      41.917  31.182  30.036  1.00  0.00     0.167 HD
ATOM     47  C   UNL A   1      47.750  28.241  27.747  1.00  0.00     0.037 A 
ATOM     48  C   UNL A   1      40.533  28.963  30.507  1.00  0.00     0.037 A 
ATOM     49  C   UNL A   1      46.732  27.371  28.379  1.00  0.00     0.049 A 
ATOM     50  C   UNL A   1      40.762  27.974  29.320  1.00  0.00     0.074 A 
ATOM     51  C   UNL A   1      46.573  26.796  29.631  1.00  0.00     0.029 A 
ATOM     52  N   UNL A   1      45.488  27.200  27.755  1.00  0.00    -0.354 N 
ATOM     53  N   UNL A   1      41.897  27.886  28.633  1.00  0.00    -0.248 NA
ATOM     54  C   UNL A   1      39.986  26.744  29.189  1.00  0.00     0.031 C 
ATOM     55  C   UNL A   1      45.275  26.191  29.693  1.00  0.00     0.029 A 
ATOM     56  C   UNL A   1      44.583  26.499  28.526  1.00  0.00     0.049 A 
ATOM     57  H   UNL A   1      45.280  27.545  26.856  1.00  0.00     0.167 HD
ATOM     58  C   UNL A   1      42.126  26.578  28.257  1.00  0.00     0.074 A 
ATOM     59  C   UNL A   1      40.869  25.924  28.591  1.00  0.00     0.031 C 
ATOM     60  C   UNL A   1      43.339  25.998  27.930  1.00  0.00     0.037 A 
BRANCH  47  61
ATOM     61  C   UNL A   1      49.275  28.134  27.909  1.00  0.00     0.058 A 
ATOM     62  C   UNL A   1      49.927  28.352  29.136  1.00  0.00     0.135 A 
ATOM     63  C   UNL A   1      50.150  27.738  26.858  1.00  0.00     0.135 A 
ATOM     64  F   UNL A   1      49.250  28.652  30.249  1.00  0.00    -0.206 F 
ATOM     65  C   UNL A   1      51.314  28.225  29.303  1.00  0.00     0.059 A 
ATOM     66  C   UNL A   1      51.543  27.669  26.982  1.00  0.00     0.059 A 
ATOM     67  F   UNL A   1      49.679  27.336  25.667  1.00  0.00    -0.206 F 
ATOM     68  C   UNL A   1      52.116  27.883  28.223  1.00  0.00     0.060 A 
BRANCH  68  69
ATOM     69  S   UNL A   1      53.875  27.591  28.494  1.00  0.00     0.124 S 
ATOM     70  O   UNL A   1      54.313  27.093  27.195  1.00  0.00    -0.237 OA
ATOM     71  O   UNL A   1      54.345  28.925  28.854  1.00  0.00    -0.237 OA
ATOM     72  O   UNL A   1      53.898  26.609  29.574  1.00  0.00    -0.744 OA
ENDBRANCH  68  69
ENDBRANCH  47  61
BRANCH  48  73
ATOM     73  C   UNL A   1      39.517  30.313  30.875  1.00  0.00     0.058 A 
ATOM     74  C   UNL A   1      39.420  32.292  30.370  1.00  0.00     0.135 A 
ATOM     75  C   UNL A   1      37.959  29.594  31.443  1.00  0.00     0.135 A 
ATOM     76  F   UNL A   1      40.349  33.171  29.885  1.00  0.00    -0.206 F 
ATOM     77  C   UNL A   1      37.818  33.143  30.420  1.00  0.00     0.059 A 
ATOM     78  C   UNL A   1      36.471  30.533  31.420  1.00  0.00     0.059 A 
ATOM     79  F   UNL A   1      37.959  28.393  32.034  1.00  0.00    -0.206 F 
ATOM     80  C   UNL A   1      36.408  32.224  30.915  1.00  0.00     0.060 A 
BRANCH  80  81
ATOM     81  S   UNL A   1      34.783  32.932  30.563  1.00  0.00     0.124 S 
ATOM     82  O   UNL A   1      35.078  34.352  30.434  1.00  0.00    -0.237 OA
ATOM     83  O   UNL A   1      34.418  32.228  29.336  1.00  0.00    -0.237 OA
ATOM     84  O   UNL A   1      34.009  32.547  31.734  1.00  0.00    -0.744 OA
ENDBRANCH  80  81
ENDBRANCH  48  73
BRANCH  60  85
ATOM     85  C   UNL A   1      43.507  24.811  26.973  1.00  0.00     0.058 A 
ATOM     86  C   UNL A   1      43.562  24.906  25.576  1.00  0.00     0.135 A 
ATOM     87  C   UNL A   1      43.800  23.505  27.479  1.00  0.00     0.135 A 
ATOM     88  F   UNL A   1      43.375  26.056  24.922  1.00  0.00    -0.206 F 
ATOM     89  C   UNL A   1      43.859  23.818  24.759  1.00  0.00     0.059 A 
ATOM     90  C   UNL A   1      44.181  22.431  26.687  1.00  0.00     0.059 A 
ATOM     91  F   UNL A   1      43.755  23.193  28.779  1.00  0.00    -0.206 F 
ATOM     92  C   UNL A   1      44.193  22.594  25.322  1.00  0.00     0.060 A 
BRANCH  92  93
ATOM     93  S   UNL A   1      44.659  21.244  24.242  1.00  0.00     0.124 S 
ATOM     94  O   UNL A   1      46.057  21.048  24.616  1.00  0.00    -0.237 OA
ATOM     95  O   UNL A   1      43.737  20.193  24.659  1.00  0.00    -0.237 OA
ATOM     96  O   UNL A   1      44.435  21.778  22.903  1.00  0.00    -0.744 OA
ENDBRANCH  92  93
ENDBRANCH  60  85
ENDBRANCH  34  35
ENDBRANCH  27  29
ENDBRANCH  26  27
ENDBRANCH  25  26
ENDBRANCH   1  25
TORSDOF 21
ENDMDL
