MODEL 1
REMARK VINA RESULT:     -10.9      0.000      0.000
REMARK SMILES CCn1cc(C[N@@H+]2CCC[C@H]2C(=O)OCCOCCOC(=O)c2ccc(-c3c4nc(c(-c5c(F)cc(S(=O)(=O)[O-])cc5F)c5ccc([nH]5)c(-c5c(F)cc(S(=O)(=O)[O-])cc5F)c5nc(c(-c6c(F)cc(S(=O)(=O)[O-])cc6F)c6ccc3[nH]6)C=C5)C=C4)cc2)c(C)n1
REMARK SMILES IDX 17 1 16 2 15 3 14 4 12 5 13 6 11 7 7 8 8 9 9 11 10 12 6 13
REMARK SMILES IDX 5 14 3 15 4 16 91 17 89 18 90 19 2 20 1 21 18 22 19 23 20 24
REMARK SMILES IDX 21 25 22 26 23 27 24 28 88 29 25 30 87 31 26 32 27 33 28 34
REMARK SMILES IDX 81 35 29 36 86 37 80 38 82 39 30 40 85 41 79 42 78 43 31 45
REMARK SMILES IDX 65 46 44 47 64 48 45 49 48 50 63 51 83 52 46 53 47 54 62 56
REMARK SMILES IDX 84 57 49 58 32 59 33 60 42 61 34 62 35 63 41 64 43 65 36 66
REMARK SMILES IDX 37 67 38 68 39 69 40 70 66 71 67 72 76 73 68 74 69 75 75 76
REMARK SMILES IDX 77 77 70 78 71 79 72 80 73 81 74 82 50 83 51 84 60 85 52 86
REMARK SMILES IDX 53 87 59 88 61 89 54 90 55 91 56 92 57 93 58 94
REMARK H PARENT 7 10 82 44 48 55
REMARK Flexibility Score: inf
ROOT
ATOM      1  O   UNL A   1      36.366  20.931  25.484  1.00  0.00    -0.374 OA
ENDROOT
BRANCH   1   2
ATOM      2  C   UNL A   1      35.138  21.518  25.052  1.00  0.00     0.202 C 
BRANCH   2   3
ATOM      3  C   UNL A   1      34.766  22.864  25.685  1.00  0.00     0.261 C 
BRANCH   3   4
ATOM      4  O   UNL A   1      35.072  23.961  24.807  1.00  0.00    -0.459 OA
BRANCH   4   5
ATOM      5  C   UNL A   1      34.183  24.235  23.809  1.00  0.00     0.365 C 
ATOM      6  O   UNL A   1      34.495  24.445  22.642  1.00  0.00    -0.245 OA
BRANCH   5   7
ATOM      7  C   UNL A   1      32.722  24.232  24.321  1.00  0.00     0.295 C 
ATOM      8  N   UNL A   1      32.170  25.617  24.299  1.00  0.00    -0.319 N 
ATOM      9  C   UNL A   1      31.022  25.653  23.401  1.00  0.00     0.263 C 
ATOM     10  H   UNL A   1      32.903  26.224  23.936  1.00  0.00     0.349 HD
ATOM     11  C   UNL A   1      30.502  24.237  23.328  1.00  0.00     0.068 C 
ATOM     12  C   UNL A   1      31.739  23.380  23.507  1.00  0.00     0.083 C 
BRANCH   8  13
ATOM     13  C   UNL A   1      31.921  26.230  25.608  1.00  0.00     0.303 C 
BRANCH  13  14
ATOM     14  C   UNL A   1      32.573  27.564  25.783  1.00  0.00     0.047 A 
ATOM     15  N   UNL A   1      33.876  29.159  26.557  1.00  0.00    -0.272 N 
ATOM     16  C   UNL A   1      33.632  27.824  26.630  1.00  0.00     0.118 A 
ATOM     17  N   UNL A   1      33.106  29.787  25.658  1.00  0.00    -0.178 NA
ATOM     18  C   UNL A   1      32.309  28.828  25.169  1.00  0.00     0.068 A 
ATOM     19  C   UNL A   1      31.296  29.205  24.147  1.00  0.00     0.069 C 
BRANCH  15  20
ATOM     20  C   UNL A   1      34.790  29.930  27.376  1.00  0.00     0.141 C 
ATOM     21  C   UNL A   1      34.254  31.296  27.770  1.00  0.00     0.029 C 
ENDBRANCH  15  20
ENDBRANCH  13  14
ENDBRANCH   8  13
ENDBRANCH   5   7
ENDBRANCH   4   5
ENDBRANCH   3   4
ENDBRANCH   2   3
ENDBRANCH   1   2
BRANCH   1  22
ATOM     22  C   UNL A   1      37.573  21.415  24.903  1.00  0.00     0.202 C 
BRANCH  22  23
ATOM     23  C   UNL A   1      38.835  21.300  25.743  1.00  0.00     0.261 C 
BRANCH  23  24
ATOM     24  O   UNL A   1      39.115  22.502  26.453  1.00  0.00    -0.460 OA
BRANCH  24  25
ATOM     25  C   UNL A   1      40.417  22.639  26.802  1.00  0.00     0.338 C 
ATOM     26  O   UNL A   1      41.216  21.747  27.006  1.00  0.00    -0.246 OA
BRANCH  25  27
ATOM     27  C   UNL A   1      40.667  24.058  27.090  1.00  0.00     0.060 A 
ATOM     28  C   UNL A   1      41.695  24.335  27.990  1.00  0.00     0.016 A 
ATOM     29  C   UNL A   1      39.763  25.048  26.672  1.00  0.00     0.016 A 
ATOM     30  C   UNL A   1      41.709  25.568  28.606  1.00  0.00     0.010 A 
ATOM     31  C   UNL A   1      39.777  26.279  27.290  1.00  0.00     0.010 A 
ATOM     32  C   UNL A   1      40.707  26.502  28.300  1.00  0.00    -0.014 A 
BRANCH  32  33
ATOM     33  C   UNL A   1      40.789  27.808  28.924  1.00  0.00     0.031 A 
ATOM     34  C   UNL A   1      41.917  28.584  28.364  1.00  0.00     0.074 A 
ATOM     35  C   UNL A   1      39.920  28.270  29.845  1.00  0.00     0.049 A 
ATOM     36  N   UNL A   1      43.077  28.745  28.906  1.00  0.00    -0.248 NA
ATOM     37  C   UNL A   1      41.861  28.999  26.952  1.00  0.00     0.031 C 
ATOM     38  C   UNL A   1      38.653  27.665  30.269  1.00  0.00     0.029 A 
ATOM     39  N   UNL A   1      39.957  29.430  30.563  1.00  0.00    -0.354 N 
ATOM     40  C   UNL A   1      43.784  29.552  28.024  1.00  0.00     0.074 A 
ATOM     41  C   UNL A   1      43.099  29.464  26.765  1.00  0.00     0.031 C 
ATOM     42  C   UNL A   1      37.942  28.565  30.991  1.00  0.00     0.029 A 
ATOM     43  C   UNL A   1      38.764  29.743  31.215  1.00  0.00     0.049 A 
ATOM     44  H   UNL A   1      40.758  29.999  30.617  1.00  0.00     0.167 HD
ATOM     45  C   UNL A   1      44.654  30.476  28.513  1.00  0.00     0.037 A 
ATOM     46  C   UNL A   1      38.485  30.890  31.889  1.00  0.00     0.037 A 
ATOM     47  C   UNL A   1      44.922  30.225  29.907  1.00  0.00     0.049 A 
ATOM     48  C   UNL A   1      39.783  31.474  32.302  1.00  0.00     0.074 A 
ATOM     49  C   UNL A   1      45.676  29.334  30.639  1.00  0.00     0.029 A 
ATOM     50  N   UNL A   1      43.973  30.749  30.748  1.00  0.00    -0.354 N 
ATOM     51  N   UNL A   1      40.571  30.902  33.171  1.00  0.00    -0.248 NA
ATOM     52  C   UNL A   1      40.411  32.493  31.468  1.00  0.00     0.031 C 
ATOM     53  C   UNL A   1      45.049  29.238  31.917  1.00  0.00     0.029 A 
ATOM     54  C   UNL A   1      43.962  30.109  31.956  1.00  0.00     0.049 A 
ATOM     55  H   UNL A   1      43.373  31.493  30.510  1.00  0.00     0.167 HD
ATOM     56  C   UNL A   1      41.844  31.163  32.704  1.00  0.00     0.074 A 
ATOM     57  C   UNL A   1      41.694  32.273  31.770  1.00  0.00     0.031 C 
ATOM     58  C   UNL A   1      42.842  30.248  32.860  1.00  0.00     0.037 A 
BRANCH  45  59
ATOM     59  C   UNL A   1      44.849  31.860  27.930  1.00  0.00     0.058 A 
ATOM     60  C   UNL A   1      46.097  32.187  27.359  1.00  0.00     0.135 A 
ATOM     61  C   UNL A   1      43.991  32.954  28.177  1.00  0.00     0.135 A 
ATOM     62  F   UNL A   1      46.999  31.228  27.092  1.00  0.00    -0.206 F 
ATOM     63  C   UNL A   1      46.481  33.505  27.105  1.00  0.00     0.059 A 
ATOM     64  C   UNL A   1      44.334  34.268  27.888  1.00  0.00     0.059 A 
ATOM     65  F   UNL A   1      42.814  32.820  28.800  1.00  0.00    -0.206 F 
ATOM     66  C   UNL A   1      45.593  34.539  27.382  1.00  0.00     0.060 A 
BRANCH  66  67
ATOM     67  S   UNL A   1      46.104  36.245  27.110  1.00  0.00     0.124 S 
ATOM     68  O   UNL A   1      46.626  36.184  25.750  1.00  0.00    -0.237 OA
ATOM     69  O   UNL A   1      44.846  36.964  27.284  1.00  0.00    -0.237 OA
ATOM     70  O   UNL A   1      47.096  36.468  28.159  1.00  0.00    -0.744 OA
ENDBRANCH  66  67
ENDBRANCH  45  59
BRANCH  46  71
ATOM     71  C   UNL A   1      37.214  31.658  31.979  1.00  0.00     0.058 A 
ATOM     72  C   UNL A   1      36.690  32.086  33.216  1.00  0.00     0.135 A 
ATOM     73  C   UNL A   1      36.659  32.257  30.833  1.00  0.00     0.135 A 
ATOM     74  F   UNL A   1      37.171  31.582  34.363  1.00  0.00    -0.206 F 
ATOM     75  C   UNL A   1      35.715  33.088  33.311  1.00  0.00     0.059 A 
ATOM     76  C   UNL A   1      35.688  33.258  30.902  1.00  0.00     0.059 A 
ATOM     77  F   UNL A   1      37.122  31.952  29.611  1.00  0.00    -0.206 F 
ATOM     78  C   UNL A   1      35.237  33.687  32.146  1.00  0.00     0.060 A 
BRANCH  78  79
ATOM     79  S   UNL A   1      34.115  35.105  32.267  1.00  0.00     0.124 S 
ATOM     80  O   UNL A   1      34.866  36.014  33.124  1.00  0.00    -0.237 OA
ATOM     81  O   UNL A   1      33.978  35.512  30.872  1.00  0.00    -0.237 OA
ATOM     82  O   UNL A   1      32.911  34.534  32.866  1.00  0.00    -0.744 OA
ENDBRANCH  78  79
ENDBRANCH  46  71
BRANCH  58  83
ATOM     83  C   UNL A   1      42.706  29.257  33.977  1.00  0.00     0.058 A 
ATOM     84  C   UNL A   1      42.898  29.539  35.340  1.00  0.00     0.135 A 
ATOM     85  C   UNL A   1      42.280  27.966  33.636  1.00  0.00     0.135 A 
ATOM     86  F   UNL A   1      43.233  30.772  35.749  1.00  0.00    -0.206 F 
ATOM     87  C   UNL A   1      42.702  28.561  36.319  1.00  0.00     0.059 A 
ATOM     88  C   UNL A   1      42.051  26.988  34.594  1.00  0.00     0.059 A 
ATOM     89  F   UNL A   1      42.040  27.655  32.351  1.00  0.00    -0.206 F 
ATOM     90  C   UNL A   1      42.278  27.288  35.934  1.00  0.00     0.060 A 
BRANCH  90  91
ATOM     91  S   UNL A   1      41.970  26.036  37.198  1.00  0.00     0.124 S 
ATOM     92  O   UNL A   1      42.892  26.434  38.256  1.00  0.00    -0.237 OA
ATOM     93  O   UNL A   1      40.551  26.221  37.488  1.00  0.00    -0.237 OA
ATOM     94  O   UNL A   1      42.300  24.782  36.524  1.00  0.00    -0.744 OA
ENDBRANCH  90  91
ENDBRANCH  58  83
ENDBRANCH  32  33
ENDBRANCH  25  27
ENDBRANCH  24  25
ENDBRANCH  23  24
ENDBRANCH  22  23
ENDBRANCH   1  22
TORSDOF 20
ENDMDL
MODEL 2
REMARK VINA RESULT:     -10.8      1.388      2.860
REMARK SMILES CCn1cc(C[N@@H+]2CCC[C@H]2C(=O)OCCOCCOC(=O)c2ccc(-c3c4nc(c(-c5c(F)cc(S(=O)(=O)[O-])cc5F)c5ccc([nH]5)c(-c5c(F)cc(S(=O)(=O)[O-])cc5F)c5nc(c(-c6c(F)cc(S(=O)(=O)[O-])cc6F)c6ccc3[nH]6)C=C5)C=C4)cc2)c(C)n1
REMARK SMILES IDX 17 1 16 2 15 3 14 4 12 5 13 6 11 7 7 8 8 9 9 11 10 12 6 13
REMARK SMILES IDX 5 14 3 15 4 16 91 17 89 18 90 19 2 20 1 21 18 22 19 23 20 24
REMARK SMILES IDX 21 25 22 26 23 27 24 28 88 29 25 30 87 31 26 32 27 33 28 34
REMARK SMILES IDX 81 35 29 36 86 37 80 38 82 39 30 40 85 41 79 42 78 43 31 45
REMARK SMILES IDX 65 46 44 47 64 48 45 49 48 50 63 51 83 52 46 53 47 54 62 56
REMARK SMILES IDX 84 57 49 58 32 59 33 60 42 61 34 62 35 63 41 64 43 65 36 66
REMARK SMILES IDX 37 67 38 68 39 69 40 70 66 71 67 72 76 73 68 74 69 75 75 76
REMARK SMILES IDX 77 77 70 78 71 79 72 80 73 81 74 82 50 83 51 84 60 85 52 86
REMARK SMILES IDX 53 87 59 88 61 89 54 90 55 91 56 92 57 93 58 94
REMARK H PARENT 7 10 82 44 48 55
REMARK Flexibility Score: inf
ROOT
ATOM      1  O   UNL A   1      36.318  21.809  24.336  1.00  0.00    -0.374 OA
ENDROOT
BRANCH   1   2
ATOM      2  C   UNL A   1      35.953  23.012  25.013  1.00  0.00     0.202 C 
BRANCH   2   3
ATOM      3  C   UNL A   1      35.415  24.151  24.139  1.00  0.00     0.261 C 
BRANCH   3   4
ATOM      4  O   UNL A   1      34.002  24.339  24.329  1.00  0.00    -0.459 OA
BRANCH   4   5
ATOM      5  C   UNL A   1      33.273  24.765  23.258  1.00  0.00     0.365 C 
ATOM      6  O   UNL A   1      33.758  25.158  22.202  1.00  0.00    -0.245 OA
BRANCH   5   7
ATOM      7  C   UNL A   1      31.751  24.678  23.524  1.00  0.00     0.295 C 
ATOM      8  N   UNL A   1      31.500  24.355  24.958  1.00  0.00    -0.319 N 
ATOM      9  C   UNL A   1      30.743  25.445  25.561  1.00  0.00     0.263 C 
ATOM     10  H   UNL A   1      32.410  24.284  25.411  1.00  0.00     0.349 HD
ATOM     11  C   UNL A   1      30.028  26.138  24.426  1.00  0.00     0.068 C 
ATOM     12  C   UNL A   1      30.956  25.960  23.242  1.00  0.00     0.083 C 
BRANCH   8  13
ATOM     13  C   UNL A   1      30.946  23.024  25.230  1.00  0.00     0.303 C 
BRANCH  13  14
ATOM     14  C   UNL A   1      31.985  21.967  25.425  1.00  0.00     0.047 A 
ATOM     15  N   UNL A   1      33.218  20.174  25.098  1.00  0.00    -0.272 N 
ATOM     16  C   UNL A   1      32.281  20.969  24.518  1.00  0.00     0.118 A 
ATOM     17  N   UNL A   1      33.624  20.624  26.293  1.00  0.00    -0.178 NA
ATOM     18  C   UNL A   1      32.888  21.723  26.506  1.00  0.00     0.068 A 
ATOM     19  C   UNL A   1      33.078  22.462  27.783  1.00  0.00     0.069 C 
BRANCH  15  20
ATOM     20  C   UNL A   1      33.729  18.912  24.600  1.00  0.00     0.141 C 
ATOM     21  C   UNL A   1      32.682  18.061  23.901  1.00  0.00     0.029 C 
ENDBRANCH  15  20
ENDBRANCH  13  14
ENDBRANCH   8  13
ENDBRANCH   5   7
ENDBRANCH   4   5
ENDBRANCH   3   4
ENDBRANCH   2   3
ENDBRANCH   1   2
BRANCH   1  22
ATOM     22  C   UNL A   1      37.495  21.135  24.769  1.00  0.00     0.202 C 
BRANCH  22  23
ATOM     23  C   UNL A   1      38.140  21.633  26.054  1.00  0.00     0.261 C 
BRANCH  23  24
ATOM     24  O   UNL A   1      39.359  22.324  25.804  1.00  0.00    -0.460 OA
BRANCH  24  25
ATOM     25  C   UNL A   1      40.174  22.399  26.884  1.00  0.00     0.338 C 
ATOM     26  O   UNL A   1      40.494  21.490  27.622  1.00  0.00    -0.246 OA
BRANCH  25  27
ATOM     27  C   UNL A   1      40.464  23.816  27.142  1.00  0.00     0.060 A 
ATOM     28  C   UNL A   1      41.495  24.084  28.041  1.00  0.00     0.016 A 
ATOM     29  C   UNL A   1      39.590  24.823  26.698  1.00  0.00     0.016 A 
ATOM     30  C   UNL A   1      41.542  25.330  28.630  1.00  0.00     0.010 A 
ATOM     31  C   UNL A   1      39.637  26.066  27.289  1.00  0.00     0.010 A 
ATOM     32  C   UNL A   1      40.568  26.284  28.299  1.00  0.00    -0.014 A 
BRANCH  32  33
ATOM     33  C   UNL A   1      40.685  27.601  28.895  1.00  0.00     0.031 A 
ATOM     34  C   UNL A   1      41.821  28.342  28.303  1.00  0.00     0.074 A 
ATOM     35  C   UNL A   1      39.837  28.099  29.817  1.00  0.00     0.049 A 
ATOM     36  N   UNL A   1      42.990  28.491  28.827  1.00  0.00    -0.248 NA
ATOM     37  C   UNL A   1      41.754  28.729  26.884  1.00  0.00     0.031 C 
ATOM     38  C   UNL A   1      38.565  27.529  30.270  1.00  0.00     0.029 A 
ATOM     39  N   UNL A   1      39.907  29.273  30.510  1.00  0.00    -0.354 N 
ATOM     40  C   UNL A   1      43.702  29.265  27.920  1.00  0.00     0.074 A 
ATOM     41  C   UNL A   1      42.998  29.165  26.671  1.00  0.00     0.031 C 
ATOM     42  C   UNL A   1      37.881  28.458  30.982  1.00  0.00     0.029 A 
ATOM     43  C   UNL A   1      38.730  29.623  31.171  1.00  0.00     0.049 A 
ATOM     44  H   UNL A   1      40.721  29.826  30.541  1.00  0.00     0.167 HD
ATOM     45  C   UNL A   1      44.597  30.180  28.378  1.00  0.00     0.037 A 
ATOM     46  C   UNL A   1      38.483  30.790  31.824  1.00  0.00     0.037 A 
ATOM     47  C   UNL A   1      44.878  29.953  29.773  1.00  0.00     0.049 A 
ATOM     48  C   UNL A   1      39.798  31.355  32.209  1.00  0.00     0.074 A 
ATOM     49  C   UNL A   1      45.624  29.062  30.514  1.00  0.00     0.029 A 
ATOM     50  N   UNL A   1      43.952  30.513  30.615  1.00  0.00    -0.354 N 
ATOM     51  N   UNL A   1      40.586  30.785  33.079  1.00  0.00    -0.248 NA
ATOM     52  C   UNL A   1      40.435  32.344  31.345  1.00  0.00     0.031 C 
ATOM     53  C   UNL A   1      45.012  29.005  31.801  1.00  0.00     0.029 A 
ATOM     54  C   UNL A   1      43.944  29.898  31.836  1.00  0.00     0.049 A 
ATOM     55  H   UNL A   1      43.364  31.265  30.370  1.00  0.00     0.167 HD
ATOM     56  C   UNL A   1      41.858  31.010  32.590  1.00  0.00     0.074 A 
ATOM     57  C   UNL A   1      41.717  32.104  31.635  1.00  0.00     0.031 C 
ATOM     58  C   UNL A   1      42.839  30.078  32.752  1.00  0.00     0.037 A 
BRANCH  45  59
ATOM     59  C   UNL A   1      44.812  31.548  27.764  1.00  0.00     0.058 A 
ATOM     60  C   UNL A   1      46.023  31.807  27.089  1.00  0.00     0.135 A 
ATOM     61  C   UNL A   1      44.032  32.686  28.066  1.00  0.00     0.135 A 
ATOM     62  F   UNL A   1      46.852  30.802  26.762  1.00  0.00    -0.206 F 
ATOM     63  C   UNL A   1      46.451  33.102  26.789  1.00  0.00     0.059 A 
ATOM     64  C   UNL A   1      44.415  33.979  27.734  1.00  0.00     0.059 A 
ATOM     65  F   UNL A   1      42.905  32.617  28.784  1.00  0.00    -0.206 F 
ATOM     66  C   UNL A   1      45.641  34.182  27.124  1.00  0.00     0.060 A 
BRANCH  66  67
ATOM     67  S   UNL A   1      46.211  35.858  26.790  1.00  0.00     0.124 S 
ATOM     68  O   UNL A   1      46.962  35.674  25.554  1.00  0.00    -0.237 OA
ATOM     69  O   UNL A   1      44.951  36.584  26.675  1.00  0.00    -0.237 OA
ATOM     70  O   UNL A   1      47.007  36.181  27.972  1.00  0.00    -0.744 OA
ENDBRANCH  66  67
ENDBRANCH  45  59
BRANCH  46  71
ATOM     71  C   UNL A   1      37.229  31.585  31.915  1.00  0.00     0.058 A 
ATOM     72  C   UNL A   1      36.707  32.011  33.153  1.00  0.00     0.135 A 
ATOM     73  C   UNL A   1      36.696  32.208  30.772  1.00  0.00     0.135 A 
ATOM     74  F   UNL A   1      37.169  31.484  34.297  1.00  0.00    -0.206 F 
ATOM     75  C   UNL A   1      35.754  33.034  33.253  1.00  0.00     0.059 A 
ATOM     76  C   UNL A   1      35.746  33.230  30.846  1.00  0.00     0.059 A 
ATOM     77  F   UNL A   1      37.159  31.907  29.550  1.00  0.00    -0.206 F 
ATOM     78  C   UNL A   1      35.297  33.656  32.092  1.00  0.00     0.060 A 
BRANCH  78  79
ATOM     79  S   UNL A   1      34.206  35.097  32.221  1.00  0.00     0.124 S 
ATOM     80  O   UNL A   1      35.004  36.010  33.031  1.00  0.00    -0.237 OA
ATOM     81  O   UNL A   1      34.028  35.478  30.823  1.00  0.00    -0.237 OA
ATOM     82  O   UNL A   1      33.014  34.563  32.874  1.00  0.00    -0.744 OA
ENDBRANCH  78  79
ENDBRANCH  46  71
BRANCH  58  83
ATOM     83  C   UNL A   1      42.698  29.114  33.891  1.00  0.00     0.058 A 
ATOM     84  C   UNL A   1      43.042  29.379  35.227  1.00  0.00     0.135 A 
ATOM     85  C   UNL A   1      42.105  27.876  33.608  1.00  0.00     0.135 A 
ATOM     86  F   UNL A   1      43.544  30.570  35.586  1.00  0.00    -0.206 F 
ATOM     87  C   UNL A   1      42.830  28.434  36.233  1.00  0.00     0.059 A 
ATOM     88  C   UNL A   1      41.859  26.933  34.597  1.00  0.00     0.059 A 
ATOM     89  F   UNL A   1      41.717  27.587  32.354  1.00  0.00    -0.206 F 
ATOM     90  C   UNL A   1      42.238  27.213  35.907  1.00  0.00     0.060 A 
BRANCH  90  91
ATOM     91  S   UNL A   1      41.911  26.007  37.211  1.00  0.00     0.124 S 
ATOM     92  O   UNL A   1      42.868  26.401  38.240  1.00  0.00    -0.237 OA
ATOM     93  O   UNL A   1      40.506  26.252  37.523  1.00  0.00    -0.237 OA
ATOM     94  O   UNL A   1      42.183  24.725  36.566  1.00  0.00    -0.744 OA
ENDBRANCH  90  91
ENDBRANCH  58  83
ENDBRANCH  32  33
ENDBRANCH  25  27
ENDBRANCH  24  25
ENDBRANCH  23  24
ENDBRANCH  22  23
ENDBRANCH   1  22
TORSDOF 20
ENDMDL
MODEL 3
REMARK VINA RESULT:     -10.5      1.084      1.826
REMARK SMILES CCn1cc(C[N@@H+]2CCC[C@H]2C(=O)OCCOCCOC(=O)c2ccc(-c3c4nc(c(-c5c(F)cc(S(=O)(=O)[O-])cc5F)c5ccc([nH]5)c(-c5c(F)cc(S(=O)(=O)[O-])cc5F)c5nc(c(-c6c(F)cc(S(=O)(=O)[O-])cc6F)c6ccc3[nH]6)C=C5)C=C4)cc2)c(C)n1
REMARK SMILES IDX 17 1 16 2 15 3 14 4 12 5 13 6 11 7 7 8 8 9 9 11 10 12 6 13
REMARK SMILES IDX 5 14 3 15 4 16 91 17 89 18 90 19 2 20 1 21 18 22 19 23 20 24
REMARK SMILES IDX 21 25 22 26 23 27 24 28 88 29 25 30 87 31 26 32 27 33 28 34
REMARK SMILES IDX 81 35 29 36 86 37 80 38 82 39 30 40 85 41 79 42 78 43 31 45
REMARK SMILES IDX 65 46 44 47 64 48 45 49 48 50 63 51 83 52 46 53 47 54 62 56
REMARK SMILES IDX 84 57 49 58 32 59 33 60 42 61 34 62 35 63 41 64 43 65 36 66
REMARK SMILES IDX 37 67 38 68 39 69 40 70 66 71 67 72 76 73 68 74 69 75 75 76
REMARK SMILES IDX 77 77 70 78 71 79 72 80 73 81 74 82 50 83 51 84 60 85 52 86
REMARK SMILES IDX 53 87 59 88 61 89 54 90 55 91 56 92 57 93 58 94
REMARK H PARENT 7 10 82 44 48 55
REMARK Flexibility Score: inf
ROOT
ATOM      1  O   UNL A   1      36.953  21.470  24.680  1.00  0.00    -0.374 OA
ENDROOT
BRANCH   1   2
ATOM      2  C   UNL A   1      35.652  21.950  24.341  1.00  0.00     0.202 C 
BRANCH   2   3
ATOM      3  C   UNL A   1      34.465  21.184  24.938  1.00  0.00     0.261 C 
BRANCH   3   4
ATOM      4  O   UNL A   1      33.321  21.227  24.069  1.00  0.00    -0.459 OA
BRANCH   4   5
ATOM      5  C   UNL A   1      32.161  21.733  24.578  1.00  0.00     0.365 C 
ATOM      6  O   UNL A   1      31.412  21.122  25.334  1.00  0.00    -0.245 OA
BRANCH   5   7
ATOM      7  C   UNL A   1      31.907  23.184  24.105  1.00  0.00     0.295 C 
ATOM      8  N   UNL A   1      32.379  24.149  25.139  1.00  0.00    -0.319 N 
ATOM      9  C   UNL A   1      33.427  24.983  24.564  1.00  0.00     0.263 C 
ATOM     10  H   UNL A   1      32.766  23.599  25.905  1.00  0.00     0.349 HD
ATOM     11  C   UNL A   1      33.209  24.958  23.069  1.00  0.00     0.068 C 
ATOM     12  C   UNL A   1      32.616  23.589  22.805  1.00  0.00     0.083 C 
BRANCH   8  13
ATOM     13  C   UNL A   1      31.334  24.904  25.838  1.00  0.00     0.303 C 
BRANCH  13  14
ATOM     14  C   UNL A   1      31.043  26.238  25.227  1.00  0.00     0.047 A 
ATOM     15  N   UNL A   1      30.239  27.780  23.879  1.00  0.00    -0.272 N 
ATOM     16  C   UNL A   1      30.158  26.460  24.190  1.00  0.00     0.118 A 
ATOM     17  N   UNL A   1      31.055  28.464  24.693  1.00  0.00    -0.178 NA
ATOM     18  C   UNL A   1      31.548  27.541  25.528  1.00  0.00     0.068 A 
ATOM     19  C   UNL A   1      32.527  27.975  26.561  1.00  0.00     0.069 C 
BRANCH  15  20
ATOM     20  C   UNL A   1      29.617  28.458  22.759  1.00  0.00     0.141 C 
ATOM     21  C   UNL A   1      28.131  28.711  22.946  1.00  0.00     0.029 C 
ENDBRANCH  15  20
ENDBRANCH  13  14
ENDBRANCH   8  13
ENDBRANCH   5   7
ENDBRANCH   4   5
ENDBRANCH   3   4
ENDBRANCH   2   3
ENDBRANCH   1   2
BRANCH   1  22
ATOM     22  C   UNL A   1      37.716  22.223  25.617  1.00  0.00     0.202 C 
BRANCH  22  23
ATOM     23  C   UNL A   1      39.048  21.632  26.054  1.00  0.00     0.261 C 
BRANCH  23  24
ATOM     24  O   UNL A   1      39.734  22.483  26.965  1.00  0.00    -0.460 OA
BRANCH  24  25
ATOM     25  C   UNL A   1      40.979  22.828  26.557  1.00  0.00     0.338 C 
ATOM     26  O   UNL A   1      41.838  22.086  26.124  1.00  0.00    -0.246 OA
BRANCH  25  27
ATOM     27  C   UNL A   1      41.201  24.239  26.904  1.00  0.00     0.060 A 
ATOM     28  C   UNL A   1      42.095  24.487  27.944  1.00  0.00     0.016 A 
ATOM     29  C   UNL A   1      40.374  25.248  26.383  1.00  0.00     0.016 A 
ATOM     30  C   UNL A   1      42.035  25.709  28.580  1.00  0.00     0.010 A 
ATOM     31  C   UNL A   1      40.313  26.467  27.021  1.00  0.00     0.010 A 
ATOM     32  C   UNL A   1      41.094  26.660  28.155  1.00  0.00    -0.014 A 
BRANCH  32  33
ATOM     33  C   UNL A   1      41.102  27.954  28.810  1.00  0.00     0.031 A 
ATOM     34  C   UNL A   1      42.231  28.777  28.325  1.00  0.00     0.074 A 
ATOM     35  C   UNL A   1      40.171  28.367  29.693  1.00  0.00     0.049 A 
ATOM     36  N   UNL A   1      43.355  28.964  28.930  1.00  0.00    -0.248 NA
ATOM     37  C   UNL A   1      42.233  29.223  26.921  1.00  0.00     0.031 C 
ATOM     38  C   UNL A   1      38.905  27.713  30.038  1.00  0.00     0.029 A 
ATOM     39  N   UNL A   1      40.133  29.511  30.437  1.00  0.00    -0.354 N 
ATOM     40  C   UNL A   1      44.079  29.812  28.103  1.00  0.00     0.074 A 
ATOM     41  C   UNL A   1      43.463  29.731  26.808  1.00  0.00     0.031 C 
ATOM     42  C   UNL A   1      38.128  28.573  30.740  1.00  0.00     0.029 A 
ATOM     43  C   UNL A   1      38.898  29.771  31.032  1.00  0.00     0.049 A 
ATOM     44  H   UNL A   1      40.911  30.104  30.543  1.00  0.00     0.167 HD
ATOM     45  C   UNL A   1      44.892  30.752  28.656  1.00  0.00     0.037 A 
ATOM     46  C   UNL A   1      38.547  30.893  31.713  1.00  0.00     0.037 A 
ATOM     47  C   UNL A   1      45.096  30.478  30.057  1.00  0.00     0.049 A 
ATOM     48  C   UNL A   1      39.803  31.508  32.206  1.00  0.00     0.074 A 
ATOM     49  C   UNL A   1      45.840  29.596  30.808  1.00  0.00     0.029 A 
ATOM     50  N   UNL A   1      44.089  30.953  30.858  1.00  0.00    -0.354 N 
ATOM     51  N   UNL A   1      40.563  30.942  33.103  1.00  0.00    -0.248 NA
ATOM     52  C   UNL A   1      40.439  32.566  31.427  1.00  0.00     0.031 C 
ATOM     53  C   UNL A   1      45.152  29.451  32.049  1.00  0.00     0.029 A 
ATOM     54  C   UNL A   1      44.037  30.285  32.050  1.00  0.00     0.049 A 
ATOM     55  H   UNL A   1      43.478  31.683  30.605  1.00  0.00     0.167 HD
ATOM     56  C   UNL A   1      41.850  31.254  32.708  1.00  0.00     0.074 A 
ATOM     57  C   UNL A   1      41.710  32.380  31.791  1.00  0.00     0.031 C 
ATOM     58  C   UNL A   1      42.868  30.368  32.897  1.00  0.00     0.037 A 
BRANCH  45  59
ATOM     59  C   UNL A   1      45.071  32.154  28.113  1.00  0.00     0.058 A 
ATOM     60  C   UNL A   1      46.359  32.569  27.712  1.00  0.00     0.135 A 
ATOM     61  C   UNL A   1      44.119  33.187  28.253  1.00  0.00     0.135 A 
ATOM     62  F   UNL A   1      47.349  31.674  27.560  1.00  0.00    -0.206 F 
ATOM     63  C   UNL A   1      46.687  33.912  27.520  1.00  0.00     0.059 A 
ATOM     64  C   UNL A   1      44.411  34.525  28.020  1.00  0.00     0.059 A 
ATOM     65  F   UNL A   1      42.883  32.970  28.715  1.00  0.00    -0.206 F 
ATOM     66  C   UNL A   1      45.705  34.884  27.686  1.00  0.00     0.060 A 
BRANCH  66  67
ATOM     67  S   UNL A   1      46.134  36.623  27.494  1.00  0.00     0.124 S 
ATOM     68  O   UNL A   1      44.880  37.185  27.008  1.00  0.00    -0.237 OA
ATOM     69  O   UNL A   1      46.518  36.987  28.854  1.00  0.00    -0.237 OA
ATOM     70  O   UNL A   1      47.230  36.592  26.528  1.00  0.00    -0.744 OA
ENDBRANCH  66  67
ENDBRANCH  45  59
BRANCH  46  71
ATOM     71  C   UNL A   1      37.248  31.618  31.754  1.00  0.00     0.058 A 
ATOM     72  C   UNL A   1      36.619  31.948  32.970  1.00  0.00     0.135 A 
ATOM     73  C   UNL A   1      36.764  32.276  30.608  1.00  0.00     0.135 A 
ATOM     74  F   UNL A   1      37.027  31.382  34.117  1.00  0.00    -0.206 F 
ATOM     75  C   UNL A   1      35.606  32.914  33.053  1.00  0.00     0.059 A 
ATOM     76  C   UNL A   1      35.758  33.243  30.666  1.00  0.00     0.059 A 
ATOM     77  F   UNL A   1      37.328  32.066  29.409  1.00  0.00    -0.206 F 
ATOM     78  C   UNL A   1      35.200  33.576  31.896  1.00  0.00     0.060 A 
BRANCH  78  79
ATOM     79  S   UNL A   1      34.026  34.951  32.019  1.00  0.00     0.124 S 
ATOM     80  O   UNL A   1      34.804  35.950  32.742  1.00  0.00    -0.237 OA
ATOM     81  O   UNL A   1      33.751  35.251  30.617  1.00  0.00    -0.237 OA
ATOM     82  O   UNL A   1      32.906  34.375  32.759  1.00  0.00    -0.744 OA
ENDBRANCH  78  79
ENDBRANCH  46  71
BRANCH  58  83
ATOM     83  C   UNL A   1      42.707  29.349  33.985  1.00  0.00     0.058 A 
ATOM     84  C   UNL A   1      42.912  29.584  35.354  1.00  0.00     0.135 A 
ATOM     85  C   UNL A   1      42.243  28.082  33.607  1.00  0.00     0.135 A 
ATOM     86  F   UNL A   1      43.283  30.794  35.799  1.00  0.00    -0.206 F 
ATOM     87  C   UNL A   1      42.691  28.584  36.304  1.00  0.00     0.059 A 
ATOM     88  C   UNL A   1      41.989  27.082  34.536  1.00  0.00     0.059 A 
ATOM     89  F   UNL A   1      41.989  27.816  32.314  1.00  0.00    -0.206 F 
ATOM     90  C   UNL A   1      42.229  27.335  35.884  1.00  0.00     0.060 A 
BRANCH  90  91
ATOM     91  S   UNL A   1      41.890  26.055  37.111  1.00  0.00     0.124 S 
ATOM     92  O   UNL A   1      40.505  26.337  37.474  1.00  0.00    -0.237 OA
ATOM     93  O   UNL A   1      42.110  24.826  36.355  1.00  0.00    -0.237 OA
ATOM     94  O   UNL A   1      42.874  26.317  38.158  1.00  0.00    -0.744 OA
ENDBRANCH  90  91
ENDBRANCH  58  83
ENDBRANCH  32  33
ENDBRANCH  25  27
ENDBRANCH  24  25
ENDBRANCH  23  24
ENDBRANCH  22  23
ENDBRANCH   1  22
TORSDOF 20
ENDMDL
