MODEL 1
REMARK VINA RESULT:     -11.7      0.000      0.000
REMARK SMILES O=C1OC(c2ccc(Cl)cc2)=N/C1=C/Nc1ccc(O)c(C(=O)OCCOCCOC(=O)c2ccc(-c3c4nc(c(-c5c(F)cc(S(=O)(=O)[O-])cc5F)c5ccc([nH]5)c(-c5c(F)cc(S(=O)(=O)[O-])cc5F)c5nc(c(-c6c(F)cc(S(=O)(=O)[O-])cc6F)c6ccc3[nH]6)C=C5)C=C4)cc2)c1
REMARK SMILES IDX 27 1 26 2 25 3 24 4 22 5 23 6 21 7 16 8 17 9 99 10 18 11
REMARK SMILES IDX 19 12 15 13 14 15 1 16 2 17 3 18 13 19 4 20 12 21 5 22 6 23
REMARK SMILES IDX 11 24 7 25 10 26 8 27 9 28 20 29 28 31 29 32 30 33 31 34
REMARK SMILES IDX 32 35 33 36 34 37 98 38 35 39 97 40 36 41 37 42 38 43 91 44
REMARK SMILES IDX 39 45 96 46 90 47 92 48 40 49 95 50 89 51 88 52 41 54 75 55
REMARK SMILES IDX 54 56 74 57 55 58 58 59 73 60 93 61 56 62 57 63 72 65 94 66
REMARK SMILES IDX 59 67 42 68 43 69 52 70 44 71 45 72 51 73 53 74 46 75 47 76
REMARK SMILES IDX 48 77 49 78 50 79 76 80 77 81 86 82 78 83 79 84 85 85 87 86
REMARK SMILES IDX 80 87 81 88 82 89 83 90 84 91 60 92 61 93 70 94 62 95 63 96
REMARK SMILES IDX 69 97 71 98 64 99 65 100 66 101 67 102 68 103
REMARK H PARENT 15 14 20 30 92 53 58 64
REMARK Flexibility Score: inf
ROOT
ATOM      1  O   UNL A   1      39.519  21.629  26.077  1.00  0.00    -0.374 OA
ENDROOT
BRANCH   1   2
ATOM      2  C   UNL A   1      38.812  22.830  26.390  1.00  0.00     0.202 C 
BRANCH   2   3
ATOM      3  C   UNL A   1      37.439  23.035  25.748  1.00  0.00     0.261 C 
BRANCH   3   4
ATOM      4  O   UNL A   1      37.227  22.117  24.668  1.00  0.00    -0.460 OA
BRANCH   4   5
ATOM      5  C   UNL A   1      36.167  22.395  23.873  1.00  0.00     0.342 C 
ATOM      6  O   UNL A   1      36.201  22.958  22.788  1.00  0.00    -0.246 OA
BRANCH   5   7
ATOM      7  C   UNL A   1      34.939  21.733  24.367  1.00  0.00     0.103 A 
ATOM      8  C   UNL A   1      32.553  22.009  24.781  1.00  0.00     0.039 A 
ATOM      9  C   UNL A   1      32.541  20.755  25.401  1.00  0.00     0.030 A 
ATOM     10  C   UNL A   1      33.758  22.488  24.270  1.00  0.00     0.045 A 
ATOM     11  C   UNL A   1      33.696  19.965  25.447  1.00  0.00     0.049 A 
ATOM     12  C   UNL A   1      34.896  20.453  24.925  1.00  0.00     0.130 A 
BRANCH   8  13
ATOM     13  N   UNL A   1      31.421  22.832  24.761  1.00  0.00    -0.360 N 
ATOM     14  H   UNL A   1      30.746  22.700  25.467  1.00  0.00     0.166 HD
BRANCH  13  15
ATOM     15  C   UNL A   1      31.182  23.810  23.827  1.00  0.00     0.119 C 
ATOM     16  O   UNL A   1      30.312  25.120  26.408  1.00  0.00    -0.244 OA
ATOM     17  C   UNL A   1      30.263  25.608  25.300  1.00  0.00     0.365 C 
ATOM     18  O   UNL A   1      29.837  26.860  24.960  1.00  0.00    -0.402 OA
ATOM     19  C   UNL A   1      30.641  25.022  23.985  1.00  0.00     0.168 C 
ATOM     20  C   UNL A   1      29.922  26.927  23.612  1.00  0.00     0.231 C 
ATOM     21  N   UNL A   1      30.372  25.900  22.970  1.00  0.00    -0.204 NA
BRANCH  20  22
ATOM     22  C   UNL A   1      29.438  28.172  23.029  1.00  0.00     0.037 A 
ATOM     23  C   UNL A   1      28.095  28.535  23.161  1.00  0.00     0.015 A 
ATOM     24  C   UNL A   1      30.347  29.012  22.376  1.00  0.00     0.015 A 
ATOM     25  C   UNL A   1      27.661  29.755  22.639  1.00  0.00     0.021 A 
ATOM     26  C   UNL A   1      29.903  30.221  21.840  1.00  0.00     0.021 A 
ATOM     27  C   UNL A   1      28.565  30.590  21.978  1.00  0.00     0.041 A 
ATOM     28  Cl  UNL A   1      28.024  32.091  21.334  1.00  0.00    -0.084 Cl
ENDBRANCH  20  22
ENDBRANCH  13  15
ENDBRANCH   8  13
BRANCH  12  29
ATOM     29  O   UNL A   1      36.018  19.683  25.001  1.00  0.00    -0.507 OA
ATOM     30  H   UNL A   1      36.251  19.273  25.811  1.00  0.00     0.293 HD
ENDBRANCH  12  29
ENDBRANCH   5   7
ENDBRANCH   4   5
ENDBRANCH   3   4
ENDBRANCH   2   3
ENDBRANCH   1   2
BRANCH   1  31
ATOM     31  C   UNL A   1      40.802  21.437  26.671  1.00  0.00     0.202 C 
BRANCH  31  32
ATOM     32  C   UNL A   1      42.013  22.127  26.027  1.00  0.00     0.261 C 
BRANCH  32  33
ATOM     33  O   UNL A   1      42.554  23.195  26.822  1.00  0.00    -0.460 OA
BRANCH  33  34
ATOM     34  C   UNL A   1      42.583  24.398  26.197  1.00  0.00     0.338 C 
ATOM     35  O   UNL A   1      42.831  24.613  25.022  1.00  0.00    -0.246 OA
BRANCH  34  36
ATOM     36  C   UNL A   1      42.090  25.448  27.107  1.00  0.00     0.060 A 
ATOM     37  C   UNL A   1      42.740  26.688  27.087  1.00  0.00     0.016 A 
ATOM     38  C   UNL A   1      41.069  25.194  28.024  1.00  0.00     0.016 A 
ATOM     39  C   UNL A   1      42.404  27.668  28.018  1.00  0.00     0.010 A 
ATOM     40  C   UNL A   1      40.737  26.176  28.962  1.00  0.00     0.010 A 
ATOM     41  C   UNL A   1      41.428  27.403  28.987  1.00  0.00    -0.014 A 
BRANCH  41  42
ATOM     42  C   UNL A   1      41.233  28.343  30.118  1.00  0.00     0.031 A 
ATOM     43  C   UNL A   1      42.112  28.213  31.333  1.00  0.00     0.074 A 
ATOM     44  C   UNL A   1      40.294  29.304  30.060  1.00  0.00     0.049 A 
ATOM     45  N   UNL A   1      42.067  28.867  32.464  1.00  0.00    -0.248 NA
ATOM     46  C   UNL A   1      43.183  27.205  31.264  1.00  0.00     0.031 C 
ATOM     47  C   UNL A   1      39.412  29.556  28.920  1.00  0.00     0.029 A 
ATOM     48  N   UNL A   1      39.917  30.241  30.990  1.00  0.00    -0.354 N 
ATOM     49  C   UNL A   1      43.090  28.341  33.246  1.00  0.00     0.074 A 
ATOM     50  C   UNL A   1      43.717  27.292  32.473  1.00  0.00     0.031 C 
ATOM     51  C   UNL A   1      38.586  30.571  29.225  1.00  0.00     0.029 A 
ATOM     52  C   UNL A   1      38.853  31.013  30.592  1.00  0.00     0.049 A 
ATOM     53  H   UNL A   1      40.366  30.349  31.859  1.00  0.00     0.167 HD
ATOM     54  C   UNL A   1      43.473  28.706  34.492  1.00  0.00     0.037 A 
ATOM     55  C   UNL A   1      38.155  31.949  31.267  1.00  0.00     0.037 A 
ATOM     56  C   UNL A   1      42.843  29.756  35.252  1.00  0.00     0.049 A 
ATOM     57  C   UNL A   1      38.555  32.291  32.680  1.00  0.00     0.074 A 
ATOM     58  C   UNL A   1      43.167  30.216  36.517  1.00  0.00     0.029 A 
ATOM     59  N   UNL A   1      41.754  30.502  34.824  1.00  0.00    -0.354 N 
ATOM     60  N   UNL A   1      39.532  31.799  33.403  1.00  0.00    -0.248 NA
ATOM     61  C   UNL A   1      37.758  33.317  33.367  1.00  0.00     0.031 C 
ATOM     62  C   UNL A   1      42.239  31.197  36.876  1.00  0.00     0.029 A 
ATOM     63  C   UNL A   1      41.379  31.400  35.809  1.00  0.00     0.049 A 
ATOM     64  H   UNL A   1      41.315  30.408  33.949  1.00  0.00     0.167 HD
ATOM     65  C   UNL A   1      39.493  32.482  34.615  1.00  0.00     0.074 A 
ATOM     66  C   UNL A   1      38.397  33.425  34.524  1.00  0.00     0.031 C 
ATOM     67  C   UNL A   1      40.293  32.345  35.702  1.00  0.00     0.037 A 
BRANCH  54  68
ATOM     68  C   UNL A   1      44.607  27.947  35.129  1.00  0.00     0.058 A 
ATOM     69  C   UNL A   1      45.941  28.372  35.019  1.00  0.00     0.135 A 
ATOM     70  C   UNL A   1      44.350  26.798  35.894  1.00  0.00     0.135 A 
ATOM     71  F   UNL A   1      46.249  29.453  34.286  1.00  0.00    -0.206 F 
ATOM     72  C   UNL A   1      46.980  27.669  35.621  1.00  0.00     0.059 A 
ATOM     73  C   UNL A   1      45.368  26.098  36.533  1.00  0.00     0.059 A 
ATOM     74  F   UNL A   1      43.093  26.344  36.032  1.00  0.00    -0.206 F 
ATOM     75  C   UNL A   1      46.683  26.535  36.379  1.00  0.00     0.060 A 
BRANCH  75  76
ATOM     76  S   UNL A   1      48.042  25.640  37.161  1.00  0.00     0.124 S 
ATOM     77  O   UNL A   1      47.351  24.473  37.702  1.00  0.00    -0.237 OA
ATOM     78  O   UNL A   1      48.933  25.382  36.034  1.00  0.00    -0.237 OA
ATOM     79  O   UNL A   1      48.547  26.584  38.152  1.00  0.00    -0.744 OA
ENDBRANCH  75  76
ENDBRANCH  54  68
BRANCH  55  80
ATOM     80  C   UNL A   1      36.995  32.622  30.619  1.00  0.00     0.058 A 
ATOM     81  C   UNL A   1      37.179  33.681  29.718  1.00  0.00     0.135 A 
ATOM     82  C   UNL A   1      35.677  32.218  30.891  1.00  0.00     0.135 A 
ATOM     83  F   UNL A   1      38.418  34.113  29.436  1.00  0.00    -0.206 F 
ATOM     84  C   UNL A   1      36.101  34.328  29.123  1.00  0.00     0.059 A 
ATOM     85  C   UNL A   1      34.584  32.829  30.284  1.00  0.00     0.059 A 
ATOM     86  F   UNL A   1      35.444  31.203  31.737  1.00  0.00    -0.206 F 
ATOM     87  C   UNL A   1      34.806  33.890  29.409  1.00  0.00     0.060 A 
BRANCH  87  88
ATOM     88  S   UNL A   1      33.417  34.709  28.595  1.00  0.00     0.124 S 
ATOM     89  O   UNL A   1      32.528  34.968  29.720  1.00  0.00    -0.237 OA
ATOM     90  O   UNL A   1      34.058  35.879  28.003  1.00  0.00    -0.237 OA
ATOM     91  O   UNL A   1      32.951  33.708  27.639  1.00  0.00    -0.744 OA
ENDBRANCH  87  88
ENDBRANCH  55  80
BRANCH  67  92
ATOM     92  C   UNL A   1      40.055  33.269  36.867  1.00  0.00     0.058 A 
ATOM     93  C   UNL A   1      39.072  33.013  37.835  1.00  0.00     0.135 A 
ATOM     94  C   UNL A   1      40.873  34.399  37.051  1.00  0.00     0.135 A 
ATOM     95  F   UNL A   1      38.259  31.952  37.708  1.00  0.00    -0.206 F 
ATOM     96  C   UNL A   1      38.889  33.856  38.927  1.00  0.00     0.059 A 
ATOM     97  C   UNL A   1      40.729  35.235  38.152  1.00  0.00     0.059 A 
ATOM     98  F   UNL A   1      41.837  34.685  36.162  1.00  0.00    -0.206 F 
ATOM     99  C   UNL A   1      39.727  34.962  39.080  1.00  0.00     0.060 A 
BRANCH  99 100
ATOM    100  S   UNL A   1      39.503  36.023  40.523  1.00  0.00     0.124 S 
ATOM    101  O   UNL A   1      39.057  37.268  39.908  1.00  0.00    -0.237 OA
ATOM    102  O   UNL A   1      38.496  35.298  41.290  1.00  0.00    -0.237 OA
ATOM    103  O   UNL A   1      40.833  36.063  41.126  1.00  0.00    -0.744 OA
ENDBRANCH  99 100
ENDBRANCH  67  92
ENDBRANCH  41  42
ENDBRANCH  34  36
ENDBRANCH  33  34
ENDBRANCH  32  33
ENDBRANCH  31  32
ENDBRANCH   1  31
TORSDOF 21
ENDMDL
MODEL 2
REMARK VINA RESULT:     -11.4      4.627     10.820
REMARK SMILES O=C1OC(c2ccc(Cl)cc2)=N/C1=C/Nc1ccc(O)c(C(=O)OCCOCCOC(=O)c2ccc(-c3c4nc(c(-c5c(F)cc(S(=O)(=O)[O-])cc5F)c5ccc([nH]5)c(-c5c(F)cc(S(=O)(=O)[O-])cc5F)c5nc(c(-c6c(F)cc(S(=O)(=O)[O-])cc6F)c6ccc3[nH]6)C=C5)C=C4)cc2)c1
REMARK SMILES IDX 27 1 26 2 25 3 24 4 22 5 23 6 21 7 16 8 17 9 99 10 18 11
REMARK SMILES IDX 19 12 15 13 14 15 1 16 2 17 3 18 13 19 4 20 12 21 5 22 6 23
REMARK SMILES IDX 11 24 7 25 10 26 8 27 9 28 20 29 28 31 29 32 30 33 31 34
REMARK SMILES IDX 32 35 33 36 34 37 98 38 35 39 97 40 36 41 37 42 38 43 91 44
REMARK SMILES IDX 39 45 96 46 90 47 92 48 40 49 95 50 89 51 88 52 41 54 75 55
REMARK SMILES IDX 54 56 74 57 55 58 58 59 73 60 93 61 56 62 57 63 72 65 94 66
REMARK SMILES IDX 59 67 42 68 43 69 52 70 44 71 45 72 51 73 53 74 46 75 47 76
REMARK SMILES IDX 48 77 49 78 50 79 76 80 77 81 86 82 78 83 79 84 85 85 87 86
REMARK SMILES IDX 80 87 81 88 82 89 83 90 84 91 60 92 61 93 70 94 62 95 63 96
REMARK SMILES IDX 69 97 71 98 64 99 65 100 66 101 67 102 68 103
REMARK H PARENT 15 14 20 30 92 53 58 64
REMARK Flexibility Score: inf
ROOT
ATOM      1  O   UNL A   1      30.896  32.028  25.867  1.00  0.00    -0.374 OA
ENDROOT
BRANCH   1   2
ATOM      2  C   UNL A   1      30.347  31.320  24.755  1.00  0.00     0.202 C 
BRANCH   2   3
ATOM      3  C   UNL A   1      29.167  31.958  24.019  1.00  0.00     0.261 C 
BRANCH   3   4
ATOM      4  O   UNL A   1      29.335  31.879  22.598  1.00  0.00    -0.460 OA
BRANCH   4   5
ATOM      5  C   UNL A   1      28.591  30.932  21.980  1.00  0.00     0.342 C 
ATOM      6  O   UNL A   1      27.819  31.108  21.048  1.00  0.00    -0.246 OA
BRANCH   5   7
ATOM      7  C   UNL A   1      28.980  29.573  22.420  1.00  0.00     0.103 A 
ATOM      8  C   UNL A   1      30.780  27.931  22.468  1.00  0.00     0.039 A 
ATOM      9  C   UNL A   1      29.883  27.000  23.001  1.00  0.00     0.030 A 
ATOM     10  C   UNL A   1      30.316  29.214  22.179  1.00  0.00     0.045 A 
ATOM     11  C   UNL A   1      28.566  27.364  23.306  1.00  0.00     0.049 A 
ATOM     12  C   UNL A   1      28.115  28.653  23.019  1.00  0.00     0.130 A 
BRANCH   8  13
ATOM     13  N   UNL A   1      32.089  27.577  22.117  1.00  0.00    -0.360 N 
ATOM     14  H   UNL A   1      32.718  28.305  21.903  1.00  0.00     0.166 HD
BRANCH  13  15
ATOM     15  C   UNL A   1      32.559  26.289  22.049  1.00  0.00     0.119 C 
ATOM     16  O   UNL A   1      33.584  27.237  24.730  1.00  0.00    -0.244 OA
ATOM     17  C   UNL A   1      33.774  26.149  24.228  1.00  0.00     0.365 C 
ATOM     18  O   UNL A   1      34.462  25.097  24.760  1.00  0.00    -0.402 OA
ATOM     19  C   UNL A   1      33.332  25.620  22.910  1.00  0.00     0.168 C 
ATOM     20  C   UNL A   1      34.442  24.127  23.817  1.00  0.00     0.231 C 
ATOM     21  N   UNL A   1      33.814  24.354  22.712  1.00  0.00    -0.204 NA
BRANCH  20  22
ATOM     22  C   UNL A   1      35.194  22.926  24.158  1.00  0.00     0.037 A 
ATOM     23  C   UNL A   1      34.525  21.770  24.569  1.00  0.00     0.015 A 
ATOM     24  C   UNL A   1      36.587  22.939  24.025  1.00  0.00     0.015 A 
ATOM     25  C   UNL A   1      35.259  20.614  24.843  1.00  0.00     0.021 A 
ATOM     26  C   UNL A   1      37.317  21.787  24.319  1.00  0.00     0.021 A 
ATOM     27  C   UNL A   1      36.651  20.629  24.721  1.00  0.00     0.041 A 
ATOM     28  Cl  UNL A   1      37.551  19.203  25.061  1.00  0.00    -0.084 Cl
ENDBRANCH  20  22
ENDBRANCH  13  15
ENDBRANCH   8  13
BRANCH  12  29
ATOM     29  O   UNL A   1      26.822  28.985  23.296  1.00  0.00    -0.507 OA
ATOM     30  H   UNL A   1      26.622  29.489  24.061  1.00  0.00     0.293 HD
ENDBRANCH  12  29
ENDBRANCH   5   7
ENDBRANCH   4   5
ENDBRANCH   3   4
ENDBRANCH   2   3
ENDBRANCH   1   2
BRANCH   1  31
ATOM     31  C   UNL A   1      31.620  31.279  26.842  1.00  0.00     0.202 C 
BRANCH  31  32
ATOM     32  C   UNL A   1      32.955  30.644  26.428  1.00  0.00     0.261 C 
BRANCH  32  33
ATOM     33  O   UNL A   1      33.681  30.067  27.526  1.00  0.00    -0.460 OA
BRANCH  33  34
ATOM     34  C   UNL A   1      34.586  30.900  28.098  1.00  0.00     0.338 C 
ATOM     35  O   UNL A   1      34.377  32.007  28.565  1.00  0.00    -0.246 OA
BRANCH  34  36
ATOM     36  C   UNL A   1      35.878  30.207  28.249  1.00  0.00     0.060 A 
ATOM     37  C   UNL A   1      36.203  29.700  29.514  1.00  0.00     0.016 A 
ATOM     38  C   UNL A   1      36.791  30.131  27.196  1.00  0.00     0.016 A 
ATOM     39  C   UNL A   1      37.465  29.157  29.745  1.00  0.00     0.010 A 
ATOM     40  C   UNL A   1      38.059  29.592  27.432  1.00  0.00     0.010 A 
ATOM     41  C   UNL A   1      38.415  29.137  28.716  1.00  0.00    -0.014 A 
BRANCH  41  42
ATOM     42  C   UNL A   1      39.824  28.782  29.015  1.00  0.00     0.031 A 
ATOM     43  C   UNL A   1      40.720  29.819  29.635  1.00  0.00     0.074 A 
ATOM     44  C   UNL A   1      40.294  27.551  28.748  1.00  0.00     0.049 A 
ATOM     45  N   UNL A   1      41.998  29.757  29.905  1.00  0.00    -0.248 NA
ATOM     46  C   UNL A   1      40.092  31.102  29.992  1.00  0.00     0.031 C 
ATOM     47  C   UNL A   1      39.511  26.449  28.189  1.00  0.00     0.029 A 
ATOM     48  N   UNL A   1      41.553  27.024  28.901  1.00  0.00    -0.354 N 
ATOM     49  C   UNL A   1      42.330  30.994  30.449  1.00  0.00     0.074 A 
ATOM     50  C   UNL A   1      41.127  31.797  30.439  1.00  0.00     0.031 C 
ATOM     51  C   UNL A   1      40.311  25.381  28.032  1.00  0.00     0.029 A 
ATOM     52  C   UNL A   1      41.669  25.735  28.440  1.00  0.00     0.049 A 
ATOM     53  H   UNL A   1      42.301  27.522  29.302  1.00  0.00     0.167 HD
ATOM     54  C   UNL A   1      43.528  31.417  30.918  1.00  0.00     0.037 A 
ATOM     55  C   UNL A   1      42.754  24.941  28.333  1.00  0.00     0.037 A 
ATOM     56  C   UNL A   1      44.719  30.607  30.925  1.00  0.00     0.049 A 
ATOM     57  C   UNL A   1      44.093  25.458  28.797  1.00  0.00     0.074 A 
ATOM     58  C   UNL A   1      45.979  30.934  31.397  1.00  0.00     0.029 A 
ATOM     59  N   UNL A   1      44.802  29.313  30.432  1.00  0.00    -0.354 N 
ATOM     60  N   UNL A   1      44.391  26.622  29.323  1.00  0.00    -0.248 NA
ATOM     61  C   UNL A   1      45.241  24.551  28.656  1.00  0.00     0.031 C 
ATOM     62  C   UNL A   1      46.836  29.862  31.133  1.00  0.00     0.029 A 
ATOM     63  C   UNL A   1      46.097  28.839  30.562  1.00  0.00     0.049 A 
ATOM     64  H   UNL A   1      44.052  28.806  30.047  1.00  0.00     0.167 HD
ATOM     65  C   UNL A   1      45.752  26.573  29.611  1.00  0.00     0.074 A 
ATOM     66  C   UNL A   1      46.216  25.263  29.204  1.00  0.00     0.031 C 
ATOM     67  C   UNL A   1      46.545  27.525  30.165  1.00  0.00     0.037 A 
BRANCH  54  68
ATOM     68  C   UNL A   1      43.621  32.828  31.435  1.00  0.00     0.058 A 
ATOM     69  C   UNL A   1      43.761  33.928  30.573  1.00  0.00     0.135 A 
ATOM     70  C   UNL A   1      43.528  33.087  32.812  1.00  0.00     0.135 A 
ATOM     71  F   UNL A   1      43.871  33.741  29.249  1.00  0.00    -0.206 F 
ATOM     72  C   UNL A   1      43.833  35.229  31.060  1.00  0.00     0.059 A 
ATOM     73  C   UNL A   1      43.565  34.381  33.320  1.00  0.00     0.059 A 
ATOM     74  F   UNL A   1      43.395  32.073  33.683  1.00  0.00    -0.206 F 
ATOM     75  C   UNL A   1      43.732  35.446  32.436  1.00  0.00     0.060 A 
BRANCH  75  76
ATOM     76  S   UNL A   1      43.819  37.141  33.050  1.00  0.00     0.124 S 
ATOM     77  O   UNL A   1      42.632  37.205  33.899  1.00  0.00    -0.237 OA
ATOM     78  O   UNL A   1      45.099  37.151  33.751  1.00  0.00    -0.237 OA
ATOM     79  O   UNL A   1      43.765  37.948  31.836  1.00  0.00    -0.744 OA
ENDBRANCH  75  76
ENDBRANCH  54  68
BRANCH  55  80
ATOM     80  C   UNL A   1      42.624  23.578  27.749  1.00  0.00     0.058 A 
ATOM     81  C   UNL A   1      42.688  23.373  26.363  1.00  0.00     0.135 A 
ATOM     82  C   UNL A   1      42.432  22.453  28.567  1.00  0.00     0.135 A 
ATOM     83  F   UNL A   1      42.858  24.417  25.538  1.00  0.00    -0.206 F 
ATOM     84  C   UNL A   1      42.550  22.105  25.807  1.00  0.00     0.059 A 
ATOM     85  C   UNL A   1      42.321  21.171  28.036  1.00  0.00     0.059 A 
ATOM     86  F   UNL A   1      42.374  22.591  29.901  1.00  0.00    -0.206 F 
ATOM     87  C   UNL A   1      42.371  21.009  26.653  1.00  0.00     0.060 A 
BRANCH  87  88
ATOM     88  S   UNL A   1      42.237  19.364  25.921  1.00  0.00     0.124 S 
ATOM     89  O   UNL A   1      42.784  18.525  26.981  1.00  0.00    -0.237 OA
ATOM     90  O   UNL A   1      40.799  19.248  25.694  1.00  0.00    -0.237 OA
ATOM     91  O   UNL A   1      43.049  19.466  24.713  1.00  0.00    -0.744 OA
ENDBRANCH  87  88
ENDBRANCH  55  80
BRANCH  67  92
ATOM     92  C   UNL A   1      47.988  27.174  30.419  1.00  0.00     0.058 A 
ATOM     93  C   UNL A   1      48.982  27.353  29.445  1.00  0.00     0.135 A 
ATOM     94  C   UNL A   1      48.389  26.710  31.684  1.00  0.00     0.135 A 
ATOM     95  F   UNL A   1      48.655  27.788  28.218  1.00  0.00    -0.206 F 
ATOM     96  C   UNL A   1      50.317  27.060  29.706  1.00  0.00     0.059 A 
ATOM     97  C   UNL A   1      49.723  26.444  31.977  1.00  0.00     0.059 A 
ATOM     98  F   UNL A   1      47.483  26.532  32.657  1.00  0.00    -0.206 F 
ATOM     99  C   UNL A   1      50.679  26.611  30.977  1.00  0.00     0.060 A 
BRANCH  99 100
ATOM    100  S   UNL A   1      52.420  26.273  31.313  1.00  0.00     0.124 S 
ATOM    101  O   UNL A   1      53.006  26.393  29.982  1.00  0.00    -0.237 OA
ATOM    102  O   UNL A   1      52.766  27.332  32.256  1.00  0.00    -0.237 OA
ATOM    103  O   UNL A   1      52.404  24.924  31.872  1.00  0.00    -0.744 OA
ENDBRANCH  99 100
ENDBRANCH  67  92
ENDBRANCH  41  42
ENDBRANCH  34  36
ENDBRANCH  33  34
ENDBRANCH  32  33
ENDBRANCH  31  32
ENDBRANCH   1  31
TORSDOF 21
ENDMDL
MODEL 3
REMARK VINA RESULT:     -11.3      6.321     11.991
REMARK SMILES O=C1OC(c2ccc(Cl)cc2)=N/C1=C/Nc1ccc(O)c(C(=O)OCCOCCOC(=O)c2ccc(-c3c4nc(c(-c5c(F)cc(S(=O)(=O)[O-])cc5F)c5ccc([nH]5)c(-c5c(F)cc(S(=O)(=O)[O-])cc5F)c5nc(c(-c6c(F)cc(S(=O)(=O)[O-])cc6F)c6ccc3[nH]6)C=C5)C=C4)cc2)c1
REMARK SMILES IDX 27 1 26 2 25 3 24 4 22 5 23 6 21 7 16 8 17 9 99 10 18 11
REMARK SMILES IDX 19 12 15 13 14 15 1 16 2 17 3 18 13 19 4 20 12 21 5 22 6 23
REMARK SMILES IDX 11 24 7 25 10 26 8 27 9 28 20 29 28 31 29 32 30 33 31 34
REMARK SMILES IDX 32 35 33 36 34 37 98 38 35 39 97 40 36 41 37 42 38 43 91 44
REMARK SMILES IDX 39 45 96 46 90 47 92 48 40 49 95 50 89 51 88 52 41 54 75 55
REMARK SMILES IDX 54 56 74 57 55 58 58 59 73 60 93 61 56 62 57 63 72 65 94 66
REMARK SMILES IDX 59 67 42 68 43 69 52 70 44 71 45 72 51 73 53 74 46 75 47 76
REMARK SMILES IDX 48 77 49 78 50 79 76 80 77 81 86 82 78 83 79 84 85 85 87 86
REMARK SMILES IDX 80 87 81 88 82 89 83 90 84 91 60 92 61 93 70 94 62 95 63 96
REMARK SMILES IDX 69 97 71 98 64 99 65 100 66 101 67 102 68 103
REMARK H PARENT 15 14 20 30 92 53 58 64
REMARK Flexibility Score: inf
ROOT
ATOM      1  O   UNL A   1      35.277  34.492  32.313  1.00  0.00    -0.374 OA
ENDROOT
BRANCH   1   2
ATOM      2  C   UNL A   1      34.426  34.537  31.166  1.00  0.00     0.202 C 
BRANCH   2   3
ATOM      3  C   UNL A   1      34.970  33.964  29.855  1.00  0.00     0.261 C 
BRANCH   3   4
ATOM      4  O   UNL A   1      34.401  32.681  29.572  1.00  0.00    -0.460 OA
BRANCH   4   5
ATOM      5  C   UNL A   1      34.634  32.208  28.325  1.00  0.00     0.342 C 
ATOM      6  O   UNL A   1      35.717  31.874  27.865  1.00  0.00    -0.246 OA
BRANCH   5   7
ATOM      7  C   UNL A   1      33.367  31.920  27.615  1.00  0.00     0.103 A 
ATOM      8  C   UNL A   1      32.044  30.193  26.516  1.00  0.00     0.039 A 
ATOM      9  C   UNL A   1      31.136  31.179  26.116  1.00  0.00     0.030 A 
ATOM     10  C   UNL A   1      33.157  30.576  27.264  1.00  0.00     0.045 A 
ATOM     11  C   UNL A   1      31.301  32.511  26.513  1.00  0.00     0.049 A 
ATOM     12  C   UNL A   1      32.415  32.882  27.268  1.00  0.00     0.130 A 
BRANCH   8  13
ATOM     13  N   UNL A   1      31.922  28.864  26.095  1.00  0.00    -0.360 N 
ATOM     14  H   UNL A   1      31.026  28.455  26.121  1.00  0.00     0.166 HD
BRANCH  13  15
ATOM     15  C   UNL A   1      32.963  28.086  25.649  1.00  0.00     0.119 C 
ATOM     16  O   UNL A   1      31.090  26.059  26.882  1.00  0.00    -0.244 OA
ATOM     17  C   UNL A   1      32.166  25.830  26.372  1.00  0.00     0.365 C 
ATOM     18  O   UNL A   1      32.767  24.616  26.208  1.00  0.00    -0.402 OA
ATOM     19  C   UNL A   1      33.153  26.769  25.774  1.00  0.00     0.168 C 
ATOM     20  C   UNL A   1      33.967  24.870  25.636  1.00  0.00     0.231 C 
ATOM     21  N   UNL A   1      34.270  26.095  25.360  1.00  0.00    -0.204 NA
BRANCH  20  22
ATOM     22  C   UNL A   1      34.812  23.700  25.440  1.00  0.00     0.037 A 
ATOM     23  C   UNL A   1      34.740  22.623  26.328  1.00  0.00     0.015 A 
ATOM     24  C   UNL A   1      35.661  23.657  24.328  1.00  0.00     0.015 A 
ATOM     25  C   UNL A   1      35.522  21.490  26.095  1.00  0.00     0.021 A 
ATOM     26  C   UNL A   1      36.454  22.530  24.111  1.00  0.00     0.021 A 
ATOM     27  C   UNL A   1      36.378  21.450  24.991  1.00  0.00     0.041 A 
ATOM     28  Cl  UNL A   1      37.340  20.052  24.709  1.00  0.00    -0.084 Cl
ENDBRANCH  20  22
ENDBRANCH  13  15
ENDBRANCH   8  13
BRANCH  12  29
ATOM     29  O   UNL A   1      32.575  34.187  27.625  1.00  0.00    -0.507 OA
ATOM     30  H   UNL A   1      32.860  34.404  28.491  1.00  0.00     0.293 HD
ENDBRANCH  12  29
ENDBRANCH   5   7
ENDBRANCH   4   5
ENDBRANCH   3   4
ENDBRANCH   2   3
ENDBRANCH   1   2
BRANCH   1  31
ATOM     31  C   UNL A   1      35.528  33.220  32.906  1.00  0.00     0.202 C 
BRANCH  31  32
ATOM     32  C   UNL A   1      36.945  32.637  32.807  1.00  0.00     0.261 C 
BRANCH  32  33
ATOM     33  O   UNL A   1      37.252  32.090  31.515  1.00  0.00    -0.460 OA
BRANCH  33  34
ATOM     34  C   UNL A   1      37.107  30.744  31.429  1.00  0.00     0.338 C 
ATOM     35  O   UNL A   1      36.124  30.087  31.729  1.00  0.00    -0.246 OA
BRANCH  34  36
ATOM     36  C   UNL A   1      38.271  30.158  30.740  1.00  0.00     0.060 A 
ATOM     37  C   UNL A   1      39.328  29.686  31.528  1.00  0.00     0.016 A 
ATOM     38  C   UNL A   1      38.364  30.150  29.347  1.00  0.00     0.016 A 
ATOM     39  C   UNL A   1      40.506  29.247  30.927  1.00  0.00     0.010 A 
ATOM     40  C   UNL A   1      39.549  29.717  28.746  1.00  0.00     0.010 A 
ATOM     41  C   UNL A   1      40.638  29.299  29.534  1.00  0.00    -0.014 A 
BRANCH  41  42
ATOM     42  C   UNL A   1      41.961  29.060  28.906  1.00  0.00     0.031 A 
ATOM     43  C   UNL A   1      42.287  27.682  28.397  1.00  0.00     0.074 A 
ATOM     44  C   UNL A   1      42.854  30.057  28.782  1.00  0.00     0.049 A 
ATOM     45  N   UNL A   1      43.403  27.226  27.891  1.00  0.00    -0.248 NA
ATOM     46  C   UNL A   1      41.210  26.681  28.476  1.00  0.00     0.031 C 
ATOM     47  C   UNL A   1      42.637  31.443  29.197  1.00  0.00     0.029 A 
ATOM     48  N   UNL A   1      44.133  30.053  28.281  1.00  0.00    -0.354 N 
ATOM     49  C   UNL A   1      43.169  25.885  27.605  1.00  0.00     0.074 A 
ATOM     50  C   UNL A   1      41.816  25.593  28.025  1.00  0.00     0.031 C 
ATOM     51  C   UNL A   1      43.750  32.153  28.946  1.00  0.00     0.029 A 
ATOM     52  C   UNL A   1      44.771  31.265  28.392  1.00  0.00     0.049 A 
ATOM     53  H   UNL A   1      44.552  29.258  27.880  1.00  0.00     0.167 HD
ATOM     54  C   UNL A   1      44.005  24.983  27.039  1.00  0.00     0.037 A 
ATOM     55  C   UNL A   1      46.043  31.610  28.107  1.00  0.00     0.037 A 
ATOM     56  C   UNL A   1      45.350  25.287  26.621  1.00  0.00     0.049 A 
ATOM     57  C   UNL A   1      46.979  30.572  27.542  1.00  0.00     0.074 A 
ATOM     58  C   UNL A   1      46.274  24.449  26.019  1.00  0.00     0.029 A 
ATOM     59  N   UNL A   1      45.968  26.520  26.769  1.00  0.00    -0.354 N 
ATOM     60  N   UNL A   1      46.742  29.312  27.262  1.00  0.00    -0.248 NA
ATOM     61  C   UNL A   1      48.354  31.003  27.251  1.00  0.00     0.031 C 
ATOM     62  C   UNL A   1      47.468  25.158  25.859  1.00  0.00     0.029 A 
ATOM     63  C   UNL A   1      47.268  26.458  26.295  1.00  0.00     0.049 A 
ATOM     64  H   UNL A   1      45.546  27.321  27.153  1.00  0.00     0.167 HD
ATOM     65  C   UNL A   1      47.926  28.811  26.727  1.00  0.00     0.074 A 
ATOM     66  C   UNL A   1      48.874  29.906  26.719  1.00  0.00     0.031 C 
ATOM     67  C   UNL A   1      48.201  27.560  26.280  1.00  0.00     0.037 A 
BRANCH  54  68
ATOM     68  C   UNL A   1      43.504  23.574  26.864  1.00  0.00     0.058 A 
ATOM     69  C   UNL A   1      43.360  22.696  27.950  1.00  0.00     0.135 A 
ATOM     70  C   UNL A   1      43.125  23.109  25.595  1.00  0.00     0.135 A 
ATOM     71  F   UNL A   1      43.723  23.080  29.184  1.00  0.00    -0.206 F 
ATOM     72  C   UNL A   1      42.884  21.399  27.779  1.00  0.00     0.059 A 
ATOM     73  C   UNL A   1      42.615  21.828  25.405  1.00  0.00     0.059 A 
ATOM     74  F   UNL A   1      43.242  23.905  24.519  1.00  0.00    -0.206 F 
ATOM     75  C   UNL A   1      42.512  20.976  26.503  1.00  0.00     0.060 A 
BRANCH  75  76
ATOM     76  S   UNL A   1      41.888  19.294  26.300  1.00  0.00     0.124 S 
ATOM     77  O   UNL A   1      40.467  19.535  26.067  1.00  0.00    -0.237 OA
ATOM     78  O   UNL A   1      42.647  18.818  25.148  1.00  0.00    -0.237 OA
ATOM     79  O   UNL A   1      42.214  18.653  27.570  1.00  0.00    -0.744 OA
ENDBRANCH  75  76
ENDBRANCH  54  68
BRANCH  55  80
ATOM     80  C   UNL A   1      46.512  33.000  28.365  1.00  0.00     0.058 A 
ATOM     81  C   UNL A   1      46.442  33.986  27.371  1.00  0.00     0.135 A 
ATOM     82  C   UNL A   1      47.042  33.367  29.613  1.00  0.00     0.135 A 
ATOM     83  F   UNL A   1      45.956  33.682  26.158  1.00  0.00    -0.206 F 
ATOM     84  C   UNL A   1      46.895  35.282  27.596  1.00  0.00     0.059 A 
ATOM     85  C   UNL A   1      47.473  34.664  29.872  1.00  0.00     0.059 A 
ATOM     86  F   UNL A   1      47.123  32.465  30.603  1.00  0.00    -0.206 F 
ATOM     87  C   UNL A   1      47.405  35.613  28.853  1.00  0.00     0.060 A 
BRANCH  87  88
ATOM     88  S   UNL A   1      47.948  37.310  29.148  1.00  0.00     0.124 S 
ATOM     89  O   UNL A   1      47.653  37.471  30.566  1.00  0.00    -0.237 OA
ATOM     90  O   UNL A   1      49.362  37.242  28.793  1.00  0.00    -0.237 OA
ATOM     91  O   UNL A   1      47.118  38.091  28.236  1.00  0.00    -0.744 OA
ENDBRANCH  87  88
ENDBRANCH  55  80
BRANCH  67  92
ATOM     92  C   UNL A   1      49.564  27.311  25.690  1.00  0.00     0.058 A 
ATOM     93  C   UNL A   1      50.654  26.904  26.475  1.00  0.00     0.135 A 
ATOM     94  C   UNL A   1      49.764  27.422  24.302  1.00  0.00     0.135 A 
ATOM     95  F   UNL A   1      50.522  26.786  27.806  1.00  0.00    -0.206 F 
ATOM     96  C   UNL A   1      51.899  26.641  25.911  1.00  0.00     0.059 A 
ATOM     97  C   UNL A   1      50.991  27.132  23.714  1.00  0.00     0.059 A 
ATOM     98  F   UNL A   1      48.754  27.797  23.502  1.00  0.00    -0.206 F 
ATOM     99  C   UNL A   1      52.056  26.753  24.528  1.00  0.00     0.060 A 
BRANCH  99 100
ATOM    100  S   UNL A   1      53.666  26.369  23.807  1.00  0.00     0.124 S 
ATOM    101  O   UNL A   1      53.295  25.965  22.455  1.00  0.00    -0.237 OA
ATOM    102  O   UNL A   1      54.368  27.644  23.918  1.00  0.00    -0.237 OA
ATOM    103  O   UNL A   1      54.178  25.302  24.663  1.00  0.00    -0.744 OA
ENDBRANCH  99 100
ENDBRANCH  67  92
ENDBRANCH  41  42
ENDBRANCH  34  36
ENDBRANCH  33  34
ENDBRANCH  32  33
ENDBRANCH  31  32
ENDBRANCH   1  31
TORSDOF 21
ENDMDL
