MODEL 1
REMARK VINA RESULT:     -10.8      0.000      0.000
REMARK SMILES CC(C)CN(C)c1cc2c(cc1Cl)C=C(C(=O)OCCOCCOC(=O)c1ccc(-c3c4nc(c(-c5c(F)cc(S(=O)(=O)[O-])cc5F)c5ccc([nH]5)c(-c5c(F)cc(S(=O)(=O)[O-])cc5F)c5nc(c(-c6c(F)cc(S(=O)(=O)[O-])cc6F)c6ccc3[nH]6)C=C5)C=C4)cc1)[C@@H](C(F)(F)F)O2
REMARK SMILES IDX 21 1 20 2 19 3 18 4 16 5 17 6 15 7 7 8 8 9 12 10 9 11 11 12
REMARK SMILES IDX 13 13 10 14 98 15 14 16 93 17 5 18 6 19 4 20 2 21 1 22 3 23
REMARK SMILES IDX 94 24 95 25 96 26 97 27 22 28 23 29 24 30 25 31 26 32 27 33
REMARK SMILES IDX 28 34 92 35 29 36 91 37 30 38 31 39 32 40 85 41 33 42 90 43
REMARK SMILES IDX 84 44 86 45 34 46 89 47 83 48 82 49 35 51 69 52 48 53 68 54
REMARK SMILES IDX 49 55 52 56 67 57 87 58 50 59 51 60 66 62 88 63 53 64 36 65
REMARK SMILES IDX 37 66 46 67 38 68 39 69 45 70 47 71 40 72 41 73 42 74 43 75
REMARK SMILES IDX 44 76 70 77 71 78 80 79 72 80 73 81 79 82 81 83 74 84 75 85
REMARK SMILES IDX 76 86 77 87 78 88 54 89 55 90 64 91 56 92 57 93 63 94 65 95
REMARK SMILES IDX 58 96 59 97 60 98 61 99 62 100
REMARK H PARENT 86 50 52 61
REMARK Flexibility Score: inf
ROOT
ATOM      1  O   UNL A   1      35.509  32.548  28.561  1.00  0.00    -0.374 OA
ENDROOT
BRANCH   1   2
ATOM      2  C   UNL A   1      35.057  31.313  28.012  1.00  0.00     0.202 C 
BRANCH   2   3
ATOM      3  C   UNL A   1      33.632  31.239  27.455  1.00  0.00     0.261 C 
BRANCH   3   4
ATOM      4  O   UNL A   1      33.479  30.212  26.465  1.00  0.00    -0.460 OA
BRANCH   4   5
ATOM      5  C   UNL A   1      32.193  30.016  26.096  1.00  0.00     0.338 C 
ATOM      6  O   UNL A   1      31.345  30.881  25.929  1.00  0.00    -0.246 OA
BRANCH   5   7
ATOM      7  C   UNL A   1      31.945  28.602  25.770  1.00  0.00     0.087 C 
ATOM      8  C   UNL A   1      33.005  23.854  24.551  1.00  0.00     0.059 A 
ATOM      9  C   UNL A   1      31.823  24.630  24.498  1.00  0.00     0.074 A 
ATOM     10  C   UNL A   1      34.157  24.470  25.089  1.00  0.00     0.065 A 
ATOM     11  C   UNL A   1      31.794  25.941  24.993  1.00  0.00     0.130 A 
ATOM     12  C   UNL A   1      34.085  25.711  25.712  1.00  0.00     0.034 A 
ATOM     13  Cl  UNL A   1      35.746  23.803  24.924  1.00  0.00    -0.082 Cl
ATOM     14  C   UNL A   1      32.906  26.442  25.664  1.00  0.00     0.019 A 
ATOM     15  O   UNL A   1      30.661  26.693  24.807  1.00  0.00    -0.475 OA
ATOM     16  C   UNL A   1      32.896  27.775  26.215  1.00  0.00     0.027 C 
ATOM     17  C   UNL A   1      30.810  28.156  24.892  1.00  0.00     0.316 C 
BRANCH   8  18
ATOM     18  N   UNL A   1      33.036  22.534  24.085  1.00  0.00    -0.373 N 
ATOM     19  C   UNL A   1      32.959  22.370  22.636  1.00  0.00     0.143 C 
BRANCH  18  20
ATOM     20  C   UNL A   1      32.438  21.472  24.926  1.00  0.00     0.119 C 
BRANCH  20  21
ATOM     21  C   UNL A   1      33.479  20.688  25.757  1.00  0.00     0.002 C 
ATOM     22  C   UNL A   1      34.759  20.396  24.965  1.00  0.00     0.009 C 
ATOM     23  C   UNL A   1      33.858  21.411  27.052  1.00  0.00     0.009 C 
ENDBRANCH  20  21
ENDBRANCH  18  20
ENDBRANCH   8  18
BRANCH  17  24
ATOM     24  C   UNL A   1      30.911  28.774  23.489  1.00  0.00     0.430 C 
ATOM     25  F   UNL A   1      30.468  27.921  22.537  1.00  0.00    -0.167 F 
ATOM     26  F   UNL A   1      30.159  29.896  23.396  1.00  0.00    -0.167 F 
ATOM     27  F   UNL A   1      32.182  29.113  23.176  1.00  0.00    -0.167 F 
ENDBRANCH  17  24
ENDBRANCH   5   7
ENDBRANCH   4   5
ENDBRANCH   3   4
ENDBRANCH   2   3
ENDBRANCH   1   2
BRANCH   1  28
ATOM     28  C   UNL A   1      35.442  32.742  29.972  1.00  0.00     0.202 C 
BRANCH  28  29
ATOM     29  C   UNL A   1      36.740  32.738  30.791  1.00  0.00     0.261 C 
BRANCH  29  30
ATOM     30  O   UNL A   1      36.806  31.671  31.749  1.00  0.00    -0.460 OA
BRANCH  30  31
ATOM     31  C   UNL A   1      36.897  30.426  31.212  1.00  0.00     0.338 C 
ATOM     32  O   UNL A   1      35.990  29.624  31.055  1.00  0.00    -0.246 OA
BRANCH  31  33
ATOM     33  C   UNL A   1      38.242  30.244  30.638  1.00  0.00     0.060 A 
ATOM     34  C   UNL A   1      39.359  30.100  31.461  1.00  0.00     0.016 A 
ATOM     35  C   UNL A   1      38.369  30.181  29.244  1.00  0.00     0.016 A 
ATOM     36  C   UNL A   1      40.608  29.874  30.879  1.00  0.00     0.010 A 
ATOM     37  C   UNL A   1      39.618  29.956  28.666  1.00  0.00     0.010 A 
ATOM     38  C   UNL A   1      40.745  29.784  29.480  1.00  0.00    -0.014 A 
BRANCH  38  39
ATOM     39  C   UNL A   1      42.049  29.397  28.886  1.00  0.00     0.031 A 
ATOM     40  C   UNL A   1      43.174  30.383  28.760  1.00  0.00     0.074 A 
ATOM     41  C   UNL A   1      42.207  28.130  28.456  1.00  0.00     0.049 A 
ATOM     42  N   UNL A   1      44.395  30.182  28.336  1.00  0.00    -0.248 NA
ATOM     43  C   UNL A   1      42.894  31.771  29.155  1.00  0.00     0.031 C 
ATOM     44  C   UNL A   1      41.169  27.098  28.493  1.00  0.00     0.029 A 
ATOM     45  N   UNL A   1      43.294  27.489  27.920  1.00  0.00    -0.354 N 
ATOM     46  C   UNL A   1      45.040  31.408  28.436  1.00  0.00     0.074 A 
ATOM     47  C   UNL A   1      44.057  32.362  28.908  1.00  0.00     0.031 C 
ATOM     48  C   UNL A   1      41.681  25.944  28.037  1.00  0.00     0.029 A 
ATOM     49  C   UNL A   1      43.071  26.160  27.647  1.00  0.00     0.049 A 
ATOM     50  H   UNL A   1      44.153  27.938  27.747  1.00  0.00     0.167 HD
ATOM     51  C   UNL A   1      46.338  31.701  28.182  1.00  0.00     0.037 A 
ATOM     52  C   UNL A   1      43.892  25.219  27.143  1.00  0.00     0.037 A 
ATOM     53  C   UNL A   1      47.305  30.745  27.700  1.00  0.00     0.049 A 
ATOM     54  C   UNL A   1      45.315  25.586  26.818  1.00  0.00     0.074 A 
ATOM     55  C   UNL A   1      48.652  30.942  27.444  1.00  0.00     0.029 A 
ATOM     56  N   UNL A   1      47.033  29.420  27.393  1.00  0.00    -0.354 N 
ATOM     57  N   UNL A   1      45.930  26.733  26.989  1.00  0.00    -0.248 NA
ATOM     58  C   UNL A   1      46.158  24.534  26.234  1.00  0.00     0.031 C 
ATOM     59  C   UNL A   1      49.179  29.754  26.930  1.00  0.00     0.029 A 
ATOM     60  C   UNL A   1      48.178  28.797  26.920  1.00  0.00     0.049 A 
ATOM     61  H   UNL A   1      46.155  28.985  27.497  1.00  0.00     0.167 HD
ATOM     62  C   UNL A   1      47.234  26.534  26.552  1.00  0.00     0.074 A 
ATOM     63  C   UNL A   1      47.327  25.152  26.130  1.00  0.00     0.031 C 
ATOM     64  C   UNL A   1      48.260  27.419  26.501  1.00  0.00     0.037 A 
BRANCH  51  65
ATOM     65  C   UNL A   1      46.809  33.107  28.434  1.00  0.00     0.058 A 
ATOM     66  C   UNL A   1      47.354  33.482  29.673  1.00  0.00     0.135 A 
ATOM     67  C   UNL A   1      46.806  34.065  27.406  1.00  0.00     0.135 A 
ATOM     68  F   UNL A   1      47.374  32.611  30.694  1.00  0.00    -0.206 F 
ATOM     69  C   UNL A   1      47.868  34.756  29.886  1.00  0.00     0.059 A 
ATOM     70  C   UNL A   1      47.338  35.338  27.589  1.00  0.00     0.059 A 
ATOM     71  F   UNL A   1      46.297  33.760  26.202  1.00  0.00    -0.206 F 
ATOM     72  C   UNL A   1      47.862  35.676  28.836  1.00  0.00     0.060 A 
BRANCH  72  73
ATOM     73  S   UNL A   1      48.564  37.313  29.127  1.00  0.00     0.124 S 
ATOM     74  O   UNL A   1      48.250  37.518  30.538  1.00  0.00    -0.237 OA
ATOM     75  O   UNL A   1      49.974  37.106  28.815  1.00  0.00    -0.237 OA
ATOM     76  O   UNL A   1      47.836  38.168  28.195  1.00  0.00    -0.744 OA
ENDBRANCH  72  73
ENDBRANCH  51  65
BRANCH  52  77
ATOM     77  C   UNL A   1      43.397  23.832  26.940  1.00  0.00     0.058 A 
ATOM     78  C   UNL A   1      43.241  22.955  28.025  1.00  0.00     0.135 A 
ATOM     79  C   UNL A   1      43.055  23.358  25.663  1.00  0.00     0.135 A 
ATOM     80  F   UNL A   1      43.560  23.359  29.263  1.00  0.00    -0.206 F 
ATOM     81  C   UNL A   1      42.782  21.654  27.850  1.00  0.00     0.059 A 
ATOM     82  C   UNL A   1      42.565  22.071  25.467  1.00  0.00     0.059 A 
ATOM     83  F   UNL A   1      43.169  24.161  24.594  1.00  0.00    -0.206 F 
ATOM     84  C   UNL A   1      42.441  21.223  26.566  1.00  0.00     0.060 A 
BRANCH  84  85
ATOM     85  S   UNL A   1      41.807  19.545  26.362  1.00  0.00     0.124 S 
ATOM     86  O   UNL A   1      42.220  18.920  27.613  1.00  0.00    -0.237 OA
ATOM     87  O   UNL A   1      40.375  19.778  26.205  1.00  0.00    -0.237 OA
ATOM     88  O   UNL A   1      42.494  19.070  25.164  1.00  0.00    -0.744 OA
ENDBRANCH  84  85
ENDBRANCH  52  77
BRANCH  64  89
ATOM     89  C   UNL A   1      49.584  26.927  25.978  1.00  0.00     0.058 A 
ATOM     90  C   UNL A   1      49.971  27.141  24.647  1.00  0.00     0.135 A 
ATOM     91  C   UNL A   1      50.505  26.303  26.836  1.00  0.00     0.135 A 
ATOM     92  F   UNL A   1      49.126  27.724  23.782  1.00  0.00    -0.206 F 
ATOM     93  C   UNL A   1      51.220  26.741  24.180  1.00  0.00     0.059 A 
ATOM     94  C   UNL A   1      51.771  25.924  26.398  1.00  0.00     0.059 A 
ATOM     95  F   UNL A   1      50.190  26.082  28.122  1.00  0.00    -0.206 F 
ATOM     96  C   UNL A   1      52.117  26.142  25.066  1.00  0.00     0.060 A 
BRANCH  96  97
ATOM     97  S   UNL A   1      53.751  25.678  24.453  1.00  0.00     0.124 S 
ATOM     98  O   UNL A   1      54.606  26.645  25.135  1.00  0.00    -0.237 OA
ATOM     99  O   UNL A   1      53.871  24.296  24.906  1.00  0.00    -0.237 OA
ATOM    100  O   UNL A   1      53.635  25.852  23.008  1.00  0.00    -0.744 OA
ENDBRANCH  96  97
ENDBRANCH  64  89
ENDBRANCH  38  39
ENDBRANCH  31  33
ENDBRANCH  30  31
ENDBRANCH  29  30
ENDBRANCH  28  29
ENDBRANCH   1  28
TORSDOF 21
ENDMDL
MODEL 2
REMARK VINA RESULT:     -10.8      6.453     11.962
REMARK SMILES CC(C)CN(C)c1cc2c(cc1Cl)C=C(C(=O)OCCOCCOC(=O)c1ccc(-c3c4nc(c(-c5c(F)cc(S(=O)(=O)[O-])cc5F)c5ccc([nH]5)c(-c5c(F)cc(S(=O)(=O)[O-])cc5F)c5nc(c(-c6c(F)cc(S(=O)(=O)[O-])cc6F)c6ccc3[nH]6)C=C5)C=C4)cc1)[C@@H](C(F)(F)F)O2
REMARK SMILES IDX 21 1 20 2 19 3 18 4 16 5 17 6 15 7 7 8 8 9 12 10 9 11 11 12
REMARK SMILES IDX 13 13 10 14 98 15 14 16 93 17 5 18 6 19 4 20 2 21 1 22 3 23
REMARK SMILES IDX 94 24 95 25 96 26 97 27 22 28 23 29 24 30 25 31 26 32 27 33
REMARK SMILES IDX 28 34 92 35 29 36 91 37 30 38 31 39 32 40 85 41 33 42 90 43
REMARK SMILES IDX 84 44 86 45 34 46 89 47 83 48 82 49 35 51 69 52 48 53 68 54
REMARK SMILES IDX 49 55 52 56 67 57 87 58 50 59 51 60 66 62 88 63 53 64 36 65
REMARK SMILES IDX 37 66 46 67 38 68 39 69 45 70 47 71 40 72 41 73 42 74 43 75
REMARK SMILES IDX 44 76 70 77 71 78 80 79 72 80 73 81 79 82 81 83 74 84 75 85
REMARK SMILES IDX 76 86 77 87 78 88 54 89 55 90 64 91 56 92 57 93 63 94 65 95
REMARK SMILES IDX 58 96 59 97 60 98 61 99 62 100
REMARK H PARENT 86 50 52 61
REMARK Flexibility Score: inf
ROOT
ATOM      1  O   UNL A   1      38.837  22.675  26.510  1.00  0.00    -0.374 OA
ENDROOT
BRANCH   1   2
ATOM      2  C   UNL A   1      38.535  21.665  25.551  1.00  0.00     0.202 C 
BRANCH   2   3
ATOM      3  C   UNL A   1      37.136  21.042  25.563  1.00  0.00     0.261 C 
BRANCH   3   4
ATOM      4  O   UNL A   1      36.220  21.722  24.692  1.00  0.00    -0.460 OA
BRANCH   4   5
ATOM      5  C   UNL A   1      34.998  21.147  24.651  1.00  0.00     0.338 C 
ATOM      6  O   UNL A   1      34.755  19.950  24.709  1.00  0.00    -0.246 OA
BRANCH   5   7
ATOM      7  C   UNL A   1      33.933  22.165  24.665  1.00  0.00     0.087 C 
ATOM      8  C   UNL A   1      31.808  26.680  24.175  1.00  0.00     0.059 A 
ATOM      9  C   UNL A   1      31.417  25.488  24.830  1.00  0.00     0.074 A 
ATOM     10  C   UNL A   1      33.022  26.651  23.453  1.00  0.00     0.065 A 
ATOM     11  C   UNL A   1      32.187  24.322  24.731  1.00  0.00     0.130 A 
ATOM     12  C   UNL A   1      33.702  25.457  23.235  1.00  0.00     0.034 A 
ATOM     13  Cl  UNL A   1      33.815  28.081  22.883  1.00  0.00    -0.082 Cl
ATOM     14  C   UNL A   1      33.283  24.297  23.873  1.00  0.00     0.019 A 
ATOM     15  O   UNL A   1      31.831  23.230  25.483  1.00  0.00    -0.475 OA
ATOM     16  C   UNL A   1      34.076  23.102  23.723  1.00  0.00     0.027 C 
ATOM     17  C   UNL A   1      32.877  22.223  25.733  1.00  0.00     0.316 C 
BRANCH   8  18
ATOM     18  N   UNL A   1      31.030  27.843  24.245  1.00  0.00    -0.373 N 
ATOM     19  C   UNL A   1      31.400  28.793  25.290  1.00  0.00     0.143 C 
BRANCH  18  20
ATOM     20  C   UNL A   1      29.601  27.761  23.869  1.00  0.00     0.119 C 
BRANCH  20  21
ATOM     21  C   UNL A   1      29.258  28.547  22.583  1.00  0.00     0.002 C 
ATOM     22  C   UNL A   1      27.953  29.341  22.713  1.00  0.00     0.009 C 
ATOM     23  C   UNL A   1      30.377  29.506  22.169  1.00  0.00     0.009 C 
ENDBRANCH  20  21
ENDBRANCH  18  20
ENDBRANCH   8  18
BRANCH  17  24
ATOM     24  C   UNL A   1      33.498  22.418  27.124  1.00  0.00     0.430 C 
ATOM     25  F   UNL A   1      34.128  21.298  27.548  1.00  0.00    -0.167 F 
ATOM     26  F   UNL A   1      34.421  23.410  27.112  1.00  0.00    -0.167 F 
ATOM     27  F   UNL A   1      32.570  22.742  28.052  1.00  0.00    -0.167 F 
ENDBRANCH  17  24
ENDBRANCH   5   7
ENDBRANCH   4   5
ENDBRANCH   3   4
ENDBRANCH   2   3
ENDBRANCH   1   2
BRANCH   1  28
ATOM     28  C   UNL A   1      40.139  22.706  27.091  1.00  0.00     0.202 C 
BRANCH  28  29
ATOM     29  C   UNL A   1      41.355  22.963  26.191  1.00  0.00     0.261 C 
BRANCH  29  30
ATOM     30  O   UNL A   1      42.119  24.116  26.579  1.00  0.00    -0.460 OA
BRANCH  30  31
ATOM     31  C   UNL A   1      41.533  25.309  26.298  1.00  0.00     0.338 C 
ATOM     32  O   UNL A   1      40.988  25.635  25.255  1.00  0.00    -0.246 OA
BRANCH  31  33
ATOM     33  C   UNL A   1      41.461  26.115  27.530  1.00  0.00     0.060 A 
ATOM     34  C   UNL A   1      42.470  27.022  27.853  1.00  0.00     0.016 A 
ATOM     35  C   UNL A   1      40.336  25.975  28.353  1.00  0.00     0.016 A 
ATOM     36  C   UNL A   1      42.337  27.806  29.001  1.00  0.00     0.010 A 
ATOM     37  C   UNL A   1      40.207  26.760  29.499  1.00  0.00     0.010 A 
ATOM     38  C   UNL A   1      41.200  27.693  29.823  1.00  0.00    -0.014 A 
BRANCH  38  39
ATOM     39  C   UNL A   1      41.005  28.635  30.954  1.00  0.00     0.031 A 
ATOM     40  C   UNL A   1      41.888  28.593  32.167  1.00  0.00     0.074 A 
ATOM     41  C   UNL A   1      40.009  29.539  30.871  1.00  0.00     0.049 A 
ATOM     42  N   UNL A   1      41.896  29.394  33.202  1.00  0.00    -0.248 NA
ATOM     43  C   UNL A   1      42.885  27.514  32.232  1.00  0.00     0.031 C 
ATOM     44  C   UNL A   1      39.065  29.645  29.756  1.00  0.00     0.029 A 
ATOM     45  N   UNL A   1      39.632  30.545  31.723  1.00  0.00    -0.354 N 
ATOM     46  C   UNL A   1      42.913  28.936  34.030  1.00  0.00     0.074 A 
ATOM     47  C   UNL A   1      43.462  27.751  33.403  1.00  0.00     0.031 C 
ATOM     48  C   UNL A   1      38.243  30.683  29.975  1.00  0.00     0.029 A 
ATOM     49  C   UNL A   1      38.579  31.296  31.257  1.00  0.00     0.049 A 
ATOM     50  H   UNL A   1      40.073  30.713  32.587  1.00  0.00     0.167 HD
ATOM     51  C   UNL A   1      43.360  29.472  35.191  1.00  0.00     0.037 A 
ATOM     52  C   UNL A   1      37.956  32.361  31.797  1.00  0.00     0.037 A 
ATOM     53  C   UNL A   1      42.796  30.646  35.812  1.00  0.00     0.049 A 
ATOM     54  C   UNL A   1      38.439  32.903  33.115  1.00  0.00     0.074 A 
ATOM     55  C   UNL A   1      43.204  31.281  36.973  1.00  0.00     0.029 A 
ATOM     56  N   UNL A   1      41.703  31.354  35.334  1.00  0.00    -0.354 N 
ATOM     57  N   UNL A   1      39.450  32.502  33.849  1.00  0.00    -0.248 NA
ATOM     58  C   UNL A   1      37.700  34.040  33.679  1.00  0.00     0.031 C 
ATOM     59  C   UNL A   1      42.324  32.338  37.226  1.00  0.00     0.029 A 
ATOM     60  C   UNL A   1      41.403  32.400  36.194  1.00  0.00     0.049 A 
ATOM     61  H   UNL A   1      41.213  31.145  34.506  1.00  0.00     0.167 HD
ATOM     62  C   UNL A   1      39.480  33.351  34.950  1.00  0.00     0.074 A 
ATOM     63  C   UNL A   1      38.400  34.299  34.776  1.00  0.00     0.031 C 
ATOM     64  C   UNL A   1      40.324  33.340  36.011  1.00  0.00     0.037 A 
BRANCH  51  65
ATOM     65  C   UNL A   1      44.531  28.814  35.869  1.00  0.00     0.058 A 
ATOM     66  C   UNL A   1      44.347  27.757  36.774  1.00  0.00     0.135 A 
ATOM     67  C   UNL A   1      45.849  29.174  35.545  1.00  0.00     0.135 A 
ATOM     68  F   UNL A   1      43.109  27.377  37.129  1.00  0.00    -0.206 F 
ATOM     69  C   UNL A   1      45.426  27.088  37.342  1.00  0.00     0.059 A 
ATOM     70  C   UNL A   1      46.945  28.502  36.080  1.00  0.00     0.059 A 
ATOM     71  F   UNL A   1      46.082  30.178  34.684  1.00  0.00    -0.206 F 
ATOM     72  C   UNL A   1      46.722  27.463  36.982  1.00  0.00     0.060 A 
BRANCH  72  73
ATOM     73  S   UNL A   1      48.107  26.559  37.707  1.00  0.00     0.124 S 
ATOM     74  O   UNL A   1      48.609  25.821  36.552  1.00  0.00    -0.237 OA
ATOM     75  O   UNL A   1      48.962  27.639  38.190  1.00  0.00    -0.237 OA
ATOM     76  O   UNL A   1      47.480  25.745  38.744  1.00  0.00    -0.744 OA
ENDBRANCH  72  73
ENDBRANCH  51  65
BRANCH  52  77
ATOM     77  C   UNL A   1      36.823  33.003  31.077  1.00  0.00     0.058 A 
ATOM     78  C   UNL A   1      35.494  32.725  31.429  1.00  0.00     0.135 A 
ATOM     79  C   UNL A   1      37.045  33.916  30.033  1.00  0.00     0.135 A 
ATOM     80  F   UNL A   1      35.230  31.856  32.415  1.00  0.00    -0.206 F 
ATOM     81  C   UNL A   1      34.426  33.315  30.763  1.00  0.00     0.059 A 
ATOM     82  C   UNL A   1      35.994  34.541  29.372  1.00  0.00     0.059 A 
ATOM     83  F   UNL A   1      38.298  34.228  29.667  1.00  0.00    -0.206 F 
ATOM     84  C   UNL A   1      34.686  34.226  29.738  1.00  0.00     0.060 A 
BRANCH  84  85
ATOM     85  S   UNL A   1      33.289  35.015  28.910  1.00  0.00     0.124 S 
ATOM     86  O   UNL A   1      33.941  36.127  28.229  1.00  0.00    -0.237 OA
ATOM     87  O   UNL A   1      32.797  33.940  28.054  1.00  0.00    -0.237 OA
ATOM     88  O   UNL A   1      32.407  35.382  30.014  1.00  0.00    -0.744 OA
ENDBRANCH  84  85
ENDBRANCH  52  77
BRANCH  64  89
ATOM     89  C   UNL A   1      40.127  34.390  37.072  1.00  0.00     0.058 A 
ATOM     90  C   UNL A   1      40.764  35.638  36.995  1.00  0.00     0.135 A 
ATOM     91  C   UNL A   1      39.234  34.175  38.136  1.00  0.00     0.135 A 
ATOM     92  F   UNL A   1      41.635  35.894  36.005  1.00  0.00    -0.206 F 
ATOM     93  C   UNL A   1      40.534  36.632  37.943  1.00  0.00     0.059 A 
ATOM     94  C   UNL A   1      38.966  35.165  39.076  1.00  0.00     0.059 A 
ATOM     95  F   UNL A   1      38.591  33.003  38.252  1.00  0.00    -0.206 F 
ATOM     96  C   UNL A   1      39.626  36.389  38.975  1.00  0.00     0.060 A 
BRANCH  96  97
ATOM     97  S   UNL A   1      39.302  37.709  40.164  1.00  0.00     0.124 S 
ATOM     98  O   UNL A   1      40.576  38.421  40.166  1.00  0.00    -0.237 OA
ATOM     99  O   UNL A   1      38.183  38.413  39.547  1.00  0.00    -0.237 OA
ATOM    100  O   UNL A   1      38.984  36.989  41.394  1.00  0.00    -0.744 OA
ENDBRANCH  96  97
ENDBRANCH  64  89
ENDBRANCH  38  39
ENDBRANCH  31  33
ENDBRANCH  30  31
ENDBRANCH  29  30
ENDBRANCH  28  29
ENDBRANCH   1  28
TORSDOF 21
ENDMDL
MODEL 3
REMARK VINA RESULT:     -10.6      6.850     11.785
REMARK SMILES CC(C)CN(C)c1cc2c(cc1Cl)C=C(C(=O)OCCOCCOC(=O)c1ccc(-c3c4nc(c(-c5c(F)cc(S(=O)(=O)[O-])cc5F)c5ccc([nH]5)c(-c5c(F)cc(S(=O)(=O)[O-])cc5F)c5nc(c(-c6c(F)cc(S(=O)(=O)[O-])cc6F)c6ccc3[nH]6)C=C5)C=C4)cc1)[C@@H](C(F)(F)F)O2
REMARK SMILES IDX 21 1 20 2 19 3 18 4 16 5 17 6 15 7 7 8 8 9 12 10 9 11 11 12
REMARK SMILES IDX 13 13 10 14 98 15 14 16 93 17 5 18 6 19 4 20 2 21 1 22 3 23
REMARK SMILES IDX 94 24 95 25 96 26 97 27 22 28 23 29 24 30 25 31 26 32 27 33
REMARK SMILES IDX 28 34 92 35 29 36 91 37 30 38 31 39 32 40 85 41 33 42 90 43
REMARK SMILES IDX 84 44 86 45 34 46 89 47 83 48 82 49 35 51 69 52 48 53 68 54
REMARK SMILES IDX 49 55 52 56 67 57 87 58 50 59 51 60 66 62 88 63 53 64 36 65
REMARK SMILES IDX 37 66 46 67 38 68 39 69 45 70 47 71 40 72 41 73 42 74 43 75
REMARK SMILES IDX 44 76 70 77 71 78 80 79 72 80 73 81 79 82 81 83 74 84 75 85
REMARK SMILES IDX 76 86 77 87 78 88 54 89 55 90 64 91 56 92 57 93 63 94 65 95
REMARK SMILES IDX 58 96 59 97 60 98 61 99 62 100
REMARK H PARENT 86 50 52 61
REMARK Flexibility Score: inf
ROOT
ATOM      1  O   UNL A   1      38.570  21.495  25.649  1.00  0.00    -0.374 OA
ENDROOT
BRANCH   1   2
ATOM      2  C   UNL A   1      38.140  20.393  24.855  1.00  0.00     0.202 C 
BRANCH   2   3
ATOM      3  C   UNL A   1      36.700  19.897  25.012  1.00  0.00     0.261 C 
BRANCH   3   4
ATOM      4  O   UNL A   1      35.733  20.944  24.845  1.00  0.00    -0.460 OA
BRANCH   4   5
ATOM      5  C   UNL A   1      34.466  20.487  24.737  1.00  0.00     0.338 C 
ATOM      6  O   UNL A   1      34.117  19.316  24.704  1.00  0.00    -0.246 OA
BRANCH   5   7
ATOM      7  C   UNL A   1      33.496  21.593  24.802  1.00  0.00     0.087 C 
ATOM      8  C   UNL A   1      31.691  26.236  24.226  1.00  0.00     0.059 A 
ATOM      9  C   UNL A   1      31.294  25.130  25.014  1.00  0.00     0.074 A 
ATOM     10  C   UNL A   1      32.796  26.051  23.365  1.00  0.00     0.065 A 
ATOM     11  C   UNL A   1      31.950  23.896  24.913  1.00  0.00     0.130 A 
ATOM     12  C   UNL A   1      33.345  24.790  23.160  1.00  0.00     0.034 A 
ATOM     13  Cl  UNL A   1      33.620  27.363  22.593  1.00  0.00    -0.082 Cl
ATOM     14  C   UNL A   1      32.921  23.717  23.932  1.00  0.00     0.019 A 
ATOM     15  O   UNL A   1      31.608  22.892  25.785  1.00  0.00    -0.475 OA
ATOM     16  C   UNL A   1      33.591  22.448  23.779  1.00  0.00     0.027 C 
ATOM     17  C   UNL A   1      32.594  21.816  25.983  1.00  0.00     0.316 C 
BRANCH   8  18
ATOM     18  N   UNL A   1      31.023  27.465  24.299  1.00  0.00    -0.373 N 
ATOM     19  C   UNL A   1      30.400  27.924  23.062  1.00  0.00     0.143 C 
BRANCH  18  20
ATOM     20  C   UNL A   1      31.539  28.495  25.229  1.00  0.00     0.119 C 
BRANCH  20  21
ATOM     21  C   UNL A   1      32.341  27.909  26.413  1.00  0.00     0.002 C 
ATOM     22  C   UNL A   1      33.807  28.358  26.406  1.00  0.00     0.009 C 
ATOM     23  C   UNL A   1      31.725  28.265  27.769  1.00  0.00     0.009 C 
ENDBRANCH  20  21
ENDBRANCH  18  20
ENDBRANCH   8  18
BRANCH  17  24
ATOM     24  C   UNL A   1      33.402  22.049  27.269  1.00  0.00     0.430 C 
ATOM     25  F   UNL A   1      33.972  20.904  27.709  1.00  0.00    -0.167 F 
ATOM     26  F   UNL A   1      34.405  22.935  27.060  1.00  0.00    -0.167 F 
ATOM     27  F   UNL A   1      32.633  22.536  28.269  1.00  0.00    -0.167 F 
ENDBRANCH  17  24
ENDBRANCH   5   7
ENDBRANCH   4   5
ENDBRANCH   3   4
ENDBRANCH   2   3
ENDBRANCH   1   2
BRANCH   1  28
ATOM     28  C   UNL A   1      39.898  21.494  26.169  1.00  0.00     0.202 C 
BRANCH  28  29
ATOM     29  C   UNL A   1      40.240  22.410  27.353  1.00  0.00     0.261 C 
BRANCH  29  30
ATOM     30  O   UNL A   1      40.891  23.628  26.962  1.00  0.00    -0.460 OA
BRANCH  30  31
ATOM     31  C   UNL A   1      40.057  24.682  26.760  1.00  0.00     0.338 C 
ATOM     32  O   UNL A   1      39.192  24.783  25.904  1.00  0.00    -0.246 OA
BRANCH  31  33
ATOM     33  C   UNL A   1      40.202  25.633  27.876  1.00  0.00     0.060 A 
ATOM     34  C   UNL A   1      41.273  26.523  27.925  1.00  0.00     0.016 A 
ATOM     35  C   UNL A   1      39.215  25.648  28.872  1.00  0.00     0.016 A 
ATOM     36  C   UNL A   1      41.344  27.447  28.971  1.00  0.00     0.010 A 
ATOM     37  C   UNL A   1      39.289  26.571  29.915  1.00  0.00     0.010 A 
ATOM     38  C   UNL A   1      40.346  27.489  29.964  1.00  0.00    -0.014 A 
BRANCH  38  39
ATOM     39  C   UNL A   1      40.357  28.569  30.982  1.00  0.00     0.031 A 
ATOM     40  C   UNL A   1      39.416  29.734  30.895  1.00  0.00     0.074 A 
ATOM     41  C   UNL A   1      41.240  28.485  31.997  1.00  0.00     0.049 A 
ATOM     42  N   UNL A   1      39.248  30.716  31.743  1.00  0.00    -0.248 NA
ATOM     43  C   UNL A   1      38.554  29.811  29.706  1.00  0.00     0.031 C 
ATOM     44  C   UNL A   1      42.230  27.417  32.159  1.00  0.00     0.029 A 
ATOM     45  N   UNL A   1      41.441  29.293  33.085  1.00  0.00    -0.354 N 
ATOM     46  C   UNL A   1      38.246  31.515  31.208  1.00  0.00     0.074 A 
ATOM     47  C   UNL A   1      37.883  30.934  29.931  1.00  0.00     0.031 C 
ATOM     48  C   UNL A   1      42.905  27.615  33.302  1.00  0.00     0.029 A 
ATOM     49  C   UNL A   1      42.421  28.839  33.936  1.00  0.00     0.049 A 
ATOM     50  H   UNL A   1      40.932  30.121  33.243  1.00  0.00     0.167 HD
ATOM     51  C   UNL A   1      37.668  32.616  31.745  1.00  0.00     0.037 A 
ATOM     52  C   UNL A   1      42.878  29.345  35.097  1.00  0.00     0.037 A 
ATOM     53  C   UNL A   1      38.048  33.194  33.012  1.00  0.00     0.049 A 
ATOM     54  C   UNL A   1      42.254  30.601  35.644  1.00  0.00     0.074 A 
ATOM     55  C   UNL A   1      37.498  34.292  33.653  1.00  0.00     0.029 A 
ATOM     56  N   UNL A   1      39.074  32.733  33.823  1.00  0.00    -0.354 N 
ATOM     57  N   UNL A   1      41.257  31.303  35.161  1.00  0.00    -0.248 NA
ATOM     58  C   UNL A   1      42.815  31.133  36.893  1.00  0.00     0.031 C 
ATOM     59  C   UNL A   1      38.227  34.526  34.823  1.00  0.00     0.029 A 
ATOM     60  C   UNL A   1      39.193  33.543  34.943  1.00  0.00     0.049 A 
ATOM     61  H   UNL A   1      39.635  31.946  33.633  1.00  0.00     0.167 HD
ATOM     62  C   UNL A   1      41.058  32.347  36.058  1.00  0.00     0.074 A 
ATOM     63  C   UNL A   1      42.024  32.174  37.122  1.00  0.00     0.031 C 
ATOM     64  C   UNL A   1      40.160  33.361  35.999  1.00  0.00     0.037 A 
BRANCH  51  65
ATOM     65  C   UNL A   1      36.548  33.271  30.984  1.00  0.00     0.058 A 
ATOM     66  C   UNL A   1      35.208  33.090  31.364  1.00  0.00     0.135 A 
ATOM     67  C   UNL A   1      36.813  34.159  29.929  1.00  0.00     0.135 A 
ATOM     68  F   UNL A   1      34.894  32.245  32.359  1.00  0.00    -0.206 F 
ATOM     69  C   UNL A   1      34.172  33.757  30.719  1.00  0.00     0.059 A 
ATOM     70  C   UNL A   1      35.795  34.858  29.286  1.00  0.00     0.059 A 
ATOM     71  F   UNL A   1      38.076  34.369  29.526  1.00  0.00    -0.206 F 
ATOM     72  C   UNL A   1      34.476  34.645  29.686  1.00  0.00     0.060 A 
BRANCH  72  73
ATOM     73  S   UNL A   1      33.118  35.524  28.884  1.00  0.00     0.124 S 
ATOM     74  O   UNL A   1      32.418  36.088  30.033  1.00  0.00    -0.237 OA
ATOM     75  O   UNL A   1      33.826  36.482  28.040  1.00  0.00    -0.237 OA
ATOM     76  O   UNL A   1      32.402  34.471  28.171  1.00  0.00    -0.744 OA
ENDBRANCH  72  73
ENDBRANCH  51  65
BRANCH  52  77
ATOM     77  C   UNL A   1      43.965  28.649  35.835  1.00  0.00     0.058 A 
ATOM     78  C   UNL A   1      45.305  29.033  35.678  1.00  0.00     0.135 A 
ATOM     79  C   UNL A   1      43.688  27.595  36.721  1.00  0.00     0.135 A 
ATOM     80  F   UNL A   1      45.622  30.030  34.839  1.00  0.00    -0.206 F 
ATOM     81  C   UNL A   1      46.333  28.390  36.359  1.00  0.00     0.059 A 
ATOM     82  C   UNL A   1      44.695  26.956  37.436  1.00  0.00     0.059 A 
ATOM     83  F   UNL A   1      42.421  27.198  36.920  1.00  0.00    -0.206 F 
ATOM     84  C   UNL A   1      46.017  27.354  37.240  1.00  0.00     0.060 A 
BRANCH  84  85
ATOM     85  S   UNL A   1      47.357  26.555  38.148  1.00  0.00     0.124 S 
ATOM     86  O   UNL A   1      48.310  26.277  37.079  1.00  0.00    -0.237 OA
ATOM     87  O   UNL A   1      47.745  27.595  39.095  1.00  0.00    -0.237 OA
ATOM     88  O   UNL A   1      46.714  25.385  38.739  1.00  0.00    -0.744 OA
ENDBRANCH  84  85
ENDBRANCH  52  77
BRANCH  64  89
ATOM     89  C   UNL A   1      40.164  34.366  37.121  1.00  0.00     0.058 A 
ATOM     90  C   UNL A   1      39.465  34.134  38.315  1.00  0.00     0.135 A 
ATOM     91  C   UNL A   1      40.936  35.536  37.031  1.00  0.00     0.135 A 
ATOM     92  F   UNL A   1      38.703  33.036  38.451  1.00  0.00    -0.206 F 
ATOM     93  C   UNL A   1      39.519  35.033  39.376  1.00  0.00     0.059 A 
ATOM     94  C   UNL A   1      41.030  36.433  38.091  1.00  0.00     0.059 A 
ATOM     95  F   UNL A   1      41.633  35.803  35.914  1.00  0.00    -0.206 F 
ATOM     96  C   UNL A   1      40.312  36.176  39.257  1.00  0.00     0.060 A 
BRANCH  96  97
ATOM     97  S   UNL A   1      40.410  37.304  40.664  1.00  0.00     0.124 S 
ATOM     98  O   UNL A   1      41.288  38.347  40.144  1.00  0.00    -0.237 OA
ATOM     99  O   UNL A   1      39.014  37.685  40.853  1.00  0.00    -0.237 OA
ATOM    100  O   UNL A   1      40.979  36.477  41.725  1.00  0.00    -0.744 OA
ENDBRANCH  96  97
ENDBRANCH  64  89
ENDBRANCH  38  39
ENDBRANCH  31  33
ENDBRANCH  30  31
ENDBRANCH  29  30
ENDBRANCH  28  29
ENDBRANCH   1  28
TORSDOF 21
ENDMDL
