MODEL 1
REMARK VINA RESULT:     -12.2      0.000      0.000
REMARK SMILES CC1=C([C@H](NC(=O)c2cccc3ccccc23)C(=O)OCCOCCOC(=O)c2ccc(-c3c4nc(c(-c5c(F)cc(S(=O)(=O)[O-])cc5F)c5ccc([nH]5)c(-c5c(F)cc(S(=O)(=O)[O-])cc5F)c5nc(c(-c6c(F)cc(S(=O)(=O)[O-])cc6F)c6ccc3[nH]6)C=C5)C=C4)cc2)[C@H](C)N=N1
REMARK SMILES IDX 24 1 23 2 22 3 21 4 20 5 18 6 19 7 4 8 3 9 1 10 2 11 98 12
REMARK SMILES IDX 95 13 97 14 96 15 5 16 6 17 7 19 8 20 9 21 17 22 10 23 12 24
REMARK SMILES IDX 16 25 11 26 13 27 15 28 14 29 25 30 26 31 27 32 28 33 29 34
REMARK SMILES IDX 30 35 94 36 31 37 93 38 32 39 33 40 34 41 87 42 35 43 92 44
REMARK SMILES IDX 86 45 88 46 36 47 91 48 85 49 84 50 37 52 71 53 50 54 70 55
REMARK SMILES IDX 51 56 54 57 69 58 89 59 52 60 53 61 68 63 90 64 55 65 38 66
REMARK SMILES IDX 39 67 48 68 40 69 41 70 47 71 49 72 42 73 43 74 44 75 45 76
REMARK SMILES IDX 46 77 72 78 73 79 82 80 74 81 75 82 81 83 83 84 76 85 77 86
REMARK SMILES IDX 78 87 79 88 80 89 56 90 57 91 66 92 58 93 59 94 65 95 67 96
REMARK SMILES IDX 60 97 61 98 62 99 63 100 64 101
REMARK H PARENT 5 18 88 51 54 62
REMARK Flexibility Score: inf
ROOT
ATOM      1  C   UNL A   1      39.745  22.736  26.996  1.00  0.00     0.202 C 
ENDROOT
BRANCH   1   2
ATOM      2  O   UNL A   1      38.631  22.795  26.099  1.00  0.00    -0.374 OA
BRANCH   2   3
ATOM      3  C   UNL A   1      38.142  21.591  25.491  1.00  0.00     0.202 C 
BRANCH   3   4
ATOM      4  C   UNL A   1      36.636  21.514  25.275  1.00  0.00     0.261 C 
BRANCH   4   5
ATOM      5  O   UNL A   1      36.125  22.812  24.933  1.00  0.00    -0.461 OA
BRANCH   5   6
ATOM      6  C   UNL A   1      35.827  23.051  23.638  1.00  0.00     0.333 C 
ATOM      7  O   UNL A   1      36.665  23.050  22.742  1.00  0.00    -0.249 OA
BRANCH   6   8
ATOM      8  C   UNL A   1      34.306  23.328  23.385  1.00  0.00     0.223 C 
BRANCH   8   9
ATOM      9  C   UNL A   1      33.375  22.402  24.110  1.00  0.00     0.012 C 
ATOM     10  C   UNL A   1      33.045  23.883  26.134  1.00  0.00     0.069 C 
ATOM     11  C   UNL A   1      32.838  22.664  25.306  1.00  0.00     0.064 C 
ATOM     12  N   UNL A   1      32.049  21.653  25.777  1.00  0.00    -0.160 NA
ATOM     13  C   UNL A   1      32.841  21.039  23.751  1.00  0.00     0.156 C 
ATOM     14  N   UNL A   1      32.015  20.705  24.951  1.00  0.00    -0.181 NA
ATOM     15  C   UNL A   1      31.927  20.836  22.541  1.00  0.00     0.040 C 
ENDBRANCH   8   9
BRANCH   8  16
ATOM     16  N   UNL A   1      33.726  23.660  22.111  1.00  0.00    -0.335 N 
ATOM     17  C   UNL A   1      32.885  24.655  21.758  1.00  0.00     0.252 C 
ATOM     18  H   UNL A   1      33.985  23.063  21.373  1.00  0.00     0.165 HD
ATOM     19  O   UNL A   1      32.911  25.047  20.591  1.00  0.00    -0.269 OA
BRANCH  17  20
ATOM     20  C   UNL A   1      31.845  25.139  22.663  1.00  0.00     0.047 A 
ATOM     21  C   UNL A   1      30.747  24.416  23.128  1.00  0.00     0.014 A 
ATOM     22  C   UNL A   1      32.151  26.372  23.169  1.00  0.00    -0.006 A 
ATOM     23  C   UNL A   1      29.905  24.869  24.163  1.00  0.00     0.001 A 
ATOM     24  C   UNL A   1      31.326  26.806  24.672  1.00  0.00    -0.018 A 
ATOM     25  C   UNL A   1      33.534  27.313  22.464  1.00  0.00     0.009 A 
ATOM     26  C   UNL A   1      30.198  25.998  24.952  1.00  0.00     0.009 A 
ATOM     27  C   UNL A   1      32.028  28.244  25.558  1.00  0.00     0.009 A 
ATOM     28  C   UNL A   1      34.165  28.772  23.105  1.00  0.00     0.001 A 
ATOM     29  C   UNL A   1      33.480  29.319  24.606  1.00  0.00     0.001 A 
ENDBRANCH  17  20
ENDBRANCH   8  16
ENDBRANCH   6   8
ENDBRANCH   5   6
ENDBRANCH   4   5
ENDBRANCH   3   4
ENDBRANCH   2   3
ENDBRANCH   1   2
BRANCH   1  30
ATOM     30  C   UNL A   1      40.976  22.056  26.452  1.00  0.00     0.261 C 
BRANCH  30  31
ATOM     31  O   UNL A   1      41.986  23.040  26.564  1.00  0.00    -0.460 OA
BRANCH  31  32
ATOM     32  C   UNL A   1      42.676  23.416  25.486  1.00  0.00     0.338 C 
ATOM     33  O   UNL A   1      43.180  22.634  24.692  1.00  0.00    -0.246 OA
BRANCH  32  34
ATOM     34  C   UNL A   1      42.843  24.944  25.403  1.00  0.00     0.060 A 
ATOM     35  C   UNL A   1      44.395  25.199  26.355  1.00  0.00     0.016 A 
ATOM     36  C   UNL A   1      41.638  26.585  25.310  1.00  0.00     0.016 A 
ATOM     37  C   UNL A   1      44.578  26.746  27.234  1.00  0.00     0.010 A 
ATOM     38  C   UNL A   1      41.937  27.979  26.176  1.00  0.00     0.010 A 
ATOM     39  C   UNL A   1      43.274  27.976  27.218  1.00  0.00    -0.014 A 
BRANCH  39  40
ATOM     40  C   UNL A   1      42.710  28.903  28.263  1.00  0.00     0.031 A 
ATOM     41  C   UNL A   1      43.733  29.955  28.084  1.00  0.00     0.074 A 
ATOM     42  C   UNL A   1      41.415  28.991  28.817  1.00  0.00     0.049 A 
ATOM     43  N   UNL A   1      44.868  29.906  28.714  1.00  0.00    -0.248 NA
ATOM     44  C   UNL A   1      43.889  30.689  26.779  1.00  0.00     0.031 C 
ATOM     45  C   UNL A   1      40.241  28.058  28.798  1.00  0.00     0.029 A 
ATOM     46  N   UNL A   1      40.810  30.032  29.560  1.00  0.00    -0.354 N 
ATOM     47  C   UNL A   1      45.505  31.034  28.249  1.00  0.00     0.074 A 
ATOM     48  C   UNL A   1      45.150  31.127  26.872  1.00  0.00     0.031 C 
ATOM     49  C   UNL A   1      39.084  28.650  29.240  1.00  0.00     0.029 A 
ATOM     50  C   UNL A   1      39.356  29.993  29.719  1.00  0.00     0.049 A 
ATOM     51  H   UNL A   1      41.348  30.757  29.954  1.00  0.00     0.167 HD
ATOM     52  C   UNL A   1      45.624  32.058  29.134  1.00  0.00     0.037 A 
ATOM     53  C   UNL A   1      38.512  30.921  30.349  1.00  0.00     0.037 A 
ATOM     54  C   UNL A   1      45.396  31.566  30.486  1.00  0.00     0.049 A 
ATOM     55  C   UNL A   1      39.397  31.740  31.218  1.00  0.00     0.074 A 
ATOM     56  C   UNL A   1      45.897  30.502  31.215  1.00  0.00     0.029 A 
ATOM     57  N   UNL A   1      44.155  31.843  31.000  1.00  0.00    -0.354 N 
ATOM     58  N   UNL A   1      40.039  31.247  32.239  1.00  0.00    -0.248 NA
ATOM     59  C   UNL A   1      40.001  32.873  30.545  1.00  0.00     0.031 C 
ATOM     60  C   UNL A   1      44.800  29.982  31.958  1.00  0.00     0.029 A 
ATOM     61  C   UNL A   1      43.719  30.849  31.833  1.00  0.00     0.049 A 
ATOM     62  H   UNL A   1      43.641  32.657  30.795  1.00  0.00     0.167 HD
ATOM     63  C   UNL A   1      41.349  31.612  31.983  1.00  0.00     0.074 A 
ATOM     64  C   UNL A   1      41.257  32.626  30.921  1.00  0.00     0.031 C 
ATOM     65  C   UNL A   1      42.374  30.793  32.368  1.00  0.00     0.037 A 
BRANCH  52  66
ATOM     66  C   UNL A   1      45.432  33.501  28.752  1.00  0.00     0.058 A 
ATOM     67  C   UNL A   1      46.549  34.332  28.890  1.00  0.00     0.135 A 
ATOM     68  C   UNL A   1      44.208  34.154  28.451  1.00  0.00     0.135 A 
ATOM     69  F   UNL A   1      47.742  33.810  29.210  1.00  0.00    -0.206 F 
ATOM     70  C   UNL A   1      46.465  35.709  28.740  1.00  0.00     0.059 A 
ATOM     71  C   UNL A   1      44.111  35.522  28.241  1.00  0.00     0.059 A 
ATOM     72  F   UNL A   1      43.029  33.526  28.409  1.00  0.00    -0.206 F 
ATOM     73  C   UNL A   1      45.247  36.293  28.399  1.00  0.00     0.060 A 
BRANCH  73  74
ATOM     74  S   UNL A   1      45.184  38.068  28.147  1.00  0.00     0.124 S 
ATOM     75  O   UNL A   1      44.344  38.165  26.961  1.00  0.00    -0.237 OA
ATOM     76  O   UNL A   1      44.582  38.515  29.400  1.00  0.00    -0.237 OA
ATOM     77  O   UNL A   1      46.586  38.434  27.967  1.00  0.00    -0.744 OA
ENDBRANCH  73  74
ENDBRANCH  52  66
BRANCH  53  78
ATOM     78  C   UNL A   1      37.079  31.472  30.142  1.00  0.00     0.058 A 
ATOM     79  C   UNL A   1      36.323  32.196  31.130  1.00  0.00     0.135 A 
ATOM     80  C   UNL A   1      36.582  31.625  28.843  1.00  0.00     0.135 A 
ATOM     81  F   UNL A   1      36.676  32.146  32.426  1.00  0.00    -0.206 F 
ATOM     82  C   UNL A   1      35.223  33.051  30.823  1.00  0.00     0.059 A 
ATOM     83  C   UNL A   1      35.503  32.474  28.516  1.00  0.00     0.059 A 
ATOM     84  F   UNL A   1      37.201  31.016  27.825  1.00  0.00    -0.206 F 
ATOM     85  C   UNL A   1      34.841  33.211  29.496  1.00  0.00     0.060 A 
BRANCH  85  86
ATOM     86  S   UNL A   1      33.592  34.457  29.005  1.00  0.00     0.124 S 
ATOM     87  O   UNL A   1      32.954  34.787  30.275  1.00  0.00    -0.237 OA
ATOM     88  O   UNL A   1      34.405  35.512  28.411  1.00  0.00    -0.237 OA
ATOM     89  O   UNL A   1      32.746  33.727  28.063  1.00  0.00    -0.744 OA
ENDBRANCH  85  86
ENDBRANCH  53  78
BRANCH  65  90
ATOM     90  C   UNL A   1      42.091  29.696  33.377  1.00  0.00     0.058 A 
ATOM     91  C   UNL A   1      41.717  28.364  33.099  1.00  0.00     0.135 A 
ATOM     92  C   UNL A   1      42.367  30.005  34.715  1.00  0.00     0.135 A 
ATOM     93  F   UNL A   1      41.533  27.948  31.837  1.00  0.00    -0.206 F 
ATOM     94  C   UNL A   1      41.582  27.407  34.117  1.00  0.00     0.059 A 
ATOM     95  C   UNL A   1      42.273  29.067  35.734  1.00  0.00     0.059 A 
ATOM     96  F   UNL A   1      42.795  31.236  35.041  1.00  0.00    -0.206 F 
ATOM     97  C   UNL A   1      41.857  27.774  35.435  1.00  0.00     0.060 A 
BRANCH  97  98
ATOM     98  S   UNL A   1      41.696  26.562  36.766  1.00  0.00     0.124 S 
ATOM     99  O   UNL A   1      41.642  25.303  36.032  1.00  0.00    -0.237 OA
ATOM    100  O   UNL A   1      42.907  26.789  37.550  1.00  0.00    -0.237 OA
ATOM    101  O   UNL A   1      40.452  26.948  37.431  1.00  0.00    -0.744 OA
ENDBRANCH  97  98
ENDBRANCH  65  90
ENDBRANCH  39  40
ENDBRANCH  32  34
ENDBRANCH  31  32
ENDBRANCH  30  31
ENDBRANCH   1  30
TORSDOF 20
ENDMDL
MODEL 2
REMARK VINA RESULT:     -12.2      2.397      3.088
REMARK SMILES CC1=C([C@H](NC(=O)c2cccc3ccccc23)C(=O)OCCOCCOC(=O)c2ccc(-c3c4nc(c(-c5c(F)cc(S(=O)(=O)[O-])cc5F)c5ccc([nH]5)c(-c5c(F)cc(S(=O)(=O)[O-])cc5F)c5nc(c(-c6c(F)cc(S(=O)(=O)[O-])cc6F)c6ccc3[nH]6)C=C5)C=C4)cc2)[C@H](C)N=N1
REMARK SMILES IDX 24 1 23 2 22 3 21 4 20 5 18 6 19 7 4 8 3 9 1 10 2 11 98 12
REMARK SMILES IDX 95 13 97 14 96 15 5 16 6 17 7 19 8 20 9 21 17 22 10 23 12 24
REMARK SMILES IDX 16 25 11 26 13 27 15 28 14 29 25 30 26 31 27 32 28 33 29 34
REMARK SMILES IDX 30 35 94 36 31 37 93 38 32 39 33 40 34 41 87 42 35 43 92 44
REMARK SMILES IDX 86 45 88 46 36 47 91 48 85 49 84 50 37 52 71 53 50 54 70 55
REMARK SMILES IDX 51 56 54 57 69 58 89 59 52 60 53 61 68 63 90 64 55 65 38 66
REMARK SMILES IDX 39 67 48 68 40 69 41 70 47 71 49 72 42 73 43 74 44 75 45 76
REMARK SMILES IDX 46 77 72 78 73 79 82 80 74 81 75 82 81 83 83 84 76 85 77 86
REMARK SMILES IDX 78 87 79 88 80 89 56 90 57 91 66 92 58 93 59 94 65 95 67 96
REMARK SMILES IDX 60 97 61 98 62 99 63 100 64 101
REMARK H PARENT 5 18 88 51 54 62
REMARK Flexibility Score: inf
ROOT
ATOM      1  C   UNL A   1      41.023  20.773  26.422  1.00  0.00     0.202 C 
ENDROOT
BRANCH   1   2
ATOM      2  O   UNL A   1      39.641  20.699  26.059  1.00  0.00    -0.374 OA
BRANCH   2   3
ATOM      3  C   UNL A   1      38.876  21.905  25.916  1.00  0.00     0.202 C 
BRANCH   3   4
ATOM      4  C   UNL A   1      37.426  21.730  25.484  1.00  0.00     0.261 C 
BRANCH   4   5
ATOM      5  O   UNL A   1      36.925  22.962  24.942  1.00  0.00    -0.461 OA
BRANCH   5   6
ATOM      6  C   UNL A   1      36.313  22.920  23.740  1.00  0.00     0.333 C 
ATOM      7  O   UNL A   1      36.918  22.818  22.678  1.00  0.00    -0.249 OA
BRANCH   6   8
ATOM      8  C   UNL A   1      34.751  23.008  23.828  1.00  0.00     0.223 C 
BRANCH   8   9
ATOM      9  C   UNL A   1      34.118  21.979  24.717  1.00  0.00     0.012 C 
ATOM     10  C   UNL A   1      34.119  23.396  26.812  1.00  0.00     0.069 C 
ATOM     11  C   UNL A   1      33.852  22.170  26.013  1.00  0.00     0.064 C 
ATOM     12  N   UNL A   1      33.305  21.074  26.619  1.00  0.00    -0.160 NA
ATOM     13  C   UNL A   1      33.660  20.570  24.444  1.00  0.00     0.156 C 
ATOM     14  N   UNL A   1      33.177  20.136  25.792  1.00  0.00    -0.181 NA
ATOM     15  C   UNL A   1      32.514  20.279  23.473  1.00  0.00     0.040 C 
ENDBRANCH   8   9
BRANCH   8  16
ATOM     16  N   UNL A   1      33.872  23.262  22.717  1.00  0.00    -0.335 N 
ATOM     17  C   UNL A   1      32.866  24.150  22.575  1.00  0.00     0.252 C 
ATOM     18  H   UNL A   1      34.030  22.693  21.930  1.00  0.00     0.165 HD
ATOM     19  O   UNL A   1      32.591  24.535  21.438  1.00  0.00    -0.269 OA
BRANCH  17  20
ATOM     20  C   UNL A   1      32.001  24.517  23.694  1.00  0.00     0.047 A 
ATOM     21  C   UNL A   1      31.072  23.693  24.330  1.00  0.00     0.014 A 
ATOM     22  C   UNL A   1      32.317  25.750  24.194  1.00  0.00    -0.006 A 
ATOM     23  C   UNL A   1      30.429  24.039  25.535  1.00  0.00     0.001 A 
ATOM     24  C   UNL A   1      31.787  26.061  25.851  1.00  0.00    -0.018 A 
ATOM     25  C   UNL A   1      33.460  26.822  23.277  1.00  0.00     0.009 A 
ATOM     26  C   UNL A   1      30.798  25.157  26.308  1.00  0.00     0.009 A 
ATOM     27  C   UNL A   1      32.554  27.515  26.655  1.00  0.00     0.009 A 
ATOM     28  C   UNL A   1      34.106  28.300  23.856  1.00  0.00     0.001 A 
ATOM     29  C   UNL A   1      33.704  28.735  25.490  1.00  0.00     0.001 A 
ENDBRANCH  17  20
ENDBRANCH   8  16
ENDBRANCH   6   8
ENDBRANCH   5   6
ENDBRANCH   4   5
ENDBRANCH   3   4
ENDBRANCH   2   3
ENDBRANCH   1   2
BRANCH   1  30
ATOM     30  C   UNL A   1      41.816  19.510  26.205  1.00  0.00     0.261 C 
BRANCH  30  31
ATOM     31  O   UNL A   1      43.163  19.936  26.274  1.00  0.00    -0.460 OA
BRANCH  31  32
ATOM     32  C   UNL A   1      43.855  20.150  25.154  1.00  0.00     0.338 C 
ATOM     33  O   UNL A   1      44.237  19.260  24.408  1.00  0.00    -0.246 OA
BRANCH  32  34
ATOM     34  C   UNL A   1      44.198  21.638  24.955  1.00  0.00     0.060 A 
ATOM     35  C   UNL A   1      45.718  21.808  25.974  1.00  0.00     0.016 A 
ATOM     36  C   UNL A   1      43.192  23.385  24.653  1.00  0.00     0.016 A 
ATOM     37  C   UNL A   1      46.030  23.398  26.731  1.00  0.00     0.010 A 
ATOM     38  C   UNL A   1      43.601  24.810  25.418  1.00  0.00     0.010 A 
ATOM     39  C   UNL A   1      44.875  24.755  26.534  1.00  0.00    -0.014 A 
BRANCH  39  40
ATOM     40  C   UNL A   1      44.367  25.827  27.462  1.00  0.00     0.031 A 
ATOM     41  C   UNL A   1      45.389  26.830  27.091  1.00  0.00     0.074 A 
ATOM     42  C   UNL A   1      43.100  26.010  28.057  1.00  0.00     0.049 A 
ATOM     43  N   UNL A   1      46.551  26.854  27.670  1.00  0.00    -0.248 NA
ATOM     44  C   UNL A   1      45.489  27.371  25.691  1.00  0.00     0.031 C 
ATOM     45  C   UNL A   1      41.920  25.100  28.223  1.00  0.00     0.029 A 
ATOM     46  N   UNL A   1      42.538  27.154  28.672  1.00  0.00    -0.354 N 
ATOM     47  C   UNL A   1      47.173  27.897  27.023  1.00  0.00     0.074 A 
ATOM     48  C   UNL A   1      46.756  27.801  25.664  1.00  0.00     0.031 C 
ATOM     49  C   UNL A   1      40.789  25.763  28.628  1.00  0.00     0.029 A 
ATOM     50  C   UNL A   1      41.093  27.157  28.901  1.00  0.00     0.049 A 
ATOM     51  H   UNL A   1      43.099  27.919  28.935  1.00  0.00     0.167 HD
ATOM     52  C   UNL A   1      47.342  29.033  27.748  1.00  0.00     0.037 A 
ATOM     53  C   UNL A   1      40.285  28.176  29.432  1.00  0.00     0.037 A 
ATOM     54  C   UNL A   1      47.173  28.739  29.165  1.00  0.00     0.049 A 
ATOM     55  C   UNL A   1      41.216  29.096  30.135  1.00  0.00     0.074 A 
ATOM     56  C   UNL A   1      47.700  27.781  30.014  1.00  0.00     0.029 A 
ATOM     57  N   UNL A   1      45.960  29.102  29.690  1.00  0.00    -0.354 N 
ATOM     58  N   UNL A   1      41.902  28.742  31.185  1.00  0.00    -0.248 NA
ATOM     59  C   UNL A   1      41.796  30.115  29.283  1.00  0.00     0.031 C 
ATOM     60  C   UNL A   1      46.635  27.385  30.871  1.00  0.00     0.029 A 
ATOM     61  C   UNL A   1      45.555  28.241  30.674  1.00  0.00     0.049 A 
ATOM     62  H   UNL A   1      45.443  29.887  29.396  1.00  0.00     0.167 HD
ATOM     63  C   UNL A   1      43.201  29.050  30.822  1.00  0.00     0.074 A 
ATOM     64  C   UNL A   1      43.066  29.906  29.633  1.00  0.00     0.031 C 
ATOM     65  C   UNL A   1      44.237  28.279  31.272  1.00  0.00     0.037 A 
BRANCH  52  66
ATOM     66  C   UNL A   1      47.142  30.411  27.176  1.00  0.00     0.058 A 
ATOM     67  C   UNL A   1      48.257  31.255  27.193  1.00  0.00     0.135 A 
ATOM     68  C   UNL A   1      45.914  31.014  26.798  1.00  0.00     0.135 A 
ATOM     69  F   UNL A   1      49.454  30.785  27.572  1.00  0.00    -0.206 F 
ATOM     70  C   UNL A   1      48.167  32.599  26.858  1.00  0.00     0.059 A 
ATOM     71  C   UNL A   1      45.811  32.341  26.406  1.00  0.00     0.059 A 
ATOM     72  F   UNL A   1      44.736  30.383  26.850  1.00  0.00    -0.206 F 
ATOM     73  C   UNL A   1      46.945  33.129  26.450  1.00  0.00     0.060 A 
BRANCH  73  74
ATOM     74  S   UNL A   1      46.875  34.853  25.961  1.00  0.00     0.124 S 
ATOM     75  O   UNL A   1      47.939  34.919  24.968  1.00  0.00    -0.237 OA
ATOM     76  O   UNL A   1      45.512  34.953  25.449  1.00  0.00    -0.237 OA
ATOM     77  O   UNL A   1      47.123  35.569  27.209  1.00  0.00    -0.744 OA
ENDBRANCH  73  74
ENDBRANCH  52  66
BRANCH  53  78
ATOM     78  C   UNL A   1      38.849  28.711  29.214  1.00  0.00     0.058 A 
ATOM     79  C   UNL A   1      37.891  28.953  30.260  1.00  0.00     0.135 A 
ATOM     80  C   UNL A   1      38.528  29.353  28.012  1.00  0.00     0.135 A 
ATOM     81  F   UNL A   1      38.060  28.402  31.475  1.00  0.00    -0.206 F 
ATOM     82  C   UNL A   1      36.765  29.818  30.127  1.00  0.00     0.059 A 
ATOM     83  C   UNL A   1      37.427  30.222  27.862  1.00  0.00     0.059 A 
ATOM     84  F   UNL A   1      39.343  29.223  26.959  1.00  0.00    -0.206 F 
ATOM     85  C   UNL A   1      36.562  30.481  28.922  1.00  0.00     0.060 A 
BRANCH  85  86
ATOM     86  S   UNL A   1      35.276  31.774  28.749  1.00  0.00     0.124 S 
ATOM     87  O   UNL A   1      34.257  31.106  27.946  1.00  0.00    -0.237 OA
ATOM     88  O   UNL A   1      34.909  32.052  30.133  1.00  0.00    -0.237 OA
ATOM     89  O   UNL A   1      35.982  32.858  28.070  1.00  0.00    -0.744 OA
ENDBRANCH  85  86
ENDBRANCH  53  78
BRANCH  65  90
ATOM     90  C   UNL A   1      43.993  27.338  32.437  1.00  0.00     0.058 A 
ATOM     91  C   UNL A   1      43.905  25.931  32.386  1.00  0.00     0.135 A 
ATOM     92  C   UNL A   1      43.997  27.923  33.710  1.00  0.00     0.135 A 
ATOM     93  F   UNL A   1      43.997  25.275  31.220  1.00  0.00    -0.206 F 
ATOM     94  C   UNL A   1      43.779  25.157  33.550  1.00  0.00     0.059 A 
ATOM     95  C   UNL A   1      43.908  27.176  34.876  1.00  0.00     0.059 A 
ATOM     96  F   UNL A   1      44.148  29.252  33.833  1.00  0.00    -0.206 F 
ATOM     97  C   UNL A   1      43.776  25.794  34.792  1.00  0.00     0.060 A 
BRANCH  97  98
ATOM     98  S   UNL A   1      43.620  24.822  36.309  1.00  0.00     0.124 S 
ATOM     99  O   UNL A   1      44.584  23.750  36.088  1.00  0.00    -0.237 OA
ATOM    100  O   UNL A   1      43.973  25.791  37.343  1.00  0.00    -0.237 OA
ATOM    101  O   UNL A   1      42.217  24.408  36.307  1.00  0.00    -0.744 OA
ENDBRANCH  97  98
ENDBRANCH  65  90
ENDBRANCH  39  40
ENDBRANCH  32  34
ENDBRANCH  31  32
ENDBRANCH  30  31
ENDBRANCH   1  30
TORSDOF 20
ENDMDL
MODEL 3
REMARK VINA RESULT:     -11.7      2.582      3.950
REMARK SMILES CC1=C([C@H](NC(=O)c2cccc3ccccc23)C(=O)OCCOCCOC(=O)c2ccc(-c3c4nc(c(-c5c(F)cc(S(=O)(=O)[O-])cc5F)c5ccc([nH]5)c(-c5c(F)cc(S(=O)(=O)[O-])cc5F)c5nc(c(-c6c(F)cc(S(=O)(=O)[O-])cc6F)c6ccc3[nH]6)C=C5)C=C4)cc2)[C@H](C)N=N1
REMARK SMILES IDX 24 1 23 2 22 3 21 4 20 5 18 6 19 7 4 8 3 9 1 10 2 11 98 12
REMARK SMILES IDX 95 13 97 14 96 15 5 16 6 17 7 19 8 20 9 21 17 22 10 23 12 24
REMARK SMILES IDX 16 25 11 26 13 27 15 28 14 29 25 30 26 31 27 32 28 33 29 34
REMARK SMILES IDX 30 35 94 36 31 37 93 38 32 39 33 40 34 41 87 42 35 43 92 44
REMARK SMILES IDX 86 45 88 46 36 47 91 48 85 49 84 50 37 52 71 53 50 54 70 55
REMARK SMILES IDX 51 56 54 57 69 58 89 59 52 60 53 61 68 63 90 64 55 65 38 66
REMARK SMILES IDX 39 67 48 68 40 69 41 70 47 71 49 72 42 73 43 74 44 75 45 76
REMARK SMILES IDX 46 77 72 78 73 79 82 80 74 81 75 82 81 83 83 84 76 85 77 86
REMARK SMILES IDX 78 87 79 88 80 89 56 90 57 91 66 92 58 93 59 94 65 95 67 96
REMARK SMILES IDX 60 97 61 98 62 99 63 100 64 101
REMARK H PARENT 5 18 88 51 54 62
REMARK Flexibility Score: inf
ROOT
ATOM      1  C   UNL A   1      40.910  20.691  27.372  1.00  0.00     0.202 C 
ENDROOT
BRANCH   1   2
ATOM      2  O   UNL A   1      39.870  21.661  27.205  1.00  0.00    -0.374 OA
BRANCH   2   3
ATOM      3  C   UNL A   1      39.465  22.051  25.885  1.00  0.00     0.202 C 
BRANCH   3   4
ATOM      4  C   UNL A   1      38.133  21.492  25.402  1.00  0.00     0.261 C 
BRANCH   4   5
ATOM      5  O   UNL A   1      37.064  22.009  26.210  1.00  0.00    -0.461 OA
BRANCH   5   6
ATOM      6  C   UNL A   1      36.674  23.285  26.001  1.00  0.00     0.333 C 
ATOM      7  O   UNL A   1      37.460  24.221  25.902  1.00  0.00    -0.249 OA
BRANCH   6   8
ATOM      8  C   UNL A   1      35.121  23.456  25.891  1.00  0.00     0.223 C 
BRANCH   8   9
ATOM      9  C   UNL A   1      34.680  24.581  25.002  1.00  0.00     0.012 C 
ATOM     10  C   UNL A   1      34.523  23.206  22.885  1.00  0.00     0.069 C 
ATOM     11  C   UNL A   1      34.425  24.449  23.696  1.00  0.00     0.064 C 
ATOM     12  N   UNL A   1      34.071  25.624  23.094  1.00  0.00    -0.160 NA
ATOM     13  C   UNL A   1      34.437  26.042  25.285  1.00  0.00     0.156 C 
ATOM     14  N   UNL A   1      34.066  26.560  23.932  1.00  0.00    -0.181 NA
ATOM     15  C   UNL A   1      33.322  26.494  26.229  1.00  0.00     0.040 C 
ENDBRANCH   8   9
BRANCH   8  16
ATOM     16  N   UNL A   1      34.196  23.345  26.987  1.00  0.00    -0.335 N 
ATOM     17  C   UNL A   1      32.932  22.873  27.030  1.00  0.00     0.252 C 
ATOM     18  H   UNL A   1      34.542  23.667  27.851  1.00  0.00     0.165 HD
ATOM     19  O   UNL A   1      32.521  22.418  28.097  1.00  0.00    -0.269 OA
BRANCH  17  20
ATOM     20  C   UNL A   1      32.008  23.052  25.912  1.00  0.00     0.047 A 
ATOM     21  C   UNL A   1      31.326  24.222  25.579  1.00  0.00     0.014 A 
ATOM     22  C   UNL A   1      31.998  21.963  25.086  1.00  0.00    -0.006 A 
ATOM     23  C   UNL A   1      30.621  24.389  24.370  1.00  0.00     0.001 A 
ATOM     24  C   UNL A   1      31.413  22.257  23.443  1.00  0.00    -0.018 A 
ATOM     25  C   UNL A   1      32.821  20.432  25.610  1.00  0.00     0.009 A 
ATOM     26  C   UNL A   1      30.693  23.468  23.307  1.00  0.00     0.009 A 
ATOM     27  C   UNL A   1      31.783  20.932  22.236  1.00  0.00     0.009 A 
ATOM     28  C   UNL A   1      33.066  19.054  24.621  1.00  0.00     0.001 A 
ATOM     29  C   UNL A   1      32.574  19.195  22.960  1.00  0.00     0.001 A 
ENDBRANCH  17  20
ENDBRANCH   8  16
ENDBRANCH   6   8
ENDBRANCH   5   6
ENDBRANCH   4   5
ENDBRANCH   3   4
ENDBRANCH   2   3
ENDBRANCH   1   2
BRANCH   1  30
ATOM     30  C   UNL A   1      41.424  20.071  26.098  1.00  0.00     0.261 C 
BRANCH  30  31
ATOM     31  O   UNL A   1      42.826  20.029  26.281  1.00  0.00    -0.460 OA
BRANCH  31  32
ATOM     32  C   UNL A   1      43.642  20.210  25.241  1.00  0.00     0.338 C 
ATOM     33  O   UNL A   1      44.089  19.299  24.558  1.00  0.00    -0.246 OA
BRANCH  32  34
ATOM     34  C   UNL A   1      44.030  21.688  25.055  1.00  0.00     0.060 A 
ATOM     35  C   UNL A   1      45.509  21.823  26.137  1.00  0.00     0.016 A 
ATOM     36  C   UNL A   1      43.082  23.459  24.707  1.00  0.00     0.016 A 
ATOM     37  C   UNL A   1      45.828  23.407  26.904  1.00  0.00     0.010 A 
ATOM     38  C   UNL A   1      43.494  24.875  25.485  1.00  0.00     0.010 A 
ATOM     39  C   UNL A   1      44.717  24.792  26.656  1.00  0.00    -0.014 A 
BRANCH  39  40
ATOM     40  C   UNL A   1      44.197  25.879  27.559  1.00  0.00     0.031 A 
ATOM     41  C   UNL A   1      45.221  26.877  27.182  1.00  0.00     0.074 A 
ATOM     42  C   UNL A   1      42.923  26.069  28.136  1.00  0.00     0.049 A 
ATOM     43  N   UNL A   1      46.376  26.914  27.774  1.00  0.00    -0.248 NA
ATOM     44  C   UNL A   1      45.335  27.394  25.773  1.00  0.00     0.031 C 
ATOM     45  C   UNL A   1      41.743  25.160  28.305  1.00  0.00     0.029 A 
ATOM     46  N   UNL A   1      42.352  27.222  28.725  1.00  0.00    -0.354 N 
ATOM     47  C   UNL A   1      47.004  27.946  27.115  1.00  0.00     0.074 A 
ATOM     48  C   UNL A   1      46.602  27.825  25.753  1.00  0.00     0.031 C 
ATOM     49  C   UNL A   1      40.607  25.828  28.686  1.00  0.00     0.029 A 
ATOM     50  C   UNL A   1      40.905  27.227  28.939  1.00  0.00     0.049 A 
ATOM     51  H   UNL A   1      42.909  27.993  28.982  1.00  0.00     0.167 HD
ATOM     52  C   UNL A   1      47.162  29.095  27.822  1.00  0.00     0.037 A 
ATOM     53  C   UNL A   1      40.089  28.253  29.442  1.00  0.00     0.037 A 
ATOM     54  C   UNL A   1      46.978  28.825  29.242  1.00  0.00     0.049 A 
ATOM     55  C   UNL A   1      41.010  29.188  30.140  1.00  0.00     0.074 A 
ATOM     56  C   UNL A   1      47.498  27.883  30.113  1.00  0.00     0.029 A 
ATOM     57  N   UNL A   1      45.759  29.195  29.747  1.00  0.00    -0.354 N 
ATOM     58  N   UNL A   1      41.685  28.854  31.203  1.00  0.00    -0.248 NA
ATOM     59  C   UNL A   1      41.598  30.193  29.276  1.00  0.00     0.031 C 
ATOM     60  C   UNL A   1      46.424  27.501  30.965  1.00  0.00     0.029 A 
ATOM     61  C   UNL A   1      45.345  28.351  30.742  1.00  0.00     0.049 A 
ATOM     62  H   UNL A   1      45.244  29.974  29.434  1.00  0.00     0.167 HD
ATOM     63  C   UNL A   1      42.988  29.157  30.849  1.00  0.00     0.074 A 
ATOM     64  C   UNL A   1      42.865  29.993  29.644  1.00  0.00     0.031 C 
ATOM     65  C   UNL A   1      44.020  28.396  31.324  1.00  0.00     0.037 A 
BRANCH  52  66
ATOM     66  C   UNL A   1      46.967  30.463  27.224  1.00  0.00     0.058 A 
ATOM     67  C   UNL A   1      48.077  31.312  27.245  1.00  0.00     0.135 A 
ATOM     68  C   UNL A   1      45.742  31.054  26.815  1.00  0.00     0.135 A 
ATOM     69  F   UNL A   1      49.270  30.853  27.653  1.00  0.00    -0.206 F 
ATOM     70  C   UNL A   1      47.988  32.650  26.887  1.00  0.00     0.059 A 
ATOM     71  C   UNL A   1      45.641  32.373  26.399  1.00  0.00     0.059 A 
ATOM     72  F   UNL A   1      44.567  30.419  26.858  1.00  0.00    -0.206 F 
ATOM     73  C   UNL A   1      46.771  33.167  26.449  1.00  0.00     0.060 A 
BRANCH  73  74
ATOM     74  S   UNL A   1      46.702  34.883  25.931  1.00  0.00     0.124 S 
ATOM     75  O   UNL A   1      47.922  34.999  25.144  1.00  0.00    -0.237 OA
ATOM     76  O   UNL A   1      45.449  34.907  25.181  1.00  0.00    -0.237 OA
ATOM     77  O   UNL A   1      46.684  35.617  27.192  1.00  0.00    -0.744 OA
ENDBRANCH  73  74
ENDBRANCH  52  66
BRANCH  53  78
ATOM     78  C   UNL A   1      38.655  28.782  29.199  1.00  0.00     0.058 A 
ATOM     79  C   UNL A   1      37.691  29.058  30.232  1.00  0.00     0.135 A 
ATOM     80  C   UNL A   1      38.341  29.384  27.976  1.00  0.00     0.135 A 
ATOM     81  F   UNL A   1      37.853  28.547  31.465  1.00  0.00    -0.206 F 
ATOM     82  C   UNL A   1      36.566  29.919  30.064  1.00  0.00     0.059 A 
ATOM     83  C   UNL A   1      37.241  30.249  27.791  1.00  0.00     0.059 A 
ATOM     84  F   UNL A   1      39.162  29.220  26.931  1.00  0.00    -0.206 F 
ATOM     85  C   UNL A   1      36.370  30.543  28.837  1.00  0.00     0.060 A 
BRANCH  85  86
ATOM     86  S   UNL A   1      35.086  31.829  28.615  1.00  0.00     0.124 S 
ATOM     87  O   UNL A   1      34.883  32.317  29.975  1.00  0.00    -0.237 OA
ATOM     88  O   UNL A   1      35.722  32.765  27.694  1.00  0.00    -0.237 OA
ATOM     89  O   UNL A   1      33.961  31.084  28.054  1.00  0.00    -0.744 OA
ENDBRANCH  85  86
ENDBRANCH  53  78
BRANCH  65  90
ATOM     90  C   UNL A   1      43.765  27.476  32.502  1.00  0.00     0.058 A 
ATOM     91  C   UNL A   1      43.747  26.065  32.488  1.00  0.00     0.135 A 
ATOM     92  C   UNL A   1      43.678  28.093  33.757  1.00  0.00     0.135 A 
ATOM     93  F   UNL A   1      43.928  25.384  31.346  1.00  0.00    -0.206 F 
ATOM     94  C   UNL A   1      43.602  25.316  33.666  1.00  0.00     0.059 A 
ATOM     95  C   UNL A   1      43.569  27.373  34.938  1.00  0.00     0.059 A 
ATOM     96  F   UNL A   1      43.759  29.431  33.849  1.00  0.00    -0.206 F 
ATOM     97  C   UNL A   1      43.507  25.985  34.888  1.00  0.00     0.060 A 
BRANCH  97  98
ATOM     98  S   UNL A   1      43.324  25.047  36.423  1.00  0.00     0.124 S 
ATOM     99  O   UNL A   1      44.136  23.864  36.159  1.00  0.00    -0.237 OA
ATOM    100  O   UNL A   1      43.852  25.970  37.423  1.00  0.00    -0.237 OA
ATOM    101  O   UNL A   1      41.884  24.807  36.507  1.00  0.00    -0.744 OA
ENDBRANCH  97  98
ENDBRANCH  65  90
ENDBRANCH  39  40
ENDBRANCH  32  34
ENDBRANCH  31  32
ENDBRANCH  30  31
ENDBRANCH   1  30
TORSDOF 20
ENDMDL
