MODEL 1
REMARK VINA RESULT:      -9.7      0.000      0.000
REMARK SMILES CC[NH2+][C@]1(C(=O)OCCOCCOC(=O)c2ccc(-c3c4nc(c(-c5c(F)cc(S(=O)(=O)[O-])cc5F)c5ccc([nH]5)c(-c5c(F)cc(S(=O)(=O)[O-])cc5F)c5nc(c(-c6c(F)cc(S(=O)(=O)[O-])cc6F)c6ccc3[nH]6)C=C5)C=C4)cc2)CCC[C@H]1CC[N@H+]1CCC[C@@H](CC)C1
REMARK SMILES IDX 9 1 8 2 7 3 5 4 6 5 4 6 82 7 85 8 83 9 84 10 3 11 2 14 1 15
REMARK SMILES IDX 86 16 87 17 88 18 89 19 95 20 90 22 92 23 91 24 93 25 94 26
REMARK SMILES IDX 10 27 11 28 12 29 13 30 14 31 15 32 16 33 17 34 81 35 18 36
REMARK SMILES IDX 80 37 19 38 20 39 21 40 74 41 22 42 79 43 73 44 75 45 23 46
REMARK SMILES IDX 78 47 72 48 71 49 24 51 58 52 37 53 57 54 38 55 41 56 56 57
REMARK SMILES IDX 76 58 39 59 40 60 55 62 77 63 42 64 25 65 26 66 35 67 27 68
REMARK SMILES IDX 28 69 34 70 36 71 29 72 30 73 31 74 32 75 33 76 59 77 60 78
REMARK SMILES IDX 69 79 61 80 62 81 68 82 70 83 63 84 64 85 65 86 66 87 67 88
REMARK SMILES IDX 43 89 44 90 53 91 45 92 46 93 52 94 54 95 47 96 48 97 49 98
REMARK SMILES IDX 50 99 51 100
REMARK H PARENT 3 12 3 13 88 21 75 50 41 61
REMARK Flexibility Score: inf
ROOT
ATOM      1  C   UNL A   1      37.903  22.221  25.204  1.00  0.00     0.202 C 
ENDROOT
BRANCH   1   2
ATOM      2  C   UNL A   1      36.611  21.856  25.943  1.00  0.00     0.261 C 
BRANCH   2   3
ATOM      3  O   UNL A   1      35.677  21.146  25.095  1.00  0.00    -0.459 OA
BRANCH   3   4
ATOM      4  C   UNL A   1      34.634  21.856  24.606  1.00  0.00     0.368 C 
ATOM      5  O   UNL A   1      34.766  22.672  23.694  1.00  0.00    -0.245 OA
BRANCH   4   6
ATOM      6  C   UNL A   1      33.274  21.599  25.344  1.00  0.00     0.197 C 
ATOM      7  C   UNL A   1      33.215  22.765  26.379  1.00  0.00     0.081 C 
ATOM      8  C   UNL A   1      31.881  21.765  24.646  1.00  0.00     0.068 C 
ATOM      9  C   UNL A   1      31.796  22.847  26.886  1.00  0.00     0.008 C 
ATOM     10  C   UNL A   1      30.937  22.296  25.761  1.00  0.00     0.011 C 
BRANCH   6  11
ATOM     11  N   UNL A   1      33.360  20.311  26.120  1.00  0.00    -0.332 N 
ATOM     12  H   UNL A   1      34.346  20.089  26.262  1.00  0.00     0.347 HD
ATOM     13  H   UNL A   1      32.857  20.462  26.994  1.00  0.00     0.347 HD
BRANCH  11  14
ATOM     14  C   UNL A   1      32.720  19.164  25.459  1.00  0.00     0.257 C 
ATOM     15  C   UNL A   1      33.638  18.542  24.419  1.00  0.00     0.071 C 
ENDBRANCH  11  14
ENDBRANCH   6  11
BRANCH   8  16
ATOM     16  C   UNL A   1      31.743  22.639  23.386  1.00  0.00     0.072 C 
BRANCH  16  17
ATOM     17  C   UNL A   1      31.369  24.110  23.635  1.00  0.00     0.262 C 
BRANCH  17  18
ATOM     18  N   UNL A   1      32.500  25.055  23.625  1.00  0.00    -0.335 N 
ATOM     19  C   UNL A   1      32.440  25.963  22.472  1.00  0.00     0.262 C 
ATOM     20  C   UNL A   1      32.493  25.837  24.873  1.00  0.00     0.265 C 
ATOM     21  H   UNL A   1      33.362  24.516  23.552  1.00  0.00     0.348 HD
ATOM     22  C   UNL A   1      33.600  26.962  22.472  1.00  0.00     0.062 C 
ATOM     23  C   UNL A   1      33.679  26.790  25.002  1.00  0.00     0.044 C 
ATOM     24  C   UNL A   1      33.730  27.726  23.787  1.00  0.00     0.015 C 
BRANCH  23  25
ATOM     25  C   UNL A   1      33.663  27.615  26.310  1.00  0.00     0.006 C 
ATOM     26  C   UNL A   1      34.218  29.034  26.238  1.00  0.00     0.004 C 
ENDBRANCH  23  25
ENDBRANCH  17  18
ENDBRANCH  16  17
ENDBRANCH   8  16
ENDBRANCH   4   6
ENDBRANCH   3   4
ENDBRANCH   2   3
ENDBRANCH   1   2
BRANCH   1  27
ATOM     27  O   UNL A   1      39.083  21.620  25.746  1.00  0.00    -0.374 OA
BRANCH  27  28
ATOM     28  C   UNL A   1      39.655  22.280  26.871  1.00  0.00     0.202 C 
BRANCH  28  29
ATOM     29  C   UNL A   1      40.186  23.694  26.583  1.00  0.00     0.261 C 
BRANCH  29  30
ATOM     30  O   UNL A   1      41.627  23.761  26.524  1.00  0.00    -0.460 OA
BRANCH  30  31
ATOM     31  C   UNL A   1      42.142  24.988  26.250  1.00  0.00     0.338 C 
ATOM     32  O   UNL A   1      42.733  25.316  25.233  1.00  0.00    -0.246 OA
BRANCH  31  33
ATOM     33  C   UNL A   1      41.790  25.957  27.316  1.00  0.00     0.060 A 
ATOM     34  C   UNL A   1      42.364  27.231  27.264  1.00  0.00     0.016 A 
ATOM     35  C   UNL A   1      40.950  25.629  28.381  1.00  0.00     0.016 A 
ATOM     36  C   UNL A   1      42.134  28.160  28.289  1.00  0.00     0.010 A 
ATOM     37  C   UNL A   1      40.685  26.582  29.380  1.00  0.00     0.010 A 
ATOM     38  C   UNL A   1      41.305  27.848  29.376  1.00  0.00    -0.014 A 
BRANCH  38  39
ATOM     39  C   UNL A   1      41.193  28.782  30.549  1.00  0.00     0.031 A 
ATOM     40  C   UNL A   1      40.139  29.870  30.544  1.00  0.00     0.074 A 
ATOM     41  C   UNL A   1      41.989  28.679  31.637  1.00  0.00     0.049 A 
ATOM     42  N   UNL A   1      39.822  30.720  31.492  1.00  0.00    -0.248 NA
ATOM     43  C   UNL A   1      39.340  30.027  29.320  1.00  0.00     0.031 C 
ATOM     44  C   UNL A   1      43.053  27.695  31.824  1.00  0.00     0.029 A 
ATOM     45  N   UNL A   1      42.039  29.425  32.795  1.00  0.00    -0.354 N 
ATOM     46  C   UNL A   1      38.774  31.480  30.988  1.00  0.00     0.074 A 
ATOM     47  C   UNL A   1      38.589  31.077  29.612  1.00  0.00     0.031 C 
ATOM     48  C   UNL A   1      43.690  27.934  32.984  1.00  0.00     0.029 A 
ATOM     49  C   UNL A   1      43.045  29.055  33.660  1.00  0.00     0.049 A 
ATOM     50  H   UNL A   1      41.411  30.159  32.986  1.00  0.00     0.167 HD
ATOM     51  C   UNL A   1      37.980  32.378  31.619  1.00  0.00     0.037 A 
ATOM     52  C   UNL A   1      43.396  29.529  34.874  1.00  0.00     0.037 A 
ATOM     53  C   UNL A   1      38.123  32.772  32.994  1.00  0.00     0.049 A 
ATOM     54  C   UNL A   1      42.536  30.566  35.547  1.00  0.00     0.074 A 
ATOM     55  C   UNL A   1      37.313  33.615  33.737  1.00  0.00     0.029 A 
ATOM     56  N   UNL A   1      39.144  32.358  33.833  1.00  0.00    -0.354 N 
ATOM     57  N   UNL A   1      41.464  31.169  35.095  1.00  0.00    -0.248 NA
ATOM     58  C   UNL A   1      42.899  30.941  36.924  1.00  0.00     0.031 C 
ATOM     59  C   UNL A   1      37.868  33.743  35.014  1.00  0.00     0.029 A 
ATOM     60  C   UNL A   1      38.998  32.945  35.081  1.00  0.00     0.049 A 
ATOM     61  H   UNL A   1      39.866  31.739  33.582  1.00  0.00     0.167 HD
ATOM     62  C   UNL A   1      40.989  31.942  36.150  1.00  0.00     0.074 A 
ATOM     63  C   UNL A   1      41.896  31.741  37.259  1.00  0.00     0.031 C 
ATOM     64  C   UNL A   1      39.887  32.731  36.195  1.00  0.00     0.037 A 
BRANCH  51  65
ATOM     65  C   UNL A   1      36.842  32.958  30.823  1.00  0.00     0.058 A 
ATOM     66  C   UNL A   1      37.061  33.973  29.876  1.00  0.00     0.135 A 
ATOM     67  C   UNL A   1      35.527  32.502  31.004  1.00  0.00     0.135 A 
ATOM     68  F   UNL A   1      38.299  34.453  29.674  1.00  0.00    -0.206 F 
ATOM     69  C   UNL A   1      36.012  34.554  29.177  1.00  0.00     0.059 A 
ATOM     70  C   UNL A   1      34.464  33.049  30.290  1.00  0.00     0.059 A 
ATOM     71  F   UNL A   1      35.263  31.530  31.891  1.00  0.00    -0.206 F 
ATOM     72  C   UNL A   1      34.715  34.090  29.397  1.00  0.00     0.060 A 
BRANCH  72  73
ATOM     73  S   UNL A   1      33.358  34.876  28.503  1.00  0.00     0.124 S 
ATOM     74  O   UNL A   1      32.568  35.422  29.601  1.00  0.00    -0.237 OA
ATOM     75  O   UNL A   1      34.055  35.856  27.676  1.00  0.00    -0.237 OA
ATOM     76  O   UNL A   1      32.744  33.770  27.776  1.00  0.00    -0.744 OA
ENDBRANCH  72  73
ENDBRANCH  51  65
BRANCH  52  77
ATOM     77  C   UNL A   1      44.579  28.968  35.587  1.00  0.00     0.058 A 
ATOM     78  C   UNL A   1      45.859  29.513  35.408  1.00  0.00     0.135 A 
ATOM     79  C   UNL A   1      44.456  27.855  36.433  1.00  0.00     0.135 A 
ATOM     80  F   UNL A   1      46.028  30.572  34.600  1.00  0.00    -0.206 F 
ATOM     81  C   UNL A   1      46.980  28.961  36.019  1.00  0.00     0.059 A 
ATOM     82  C   UNL A   1      45.560  27.297  37.073  1.00  0.00     0.059 A 
ATOM     83  F   UNL A   1      43.252  27.302  36.647  1.00  0.00    -0.206 F 
ATOM     84  C   UNL A   1      46.821  27.850  36.849  1.00  0.00     0.060 A 
BRANCH  84  85
ATOM     85  S   UNL A   1      48.283  27.159  37.654  1.00  0.00     0.124 S 
ATOM     86  O   UNL A   1      48.648  28.232  38.573  1.00  0.00    -0.237 OA
ATOM     87  O   UNL A   1      47.750  25.947  38.266  1.00  0.00    -0.237 OA
ATOM     88  O   UNL A   1      49.205  26.939  36.544  1.00  0.00    -0.744 OA
ENDBRANCH  84  85
ENDBRANCH  52  77
BRANCH  64  89
ATOM     89  C   UNL A   1      39.553  33.399  37.501  1.00  0.00     0.058 A 
ATOM     90  C   UNL A   1      38.622  32.854  38.399  1.00  0.00     0.135 A 
ATOM     91  C   UNL A   1      40.213  34.579  37.881  1.00  0.00     0.135 A 
ATOM     92  F   UNL A   1      37.959  31.730  38.085  1.00  0.00    -0.206 F 
ATOM     93  C   UNL A   1      38.338  33.469  39.615  1.00  0.00     0.059 A 
ATOM     94  C   UNL A   1      39.967  35.197  39.105  1.00  0.00     0.059 A 
ATOM     95  F   UNL A   1      41.121  35.140  37.066  1.00  0.00    -0.206 F 
ATOM     96  C   UNL A   1      39.017  34.640  39.959  1.00  0.00     0.060 A 
BRANCH  96  97
ATOM     97  S   UNL A   1      38.666  35.410  41.555  1.00  0.00     0.124 S 
ATOM     98  O   UNL A   1      38.766  36.828  41.225  1.00  0.00    -0.237 OA
ATOM     99  O   UNL A   1      37.322  34.921  41.849  1.00  0.00    -0.237 OA
ATOM    100  O   UNL A   1      39.718  34.890  42.423  1.00  0.00    -0.744 OA
ENDBRANCH  96  97
ENDBRANCH  64  89
ENDBRANCH  38  39
ENDBRANCH  31  33
ENDBRANCH  30  31
ENDBRANCH  29  30
ENDBRANCH  28  29
ENDBRANCH  27  28
ENDBRANCH   1  27
TORSDOF 23
ENDMDL
MODEL 2
REMARK VINA RESULT:      -9.7      1.551      8.177
REMARK SMILES CC[NH2+][C@]1(C(=O)OCCOCCOC(=O)c2ccc(-c3c4nc(c(-c5c(F)cc(S(=O)(=O)[O-])cc5F)c5ccc([nH]5)c(-c5c(F)cc(S(=O)(=O)[O-])cc5F)c5nc(c(-c6c(F)cc(S(=O)(=O)[O-])cc6F)c6ccc3[nH]6)C=C5)C=C4)cc2)CCC[C@H]1CC[N@H+]1CCC[C@@H](CC)C1
REMARK SMILES IDX 9 1 8 2 7 3 5 4 6 5 4 6 82 7 85 8 83 9 84 10 3 11 2 14 1 15
REMARK SMILES IDX 86 16 87 17 88 18 89 19 95 20 90 22 92 23 91 24 93 25 94 26
REMARK SMILES IDX 10 27 11 28 12 29 13 30 14 31 15 32 16 33 17 34 81 35 18 36
REMARK SMILES IDX 80 37 19 38 20 39 21 40 74 41 22 42 79 43 73 44 75 45 23 46
REMARK SMILES IDX 78 47 72 48 71 49 24 51 58 52 37 53 57 54 38 55 41 56 56 57
REMARK SMILES IDX 76 58 39 59 40 60 55 62 77 63 42 64 25 65 26 66 35 67 27 68
REMARK SMILES IDX 28 69 34 70 36 71 29 72 30 73 31 74 32 75 33 76 59 77 60 78
REMARK SMILES IDX 69 79 61 80 62 81 68 82 70 83 63 84 64 85 65 86 66 87 67 88
REMARK SMILES IDX 43 89 44 90 53 91 45 92 46 93 52 94 54 95 47 96 48 97 49 98
REMARK SMILES IDX 50 99 51 100
REMARK H PARENT 3 12 3 13 88 21 75 50 41 61
REMARK Flexibility Score: inf
ROOT
ATOM      1  C   UNL A   1      37.986  21.326  25.030  1.00  0.00     0.202 C 
ENDROOT
BRANCH   1   2
ATOM      2  C   UNL A   1      36.587  21.045  25.587  1.00  0.00     0.261 C 
BRANCH   2   3
ATOM      3  O   UNL A   1      35.590  21.942  25.042  1.00  0.00    -0.459 OA
BRANCH   3   4
ATOM      4  C   UNL A   1      34.608  22.347  25.880  1.00  0.00     0.368 C 
ATOM      5  O   UNL A   1      34.844  22.771  27.011  1.00  0.00    -0.245 OA
BRANCH   4   6
ATOM      6  C   UNL A   1      33.157  22.163  25.312  1.00  0.00     0.197 C 
ATOM      7  C   UNL A   1      32.352  23.278  26.049  1.00  0.00     0.081 C 
ATOM      8  C   UNL A   1      32.779  22.475  23.823  1.00  0.00     0.068 C 
ATOM      9  C   UNL A   1      31.043  23.448  25.318  1.00  0.00     0.008 C 
ATOM     10  C   UNL A   1      31.326  23.025  23.888  1.00  0.00     0.011 C 
BRANCH   6  11
ATOM     11  N   UNL A   1      32.606  20.836  25.762  1.00  0.00    -0.332 N 
ATOM     12  H   UNL A   1      33.238  20.449  26.463  1.00  0.00     0.347 HD
ATOM     13  H   UNL A   1      31.671  21.016  26.127  1.00  0.00     0.347 HD
BRANCH  11  14
ATOM     14  C   UNL A   1      32.454  19.849  24.684  1.00  0.00     0.257 C 
ATOM     15  C   UNL A   1      33.724  19.034  24.496  1.00  0.00     0.071 C 
ENDBRANCH  11  14
ENDBRANCH   6  11
BRANCH   8  16
ATOM     16  C   UNL A   1      33.657  23.419  22.981  1.00  0.00     0.072 C 
BRANCH  16  17
ATOM     17  C   UNL A   1      32.959  24.685  22.457  1.00  0.00     0.262 C 
BRANCH  17  18
ATOM     18  N   UNL A   1      33.582  25.957  22.862  1.00  0.00    -0.335 N 
ATOM     19  C   UNL A   1      33.350  27.017  21.872  1.00  0.00     0.262 C 
ATOM     20  C   UNL A   1      33.039  26.372  24.168  1.00  0.00     0.265 C 
ATOM     21  H   UNL A   1      34.588  25.810  22.930  1.00  0.00     0.348 HD
ATOM     22  C   UNL A   1      33.974  28.347  22.302  1.00  0.00     0.062 C 
ATOM     23  C   UNL A   1      33.685  27.641  24.721  1.00  0.00     0.044 C 
ATOM     24  C   UNL A   1      33.551  28.780  23.703  1.00  0.00     0.015 C 
BRANCH  23  25
ATOM     25  C   UNL A   1      33.107  28.076  26.087  1.00  0.00     0.006 C 
ATOM     26  C   UNL A   1      34.093  28.636  27.108  1.00  0.00     0.004 C 
ENDBRANCH  23  25
ENDBRANCH  17  18
ENDBRANCH  16  17
ENDBRANCH   8  16
ENDBRANCH   4   6
ENDBRANCH   3   4
ENDBRANCH   2   3
ENDBRANCH   1   2
BRANCH   1  27
ATOM     27  O   UNL A   1      38.920  21.813  25.999  1.00  0.00    -0.374 OA
BRANCH  27  28
ATOM     28  C   UNL A   1      38.533  22.993  26.696  1.00  0.00     0.202 C 
BRANCH  28  29
ATOM     29  C   UNL A   1      39.140  24.293  26.141  1.00  0.00     0.261 C 
BRANCH  29  30
ATOM     30  O   UNL A   1      40.408  24.633  26.742  1.00  0.00    -0.460 OA
BRANCH  30  31
ATOM     31  C   UNL A   1      40.829  25.907  26.530  1.00  0.00     0.338 C 
ATOM     32  O   UNL A   1      41.297  26.353  25.494  1.00  0.00    -0.246 OA
BRANCH  31  33
ATOM     33  C   UNL A   1      40.538  26.761  27.707  1.00  0.00     0.060 A 
ATOM     34  C   UNL A   1      41.247  27.960  27.842  1.00  0.00     0.016 A 
ATOM     35  C   UNL A   1      39.625  26.393  28.694  1.00  0.00     0.016 A 
ATOM     36  C   UNL A   1      41.073  28.766  28.977  1.00  0.00     0.010 A 
ATOM     37  C   UNL A   1      39.420  27.230  29.805  1.00  0.00     0.010 A 
ATOM     38  C   UNL A   1      40.171  28.408  29.988  1.00  0.00    -0.014 A 
BRANCH  38  39
ATOM     39  C   UNL A   1      40.110  29.188  31.273  1.00  0.00     0.031 A 
ATOM     40  C   UNL A   1      41.075  28.865  32.394  1.00  0.00     0.074 A 
ATOM     41  C   UNL A   1      39.232  30.198  31.467  1.00  0.00     0.049 A 
ATOM     42  N   UNL A   1      41.243  29.475  33.544  1.00  0.00    -0.248 NA
ATOM     43  C   UNL A   1      41.965  27.709  32.205  1.00  0.00     0.031 C 
ATOM     44  C   UNL A   1      38.233  30.655  30.504  1.00  0.00     0.029 A 
ATOM     45  N   UNL A   1      39.025  31.020  32.554  1.00  0.00    -0.354 N 
ATOM     46  C   UNL A   1      42.271  28.797  34.188  1.00  0.00     0.074 A 
ATOM     47  C   UNL A   1      42.606  27.660  33.361  1.00  0.00     0.031 C 
ATOM     48  C   UNL A   1      37.481  31.622  31.058  1.00  0.00     0.029 A 
ATOM     49  C   UNL A   1      37.978  31.901  32.401  1.00  0.00     0.049 A 
ATOM     50  H   UNL A   1      39.577  30.979  33.368  1.00  0.00     0.167 HD
ATOM     51  C   UNL A   1      42.938  29.121  35.322  1.00  0.00     0.037 A 
ATOM     52  C   UNL A   1      37.488  32.854  33.222  1.00  0.00     0.037 A 
ATOM     53  C   UNL A   1      42.646  30.263  36.144  1.00  0.00     0.049 A 
ATOM     54  C   UNL A   1      38.205  33.172  34.508  1.00  0.00     0.074 A 
ATOM     55  C   UNL A   1      43.322  30.711  37.267  1.00  0.00     0.029 A 
ATOM     56  N   UNL A   1      41.589  31.135  35.941  1.00  0.00    -0.354 N 
ATOM     57  N   UNL A   1      39.264  32.599  35.026  1.00  0.00    -0.248 NA
ATOM     58  C   UNL A   1      37.696  34.310  35.292  1.00  0.00     0.031 C 
ATOM     59  C   UNL A   1      42.649  31.831  37.766  1.00  0.00     0.029 A 
ATOM     60  C   UNL A   1      41.581  32.107  36.929  1.00  0.00     0.049 A 
ATOM     61  H   UNL A   1      40.941  31.075  35.204  1.00  0.00     0.167 HD
ATOM     62  C   UNL A   1      39.586  33.345  36.156  1.00  0.00     0.074 A 
ATOM     63  C   UNL A   1      38.603  34.402  36.254  1.00  0.00     0.031 C 
ATOM     64  C   UNL A   1      40.617  33.175  37.019  1.00  0.00     0.037 A 
BRANCH  51  65
ATOM     65  C   UNL A   1      44.094  28.239  35.707  1.00  0.00     0.058 A 
ATOM     66  C   UNL A   1      45.376  28.446  35.169  1.00  0.00     0.135 A 
ATOM     67  C   UNL A   1      43.926  27.182  36.615  1.00  0.00     0.135 A 
ATOM     68  F   UNL A   1      45.588  29.436  34.287  1.00  0.00    -0.206 F 
ATOM     69  C   UNL A   1      46.438  27.604  35.475  1.00  0.00     0.059 A 
ATOM     70  C   UNL A   1      44.984  26.345  36.960  1.00  0.00     0.059 A 
ATOM     71  F   UNL A   1      42.725  26.945  37.164  1.00  0.00    -0.206 F 
ATOM     72  C   UNL A   1      46.229  26.551  36.366  1.00  0.00     0.060 A 
BRANCH  72  73
ATOM     73  S   UNL A   1      47.611  25.448  36.729  1.00  0.00     0.124 S 
ATOM     74  O   UNL A   1      47.211  24.902  38.023  1.00  0.00    -0.237 OA
ATOM     75  O   UNL A   1      47.568  24.513  35.609  1.00  0.00    -0.237 OA
ATOM     76  O   UNL A   1      48.763  26.342  36.753  1.00  0.00    -0.744 OA
ENDBRANCH  72  73
ENDBRANCH  51  65
BRANCH  52  77
ATOM     77  C   UNL A   1      36.293  33.650  32.822  1.00  0.00     0.058 A 
ATOM     78  C   UNL A   1      35.060  33.481  33.469  1.00  0.00     0.135 A 
ATOM     79  C   UNL A   1      36.355  34.569  31.763  1.00  0.00     0.135 A 
ATOM     80  F   UNL A   1      34.949  32.606  34.481  1.00  0.00    -0.206 F 
ATOM     81  C   UNL A   1      33.922  34.172  33.064  1.00  0.00     0.059 A 
ATOM     82  C   UNL A   1      35.234  35.289  31.353  1.00  0.00     0.059 A 
ATOM     83  F   UNL A   1      37.513  34.776  31.118  1.00  0.00    -0.206 F 
ATOM     84  C   UNL A   1      34.019  35.073  32.003  1.00  0.00     0.060 A 
BRANCH  84  85
ATOM     85  S   UNL A   1      32.538  35.982  31.505  1.00  0.00     0.124 S 
ATOM     86  O   UNL A   1      32.925  37.358  31.797  1.00  0.00    -0.237 OA
ATOM     87  O   UNL A   1      32.428  35.634  30.093  1.00  0.00    -0.237 OA
ATOM     88  O   UNL A   1      31.498  35.423  32.364  1.00  0.00    -0.744 OA
ENDBRANCH  84  85
ENDBRANCH  52  77
BRANCH  64  89
ATOM     89  C   UNL A   1      40.785  34.184  38.123  1.00  0.00     0.058 A 
ATOM     90  C   UNL A   1      41.540  35.355  37.952  1.00  0.00     0.135 A 
ATOM     91  C   UNL A   1      40.137  33.999  39.355  1.00  0.00     0.135 A 
ATOM     92  F   UNL A   1      42.184  35.581  36.797  1.00  0.00    -0.206 F 
ATOM     93  C   UNL A   1      41.669  36.292  38.973  1.00  0.00     0.059 A 
ATOM     94  C   UNL A   1      40.228  34.937  40.380  1.00  0.00     0.059 A 
ATOM     95  F   UNL A   1      39.392  32.902  39.571  1.00  0.00    -0.206 F 
ATOM     96  C   UNL A   1      41.007  36.075  40.183  1.00  0.00     0.060 A 
BRANCH  96  97
ATOM     97  S   UNL A   1      41.153  37.315  41.488  1.00  0.00     0.124 S 
ATOM     98  O   UNL A   1      41.808  36.554  42.545  1.00  0.00    -0.237 OA
ATOM     99  O   UNL A   1      41.969  38.345  40.850  1.00  0.00    -0.237 OA
ATOM    100  O   UNL A   1      39.769  37.696  41.751  1.00  0.00    -0.744 OA
ENDBRANCH  96  97
ENDBRANCH  64  89
ENDBRANCH  38  39
ENDBRANCH  31  33
ENDBRANCH  30  31
ENDBRANCH  29  30
ENDBRANCH  28  29
ENDBRANCH  27  28
ENDBRANCH   1  27
TORSDOF 23
ENDMDL
MODEL 3
REMARK VINA RESULT:      -8.8      6.613     13.968
REMARK SMILES CC[NH2+][C@]1(C(=O)OCCOCCOC(=O)c2ccc(-c3c4nc(c(-c5c(F)cc(S(=O)(=O)[O-])cc5F)c5ccc([nH]5)c(-c5c(F)cc(S(=O)(=O)[O-])cc5F)c5nc(c(-c6c(F)cc(S(=O)(=O)[O-])cc6F)c6ccc3[nH]6)C=C5)C=C4)cc2)CCC[C@H]1CC[N@H+]1CCC[C@@H](CC)C1
REMARK SMILES IDX 9 1 8 2 7 3 5 4 6 5 4 6 82 7 85 8 83 9 84 10 3 11 2 14 1 15
REMARK SMILES IDX 86 16 87 17 88 18 89 19 95 20 90 22 92 23 91 24 93 25 94 26
REMARK SMILES IDX 10 27 11 28 12 29 13 30 14 31 15 32 16 33 17 34 81 35 18 36
REMARK SMILES IDX 80 37 19 38 20 39 21 40 74 41 22 42 79 43 73 44 75 45 23 46
REMARK SMILES IDX 78 47 72 48 71 49 24 51 58 52 37 53 57 54 38 55 41 56 56 57
REMARK SMILES IDX 76 58 39 59 40 60 55 62 77 63 42 64 25 65 26 66 35 67 27 68
REMARK SMILES IDX 28 69 34 70 36 71 29 72 30 73 31 74 32 75 33 76 59 77 60 78
REMARK SMILES IDX 69 79 61 80 62 81 68 82 70 83 63 84 64 85 65 86 66 87 67 88
REMARK SMILES IDX 43 89 44 90 53 91 45 92 46 93 52 94 54 95 47 96 48 97 49 98
REMARK SMILES IDX 50 99 51 100
REMARK H PARENT 3 12 3 13 88 21 75 50 41 61
REMARK Flexibility Score: inf
ROOT
ATOM      1  C   UNL A   1      38.140  34.231  33.846  1.00  0.00     0.202 C 
ENDROOT
BRANCH   1   2
ATOM      2  C   UNL A   1      39.597  34.433  33.415  1.00  0.00     0.261 C 
BRANCH   2   3
ATOM      3  O   UNL A   1      40.524  33.723  34.271  1.00  0.00    -0.459 OA
BRANCH   3   4
ATOM      4  C   UNL A   1      41.552  33.087  33.664  1.00  0.00     0.368 C 
ATOM      5  O   UNL A   1      41.847  33.292  32.486  1.00  0.00    -0.245 OA
BRANCH   4   6
ATOM      6  C   UNL A   1      42.279  32.028  34.564  1.00  0.00     0.197 C 
ATOM      7  C   UNL A   1      41.234  30.874  34.656  1.00  0.00     0.081 C 
ATOM      8  C   UNL A   1      43.544  31.232  34.092  1.00  0.00     0.068 C 
ATOM      9  C   UNL A   1      41.954  29.653  35.175  1.00  0.00     0.008 C 
ATOM     10  C   UNL A   1      43.400  29.830  34.747  1.00  0.00     0.011 C 
BRANCH   6  11
ATOM     11  N   UNL A   1      42.457  32.587  35.952  1.00  0.00    -0.332 N 
ATOM     12  H   UNL A   1      41.803  33.361  36.070  1.00  0.00     0.347 HD
ATOM     13  H   UNL A   1      42.285  31.819  36.600  1.00  0.00     0.347 HD
BRANCH  11  14
ATOM     14  C   UNL A   1      43.812  33.081  36.234  1.00  0.00     0.257 C 
ATOM     15  C   UNL A   1      43.789  34.530  36.693  1.00  0.00     0.071 C 
ENDBRANCH  11  14
ENDBRANCH   6  11
BRANCH   8  16
ATOM     16  C   UNL A   1      43.848  31.078  32.590  1.00  0.00     0.072 C 
BRANCH  16  17
ATOM     17  C   UNL A   1      43.946  29.632  32.077  1.00  0.00     0.262 C 
BRANCH  17  18
ATOM     18  N   UNL A   1      45.310  29.077  32.020  1.00  0.00    -0.335 N 
ATOM     19  C   UNL A   1      45.442  28.066  30.964  1.00  0.00     0.262 C 
ATOM     20  C   UNL A   1      46.271  30.169  31.784  1.00  0.00     0.265 C 
ATOM     21  H   UNL A   1      45.504  28.624  32.912  1.00  0.00     0.348 HD
ATOM     22  C   UNL A   1      46.865  27.505  30.886  1.00  0.00     0.062 C 
ATOM     23  C   UNL A   1      47.727  29.711  31.794  1.00  0.00     0.044 C 
ATOM     24  C   UNL A   1      47.929  28.592  30.764  1.00  0.00     0.015 C 
BRANCH  23  25
ATOM     25  C   UNL A   1      48.732  30.858  31.538  1.00  0.00     0.006 C 
ATOM     26  C   UNL A   1      50.032  30.493  30.828  1.00  0.00     0.004 C 
ENDBRANCH  23  25
ENDBRANCH  17  18
ENDBRANCH  16  17
ENDBRANCH   8  16
ENDBRANCH   4   6
ENDBRANCH   3   4
ENDBRANCH   2   3
ENDBRANCH   1   2
BRANCH   1  27
ATOM     27  O   UNL A   1      37.184  34.917  33.031  1.00  0.00    -0.374 OA
BRANCH  27  28
ATOM     28  C   UNL A   1      35.893  34.320  32.951  1.00  0.00     0.202 C 
BRANCH  28  29
ATOM     29  C   UNL A   1      35.899  32.783  32.904  1.00  0.00     0.261 C 
BRANCH  29  30
ATOM     30  O   UNL A   1      36.507  32.251  31.708  1.00  0.00    -0.460 OA
BRANCH  30  31
ATOM     31  C   UNL A   1      36.839  30.934  31.760  1.00  0.00     0.338 C 
ATOM     32  O   UNL A   1      36.133  30.024  32.166  1.00  0.00    -0.246 OA
BRANCH  31  33
ATOM     33  C   UNL A   1      38.163  30.700  31.133  1.00  0.00     0.060 A 
ATOM     34  C   UNL A   1      38.232  30.655  29.737  1.00  0.00     0.016 A 
ATOM     35  C   UNL A   1      39.319  30.480  31.882  1.00  0.00     0.016 A 
ATOM     36  C   UNL A   1      39.441  30.354  29.092  1.00  0.00     0.010 A 
ATOM     37  C   UNL A   1      40.537  30.227  31.229  1.00  0.00     0.010 A 
ATOM     38  C   UNL A   1      40.612  30.116  29.825  1.00  0.00    -0.014 A 
BRANCH  38  39
ATOM     39  C   UNL A   1      41.862  29.635  29.140  1.00  0.00     0.031 A 
ATOM     40  C   UNL A   1      42.987  30.608  28.859  1.00  0.00     0.074 A 
ATOM     41  C   UNL A   1      42.038  28.343  28.778  1.00  0.00     0.049 A 
ATOM     42  N   UNL A   1      44.177  30.376  28.358  1.00  0.00    -0.248 NA
ATOM     43  C   UNL A   1      42.748  32.024  29.178  1.00  0.00     0.031 C 
ATOM     44  C   UNL A   1      41.072  27.265  28.970  1.00  0.00     0.029 A 
ATOM     45  N   UNL A   1      43.094  27.716  28.152  1.00  0.00    -0.354 N 
ATOM     46  C   UNL A   1      44.828  31.604  28.336  1.00  0.00     0.074 A 
ATOM     47  C   UNL A   1      43.864  32.596  28.756  1.00  0.00     0.031 C 
ATOM     48  C   UNL A   1      41.544  26.132  28.421  1.00  0.00     0.029 A 
ATOM     49  C   UNL A   1      42.878  26.383  27.885  1.00  0.00     0.049 A 
ATOM     50  H   UNL A   1      43.930  28.182  27.918  1.00  0.00     0.167 HD
ATOM     51  C   UNL A   1      46.125  31.886  28.068  1.00  0.00     0.037 A 
ATOM     52  C   UNL A   1      43.666  25.450  27.309  1.00  0.00     0.037 A 
ATOM     53  C   UNL A   1      47.110  30.914  27.680  1.00  0.00     0.049 A 
ATOM     54  C   UNL A   1      45.093  25.787  26.965  1.00  0.00     0.074 A 
ATOM     55  C   UNL A   1      48.466  31.100  27.466  1.00  0.00     0.029 A 
ATOM     56  N   UNL A   1      46.849  29.576  27.438  1.00  0.00    -0.354 N 
ATOM     57  N   UNL A   1      45.722  26.931  27.086  1.00  0.00    -0.248 NA
ATOM     58  C   UNL A   1      45.936  24.689  26.466  1.00  0.00     0.031 C 
ATOM     59  C   UNL A   1      49.017  29.882  27.056  1.00  0.00     0.029 A 
ATOM     60  C   UNL A   1      48.013  28.927  27.057  1.00  0.00     0.049 A 
ATOM     61  H   UNL A   1      45.967  29.148  27.525  1.00  0.00     0.167 HD
ATOM     62  C   UNL A   1      47.046  26.674  26.741  1.00  0.00     0.074 A 
ATOM     63  C   UNL A   1      47.125  25.272  26.395  1.00  0.00     0.031 C 
ATOM     64  C   UNL A   1      48.101  27.526  26.733  1.00  0.00     0.037 A 
BRANCH  51  65
ATOM     65  C   UNL A   1      46.560  33.316  28.242  1.00  0.00     0.058 A 
ATOM     66  C   UNL A   1      46.764  34.153  27.131  1.00  0.00     0.135 A 
ATOM     67  C   UNL A   1      46.777  33.856  29.519  1.00  0.00     0.135 A 
ATOM     68  F   UNL A   1      46.582  33.681  25.887  1.00  0.00    -0.206 F 
ATOM     69  C   UNL A   1      47.220  35.457  27.276  1.00  0.00     0.059 A 
ATOM     70  C   UNL A   1      47.203  35.171  29.689  1.00  0.00     0.059 A 
ATOM     71  F   UNL A   1      46.590  33.103  30.613  1.00  0.00    -0.206 F 
ATOM     72  C   UNL A   1      47.444  35.954  28.561  1.00  0.00     0.060 A 
BRANCH  72  73
ATOM     73  S   UNL A   1      48.064  37.640  28.732  1.00  0.00     0.124 S 
ATOM     74  O   UNL A   1      49.485  37.454  28.452  1.00  0.00    -0.237 OA
ATOM     75  O   UNL A   1      47.307  38.358  27.710  1.00  0.00    -0.237 OA
ATOM     76  O   UNL A   1      47.735  37.985  30.110  1.00  0.00    -0.744 OA
ENDBRANCH  72  73
ENDBRANCH  51  65
BRANCH  52  77
ATOM     77  C   UNL A   1      43.157  24.066  27.093  1.00  0.00     0.058 A 
ATOM     78  C   UNL A   1      43.122  23.135  28.142  1.00  0.00     0.135 A 
ATOM     79  C   UNL A   1      42.729  23.639  25.827  1.00  0.00     0.135 A 
ATOM     80  F   UNL A   1      43.530  23.494  29.369  1.00  0.00    -0.206 F 
ATOM     81  C   UNL A   1      42.708  21.823  27.940  1.00  0.00     0.059 A 
ATOM     82  C   UNL A   1      42.290  22.335  25.604  1.00  0.00     0.059 A 
ATOM     83  F   UNL A   1      42.733  24.493  24.792  1.00  0.00    -0.206 F 
ATOM     84  C   UNL A   1      42.296  21.431  26.665  1.00  0.00     0.060 A 
BRANCH  84  85
ATOM     85  S   UNL A   1      41.738  19.729  26.425  1.00  0.00     0.124 S 
ATOM     86  O   UNL A   1      42.253  19.078  27.624  1.00  0.00    -0.237 OA
ATOM     87  O   UNL A   1      40.290  19.890  26.356  1.00  0.00    -0.237 OA
ATOM     88  O   UNL A   1      42.378  19.340  25.171  1.00  0.00    -0.744 OA
ENDBRANCH  84  85
ENDBRANCH  52  77
BRANCH  64  89
ATOM     89  C   UNL A   1      49.456  26.965  26.395  1.00  0.00     0.058 A 
ATOM     90  C   UNL A   1      49.920  26.888  25.073  1.00  0.00     0.135 A 
ATOM     91  C   UNL A   1      50.322  26.542  27.417  1.00  0.00     0.135 A 
ATOM     92  F   UNL A   1      49.133  27.273  24.057  1.00  0.00    -0.206 F 
ATOM     93  C   UNL A   1      51.185  26.389  24.774  1.00  0.00     0.059 A 
ATOM     94  C   UNL A   1      51.602  26.066  27.144  1.00  0.00     0.059 A 
ATOM     95  F   UNL A   1      49.934  26.603  28.701  1.00  0.00    -0.206 F 
ATOM     96  C   UNL A   1      52.019  25.982  25.817  1.00  0.00     0.060 A 
BRANCH  96  97
ATOM     97  S   UNL A   1      53.670  25.368  25.420  1.00  0.00     0.124 S 
ATOM     98  O   UNL A   1      53.517  23.936  25.656  1.00  0.00    -0.237 OA
ATOM     99  O   UNL A   1      53.824  25.766  24.023  1.00  0.00    -0.237 OA
ATOM    100  O   UNL A   1      54.532  26.073  26.364  1.00  0.00    -0.744 OA
ENDBRANCH  96  97
ENDBRANCH  64  89
ENDBRANCH  38  39
ENDBRANCH  31  33
ENDBRANCH  30  31
ENDBRANCH  29  30
ENDBRANCH  28  29
ENDBRANCH  27  28
ENDBRANCH   1  27
TORSDOF 23
ENDMDL
