MODEL 1
REMARK VINA RESULT:     -12.2      0.000      0.000
REMARK SMILES O=C(OCCOCCOC(=O)[C@@H]1[C@@H](C(=O)N2CCN(c3cccc(Cl)c3)CC2)[C@H]2CC[C@@H]1O2)c1ccc(-c2c3nc(c(-c4c(F)cc(S(=O)(=O)[O-])cc4F)c4ccc([nH]4)c(-c4c(F)cc(S(=O)(=O)[O-])cc4F)c4nc(c(-c5c(F)cc(S(=O)(=O)[O-])cc5F)c5ccc2[nH]5)C=C4)C=C3)cc1
REMARK SMILES IDX 5 1 4 2 3 3 2 4 1 5 34 6 35 7 99 8 36 9 98 10 37 11 38 12
REMARK SMILES IDX 39 13 92 14 40 15 97 16 91 17 93 18 41 19 96 20 90 21 89 22
REMARK SMILES IDX 42 24 76 25 55 26 75 27 56 28 59 29 74 30 94 31 57 32 58 33
REMARK SMILES IDX 73 35 95 36 60 37 43 38 44 39 53 40 45 41 46 42 52 43 54 44
REMARK SMILES IDX 47 45 48 46 49 47 50 48 51 49 77 50 78 51 87 52 79 53 80 54
REMARK SMILES IDX 86 55 88 56 81 57 82 58 83 59 84 60 85 61 61 62 62 63 71 64
REMARK SMILES IDX 63 65 64 66 70 67 72 68 65 69 66 70 67 71 68 72 69 73 6 74
REMARK SMILES IDX 7 75 8 76 9 77 10 78 11 79 12 80 13 81 32 82 29 83 31 84
REMARK SMILES IDX 33 85 30 86 14 87 15 88 16 89 17 90 28 91 18 92 27 93 19 94
REMARK SMILES IDX 20 95 21 96 26 97 22 98 24 99 23 100 25 101
REMARK H PARENT 93 23 59 34
REMARK Flexibility Score: inf
ROOT
ATOM      1  C   UNL A   1      34.506  31.785  27.764  1.00  0.00     0.202 C 
ENDROOT
BRANCH   1   2
ATOM      2  C   UNL A   1      35.188  32.100  29.100  1.00  0.00     0.261 C 
BRANCH   2   3
ATOM      3  O   UNL A   1      35.654  30.894  29.722  1.00  0.00    -0.460 OA
BRANCH   3   4
ATOM      4  C   UNL A   1      36.722  30.729  30.538  1.00  0.00     0.338 C 
ATOM      5  O   UNL A   1      36.600  31.022  31.726  1.00  0.00    -0.246 OA
BRANCH   4   6
ATOM      6  C   UNL A   1      38.040  30.206  30.072  1.00  0.00     0.060 A 
ATOM      7  C   UNL A   1      39.062  29.749  30.909  1.00  0.00     0.016 A 
ATOM      8  C   UNL A   1      38.223  30.088  28.685  1.00  0.00     0.016 A 
ATOM      9  C   UNL A   1      40.258  29.273  30.404  1.00  0.00     0.010 A 
ATOM     10  C   UNL A   1      39.408  29.566  28.162  1.00  0.00     0.010 A 
ATOM     11  C   UNL A   1      40.436  29.183  29.029  1.00  0.00    -0.014 A 
BRANCH  11  12
ATOM     12  C   UNL A   1      41.769  28.796  28.550  1.00  0.00     0.031 A 
ATOM     13  C   UNL A   1      42.858  29.820  28.609  1.00  0.00     0.074 A 
ATOM     14  C   UNL A   1      42.003  27.512  28.230  1.00  0.00     0.049 A 
ATOM     15  N   UNL A   1      44.104  29.722  28.242  1.00  0.00    -0.248 NA
ATOM     16  C   UNL A   1      42.496  31.129  29.181  1.00  0.00     0.031 C 
ATOM     17  C   UNL A   1      41.011  26.434  28.294  1.00  0.00     0.029 A 
ATOM     18  N   UNL A   1      43.150  26.887  27.829  1.00  0.00    -0.354 N 
ATOM     19  C   UNL A   1      44.669  30.962  28.507  1.00  0.00     0.074 A 
ATOM     20  C   UNL A   1      43.631  31.799  29.066  1.00  0.00     0.031 C 
ATOM     21  C   UNL A   1      41.602  25.275  27.966  1.00  0.00     0.029 A 
ATOM     22  C   UNL A   1      42.989  25.541  27.602  1.00  0.00     0.049 A 
ATOM     23  H   UNL A   1      44.009  27.354  27.714  1.00  0.00     0.167 HD
ATOM     24  C   UNL A   1      45.942  31.359  28.285  1.00  0.00     0.037 A 
ATOM     25  C   UNL A   1      43.865  24.641  27.118  1.00  0.00     0.037 A 
ATOM     26  C   UNL A   1      46.937  30.492  27.714  1.00  0.00     0.049 A 
ATOM     27  C   UNL A   1      45.246  25.132  26.779  1.00  0.00     0.074 A 
ATOM     28  C   UNL A   1      48.240  30.780  27.363  1.00  0.00     0.029 A 
ATOM     29  N   UNL A   1      46.720  29.153  27.404  1.00  0.00    -0.354 N 
ATOM     30  N   UNL A   1      45.756  26.331  26.950  1.00  0.00    -0.248 NA
ATOM     31  C   UNL A   1      46.162  24.166  26.165  1.00  0.00     0.031 C 
ATOM     32  C   UNL A   1      48.798  29.626  26.798  1.00  0.00     0.029 A 
ATOM     33  C   UNL A   1      47.859  28.604  26.848  1.00  0.00     0.049 A 
ATOM     34  H   UNL A   1      45.877  28.667  27.559  1.00  0.00     0.167 HD
ATOM     35  C   UNL A   1      47.060  26.262  26.479  1.00  0.00     0.074 A 
ATOM     36  C   UNL A   1      47.261  24.897  26.028  1.00  0.00     0.031 C 
ATOM     37  C   UNL A   1      48.007  27.233  26.417  1.00  0.00     0.037 A 
BRANCH  24  38
ATOM     38  C   UNL A   1      46.266  32.798  28.574  1.00  0.00     0.058 A 
ATOM     39  C   UNL A   1      46.729  33.223  29.831  1.00  0.00     0.135 A 
ATOM     40  C   UNL A   1      46.035  33.779  27.598  1.00  0.00     0.135 A 
ATOM     41  F   UNL A   1      46.933  32.332  30.814  1.00  0.00    -0.206 F 
ATOM     42  C   UNL A   1      46.905  34.573  30.122  1.00  0.00     0.059 A 
ATOM     43  C   UNL A   1      46.230  35.132  27.858  1.00  0.00     0.059 A 
ATOM     44  F   UNL A   1      45.579  33.431  26.384  1.00  0.00    -0.206 F 
ATOM     45  C   UNL A   1      46.641  35.521  29.132  1.00  0.00     0.060 A 
BRANCH  45  46
ATOM     46  S   UNL A   1      46.814  37.271  29.540  1.00  0.00     0.124 S 
ATOM     47  O   UNL A   1      47.623  37.208  30.753  1.00  0.00    -0.237 OA
ATOM     48  O   UNL A   1      47.484  37.804  28.358  1.00  0.00    -0.237 OA
ATOM     49  O   UNL A   1      45.435  37.715  29.728  1.00  0.00    -0.744 OA
ENDBRANCH  45  46
ENDBRANCH  24  38
BRANCH  25  50
ATOM     50  C   UNL A   1      43.443  23.234  26.889  1.00  0.00     0.058 A 
ATOM     51  C   UNL A   1      43.288  22.715  25.596  1.00  0.00     0.135 A 
ATOM     52  C   UNL A   1      43.218  22.361  27.968  1.00  0.00     0.135 A 
ATOM     53  F   UNL A   1      43.479  23.507  24.530  1.00  0.00    -0.206 F 
ATOM     54  C   UNL A   1      42.923  21.388  25.379  1.00  0.00     0.059 A 
ATOM     55  C   UNL A   1      42.878  21.026  27.778  1.00  0.00     0.059 A 
ATOM     56  F   UNL A   1      43.360  22.799  29.230  1.00  0.00    -0.206 F 
ATOM     57  C   UNL A   1      42.726  20.549  26.478  1.00  0.00     0.060 A 
BRANCH  57  58
ATOM     58  S   UNL A   1      42.299  18.817  26.189  1.00  0.00     0.124 S 
ATOM     59  O   UNL A   1      42.557  18.228  27.499  1.00  0.00    -0.237 OA
ATOM     60  O   UNL A   1      40.898  18.906  25.792  1.00  0.00    -0.237 OA
ATOM     61  O   UNL A   1      43.218  18.416  25.128  1.00  0.00    -0.744 OA
ENDBRANCH  57  58
ENDBRANCH  25  50
BRANCH  37  62
ATOM     62  C   UNL A   1      49.347  26.836  25.872  1.00  0.00     0.058 A 
ATOM     63  C   UNL A   1      49.689  27.055  24.531  1.00  0.00     0.135 A 
ATOM     64  C   UNL A   1      50.320  26.291  26.725  1.00  0.00     0.135 A 
ATOM     65  F   UNL A   1      48.788  27.567  23.678  1.00  0.00    -0.206 F 
ATOM     66  C   UNL A   1      50.951  26.733  24.047  1.00  0.00     0.059 A 
ATOM     67  C   UNL A   1      51.596  25.988  26.269  1.00  0.00     0.059 A 
ATOM     68  F   UNL A   1      50.040  26.074  28.020  1.00  0.00    -0.206 F 
ATOM     69  C   UNL A   1      51.899  26.204  24.925  1.00  0.00     0.060 A 
BRANCH  69  70
ATOM     70  S   UNL A   1      53.549  25.836  24.297  1.00  0.00     0.124 S 
ATOM     71  O   UNL A   1      53.755  24.479  24.789  1.00  0.00    -0.237 OA
ATOM     72  O   UNL A   1      53.371  25.969  22.854  1.00  0.00    -0.237 OA
ATOM     73  O   UNL A   1      54.384  26.863  24.915  1.00  0.00    -0.744 OA
ENDBRANCH  69  70
ENDBRANCH  37  62
ENDBRANCH  11  12
ENDBRANCH   4   6
ENDBRANCH   3   4
ENDBRANCH   2   3
ENDBRANCH   1   2
BRANCH   1  74
ATOM     74  O   UNL A   1      33.925  30.484  27.640  1.00  0.00    -0.374 OA
BRANCH  74  75
ATOM     75  C   UNL A   1      34.605  29.574  26.756  1.00  0.00     0.202 C 
BRANCH  75  76
ATOM     76  C   UNL A   1      33.947  28.195  26.811  1.00  0.00     0.261 C 
BRANCH  76  77
ATOM     77  O   UNL A   1      32.594  28.364  26.376  1.00  0.00    -0.463 OA
BRANCH  77  78
ATOM     78  C   UNL A   1      31.695  27.607  27.054  1.00  0.00     0.312 C 
ATOM     79  O   UNL A   1      31.390  27.764  28.231  1.00  0.00    -0.252 OA
BRANCH  78  80
ATOM     80  C   UNL A   1      30.961  26.659  26.139  1.00  0.00     0.143 C 
ATOM     81  C   UNL A   1      31.802  25.411  25.876  1.00  0.00     0.124 C 
ATOM     82  C   UNL A   1      30.699  27.184  24.727  1.00  0.00     0.133 C 
ATOM     83  C   UNL A   1      31.840  25.381  24.343  1.00  0.00     0.132 C 
ATOM     84  C   UNL A   1      29.663  26.291  24.039  1.00  0.00     0.036 C 
ATOM     85  O   UNL A   1      31.912  26.803  24.043  1.00  0.00    -0.373 OA
ATOM     86  C   UNL A   1      30.498  25.063  23.684  1.00  0.00     0.035 C 
BRANCH  81  87
ATOM     87  C   UNL A   1      31.278  24.139  26.520  1.00  0.00     0.229 C 
ATOM     88  O   UNL A   1      30.258  24.114  27.202  1.00  0.00    -0.274 OA
ATOM     89  N   UNL A   1      31.907  22.986  26.082  1.00  0.00    -0.339 N 
ATOM     90  C   UNL A   1      31.099  22.034  25.315  1.00  0.00     0.141 C 
ATOM     91  C   UNL A   1      32.909  22.330  26.934  1.00  0.00     0.141 C 
ATOM     92  C   UNL A   1      31.967  21.054  24.496  1.00  0.00     0.138 C 
ATOM     93  C   UNL A   1      33.809  21.374  26.127  1.00  0.00     0.138 C 
ATOM     94  N   UNL A   1      32.961  20.431  25.383  1.00  0.00    -0.368 N 
BRANCH  94  95
ATOM     95  C   UNL A   1      33.392  19.134  25.187  1.00  0.00     0.038 A 
ATOM     96  C   UNL A   1      34.647  18.899  24.600  1.00  0.00     0.026 A 
ATOM     97  C   UNL A   1      32.648  18.020  25.593  1.00  0.00     0.046 A 
ATOM     98  C   UNL A   1      35.152  17.606  24.441  1.00  0.00     0.004 A 
ATOM     99  C   UNL A   1      33.145  16.724  25.423  1.00  0.00     0.043 A 
ATOM    100  C   UNL A   1      34.397  16.513  24.854  1.00  0.00     0.020 A 
ATOM    101  Cl  UNL A   1      32.207  15.376  25.935  1.00  0.00    -0.084 Cl
ENDBRANCH  94  95
ENDBRANCH  81  87
ENDBRANCH  78  80
ENDBRANCH  77  78
ENDBRANCH  76  77
ENDBRANCH  75  76
ENDBRANCH  74  75
ENDBRANCH   1  74
TORSDOF 19
ENDMDL
MODEL 2
REMARK VINA RESULT:     -12.0      6.655     11.895
REMARK SMILES O=C(OCCOCCOC(=O)[C@@H]1[C@@H](C(=O)N2CCN(c3cccc(Cl)c3)CC2)[C@H]2CC[C@@H]1O2)c1ccc(-c2c3nc(c(-c4c(F)cc(S(=O)(=O)[O-])cc4F)c4ccc([nH]4)c(-c4c(F)cc(S(=O)(=O)[O-])cc4F)c4nc(c(-c5c(F)cc(S(=O)(=O)[O-])cc5F)c5ccc2[nH]5)C=C4)C=C3)cc1
REMARK SMILES IDX 5 1 4 2 3 3 2 4 1 5 34 6 35 7 99 8 36 9 98 10 37 11 38 12
REMARK SMILES IDX 39 13 92 14 40 15 97 16 91 17 93 18 41 19 96 20 90 21 89 22
REMARK SMILES IDX 42 24 76 25 55 26 75 27 56 28 59 29 74 30 94 31 57 32 58 33
REMARK SMILES IDX 73 35 95 36 60 37 43 38 44 39 53 40 45 41 46 42 52 43 54 44
REMARK SMILES IDX 47 45 48 46 49 47 50 48 51 49 77 50 78 51 87 52 79 53 80 54
REMARK SMILES IDX 86 55 88 56 81 57 82 58 83 59 84 60 85 61 61 62 62 63 71 64
REMARK SMILES IDX 63 65 64 66 70 67 72 68 65 69 66 70 67 71 68 72 69 73 6 74
REMARK SMILES IDX 7 75 8 76 9 77 10 78 11 79 12 80 13 81 32 82 29 83 31 84
REMARK SMILES IDX 33 85 30 86 14 87 15 88 16 89 17 90 28 91 18 92 27 93 19 94
REMARK SMILES IDX 20 95 21 96 26 97 22 98 24 99 23 100 25 101
REMARK H PARENT 93 23 59 34
REMARK Flexibility Score: inf
ROOT
ATOM      1  C   UNL A   1      40.398  22.547  27.034  1.00  0.00     0.202 C 
ENDROOT
BRANCH   1   2
ATOM      2  C   UNL A   1      41.617  22.731  26.124  1.00  0.00     0.261 C 
BRANCH   2   3
ATOM      3  O   UNL A   1      42.294  23.959  26.434  1.00  0.00    -0.460 OA
BRANCH   3   4
ATOM      4  C   UNL A   1      41.855  25.227  26.259  1.00  0.00     0.338 C 
ATOM      5  O   UNL A   1      41.602  25.605  25.116  1.00  0.00    -0.246 OA
BRANCH   4   6
ATOM      6  C   UNL A   1      41.655  26.191  27.381  1.00  0.00     0.060 A 
ATOM      7  C   UNL A   1      42.389  27.365  27.568  1.00  0.00     0.016 A 
ATOM      8  C   UNL A   1      40.591  25.933  28.259  1.00  0.00     0.016 A 
ATOM      9  C   UNL A   1      42.143  28.215  28.631  1.00  0.00     0.010 A 
ATOM     10  C   UNL A   1      40.303  26.805  29.310  1.00  0.00     0.010 A 
ATOM     11  C   UNL A   1      41.102  27.936  29.508  1.00  0.00    -0.014 A 
BRANCH  11  12
ATOM     12  C   UNL A   1      40.972  28.797  30.690  1.00  0.00     0.031 A 
ATOM     13  C   UNL A   1      39.867  29.804  30.703  1.00  0.00     0.074 A 
ATOM     14  C   UNL A   1      41.735  28.549  31.769  1.00  0.00     0.049 A 
ATOM     15  N   UNL A   1      39.553  30.675  31.620  1.00  0.00    -0.248 NA
ATOM     16  C   UNL A   1      38.978  29.817  29.527  1.00  0.00     0.031 C 
ATOM     17  C   UNL A   1      42.733  27.480  31.866  1.00  0.00     0.029 A 
ATOM     18  N   UNL A   1      41.764  29.145  32.997  1.00  0.00    -0.354 N 
ATOM     19  C   UNL A   1      38.454  31.361  31.123  1.00  0.00     0.074 A 
ATOM     20  C   UNL A   1      38.151  30.808  29.823  1.00  0.00     0.031 C 
ATOM     21  C   UNL A   1      43.261  27.483  33.100  1.00  0.00     0.029 A 
ATOM     22  C   UNL A   1      42.690  28.595  33.851  1.00  0.00     0.049 A 
ATOM     23  H   UNL A   1      41.179  29.897  33.248  1.00  0.00     0.167 HD
ATOM     24  C   UNL A   1      37.774  32.373  31.707  1.00  0.00     0.037 A 
ATOM     25  C   UNL A   1      43.052  28.981  35.088  1.00  0.00     0.037 A 
ATOM     26  C   UNL A   1      38.121  32.898  32.999  1.00  0.00     0.049 A 
ATOM     27  C   UNL A   1      42.352  30.176  35.674  1.00  0.00     0.074 A 
ATOM     28  C   UNL A   1      37.571  33.967  33.678  1.00  0.00     0.029 A 
ATOM     29  N   UNL A   1      39.129  32.380  33.807  1.00  0.00    -0.354 N 
ATOM     30  N   UNL A   1      41.367  30.882  35.165  1.00  0.00    -0.248 NA
ATOM     31  C   UNL A   1      42.819  30.644  36.983  1.00  0.00     0.031 C 
ATOM     32  C   UNL A   1      38.279  34.123  34.877  1.00  0.00     0.029 A 
ATOM     33  C   UNL A   1      39.232  33.119  34.970  1.00  0.00     0.049 A 
ATOM     34  H   UNL A   1      39.688  31.601  33.582  1.00  0.00     0.167 HD
ATOM     35  C   UNL A   1      41.083  31.870  36.098  1.00  0.00     0.074 A 
ATOM     36  C   UNL A   1      41.995  31.660  37.208  1.00  0.00     0.031 C 
ATOM     37  C   UNL A   1      40.160  32.864  36.048  1.00  0.00     0.037 A 
BRANCH  24  38
ATOM     38  C   UNL A   1      36.675  33.008  30.901  1.00  0.00     0.058 A 
ATOM     39  C   UNL A   1      36.936  33.936  29.879  1.00  0.00     0.135 A 
ATOM     40  C   UNL A   1      35.333  32.741  31.212  1.00  0.00     0.135 A 
ATOM     41  F   UNL A   1      38.201  34.258  29.564  1.00  0.00    -0.206 F 
ATOM     42  C   UNL A   1      35.907  34.609  29.227  1.00  0.00     0.059 A 
ATOM     43  C   UNL A   1      34.287  33.381  30.555  1.00  0.00     0.059 A 
ATOM     44  F   UNL A   1      35.025  31.873  32.189  1.00  0.00    -0.206 F 
ATOM     45  C   UNL A   1      34.585  34.333  29.582  1.00  0.00     0.060 A 
BRANCH  45  46
ATOM     46  S   UNL A   1      33.260  35.256  28.774  1.00  0.00     0.124 S 
ATOM     47  O   UNL A   1      34.020  36.211  27.973  1.00  0.00    -0.237 OA
ATOM     48  O   UNL A   1      32.564  34.214  28.025  1.00  0.00    -0.237 OA
ATOM     49  O   UNL A   1      32.513  35.828  29.890  1.00  0.00    -0.744 OA
ENDBRANCH  45  46
ENDBRANCH  24  38
BRANCH  25  50
ATOM     50  C   UNL A   1      44.140  28.265  35.807  1.00  0.00     0.058 A 
ATOM     51  C   UNL A   1      45.491  28.508  35.522  1.00  0.00     0.135 A 
ATOM     52  C   UNL A   1      43.850  27.341  36.826  1.00  0.00     0.135 A 
ATOM     53  F   UNL A   1      45.825  29.373  34.550  1.00  0.00    -0.206 F 
ATOM     54  C   UNL A   1      46.513  27.863  36.215  1.00  0.00     0.059 A 
ATOM     55  C   UNL A   1      44.851  26.703  37.549  1.00  0.00     0.059 A 
ATOM     56  F   UNL A   1      42.574  27.074  37.149  1.00  0.00    -0.206 F 
ATOM     57  C   UNL A   1      46.182  26.965  37.231  1.00  0.00     0.060 A 
BRANCH  57  58
ATOM     58  S   UNL A   1      47.512  26.166  38.159  1.00  0.00     0.124 S 
ATOM     59  O   UNL A   1      46.814  25.738  39.366  1.00  0.00    -0.237 OA
ATOM     60  O   UNL A   1      47.927  25.104  37.250  1.00  0.00    -0.237 OA
ATOM     61  O   UNL A   1      48.486  27.239  38.342  1.00  0.00    -0.744 OA
ENDBRANCH  57  58
ENDBRANCH  25  50
BRANCH  37  62
ATOM     62  C   UNL A   1      40.078  33.770  37.240  1.00  0.00     0.058 A 
ATOM     63  C   UNL A   1      40.880  34.915  37.350  1.00  0.00     0.135 A 
ATOM     64  C   UNL A   1      39.134  33.522  38.249  1.00  0.00     0.135 A 
ATOM     65  F   UNL A   1      41.801  35.188  36.412  1.00  0.00    -0.206 F 
ATOM     66  C   UNL A   1      40.761  35.778  38.432  1.00  0.00     0.059 A 
ATOM     67  C   UNL A   1      38.978  34.386  39.325  1.00  0.00     0.059 A 
ATOM     68  F   UNL A   1      38.337  32.444  38.180  1.00  0.00    -0.206 F 
ATOM     69  C   UNL A   1      39.804  35.507  39.412  1.00  0.00     0.060 A 
BRANCH  69  70
ATOM     70  S   UNL A   1      39.623  36.662  40.786  1.00  0.00     0.124 S 
ATOM     71  O   UNL A   1      39.288  35.761  41.883  1.00  0.00    -0.237 OA
ATOM     72  O   UNL A   1      40.944  37.279  40.851  1.00  0.00    -0.237 OA
ATOM     73  O   UNL A   1      38.547  37.546  40.347  1.00  0.00    -0.744 OA
ENDBRANCH  69  70
ENDBRANCH  37  62
ENDBRANCH  11  12
ENDBRANCH   4   6
ENDBRANCH   3   4
ENDBRANCH   2   3
ENDBRANCH   1   2
BRANCH   1  74
ATOM     74  O   UNL A   1      39.287  21.842  26.471  1.00  0.00    -0.374 OA
BRANCH  74  75
ATOM     75  C   UNL A   1      38.391  22.626  25.664  1.00  0.00     0.202 C 
BRANCH  75  76
ATOM     76  C   UNL A   1      36.991  22.011  25.678  1.00  0.00     0.261 C 
BRANCH  76  77
ATOM     77  O   UNL A   1      36.323  22.476  24.500  1.00  0.00    -0.463 OA
BRANCH  77  78
ATOM     78  C   UNL A   1      35.416  23.458  24.729  1.00  0.00     0.312 C 
ATOM     79  O   UNL A   1      35.606  24.439  25.439  1.00  0.00    -0.252 OA
BRANCH  78  80
ATOM     80  C   UNL A   1      34.199  23.308  23.851  1.00  0.00     0.143 C 
ATOM     81  C   UNL A   1      33.261  24.500  24.029  1.00  0.00     0.124 C 
ATOM     82  C   UNL A   1      33.294  22.123  24.184  1.00  0.00     0.133 C 
ATOM     83  C   UNL A   1      31.939  23.805  24.380  1.00  0.00     0.132 C 
ATOM     84  C   UNL A   1      32.321  21.887  23.025  1.00  0.00     0.036 C 
ATOM     85  O   UNL A   1      32.422  22.692  25.184  1.00  0.00    -0.373 OA
ATOM     86  C   UNL A   1      31.315  23.017  23.228  1.00  0.00     0.035 C 
BRANCH  81  87
ATOM     87  C   UNL A   1      33.183  25.438  22.836  1.00  0.00     0.229 C 
ATOM     88  O   UNL A   1      33.681  25.167  21.747  1.00  0.00    -0.274 OA
ATOM     89  N   UNL A   1      32.313  26.501  23.011  1.00  0.00    -0.339 N 
ATOM     90  C   UNL A   1      31.121  26.535  22.159  1.00  0.00     0.141 C 
ATOM     91  C   UNL A   1      32.841  27.839  23.310  1.00  0.00     0.141 C 
ATOM     92  C   UNL A   1      30.018  27.451  22.729  1.00  0.00     0.138 C 
ATOM     93  C   UNL A   1      31.762  28.758  23.914  1.00  0.00     0.138 C 
ATOM     94  N   UNL A   1      30.592  28.773  23.024  1.00  0.00    -0.368 N 
BRANCH  94  95
ATOM     95  C   UNL A   1      29.848  29.929  22.894  1.00  0.00     0.038 A 
ATOM     96  C   UNL A   1      29.654  30.762  24.009  1.00  0.00     0.026 A 
ATOM     97  C   UNL A   1      29.306  30.345  21.673  1.00  0.00     0.046 A 
ATOM     98  C   UNL A   1      28.964  31.973  23.910  1.00  0.00     0.004 A 
ATOM     99  C   UNL A   1      28.603  31.550  21.573  1.00  0.00     0.043 A 
ATOM    100  C   UNL A   1      28.436  32.369  22.685  1.00  0.00     0.020 A 
ATOM    101  Cl  UNL A   1      27.951  32.035  20.056  1.00  0.00    -0.084 Cl
ENDBRANCH  94  95
ENDBRANCH  81  87
ENDBRANCH  78  80
ENDBRANCH  77  78
ENDBRANCH  76  77
ENDBRANCH  75  76
ENDBRANCH  74  75
ENDBRANCH   1  74
TORSDOF 19
ENDMDL
MODEL 3
REMARK VINA RESULT:     -12.0      6.675     12.294
REMARK SMILES O=C(OCCOCCOC(=O)[C@@H]1[C@@H](C(=O)N2CCN(c3cccc(Cl)c3)CC2)[C@H]2CC[C@@H]1O2)c1ccc(-c2c3nc(c(-c4c(F)cc(S(=O)(=O)[O-])cc4F)c4ccc([nH]4)c(-c4c(F)cc(S(=O)(=O)[O-])cc4F)c4nc(c(-c5c(F)cc(S(=O)(=O)[O-])cc5F)c5ccc2[nH]5)C=C4)C=C3)cc1
REMARK SMILES IDX 5 1 4 2 3 3 2 4 1 5 34 6 35 7 99 8 36 9 98 10 37 11 38 12
REMARK SMILES IDX 39 13 92 14 40 15 97 16 91 17 93 18 41 19 96 20 90 21 89 22
REMARK SMILES IDX 42 24 76 25 55 26 75 27 56 28 59 29 74 30 94 31 57 32 58 33
REMARK SMILES IDX 73 35 95 36 60 37 43 38 44 39 53 40 45 41 46 42 52 43 54 44
REMARK SMILES IDX 47 45 48 46 49 47 50 48 51 49 77 50 78 51 87 52 79 53 80 54
REMARK SMILES IDX 86 55 88 56 81 57 82 58 83 59 84 60 85 61 61 62 62 63 71 64
REMARK SMILES IDX 63 65 64 66 70 67 72 68 65 69 66 70 67 71 68 72 69 73 6 74
REMARK SMILES IDX 7 75 8 76 9 77 10 78 11 79 12 80 13 81 32 82 29 83 31 84
REMARK SMILES IDX 33 85 30 86 14 87 15 88 16 89 17 90 28 91 18 92 27 93 19 94
REMARK SMILES IDX 20 95 21 96 26 97 22 98 24 99 23 100 25 101
REMARK H PARENT 93 23 59 34
REMARK Flexibility Score: inf
ROOT
ATOM      1  C   UNL A   1      39.816  22.234  26.572  1.00  0.00     0.202 C 
ENDROOT
BRANCH   1   2
ATOM      2  C   UNL A   1      41.205  22.528  25.994  1.00  0.00     0.261 C 
BRANCH   2   3
ATOM      3  O   UNL A   1      41.740  23.733  26.563  1.00  0.00    -0.460 OA
BRANCH   3   4
ATOM      4  C   UNL A   1      41.253  24.992  26.471  1.00  0.00     0.338 C 
ATOM      5  O   UNL A   1      40.897  25.403  25.368  1.00  0.00    -0.246 OA
BRANCH   4   6
ATOM      6  C   UNL A   1      41.120  25.911  27.641  1.00  0.00     0.060 A 
ATOM      7  C   UNL A   1      40.133  25.816  28.626  1.00  0.00     0.016 A 
ATOM      8  C   UNL A   1      42.117  26.886  27.799  1.00  0.00     0.016 A 
ATOM      9  C   UNL A   1      40.076  26.702  29.686  1.00  0.00     0.010 A 
ATOM     10  C   UNL A   1      42.096  27.759  28.889  1.00  0.00     0.010 A 
ATOM     11  C   UNL A   1      41.055  27.679  29.819  1.00  0.00    -0.014 A 
BRANCH  11  12
ATOM     12  C   UNL A   1      40.870  28.672  30.885  1.00  0.00     0.031 A 
ATOM     13  C   UNL A   1      41.860  28.688  32.006  1.00  0.00     0.074 A 
ATOM     14  C   UNL A   1      39.930  29.622  30.740  1.00  0.00     0.049 A 
ATOM     15  N   UNL A   1      41.906  29.457  33.056  1.00  0.00    -0.248 NA
ATOM     16  C   UNL A   1      42.963  27.714  31.919  1.00  0.00     0.031 C 
ATOM     17  C   UNL A   1      39.027  29.744  29.590  1.00  0.00     0.029 A 
ATOM     18  N   UNL A   1      39.603  30.683  31.535  1.00  0.00    -0.354 N 
ATOM     19  C   UNL A   1      43.021  29.043  33.772  1.00  0.00     0.074 A 
ATOM     20  C   UNL A   1      43.625  27.953  33.040  1.00  0.00     0.031 C 
ATOM     21  C   UNL A   1      38.264  30.837  29.747  1.00  0.00     0.029 A 
ATOM     22  C   UNL A   1      38.575  31.445  31.035  1.00  0.00     0.049 A 
ATOM     23  H   UNL A   1      40.059  30.883  32.384  1.00  0.00     0.167 HD
ATOM     24  C   UNL A   1      43.480  29.530  34.947  1.00  0.00     0.037 A 
ATOM     25  C   UNL A   1      37.940  32.496  31.586  1.00  0.00     0.037 A 
ATOM     26  C   UNL A   1      42.836  30.609  35.645  1.00  0.00     0.049 A 
ATOM     27  C   UNL A   1      38.402  32.953  32.942  1.00  0.00     0.074 A 
ATOM     28  C   UNL A   1      43.145  31.152  36.876  1.00  0.00     0.029 A 
ATOM     29  N   UNL A   1      41.734  31.306  35.159  1.00  0.00    -0.354 N 
ATOM     30  N   UNL A   1      39.406  32.503  33.662  1.00  0.00    -0.248 NA
ATOM     31  C   UNL A   1      37.643  34.037  33.573  1.00  0.00     0.031 C 
ATOM     32  C   UNL A   1      42.200  32.148  37.154  1.00  0.00     0.029 A 
ATOM     33  C   UNL A   1      41.336  32.262  36.073  1.00  0.00     0.049 A 
ATOM     34  H   UNL A   1      41.301  31.141  34.290  1.00  0.00     0.167 HD
ATOM     35  C   UNL A   1      39.410  33.259  34.826  1.00  0.00     0.074 A 
ATOM     36  C   UNL A   1      38.314  34.204  34.705  1.00  0.00     0.031 C 
ATOM     37  C   UNL A   1      40.236  33.182  35.901  1.00  0.00     0.037 A 
BRANCH  24  38
ATOM     38  C   UNL A   1      44.660  28.828  35.559  1.00  0.00     0.058 A 
ATOM     39  C   UNL A   1      44.513  27.746  36.443  1.00  0.00     0.135 A 
ATOM     40  C   UNL A   1      45.959  29.298  35.315  1.00  0.00     0.135 A 
ATOM     41  F   UNL A   1      43.290  27.277  36.741  1.00  0.00    -0.206 F 
ATOM     42  C   UNL A   1      45.606  27.188  37.099  1.00  0.00     0.059 A 
ATOM     43  C   UNL A   1      47.071  28.739  35.939  1.00  0.00     0.059 A 
ATOM     44  F   UNL A   1      46.159  30.339  34.490  1.00  0.00    -0.206 F 
ATOM     45  C   UNL A   1      46.881  27.700  36.849  1.00  0.00     0.060 A 
BRANCH  45  46
ATOM     46  S   UNL A   1      48.285  27.009  37.750  1.00  0.00     0.124 S 
ATOM     47  O   UNL A   1      48.298  25.636  37.257  1.00  0.00    -0.237 OA
ATOM     48  O   UNL A   1      49.389  27.854  37.305  1.00  0.00    -0.237 OA
ATOM     49  O   UNL A   1      47.902  27.170  39.150  1.00  0.00    -0.744 OA
ENDBRANCH  45  46
ENDBRANCH  24  38
BRANCH  25  50
ATOM     50  C   UNL A   1      36.794  33.132  30.881  1.00  0.00     0.058 A 
ATOM     51  C   UNL A   1      35.470  32.912  31.286  1.00  0.00     0.135 A 
ATOM     52  C   UNL A   1      37.003  34.006  29.800  1.00  0.00     0.135 A 
ATOM     53  F   UNL A   1      35.212  32.078  32.306  1.00  0.00    -0.206 F 
ATOM     54  C   UNL A   1      34.397  33.530  30.648  1.00  0.00     0.059 A 
ATOM     55  C   UNL A   1      35.951  34.655  29.162  1.00  0.00     0.059 A 
ATOM     56  F   UNL A   1      38.251  34.261  29.373  1.00  0.00    -0.206 F 
ATOM     57  C   UNL A   1      34.649  34.405  29.589  1.00  0.00     0.060 A 
BRANCH  57  58
ATOM     58  S   UNL A   1      33.257  35.241  28.796  1.00  0.00     0.124 S 
ATOM     59  O   UNL A   1      32.664  34.155  28.021  1.00  0.00    -0.237 OA
ATOM     60  O   UNL A   1      32.483  35.706  29.941  1.00  0.00    -0.237 OA
ATOM     61  O   UNL A   1      33.898  36.293  28.013  1.00  0.00    -0.744 OA
ENDBRANCH  57  58
ENDBRANCH  25  50
BRANCH  37  62
ATOM     62  C   UNL A   1      39.999  34.168  37.006  1.00  0.00     0.058 A 
ATOM     63  C   UNL A   1      40.459  35.489  36.925  1.00  0.00     0.135 A 
ATOM     64  C   UNL A   1      39.242  33.797  38.128  1.00  0.00     0.135 A 
ATOM     65  F   UNL A   1      41.193  35.886  35.873  1.00  0.00    -0.206 F 
ATOM     66  C   UNL A   1      40.189  36.410  37.929  1.00  0.00     0.059 A 
ATOM     67  C   UNL A   1      38.936  34.708  39.131  1.00  0.00     0.059 A 
ATOM     68  F   UNL A   1      38.771  32.544  38.244  1.00  0.00    -0.206 F 
ATOM     69  C   UNL A   1      39.423  36.011  39.026  1.00  0.00     0.060 A 
BRANCH  69  70
ATOM     70  S   UNL A   1      39.036  37.228  40.300  1.00  0.00     0.124 S 
ATOM     71  O   UNL A   1      38.196  36.450  41.204  1.00  0.00    -0.237 OA
ATOM     72  O   UNL A   1      40.359  37.580  40.807  1.00  0.00    -0.237 OA
ATOM     73  O   UNL A   1      38.354  38.287  39.561  1.00  0.00    -0.744 OA
ENDBRANCH  69  70
ENDBRANCH  37  62
ENDBRANCH  11  12
ENDBRANCH   4   6
ENDBRANCH   3   4
ENDBRANCH   2   3
ENDBRANCH   1   2
BRANCH   1  74
ATOM     74  O   UNL A   1      38.699  22.582  25.748  1.00  0.00    -0.374 OA
BRANCH  74  75
ATOM     75  C   UNL A   1      37.817  21.501  25.398  1.00  0.00     0.202 C 
BRANCH  75  76
ATOM     76  C   UNL A   1      36.959  21.889  24.193  1.00  0.00     0.261 C 
BRANCH  76  77
ATOM     77  O   UNL A   1      36.697  23.292  24.306  1.00  0.00    -0.463 OA
BRANCH  77  78
ATOM     78  C   UNL A   1      35.515  23.588  24.902  1.00  0.00     0.312 C 
ATOM     79  O   UNL A   1      35.392  24.027  26.040  1.00  0.00    -0.252 OA
BRANCH  78  80
ATOM     80  C   UNL A   1      34.364  23.497  23.932  1.00  0.00     0.143 C 
ATOM     81  C   UNL A   1      33.415  24.680  24.116  1.00  0.00     0.124 C 
ATOM     82  C   UNL A   1      33.437  22.297  24.128  1.00  0.00     0.133 C 
ATOM     83  C   UNL A   1      32.072  23.970  24.329  1.00  0.00     0.132 C 
ATOM     84  C   UNL A   1      32.550  22.136  22.890  1.00  0.00     0.036 C 
ATOM     85  O   UNL A   1      32.496  22.809  25.096  1.00  0.00    -0.373 OA
ATOM     86  C   UNL A   1      31.532  23.256  23.090  1.00  0.00     0.035 C 
BRANCH  81  87
ATOM     87  C   UNL A   1      33.422  25.689  22.980  1.00  0.00     0.229 C 
ATOM     88  O   UNL A   1      34.063  25.518  21.947  1.00  0.00    -0.274 OA
ATOM     89  N   UNL A   1      32.473  26.689  23.109  1.00  0.00    -0.339 N 
ATOM     90  C   UNL A   1      31.391  26.714  22.120  1.00  0.00     0.141 C 
ATOM     91  C   UNL A   1      32.877  28.032  23.548  1.00  0.00     0.141 C 
ATOM     92  C   UNL A   1      30.173  27.529  22.603  1.00  0.00     0.138 C 
ATOM     93  C   UNL A   1      31.679  28.848  24.068  1.00  0.00     0.138 C 
ATOM     94  N   UNL A   1      30.625  28.858  23.044  1.00  0.00    -0.368 N 
BRANCH  94  95
ATOM     95  C   UNL A   1      29.832  29.978  22.891  1.00  0.00     0.038 A 
ATOM     96  C   UNL A   1      29.587  30.813  23.994  1.00  0.00     0.026 A 
ATOM     97  C   UNL A   1      29.286  30.356  21.659  1.00  0.00     0.046 A 
ATOM     98  C   UNL A   1      28.844  31.991  23.872  1.00  0.00     0.004 A 
ATOM     99  C   UNL A   1      28.531  31.527  21.537  1.00  0.00     0.043 A 
ATOM    100  C   UNL A   1      28.314  32.349  22.637  1.00  0.00     0.020 A 
ATOM    101  Cl  UNL A   1      27.877  31.965  20.007  1.00  0.00    -0.084 Cl
ENDBRANCH  94  95
ENDBRANCH  81  87
ENDBRANCH  78  80
ENDBRANCH  77  78
ENDBRANCH  76  77
ENDBRANCH  75  76
ENDBRANCH  74  75
ENDBRANCH   1  74
TORSDOF 19
ENDMDL
