MODEL 1
REMARK VINA RESULT:     -10.9      0.000      0.000
REMARK SMILES Cc1c(Cl)cc2c(c1C)O[C@@H](C(F)(F)F)C(C(=O)OCCOCCOCCOC(=O)c1ccc(-c3c4nc(c(-c5c(F)cc(S(=O)(=O)[O-])cc5F)c5ccc([nH]5)c(-c5c(F)cc(S(=O)(=O)[O-])cc5F)c5nc(c(-c6c(F)cc(S(=O)(=O)[O-])cc6F)c6ccc3[nH]6)C=C5)C=C4)cc1)=C2
REMARK SMILES IDX 24 1 23 2 22 3 21 4 20 5 19 6 17 7 18 8 16 9 1 10 2 11 3 12
REMARK SMILES IDX 8 13 4 14 5 15 7 16 9 17 6 18 10 19 97 20 11 21 12 22 13 23
REMARK SMILES IDX 14 24 15 25 25 26 26 27 27 28 28 29 29 30 30 31 31 32 32 33
REMARK SMILES IDX 96 34 33 35 95 36 34 37 35 38 36 39 89 40 37 41 94 42 88 43
REMARK SMILES IDX 90 44 38 45 93 46 87 47 86 48 39 50 73 51 52 52 72 53 53 54
REMARK SMILES IDX 56 55 71 56 91 57 54 58 55 59 70 61 92 62 57 63 40 64 41 65
REMARK SMILES IDX 50 66 42 67 43 68 49 69 51 70 44 71 45 72 46 73 47 74 48 75
REMARK SMILES IDX 74 76 75 77 84 78 76 79 77 80 83 81 85 82 78 83 79 84 80 85
REMARK SMILES IDX 81 86 82 87 58 88 59 89 68 90 60 91 61 92 67 93 69 94 62 95
REMARK SMILES IDX 63 96 64 97 65 98 66 99
REMARK H PARENT 90 49 56 60
REMARK Flexibility Score: inf
ROOT
ATOM      1  C   UNL A   1      32.390  30.646  26.436  1.00  0.00     0.188 C 
ENDROOT
BRANCH   1   2
ATOM      2  C   UNL A   1      32.859  29.673  25.337  1.00  0.00     0.188 C 
BRANCH   2   3
ATOM      3  O   UNL A   1      31.972  29.359  24.268  1.00  0.00    -0.376 OA
BRANCH   3   4
ATOM      4  C   UNL A   1      32.501  28.936  23.016  1.00  0.00     0.202 C 
BRANCH   4   5
ATOM      5  C   UNL A   1      32.649  27.430  22.751  1.00  0.00     0.261 C 
BRANCH   5   6
ATOM      6  O   UNL A   1      33.238  26.691  23.840  1.00  0.00    -0.460 OA
BRANCH   6   7
ATOM      7  C   UNL A   1      32.383  25.940  24.567  1.00  0.00     0.338 C 
ATOM      8  O   UNL A   1      31.224  26.218  24.831  1.00  0.00    -0.246 OA
BRANCH   7   9
ATOM      9  C   UNL A   1      32.985  24.642  24.925  1.00  0.00     0.087 C 
ATOM     10  C   UNL A   1      37.236  19.686  25.030  1.00  0.00     0.046 C 
ATOM     11  C   UNL A   1      36.421  20.947  25.186  1.00  0.00    -0.026 A 
ATOM     12  C   UNL A   1      37.061  22.156  25.534  1.00  0.00     0.045 A 
ATOM     13  C   UNL A   1      35.035  20.980  24.880  1.00  0.00    -0.004 A 
ATOM     14  Cl  UNL A   1      38.761  22.237  25.850  1.00  0.00    -0.084 Cl
ATOM     15  C   UNL A   1      36.357  23.361  25.595  1.00  0.00     0.032 A 
ATOM     16  C   UNL A   1      34.343  22.212  24.927  1.00  0.00     0.131 A 
ATOM     17  C   UNL A   1      34.243  19.748  24.517  1.00  0.00     0.049 C 
ATOM     18  C   UNL A   1      35.001  23.395  25.276  1.00  0.00     0.019 A 
ATOM     19  O   UNL A   1      33.031  22.205  24.516  1.00  0.00    -0.475 OA
ATOM     20  C   UNL A   1      34.304  24.667  25.165  1.00  0.00     0.027 C 
ATOM     21  C   UNL A   1      32.202  23.365  24.816  1.00  0.00     0.316 C 
BRANCH  21  22
ATOM     22  C   UNL A   1      31.306  23.014  26.018  1.00  0.00     0.430 C 
ATOM     23  F   UNL A   1      30.883  21.730  25.995  1.00  0.00    -0.167 F 
ATOM     24  F   UNL A   1      31.929  23.228  27.198  1.00  0.00    -0.167 F 
ATOM     25  F   UNL A   1      30.195  23.796  26.035  1.00  0.00    -0.167 F 
ENDBRANCH  21  22
ENDBRANCH   7   9
ENDBRANCH   6   7
ENDBRANCH   5   6
ENDBRANCH   4   5
ENDBRANCH   3   4
ENDBRANCH   2   3
ENDBRANCH   1   2
BRANCH   1  26
ATOM     26  O   UNL A   1      33.151  30.568  27.619  1.00  0.00    -0.376 OA
BRANCH  26  27
ATOM     27  C   UNL A   1      34.324  31.354  27.715  1.00  0.00     0.202 C 
BRANCH  27  28
ATOM     28  C   UNL A   1      35.272  31.208  28.919  1.00  0.00     0.261 C 
BRANCH  28  29
ATOM     29  O   UNL A   1      35.958  29.958  29.069  1.00  0.00    -0.460 OA
BRANCH  29  30
ATOM     30  C   UNL A   1      36.664  29.758  30.206  1.00  0.00     0.338 C 
ATOM     31  O   UNL A   1      36.217  29.518  31.315  1.00  0.00    -0.246 OA
BRANCH  30  32
ATOM     32  C   UNL A   1      38.090  29.674  29.820  1.00  0.00     0.060 A 
ATOM     33  C   UNL A   1      38.429  29.642  28.460  1.00  0.00     0.016 A 
ATOM     34  C   UNL A   1      39.090  29.682  30.796  1.00  0.00     0.016 A 
ATOM     35  C   UNL A   1      39.771  29.619  28.075  1.00  0.00     0.010 A 
ATOM     36  C   UNL A   1      40.432  29.627  30.409  1.00  0.00     0.010 A 
ATOM     37  C   UNL A   1      40.779  29.575  29.047  1.00  0.00    -0.014 A 
BRANCH  37  38
ATOM     38  C   UNL A   1      42.170  29.255  28.641  1.00  0.00     0.031 A 
ATOM     39  C   UNL A   1      42.479  27.834  28.255  1.00  0.00     0.074 A 
ATOM     40  C   UNL A   1      43.126  30.200  28.574  1.00  0.00     0.049 A 
ATOM     41  N   UNL A   1      43.607  27.309  27.859  1.00  0.00    -0.248 NA
ATOM     42  C   UNL A   1      41.359  26.879  28.325  1.00  0.00     0.031 C 
ATOM     43  C   UNL A   1      42.941  31.616  28.883  1.00  0.00     0.029 A 
ATOM     44  N   UNL A   1      44.450  30.103  28.218  1.00  0.00    -0.354 N 
ATOM     45  C   UNL A   1      43.331  25.969  27.617  1.00  0.00     0.074 A 
ATOM     46  C   UNL A   1      41.942  25.750  27.957  1.00  0.00     0.031 C 
ATOM     47  C   UNL A   1      44.111  32.259  28.702  1.00  0.00     0.029 A 
ATOM     48  C   UNL A   1      45.133  31.296  28.290  1.00  0.00     0.049 A 
ATOM     49  H   UNL A   1      44.871  29.259  27.938  1.00  0.00     0.167 HD
ATOM     50  C   UNL A   1      44.154  25.010  27.135  1.00  0.00     0.037 A 
ATOM     51  C   UNL A   1      46.434  31.571  28.060  1.00  0.00     0.037 A 
ATOM     52  C   UNL A   1      45.536  25.226  26.807  1.00  0.00     0.049 A 
ATOM     53  C   UNL A   1      47.362  30.458  27.631  1.00  0.00     0.074 A 
ATOM     54  C   UNL A   1      46.450  24.319  26.303  1.00  0.00     0.029 A 
ATOM     55  N   UNL A   1      46.207  26.431  26.961  1.00  0.00    -0.354 N 
ATOM     56  N   UNL A   1      47.080  29.204  27.370  1.00  0.00    -0.248 NA
ATOM     57  C   UNL A   1      48.786  30.795  27.476  1.00  0.00     0.031 C 
ATOM     58  C   UNL A   1      47.688  24.959  26.203  1.00  0.00     0.029 A 
ATOM     59  C   UNL A   1      47.534  26.280  26.599  1.00  0.00     0.049 A 
ATOM     60  H   UNL A   1      45.799  27.268  27.280  1.00  0.00     0.167 HD
ATOM     61  C   UNL A   1      48.285  28.608  27.006  1.00  0.00     0.074 A 
ATOM     62  C   UNL A   1      49.296  29.642  27.063  1.00  0.00     0.031 C 
ATOM     63  C   UNL A   1      48.531  27.320  26.661  1.00  0.00     0.037 A 
BRANCH  50  64
ATOM     64  C   UNL A   1      43.581  23.635  26.941  1.00  0.00     0.058 A 
ATOM     65  C   UNL A   1      43.293  23.137  25.660  1.00  0.00     0.135 A 
ATOM     66  C   UNL A   1      43.352  22.793  28.041  1.00  0.00     0.135 A 
ATOM     67  F   UNL A   1      43.473  23.909  24.577  1.00  0.00    -0.206 F 
ATOM     68  C   UNL A   1      42.781  21.858  25.477  1.00  0.00     0.059 A 
ATOM     69  C   UNL A   1      42.866  21.500  27.879  1.00  0.00     0.059 A 
ATOM     70  F   UNL A   1      43.603  23.226  29.286  1.00  0.00    -0.206 F 
ATOM     71  C   UNL A   1      42.575  21.045  26.594  1.00  0.00     0.060 A 
BRANCH  71  72
ATOM     72  S   UNL A   1      41.922  19.383  26.334  1.00  0.00     0.124 S 
ATOM     73  O   UNL A   1      40.483  19.627  26.355  1.00  0.00    -0.237 OA
ATOM     74  O   UNL A   1      42.485  19.030  25.034  1.00  0.00    -0.237 OA
ATOM     75  O   UNL A   1      42.446  18.628  27.468  1.00  0.00    -0.744 OA
ENDBRANCH  71  72
ENDBRANCH  50  64
BRANCH  51  76
ATOM     76  C   UNL A   1      46.948  32.959  28.234  1.00  0.00     0.058 A 
ATOM     77  C   UNL A   1      46.936  33.871  27.170  1.00  0.00     0.135 A 
ATOM     78  C   UNL A   1      47.466  33.398  29.462  1.00  0.00     0.135 A 
ATOM     79  F   UNL A   1      46.471  33.496  25.968  1.00  0.00    -0.206 F 
ATOM     80  C   UNL A   1      47.422  35.169  27.314  1.00  0.00     0.059 A 
ATOM     81  C   UNL A   1      47.935  34.697  29.639  1.00  0.00     0.059 A 
ATOM     82  F   UNL A   1      47.502  32.564  30.514  1.00  0.00    -0.206 F 
ATOM     83  C   UNL A   1      47.913  35.573  28.556  1.00  0.00     0.060 A 
BRANCH  83  84
ATOM     84  S   UNL A   1      48.491  37.276  28.743  1.00  0.00     0.124 S 
ATOM     85  O   UNL A   1      48.829  37.320  30.161  1.00  0.00    -0.237 OA
ATOM     86  O   UNL A   1      49.619  37.315  27.817  1.00  0.00    -0.237 OA
ATOM     87  O   UNL A   1      47.333  38.070  28.345  1.00  0.00    -0.744 OA
ENDBRANCH  83  84
ENDBRANCH  51  76
BRANCH  63  88
ATOM     88  C   UNL A   1      49.945  26.930  26.325  1.00  0.00     0.058 A 
ATOM     89  C   UNL A   1      50.780  26.333  27.283  1.00  0.00     0.135 A 
ATOM     90  C   UNL A   1      50.425  27.028  25.009  1.00  0.00     0.135 A 
ATOM     91  F   UNL A   1      50.373  26.220  28.557  1.00  0.00    -0.206 F 
ATOM     92  C   UNL A   1      52.036  25.840  26.946  1.00  0.00     0.059 A 
ATOM     93  C   UNL A   1      51.668  26.519  24.644  1.00  0.00     0.059 A 
ATOM     94  F   UNL A   1      49.662  27.581  24.051  1.00  0.00    -0.206 F 
ATOM     95  C   UNL A   1      52.465  25.924  25.619  1.00  0.00     0.060 A 
BRANCH  95  96
ATOM     96  S   UNL A   1      54.060  25.198  25.185  1.00  0.00     0.124 S 
ATOM     97  O   UNL A   1      54.821  25.397  26.415  1.00  0.00    -0.237 OA
ATOM     98  O   UNL A   1      53.699  23.817  24.881  1.00  0.00    -0.237 OA
ATOM     99  O   UNL A   1      54.498  25.993  24.042  1.00  0.00    -0.744 OA
ENDBRANCH  95  96
ENDBRANCH  63  88
ENDBRANCH  37  38
ENDBRANCH  30  32
ENDBRANCH  29  30
ENDBRANCH  28  29
ENDBRANCH  27  28
ENDBRANCH  26  27
ENDBRANCH   1  26
TORSDOF 21
ENDMDL
MODEL 2
REMARK VINA RESULT:     -10.7      1.519      2.103
REMARK SMILES Cc1c(Cl)cc2c(c1C)O[C@@H](C(F)(F)F)C(C(=O)OCCOCCOCCOC(=O)c1ccc(-c3c4nc(c(-c5c(F)cc(S(=O)(=O)[O-])cc5F)c5ccc([nH]5)c(-c5c(F)cc(S(=O)(=O)[O-])cc5F)c5nc(c(-c6c(F)cc(S(=O)(=O)[O-])cc6F)c6ccc3[nH]6)C=C5)C=C4)cc1)=C2
REMARK SMILES IDX 24 1 23 2 22 3 21 4 20 5 19 6 17 7 18 8 16 9 1 10 2 11 3 12
REMARK SMILES IDX 8 13 4 14 5 15 7 16 9 17 6 18 10 19 97 20 11 21 12 22 13 23
REMARK SMILES IDX 14 24 15 25 25 26 26 27 27 28 28 29 29 30 30 31 31 32 32 33
REMARK SMILES IDX 96 34 33 35 95 36 34 37 35 38 36 39 89 40 37 41 94 42 88 43
REMARK SMILES IDX 90 44 38 45 93 46 87 47 86 48 39 50 73 51 52 52 72 53 53 54
REMARK SMILES IDX 56 55 71 56 91 57 54 58 55 59 70 61 92 62 57 63 40 64 41 65
REMARK SMILES IDX 50 66 42 67 43 68 49 69 51 70 44 71 45 72 46 73 47 74 48 75
REMARK SMILES IDX 74 76 75 77 84 78 76 79 77 80 83 81 85 82 78 83 79 84 80 85
REMARK SMILES IDX 81 86 82 87 58 88 59 89 68 90 60 91 61 92 67 93 69 94 62 95
REMARK SMILES IDX 63 96 64 97 65 98 66 99
REMARK H PARENT 90 49 56 60
REMARK Flexibility Score: inf
ROOT
ATOM      1  C   UNL A   1      32.270  30.597  26.813  1.00  0.00     0.188 C 
ENDROOT
BRANCH   1   2
ATOM      2  C   UNL A   1      31.795  29.449  25.902  1.00  0.00     0.188 C 
BRANCH   2   3
ATOM      3  O   UNL A   1      31.257  29.762  24.621  1.00  0.00    -0.376 OA
BRANCH   3   4
ATOM      4  C   UNL A   1      31.719  29.058  23.474  1.00  0.00     0.202 C 
BRANCH   4   5
ATOM      5  C   UNL A   1      30.777  28.046  22.803  1.00  0.00     0.261 C 
BRANCH   5   6
ATOM      6  O   UNL A   1      31.301  26.705  22.730  1.00  0.00    -0.460 OA
BRANCH   6   7
ATOM      7  C   UNL A   1      30.702  25.798  23.532  1.00  0.00     0.338 C 
ATOM      8  O   UNL A   1      29.541  25.824  23.907  1.00  0.00    -0.246 OA
BRANCH   7   9
ATOM      9  C   UNL A   1      31.603  24.667  23.825  1.00  0.00     0.087 C 
ATOM     10  C   UNL A   1      33.576  18.545  24.950  1.00  0.00     0.046 C 
ATOM     11  C   UNL A   1      33.136  19.892  24.427  1.00  0.00    -0.026 A 
ATOM     12  C   UNL A   1      32.471  19.977  23.185  1.00  0.00     0.045 A 
ATOM     13  C   UNL A   1      33.269  21.072  25.205  1.00  0.00    -0.004 A 
ATOM     14  Cl  UNL A   1      32.189  18.584  22.196  1.00  0.00    -0.084 Cl
ATOM     15  C   UNL A   1      31.965  21.190  22.713  1.00  0.00     0.032 A 
ATOM     16  C   UNL A   1      32.732  22.287  24.720  1.00  0.00     0.131 A 
ATOM     17  C   UNL A   1      33.978  21.104  26.537  1.00  0.00     0.049 C 
ATOM     18  C   UNL A   1      32.079  22.344  23.486  1.00  0.00     0.019 A 
ATOM     19  O   UNL A   1      32.792  23.373  25.561  1.00  0.00    -0.475 OA
ATOM     20  C   UNL A   1      31.403  23.567  23.084  1.00  0.00     0.027 C 
ATOM     21  C   UNL A   1      32.525  24.694  25.010  1.00  0.00     0.316 C 
BRANCH  21  22
ATOM     22  C   UNL A   1      33.873  25.408  24.804  1.00  0.00     0.430 C 
ATOM     23  F   UNL A   1      33.995  26.521  25.563  1.00  0.00    -0.167 F 
ATOM     24  F   UNL A   1      34.924  24.601  25.072  1.00  0.00    -0.167 F 
ATOM     25  F   UNL A   1      34.021  25.795  23.510  1.00  0.00    -0.167 F 
ENDBRANCH  21  22
ENDBRANCH   7   9
ENDBRANCH   6   7
ENDBRANCH   5   6
ENDBRANCH   4   5
ENDBRANCH   3   4
ENDBRANCH   2   3
ENDBRANCH   1   2
BRANCH   1  26
ATOM     26  O   UNL A   1      33.646  30.547  27.111  1.00  0.00    -0.376 OA
BRANCH  26  27
ATOM     27  C   UNL A   1      34.233  31.661  27.757  1.00  0.00     0.202 C 
BRANCH  27  28
ATOM     28  C   UNL A   1      35.347  31.467  28.802  1.00  0.00     0.261 C 
BRANCH  28  29
ATOM     29  O   UNL A   1      35.966  30.176  28.873  1.00  0.00    -0.460 OA
BRANCH  29  30
ATOM     30  C   UNL A   1      36.637  29.859  30.004  1.00  0.00     0.338 C 
ATOM     31  O   UNL A   1      36.155  29.543  31.079  1.00  0.00    -0.246 OA
BRANCH  30  32
ATOM     32  C   UNL A   1      38.068  29.759  29.645  1.00  0.00     0.060 A 
ATOM     33  C   UNL A   1      38.428  29.655  28.294  1.00  0.00     0.016 A 
ATOM     34  C   UNL A   1      39.054  29.822  30.634  1.00  0.00     0.016 A 
ATOM     35  C   UNL A   1      39.776  29.616  27.931  1.00  0.00     0.010 A 
ATOM     36  C   UNL A   1      40.401  29.750  30.271  1.00  0.00     0.010 A 
ATOM     37  C   UNL A   1      40.769  29.627  28.919  1.00  0.00    -0.014 A 
BRANCH  37  38
ATOM     38  C   UNL A   1      42.167  29.290  28.551  1.00  0.00     0.031 A 
ATOM     39  C   UNL A   1      42.472  27.863  28.188  1.00  0.00     0.074 A 
ATOM     40  C   UNL A   1      43.134  30.225  28.499  1.00  0.00     0.049 A 
ATOM     41  N   UNL A   1      43.604  27.323  27.824  1.00  0.00    -0.248 NA
ATOM     42  C   UNL A   1      41.342  26.919  28.238  1.00  0.00     0.031 C 
ATOM     43  C   UNL A   1      42.954  31.646  28.790  1.00  0.00     0.029 A 
ATOM     44  N   UNL A   1      44.465  30.113  28.179  1.00  0.00    -0.354 N 
ATOM     45  C   UNL A   1      43.322  25.983  27.589  1.00  0.00     0.074 A 
ATOM     46  C   UNL A   1      41.923  25.780  27.895  1.00  0.00     0.031 C 
ATOM     47  C   UNL A   1      44.134  32.276  28.633  1.00  0.00     0.029 A 
ATOM     48  C   UNL A   1      45.157  31.299  28.256  1.00  0.00     0.049 A 
ATOM     49  H   UNL A   1      44.884  29.262  27.917  1.00  0.00     0.167 HD
ATOM     50  C   UNL A   1      44.148  25.011  27.137  1.00  0.00     0.037 A 
ATOM     51  C   UNL A   1      46.467  31.560  28.057  1.00  0.00     0.037 A 
ATOM     52  C   UNL A   1      45.539  25.212  26.842  1.00  0.00     0.049 A 
ATOM     53  C   UNL A   1      47.394  30.435  27.662  1.00  0.00     0.074 A 
ATOM     54  C   UNL A   1      46.457  24.292  26.370  1.00  0.00     0.029 A 
ATOM     55  N   UNL A   1      46.218  26.411  27.002  1.00  0.00    -0.354 N 
ATOM     56  N   UNL A   1      47.107  29.180  27.406  1.00  0.00    -0.248 NA
ATOM     57  C   UNL A   1      48.825  30.757  27.540  1.00  0.00     0.031 C 
ATOM     58  C   UNL A   1      47.703  24.919  26.296  1.00  0.00     0.029 A 
ATOM     59  C   UNL A   1      47.552  26.244  26.674  1.00  0.00     0.049 A 
ATOM     60  H   UNL A   1      45.810  27.255  27.302  1.00  0.00     0.167 HD
ATOM     61  C   UNL A   1      48.315  28.569  27.078  1.00  0.00     0.074 A 
ATOM     62  C   UNL A   1      49.334  29.594  27.151  1.00  0.00     0.031 C 
ATOM     63  C   UNL A   1      48.557  27.276  26.752  1.00  0.00     0.037 A 
BRANCH  50  64
ATOM     64  C   UNL A   1      43.566  23.641  26.941  1.00  0.00     0.058 A 
ATOM     65  C   UNL A   1      43.288  22.801  28.031  1.00  0.00     0.135 A 
ATOM     66  C   UNL A   1      43.249  23.175  25.655  1.00  0.00     0.135 A 
ATOM     67  F   UNL A   1      43.593  23.190  29.280  1.00  0.00    -0.206 F 
ATOM     68  C   UNL A   1      42.731  21.540  27.853  1.00  0.00     0.059 A 
ATOM     69  C   UNL A   1      42.666  21.928  25.455  1.00  0.00     0.059 A 
ATOM     70  F   UNL A   1      43.503  23.936  24.579  1.00  0.00    -0.206 F 
ATOM     71  C   UNL A   1      42.420  21.114  26.560  1.00  0.00     0.060 A 
BRANCH  71  72
ATOM     72  S   UNL A   1      41.685  19.479  26.352  1.00  0.00     0.124 S 
ATOM     73  O   UNL A   1      40.265  19.806  26.261  1.00  0.00    -0.237 OA
ATOM     74  O   UNL A   1      42.308  19.016  25.116  1.00  0.00    -0.237 OA
ATOM     75  O   UNL A   1      42.087  18.767  27.561  1.00  0.00    -0.744 OA
ENDBRANCH  71  72
ENDBRANCH  50  64
BRANCH  51  76
ATOM     76  C   UNL A   1      46.989  32.944  28.230  1.00  0.00     0.058 A 
ATOM     77  C   UNL A   1      46.967  33.863  27.171  1.00  0.00     0.135 A 
ATOM     78  C   UNL A   1      47.525  33.375  29.453  1.00  0.00     0.135 A 
ATOM     79  F   UNL A   1      46.484  33.495  25.974  1.00  0.00    -0.206 F 
ATOM     80  C   UNL A   1      47.460  35.157  27.315  1.00  0.00     0.059 A 
ATOM     81  C   UNL A   1      48.003  34.671  29.630  1.00  0.00     0.059 A 
ATOM     82  F   UNL A   1      47.572  32.536  30.501  1.00  0.00    -0.206 F 
ATOM     83  C   UNL A   1      47.970  35.553  28.552  1.00  0.00     0.060 A 
BRANCH  83  84
ATOM     84  S   UNL A   1      48.559  37.252  28.739  1.00  0.00     0.124 S 
ATOM     85  O   UNL A   1      48.063  37.873  27.517  1.00  0.00    -0.237 OA
ATOM     86  O   UNL A   1      47.902  37.665  29.976  1.00  0.00    -0.237 OA
ATOM     87  O   UNL A   1      50.008  37.099  28.827  1.00  0.00    -0.744 OA
ENDBRANCH  83  84
ENDBRANCH  51  76
BRANCH  63  88
ATOM     88  C   UNL A   1      49.975  26.869  26.456  1.00  0.00     0.058 A 
ATOM     89  C   UNL A   1      50.831  26.425  27.476  1.00  0.00     0.135 A 
ATOM     90  C   UNL A   1      50.441  26.795  25.133  1.00  0.00     0.135 A 
ATOM     91  F   UNL A   1      50.439  26.481  28.759  1.00  0.00    -0.206 F 
ATOM     92  C   UNL A   1      52.093  25.914  27.195  1.00  0.00     0.059 A 
ATOM     93  C   UNL A   1      51.690  26.262  24.826  1.00  0.00     0.059 A 
ATOM     94  F   UNL A   1      49.658  27.196  24.118  1.00  0.00    -0.206 F 
ATOM     95  C   UNL A   1      52.508  25.822  25.865  1.00  0.00     0.060 A 
BRANCH  95  96
ATOM     96  S   UNL A   1      54.113  25.072  25.515  1.00  0.00     0.124 S 
ATOM     97  O   UNL A   1      53.725  23.746  25.045  1.00  0.00    -0.237 OA
ATOM     98  O   UNL A   1      54.659  25.969  24.502  1.00  0.00    -0.237 OA
ATOM     99  O   UNL A   1      54.794  25.104  26.806  1.00  0.00    -0.744 OA
ENDBRANCH  95  96
ENDBRANCH  63  88
ENDBRANCH  37  38
ENDBRANCH  30  32
ENDBRANCH  29  30
ENDBRANCH  28  29
ENDBRANCH  27  28
ENDBRANCH  26  27
ENDBRANCH   1  26
TORSDOF 21
ENDMDL
MODEL 3
REMARK VINA RESULT:     -10.7      1.594      8.252
REMARK SMILES Cc1c(Cl)cc2c(c1C)O[C@@H](C(F)(F)F)C(C(=O)OCCOCCOCCOC(=O)c1ccc(-c3c4nc(c(-c5c(F)cc(S(=O)(=O)[O-])cc5F)c5ccc([nH]5)c(-c5c(F)cc(S(=O)(=O)[O-])cc5F)c5nc(c(-c6c(F)cc(S(=O)(=O)[O-])cc6F)c6ccc3[nH]6)C=C5)C=C4)cc1)=C2
REMARK SMILES IDX 24 1 23 2 22 3 21 4 20 5 19 6 17 7 18 8 16 9 1 10 2 11 3 12
REMARK SMILES IDX 8 13 4 14 5 15 7 16 9 17 6 18 10 19 97 20 11 21 12 22 13 23
REMARK SMILES IDX 14 24 15 25 25 26 26 27 27 28 28 29 29 30 30 31 31 32 32 33
REMARK SMILES IDX 96 34 33 35 95 36 34 37 35 38 36 39 89 40 37 41 94 42 88 43
REMARK SMILES IDX 90 44 38 45 93 46 87 47 86 48 39 50 73 51 52 52 72 53 53 54
REMARK SMILES IDX 56 55 71 56 91 57 54 58 55 59 70 61 92 62 57 63 40 64 41 65
REMARK SMILES IDX 50 66 42 67 43 68 49 69 51 70 44 71 45 72 46 73 47 74 48 75
REMARK SMILES IDX 74 76 75 77 84 78 76 79 77 80 83 81 85 82 78 83 79 84 80 85
REMARK SMILES IDX 81 86 82 87 58 88 59 89 68 90 60 91 61 92 67 93 69 94 62 95
REMARK SMILES IDX 63 96 64 97 65 98 66 99
REMARK H PARENT 90 49 56 60
REMARK Flexibility Score: inf
ROOT
ATOM      1  C   UNL A   1      32.207  30.557  26.843  1.00  0.00     0.188 C 
ENDROOT
BRANCH   1   2
ATOM      2  C   UNL A   1      31.880  29.372  25.915  1.00  0.00     0.188 C 
BRANCH   2   3
ATOM      3  O   UNL A   1      31.111  29.607  24.740  1.00  0.00    -0.376 OA
BRANCH   3   4
ATOM      4  C   UNL A   1      31.566  29.101  23.489  1.00  0.00     0.202 C 
BRANCH   4   5
ATOM      5  C   UNL A   1      30.690  28.080  22.747  1.00  0.00     0.261 C 
BRANCH   5   6
ATOM      6  O   UNL A   1      31.178  26.725  22.807  1.00  0.00    -0.460 OA
BRANCH   6   7
ATOM      7  C   UNL A   1      30.644  25.953  23.778  1.00  0.00     0.338 C 
ATOM      8  O   UNL A   1      29.546  26.101  24.293  1.00  0.00    -0.246 OA
BRANCH   7   9
ATOM      9  C   UNL A   1      31.511  24.800  24.081  1.00  0.00     0.087 C 
ATOM     10  C   UNL A   1      33.345  18.610  25.065  1.00  0.00     0.046 C 
ATOM     11  C   UNL A   1      32.955  19.984  24.574  1.00  0.00    -0.026 A 
ATOM     12  C   UNL A   1      32.379  20.132  23.294  1.00  0.00     0.045 A 
ATOM     13  C   UNL A   1      33.044  21.127  25.411  1.00  0.00    -0.004 A 
ATOM     14  Cl  UNL A   1      32.154  18.787  22.227  1.00  0.00    -0.084 Cl
ATOM     15  C   UNL A   1      31.918  21.371  22.842  1.00  0.00     0.032 A 
ATOM     16  C   UNL A   1      32.554  22.368  24.945  1.00  0.00     0.131 A 
ATOM     17  C   UNL A   1      33.659  21.092  26.789  1.00  0.00     0.049 C 
ATOM     18  C   UNL A   1      31.989  22.488  23.672  1.00  0.00     0.019 A 
ATOM     19  O   UNL A   1      32.565  23.416  25.836  1.00  0.00    -0.475 OA
ATOM     20  C   UNL A   1      31.354  23.736  23.280  1.00  0.00     0.027 C 
ATOM     21  C   UNL A   1      32.349  24.763  25.327  1.00  0.00     0.316 C 
BRANCH  21  22
ATOM     22  C   UNL A   1      33.715  25.469  25.248  1.00  0.00     0.430 C 
ATOM     23  F   UNL A   1      34.041  25.831  23.987  1.00  0.00    -0.167 F 
ATOM     24  F   UNL A   1      33.765  26.572  26.027  1.00  0.00    -0.167 F 
ATOM     25  F   UNL A   1      34.706  24.652  25.692  1.00  0.00    -0.167 F 
ENDBRANCH  21  22
ENDBRANCH   7   9
ENDBRANCH   6   7
ENDBRANCH   5   6
ENDBRANCH   4   5
ENDBRANCH   3   4
ENDBRANCH   2   3
ENDBRANCH   1   2
BRANCH   1  26
ATOM     26  O   UNL A   1      33.570  30.642  27.190  1.00  0.00    -0.376 OA
BRANCH  26  27
ATOM     27  C   UNL A   1      34.008  31.775  27.916  1.00  0.00     0.202 C 
BRANCH  27  28
ATOM     28  C   UNL A   1      35.044  31.633  29.046  1.00  0.00     0.261 C 
BRANCH  28  29
ATOM     29  O   UNL A   1      35.698  30.365  29.184  1.00  0.00    -0.460 OA
BRANCH  29  30
ATOM     30  C   UNL A   1      36.438  30.154  30.297  1.00  0.00     0.338 C 
ATOM     31  O   UNL A   1      36.027  30.019  31.437  1.00  0.00    -0.246 OA
BRANCH  30  32
ATOM     32  C   UNL A   1      37.827  29.905  29.852  1.00  0.00     0.060 A 
ATOM     33  C   UNL A   1      38.103  29.836  28.479  1.00  0.00     0.016 A 
ATOM     34  C   UNL A   1      38.861  29.794  30.786  1.00  0.00     0.016 A 
ATOM     35  C   UNL A   1      39.416  29.657  28.039  1.00  0.00     0.010 A 
ATOM     36  C   UNL A   1      40.170  29.583  30.343  1.00  0.00     0.010 A 
ATOM     37  C   UNL A   1      40.452  29.493  28.969  1.00  0.00    -0.014 A 
BRANCH  37  38
ATOM     38  C   UNL A   1      41.778  29.014  28.505  1.00  0.00     0.031 A 
ATOM     39  C   UNL A   1      42.901  30.013  28.440  1.00  0.00     0.074 A 
ATOM     40  C   UNL A   1      41.998  27.724  28.189  1.00  0.00     0.049 A 
ATOM     41  N   UNL A   1      44.144  29.841  28.080  1.00  0.00    -0.248 NA
ATOM     42  C   UNL A   1      42.573  31.393  28.840  1.00  0.00     0.031 C 
ATOM     43  C   UNL A   1      41.002  26.656  28.251  1.00  0.00     0.029 A 
ATOM     44  N   UNL A   1      43.140  27.096  27.755  1.00  0.00    -0.354 N 
ATOM     45  C   UNL A   1      44.751  31.082  28.223  1.00  0.00     0.074 A 
ATOM     46  C   UNL A   1      43.730  32.010  28.657  1.00  0.00     0.031 C 
ATOM     47  C   UNL A   1      41.579  25.501  27.867  1.00  0.00     0.029 A 
ATOM     48  C   UNL A   1      42.975  25.752  27.510  1.00  0.00     0.049 A 
ATOM     49  H   UNL A   1      43.996  27.565  27.630  1.00  0.00     0.167 HD
ATOM     50  C   UNL A   1      46.047  31.418  28.031  1.00  0.00     0.037 A 
ATOM     51  C   UNL A   1      43.850  24.838  27.040  1.00  0.00     0.037 A 
ATOM     52  C   UNL A   1      47.058  30.498  27.590  1.00  0.00     0.049 A 
ATOM     53  C   UNL A   1      45.265  25.261  26.724  1.00  0.00     0.074 A 
ATOM     54  C   UNL A   1      48.403  30.740  27.375  1.00  0.00     0.029 A 
ATOM     55  N   UNL A   1      46.836  29.163  27.285  1.00  0.00    -0.354 N 
ATOM     56  N   UNL A   1      45.836  26.429  26.900  1.00  0.00    -0.248 NA
ATOM     57  C   UNL A   1      46.154  24.245  26.136  1.00  0.00     0.031 C 
ATOM     58  C   UNL A   1      48.984  29.566  26.888  1.00  0.00     0.029 A 
ATOM     59  C   UNL A   1      48.011  28.578  26.846  1.00  0.00     0.049 A 
ATOM     60  H   UNL A   1      45.971  28.701  27.369  1.00  0.00     0.167 HD
ATOM     61  C   UNL A   1      47.150  26.285  26.460  1.00  0.00     0.074 A 
ATOM     62  C   UNL A   1      47.296  24.912  26.025  1.00  0.00     0.031 C 
ATOM     63  C   UNL A   1      48.142  27.208  26.416  1.00  0.00     0.037 A 
BRANCH  50  64
ATOM     64  C   UNL A   1      46.443  32.843  28.291  1.00  0.00     0.058 A 
ATOM     65  C   UNL A   1      46.915  33.254  29.547  1.00  0.00     0.135 A 
ATOM     66  C   UNL A   1      46.385  33.800  27.265  1.00  0.00     0.135 A 
ATOM     67  F   UNL A   1      46.969  32.384  30.568  1.00  0.00    -0.206 F 
ATOM     68  C   UNL A   1      47.300  34.569  29.783  1.00  0.00     0.059 A 
ATOM     69  C   UNL A   1      46.790  35.115  27.471  1.00  0.00     0.059 A 
ATOM     70  F   UNL A   1      45.932  33.459  26.048  1.00  0.00    -0.206 F 
ATOM     71  C   UNL A   1      47.238  35.491  28.737  1.00  0.00     0.060 A 
BRANCH  71  72
ATOM     72  S   UNL A   1      47.755  37.189  29.061  1.00  0.00     0.124 S 
ATOM     73  O   UNL A   1      48.379  37.552  27.792  1.00  0.00    -0.237 OA
ATOM     74  O   UNL A   1      46.486  37.848  29.354  1.00  0.00    -0.237 OA
ATOM     75  O   UNL A   1      48.669  37.059  30.192  1.00  0.00    -0.744 OA
ENDBRANCH  71  72
ENDBRANCH  50  64
BRANCH  51  76
ATOM     76  C   UNL A   1      43.419  23.427  26.831  1.00  0.00     0.058 A 
ATOM     77  C   UNL A   1      43.082  22.956  25.554  1.00  0.00     0.135 A 
ATOM     78  C   UNL A   1      43.330  22.524  27.902  1.00  0.00     0.135 A 
ATOM     79  F   UNL A   1      43.131  23.784  24.499  1.00  0.00    -0.206 F 
ATOM     80  C   UNL A   1      42.669  21.643  25.345  1.00  0.00     0.059 A 
ATOM     81  C   UNL A   1      42.942  21.199  27.716  1.00  0.00     0.059 A 
ATOM     82  F   UNL A   1      43.640  22.923  29.146  1.00  0.00    -0.206 F 
ATOM     83  C   UNL A   1      42.609  20.770  26.433  1.00  0.00     0.060 A 
BRANCH  83  84
ATOM     84  S   UNL A   1      42.121  19.055  26.138  1.00  0.00     0.124 S 
ATOM     85  O   UNL A   1      40.724  19.207  25.750  1.00  0.00    -0.237 OA
ATOM     86  O   UNL A   1      43.039  18.659  25.074  1.00  0.00    -0.237 OA
ATOM     87  O   UNL A   1      42.352  18.413  27.428  1.00  0.00    -0.744 OA
ENDBRANCH  83  84
ENDBRANCH  51  76
BRANCH  63  88
ATOM     88  C   UNL A   1      49.481  26.789  25.870  1.00  0.00     0.058 A 
ATOM     89  C   UNL A   1      49.816  27.005  24.525  1.00  0.00     0.135 A 
ATOM     90  C   UNL A   1      50.481  26.294  26.723  1.00  0.00     0.135 A 
ATOM     91  F   UNL A   1      48.895  27.470  23.665  1.00  0.00    -0.206 F 
ATOM     92  C   UNL A   1      51.097  26.753  24.046  1.00  0.00     0.059 A 
ATOM     93  C   UNL A   1      51.777  26.060  26.271  1.00  0.00     0.059 A 
ATOM     94  F   UNL A   1      50.216  26.080  28.022  1.00  0.00    -0.206 F 
ATOM     95  C   UNL A   1      52.075  26.295  24.931  1.00  0.00     0.060 A 
BRANCH  95  96
ATOM     96  S   UNL A   1      53.754  26.060  24.309  1.00  0.00     0.124 S 
ATOM     97  O   UNL A   1      54.213  24.932  25.113  1.00  0.00    -0.237 OA
ATOM     98  O   UNL A   1      53.524  25.778  22.895  1.00  0.00    -0.237 OA
ATOM     99  O   UNL A   1      54.405  27.336  24.590  1.00  0.00    -0.744 OA
ENDBRANCH  95  96
ENDBRANCH  63  88
ENDBRANCH  37  38
ENDBRANCH  30  32
ENDBRANCH  29  30
ENDBRANCH  28  29
ENDBRANCH  27  28
ENDBRANCH  26  27
ENDBRANCH   1  26
TORSDOF 21
ENDMDL
