MODEL 1
REMARK VINA RESULT:     -10.8      0.000      0.000
REMARK SMILES Cc1nc(CC(=O)N2Cc3nc[nH]c3C[C@H]2C(=O)OCCOCCOCCOC(=O)c2ccc(-c3c4nc(c(-c5c(F)cc(S(=O)(=O)[O-])cc5F)c5ccc([nH]5)c(-c5c(F)cc(S(=O)(=O)[O-])cc5F)c5nc(c(-c6c(F)cc(S(=O)(=O)[O-])cc6F)c6ccc3[nH]6)C=C5)C=C4)cc2)cs1
REMARK SMILES IDX 23 1 22 2 21 3 20 4 19 5 17 6 18 7 16 8 8 9 9 10 10 11 15 12
REMARK SMILES IDX 11 13 14 14 12 15 13 16 6 18 7 19 5 20 4 21 1 22 2 23 3 24
REMARK SMILES IDX 98 25 97 26 24 27 25 28 26 29 27 30 28 31 29 32 30 33 31 34
REMARK SMILES IDX 32 35 96 36 33 37 95 38 34 39 35 40 36 41 89 42 37 43 94 44
REMARK SMILES IDX 88 45 90 46 38 47 93 48 87 49 86 50 39 52 73 53 52 54 72 55
REMARK SMILES IDX 53 56 56 57 71 58 91 59 54 60 55 61 70 63 92 64 57 65 40 66
REMARK SMILES IDX 41 67 50 68 42 69 43 70 49 71 51 72 44 73 45 74 46 75 47 76
REMARK SMILES IDX 48 77 74 78 75 79 84 80 76 81 77 82 83 83 85 84 78 85 79 86
REMARK SMILES IDX 80 87 81 88 82 89 58 90 59 91 68 92 60 93 61 94 67 95 69 96
REMARK SMILES IDX 62 97 63 98 64 99 65 100 66 101
REMARK H PARENT 13 17 90 51 56 62
REMARK Flexibility Score: inf
ROOT
ATOM      1  C   UNL A   1      38.606  20.966  25.763  1.00  0.00     0.188 C 
ENDROOT
BRANCH   1   2
ATOM      2  O   UNL A   1      37.273  21.380  25.534  1.00  0.00    -0.376 OA
BRANCH   2   3
ATOM      3  C   UNL A   1      36.938  21.922  24.265  1.00  0.00     0.202 C 
BRANCH   3   4
ATOM      4  C   UNL A   1      36.781  23.446  24.073  1.00  0.00     0.261 C 
BRANCH   4   5
ATOM      5  O   UNL A   1      35.815  24.091  24.930  1.00  0.00    -0.462 OA
BRANCH   5   6
ATOM      6  C   UNL A   1      34.516  24.036  24.564  1.00  0.00     0.329 C 
ATOM      7  O   UNL A   1      34.136  24.112  23.396  1.00  0.00    -0.250 OA
BRANCH   6   8
ATOM      8  C   UNL A   1      33.505  23.902  25.737  1.00  0.00     0.201 C 
ATOM      9  N   UNL A   1      32.012  23.715  25.573  1.00  0.00    -0.322 N 
ATOM     10  C   UNL A   1      31.562  22.495  24.851  1.00  0.00     0.178 C 
ATOM     11  C   UNL A   1      32.486  21.364  25.150  1.00  0.00     0.081 A 
ATOM     12  C   UNL A   1      34.046  22.725  26.606  1.00  0.00     0.093 C 
ATOM     13  N   UNL A   1      32.436  20.129  24.561  1.00  0.00    -0.240 NA
ATOM     14  C   UNL A   1      33.611  21.474  25.937  1.00  0.00     0.042 A 
ATOM     15  C   UNL A   1      33.519  19.509  24.977  1.00  0.00     0.197 A 
ATOM     16  N   UNL A   1      34.267  20.288  25.821  1.00  0.00    -0.348 N 
ATOM     17  H   UNL A   1      35.113  20.038  26.259  1.00  0.00     0.167 HD
BRANCH   9  18
ATOM     18  C   UNL A   1      31.060  24.342  26.379  1.00  0.00     0.229 C 
ATOM     19  O   UNL A   1      30.540  23.742  27.329  1.00  0.00    -0.274 OA
BRANCH  18  20
ATOM     20  C   UNL A   1      30.490  25.709  26.009  1.00  0.00     0.157 C 
BRANCH  20  21
ATOM     21  C   UNL A   1      30.981  26.322  24.749  1.00  0.00     0.061 A 
ATOM     22  C   UNL A   1      33.638  28.383  23.313  1.00  0.00     0.079 C 
ATOM     23  C   UNL A   1      32.451  27.535  23.609  1.00  0.00     0.090 A 
ATOM     24  N   UNL A   1      32.133  27.097  24.807  1.00  0.00    -0.246 NA
ATOM     25  S   UNL A   1      31.367  27.085  22.353  1.00  0.00    -0.127 S 
ATOM     26  C   UNL A   1      30.435  26.199  23.486  1.00  0.00     0.091 A 
ENDBRANCH  20  21
ENDBRANCH  18  20
ENDBRANCH   9  18
ENDBRANCH   6   8
ENDBRANCH   5   6
ENDBRANCH   4   5
ENDBRANCH   3   4
ENDBRANCH   2   3
ENDBRANCH   1   2
BRANCH   1  27
ATOM     27  C   UNL A   1      39.626  21.955  26.355  1.00  0.00     0.188 C 
BRANCH  27  28
ATOM     28  O   UNL A   1      40.559  21.485  27.299  1.00  0.00    -0.376 OA
BRANCH  28  29
ATOM     29  C   UNL A   1      41.141  20.198  27.374  1.00  0.00     0.202 C 
BRANCH  29  30
ATOM     30  C   UNL A   1      42.138  19.634  26.373  1.00  0.00     0.261 C 
BRANCH  30  31
ATOM     31  O   UNL A   1      42.574  20.567  25.423  1.00  0.00    -0.460 OA
BRANCH  31  32
ATOM     32  C   UNL A   1      43.893  20.510  25.176  1.00  0.00     0.338 C 
ATOM     33  O   UNL A   1      44.581  19.510  25.015  1.00  0.00    -0.246 OA
BRANCH  32  34
ATOM     34  C   UNL A   1      44.369  21.888  25.102  1.00  0.00     0.060 A 
ATOM     35  C   UNL A   1      45.533  22.174  25.814  1.00  0.00     0.016 A 
ATOM     36  C   UNL A   1      43.451  22.865  24.694  1.00  0.00     0.016 A 
ATOM     37  C   UNL A   1      45.588  23.387  26.442  1.00  0.00     0.010 A 
ATOM     38  C   UNL A   1      43.479  24.049  25.360  1.00  0.00     0.010 A 
ATOM     39  C   UNL A   1      44.485  24.231  26.306  1.00  0.00    -0.014 A 
BRANCH  39  40
ATOM     40  C   UNL A   1      44.381  25.365  27.182  1.00  0.00     0.031 A 
ATOM     41  C   UNL A   1      45.494  26.311  26.985  1.00  0.00     0.074 A 
ATOM     42  C   UNL A   1      43.275  25.521  27.934  1.00  0.00     0.049 A 
ATOM     43  N   UNL A   1      46.385  26.674  27.843  1.00  0.00    -0.248 NA
ATOM     44  C   UNL A   1      45.783  26.741  25.602  1.00  0.00     0.031 C 
ATOM     45  C   UNL A   1      42.057  24.699  27.927  1.00  0.00     0.029 A 
ATOM     46  N   UNL A   1      42.944  26.536  28.768  1.00  0.00    -0.354 N 
ATOM     47  C   UNL A   1      47.181  27.587  27.165  1.00  0.00     0.074 A 
ATOM     48  C   UNL A   1      46.927  27.402  25.764  1.00  0.00     0.031 C 
ATOM     49  C   UNL A   1      41.056  25.384  28.523  1.00  0.00     0.029 A 
ATOM     50  C   UNL A   1      41.583  26.636  29.032  1.00  0.00     0.049 A 
ATOM     51  H   UNL A   1      43.610  27.150  29.154  1.00  0.00     0.167 HD
ATOM     52  C   UNL A   1      47.740  28.636  27.819  1.00  0.00     0.037 A 
ATOM     53  C   UNL A   1      40.955  27.739  29.517  1.00  0.00     0.037 A 
ATOM     54  C   UNL A   1      47.806  28.389  29.237  1.00  0.00     0.049 A 
ATOM     55  C   UNL A   1      42.012  28.604  30.117  1.00  0.00     0.074 A 
ATOM     56  C   UNL A   1      48.389  27.400  30.007  1.00  0.00     0.029 A 
ATOM     57  N   UNL A   1      46.870  28.997  30.040  1.00  0.00    -0.354 N 
ATOM     58  N   UNL A   1      42.696  28.279  31.183  1.00  0.00    -0.248 NA
ATOM     59  C   UNL A   1      42.648  29.596  29.258  1.00  0.00     0.031 C 
ATOM     60  C   UNL A   1      47.469  27.161  31.066  1.00  0.00     0.029 A 
ATOM     61  C   UNL A   1      46.408  28.058  30.929  1.00  0.00     0.049 A 
ATOM     62  H   UNL A   1      46.582  29.937  29.987  1.00  0.00     0.167 HD
ATOM     63  C   UNL A   1      43.997  28.689  30.918  1.00  0.00     0.074 A 
ATOM     64  C   UNL A   1      43.889  29.566  29.755  1.00  0.00     0.031 C 
ATOM     65  C   UNL A   1      45.067  28.046  31.474  1.00  0.00     0.037 A 
BRANCH  52  66
ATOM     66  C   UNL A   1      47.841  30.011  27.213  1.00  0.00     0.058 A 
ATOM     67  C   UNL A   1      49.073  30.687  27.262  1.00  0.00     0.135 A 
ATOM     68  C   UNL A   1      46.725  30.797  26.837  1.00  0.00     0.135 A 
ATOM     69  F   UNL A   1      50.194  30.039  27.617  1.00  0.00    -0.206 F 
ATOM     70  C   UNL A   1      49.177  32.056  27.025  1.00  0.00     0.059 A 
ATOM     71  C   UNL A   1      46.816  32.147  26.537  1.00  0.00     0.059 A 
ATOM     72  F   UNL A   1      45.473  30.325  26.838  1.00  0.00    -0.206 F 
ATOM     73  C   UNL A   1      48.037  32.779  26.680  1.00  0.00     0.060 A 
BRANCH  73  74
ATOM     74  S   UNL A   1      48.141  34.564  26.491  1.00  0.00     0.124 S 
ATOM     75  O   UNL A   1      49.513  34.818  26.913  1.00  0.00    -0.237 OA
ATOM     76  O   UNL A   1      47.866  34.733  25.067  1.00  0.00    -0.237 OA
ATOM     77  O   UNL A   1      47.099  35.058  27.386  1.00  0.00    -0.744 OA
ENDBRANCH  73  74
ENDBRANCH  52  66
BRANCH  53  78
ATOM     78  C   UNL A   1      39.596  28.242  29.161  1.00  0.00     0.058 A 
ATOM     79  C   UNL A   1      38.560  28.267  30.111  1.00  0.00     0.135 A 
ATOM     80  C   UNL A   1      39.348  28.946  27.963  1.00  0.00     0.135 A 
ATOM     81  F   UNL A   1      38.711  27.645  31.290  1.00  0.00    -0.206 F 
ATOM     82  C   UNL A   1      37.372  28.984  29.906  1.00  0.00     0.059 A 
ATOM     83  C   UNL A   1      38.169  29.651  27.729  1.00  0.00     0.059 A 
ATOM     84  F   UNL A   1      40.283  29.055  27.009  1.00  0.00    -0.206 F 
ATOM     85  C   UNL A   1      37.196  29.690  28.718  1.00  0.00     0.060 A 
BRANCH  85  86
ATOM     86  S   UNL A   1      35.754  30.765  28.518  1.00  0.00     0.124 S 
ATOM     87  O   UNL A   1      35.451  31.125  29.899  1.00  0.00    -0.237 OA
ATOM     88  O   UNL A   1      36.281  31.835  27.679  1.00  0.00    -0.237 OA
ATOM     89  O   UNL A   1      34.773  29.898  27.870  1.00  0.00    -0.744 OA
ENDBRANCH  85  86
ENDBRANCH  53  78
BRANCH  65  90
ATOM     90  C   UNL A   1      44.807  27.070  32.594  1.00  0.00     0.058 A 
ATOM     91  C   UNL A   1      44.531  25.702  32.407  1.00  0.00     0.135 A 
ATOM     92  C   UNL A   1      45.006  27.505  33.912  1.00  0.00     0.135 A 
ATOM     93  F   UNL A   1      44.439  25.181  31.175  1.00  0.00    -0.206 F 
ATOM     94  C   UNL A   1      44.413  24.819  33.481  1.00  0.00     0.059 A 
ATOM     95  C   UNL A   1      44.927  26.636  34.997  1.00  0.00     0.059 A 
ATOM     96  F   UNL A   1      45.340  28.782  34.155  1.00  0.00    -0.206 F 
ATOM     97  C   UNL A   1      44.615  25.296  34.775  1.00  0.00     0.060 A 
BRANCH  97  98
ATOM     98  S   UNL A   1      44.537  24.142  36.162  1.00  0.00     0.124 S 
ATOM     99  O   UNL A   1      45.946  23.971  36.497  1.00  0.00    -0.237 OA
ATOM    100  O   UNL A   1      43.737  24.875  37.141  1.00  0.00    -0.237 OA
ATOM    101  O   UNL A   1      43.883  22.967  35.593  1.00  0.00    -0.744 OA
ENDBRANCH  97  98
ENDBRANCH  65  90
ENDBRANCH  39  40
ENDBRANCH  32  34
ENDBRANCH  31  32
ENDBRANCH  30  31
ENDBRANCH  29  30
ENDBRANCH  28  29
ENDBRANCH  27  28
ENDBRANCH   1  27
TORSDOF 23
ENDMDL
MODEL 2
REMARK VINA RESULT:     -10.6      1.267      2.062
REMARK SMILES Cc1nc(CC(=O)N2Cc3nc[nH]c3C[C@H]2C(=O)OCCOCCOCCOC(=O)c2ccc(-c3c4nc(c(-c5c(F)cc(S(=O)(=O)[O-])cc5F)c5ccc([nH]5)c(-c5c(F)cc(S(=O)(=O)[O-])cc5F)c5nc(c(-c6c(F)cc(S(=O)(=O)[O-])cc6F)c6ccc3[nH]6)C=C5)C=C4)cc2)cs1
REMARK SMILES IDX 23 1 22 2 21 3 20 4 19 5 17 6 18 7 16 8 8 9 9 10 10 11 15 12
REMARK SMILES IDX 11 13 14 14 12 15 13 16 6 18 7 19 5 20 4 21 1 22 2 23 3 24
REMARK SMILES IDX 98 25 97 26 24 27 25 28 26 29 27 30 28 31 29 32 30 33 31 34
REMARK SMILES IDX 32 35 96 36 33 37 95 38 34 39 35 40 36 41 89 42 37 43 94 44
REMARK SMILES IDX 88 45 90 46 38 47 93 48 87 49 86 50 39 52 73 53 52 54 72 55
REMARK SMILES IDX 53 56 56 57 71 58 91 59 54 60 55 61 70 63 92 64 57 65 40 66
REMARK SMILES IDX 41 67 50 68 42 69 43 70 49 71 51 72 44 73 45 74 46 75 47 76
REMARK SMILES IDX 48 77 74 78 75 79 84 80 76 81 77 82 83 83 85 84 78 85 79 86
REMARK SMILES IDX 80 87 81 88 82 89 58 90 59 91 68 92 60 93 61 94 67 95 69 96
REMARK SMILES IDX 62 97 63 98 64 99 65 100 66 101
REMARK H PARENT 13 17 90 51 56 62
REMARK Flexibility Score: inf
ROOT
ATOM      1  C   UNL A   1      39.261  21.461  25.875  1.00  0.00     0.188 C 
ENDROOT
BRANCH   1   2
ATOM      2  O   UNL A   1      38.200  22.334  25.536  1.00  0.00    -0.376 OA
BRANCH   2   3
ATOM      3  C   UNL A   1      37.265  21.918  24.551  1.00  0.00     0.202 C 
BRANCH   3   4
ATOM      4  C   UNL A   1      36.175  22.884  24.040  1.00  0.00     0.261 C 
BRANCH   4   5
ATOM      5  O   UNL A   1      36.119  24.170  24.692  1.00  0.00    -0.462 OA
BRANCH   5   6
ATOM      6  C   UNL A   1      34.999  24.477  25.383  1.00  0.00     0.329 C 
ATOM      7  O   UNL A   1      34.679  23.925  26.435  1.00  0.00    -0.250 OA
BRANCH   6   8
ATOM      8  C   UNL A   1      34.102  25.568  24.735  1.00  0.00     0.201 C 
ATOM      9  N   UNL A   1      33.327  25.396  23.447  1.00  0.00    -0.322 N 
ATOM     10  C   UNL A   1      32.297  24.323  23.419  1.00  0.00     0.178 C 
ATOM     11  C   UNL A   1      31.662  24.201  24.762  1.00  0.00     0.081 A 
ATOM     12  C   UNL A   1      33.095  25.979  25.853  1.00  0.00     0.093 C 
ATOM     13  N   UNL A   1      30.758  23.237  25.121  1.00  0.00    -0.240 NA
ATOM     14  C   UNL A   1      32.030  24.946  25.861  1.00  0.00     0.042 A 
ATOM     15  C   UNL A   1      30.595  23.390  26.417  1.00  0.00     0.197 A 
ATOM     16  N   UNL A   1      31.347  24.422  26.914  1.00  0.00    -0.348 N 
ATOM     17  H   UNL A   1      31.385  24.727  27.850  1.00  0.00     0.167 HD
BRANCH   9  18
ATOM     18  C   UNL A   1      33.206  26.394  22.477  1.00  0.00     0.229 C 
ATOM     19  O   UNL A   1      33.552  26.184  21.307  1.00  0.00    -0.274 OA
BRANCH  18  20
ATOM     20  C   UNL A   1      32.829  27.823  22.858  1.00  0.00     0.157 C 
BRANCH  20  21
ATOM     21  C   UNL A   1      31.385  28.165  22.834  1.00  0.00     0.061 A 
ATOM     22  C   UNL A   1      28.956  30.625  21.645  1.00  0.00     0.079 C 
ATOM     23  C   UNL A   1      29.696  29.480  22.240  1.00  0.00     0.090 A 
ATOM     24  N   UNL A   1      31.004  29.343  22.203  1.00  0.00    -0.246 NA
ATOM     25  S   UNL A   1      28.852  28.235  23.071  1.00  0.00    -0.127 S 
ATOM     26  C   UNL A   1      30.339  27.429  23.357  1.00  0.00     0.091 A 
ENDBRANCH  20  21
ENDBRANCH  18  20
ENDBRANCH   9  18
ENDBRANCH   6   8
ENDBRANCH   5   6
ENDBRANCH   4   5
ENDBRANCH   3   4
ENDBRANCH   2   3
ENDBRANCH   1   2
BRANCH   1  27
ATOM     27  C   UNL A   1      40.132  21.755  27.108  1.00  0.00     0.188 C 
BRANCH  27  28
ATOM     28  O   UNL A   1      40.850  20.698  27.701  1.00  0.00    -0.376 OA
BRANCH  28  29
ATOM     29  C   UNL A   1      41.321  19.517  27.080  1.00  0.00     0.202 C 
BRANCH  29  30
ATOM     30  C   UNL A   1      42.486  19.453  26.103  1.00  0.00     0.261 C 
BRANCH  30  31
ATOM     31  O   UNL A   1      42.864  20.700  25.592  1.00  0.00    -0.460 OA
BRANCH  31  32
ATOM     32  C   UNL A   1      43.962  20.657  24.820  1.00  0.00     0.338 C 
ATOM     33  O   UNL A   1      44.393  19.704  24.183  1.00  0.00    -0.246 OA
BRANCH  32  34
ATOM     34  C   UNL A   1      44.552  21.992  24.851  1.00  0.00     0.060 A 
ATOM     35  C   UNL A   1      45.643  22.161  25.703  1.00  0.00     0.016 A 
ATOM     36  C   UNL A   1      43.771  23.052  24.375  1.00  0.00     0.016 A 
ATOM     37  C   UNL A   1      45.721  23.348  26.376  1.00  0.00     0.010 A 
ATOM     38  C   UNL A   1      43.814  24.213  25.082  1.00  0.00     0.010 A 
ATOM     39  C   UNL A   1      44.713  24.284  26.143  1.00  0.00    -0.014 A 
BRANCH  39  40
ATOM     40  C   UNL A   1      44.598  25.400  27.042  1.00  0.00     0.031 A 
ATOM     41  C   UNL A   1      45.709  26.354  26.874  1.00  0.00     0.074 A 
ATOM     42  C   UNL A   1      43.485  25.536  27.788  1.00  0.00     0.049 A 
ATOM     43  N   UNL A   1      46.591  26.702  27.748  1.00  0.00    -0.248 NA
ATOM     44  C   UNL A   1      46.008  26.813  25.503  1.00  0.00     0.031 C 
ATOM     45  C   UNL A   1      42.270  24.711  27.753  1.00  0.00     0.029 A 
ATOM     46  N   UNL A   1      43.143  26.533  28.639  1.00  0.00    -0.354 N 
ATOM     47  C   UNL A   1      47.390  27.631  27.095  1.00  0.00     0.074 A 
ATOM     48  C   UNL A   1      47.148  27.474  25.689  1.00  0.00     0.031 C 
ATOM     49  C   UNL A   1      41.261  25.380  28.354  1.00  0.00     0.029 A 
ATOM     50  C   UNL A   1      41.779  26.623  28.894  1.00  0.00     0.049 A 
ATOM     51  H   UNL A   1      43.804  27.141  29.043  1.00  0.00     0.167 HD
ATOM     52  C   UNL A   1      47.940  28.668  27.775  1.00  0.00     0.037 A 
ATOM     53  C   UNL A   1      41.143  27.714  29.395  1.00  0.00     0.037 A 
ATOM     54  C   UNL A   1      47.995  28.393  29.189  1.00  0.00     0.049 A 
ATOM     55  C   UNL A   1      42.192  28.570  30.023  1.00  0.00     0.074 A 
ATOM     56  C   UNL A   1      48.574  27.389  29.943  1.00  0.00     0.029 A 
ATOM     57  N   UNL A   1      47.049  28.980  29.996  1.00  0.00    -0.354 N 
ATOM     58  N   UNL A   1      42.868  28.225  31.087  1.00  0.00    -0.248 NA
ATOM     59  C   UNL A   1      42.832  29.581  29.190  1.00  0.00     0.031 C 
ATOM     60  C   UNL A   1      47.646  27.125  30.989  1.00  0.00     0.029 A 
ATOM     61  C   UNL A   1      46.583  28.021  30.861  1.00  0.00     0.049 A 
ATOM     62  H   UNL A   1      46.758  29.920  29.959  1.00  0.00     0.167 HD
ATOM     63  C   UNL A   1      44.169  28.644  30.842  1.00  0.00     0.074 A 
ATOM     64  C   UNL A   1      44.069  29.545  29.697  1.00  0.00     0.031 C 
ATOM     65  C   UNL A   1      45.238  27.994  31.395  1.00  0.00     0.037 A 
BRANCH  52  66
ATOM     66  C   UNL A   1      48.041  30.056  27.199  1.00  0.00     0.058 A 
ATOM     67  C   UNL A   1      49.287  30.708  27.211  1.00  0.00     0.135 A 
ATOM     68  C   UNL A   1      46.925  30.871  26.890  1.00  0.00     0.135 A 
ATOM     69  F   UNL A   1      50.408  30.031  27.503  1.00  0.00    -0.206 F 
ATOM     70  C   UNL A   1      49.406  32.081  27.003  1.00  0.00     0.059 A 
ATOM     71  C   UNL A   1      47.029  32.226  26.619  1.00  0.00     0.059 A 
ATOM     72  F   UNL A   1      45.665  30.421  26.933  1.00  0.00    -0.206 F 
ATOM     73  C   UNL A   1      48.267  32.832  26.725  1.00  0.00     0.060 A 
BRANCH  73  74
ATOM     74  S   UNL A   1      48.396  34.620  26.574  1.00  0.00     0.124 S 
ATOM     75  O   UNL A   1      48.975  34.754  25.243  1.00  0.00    -0.237 OA
ATOM     76  O   UNL A   1      47.004  35.035  26.714  1.00  0.00    -0.237 OA
ATOM     77  O   UNL A   1      49.269  34.987  27.685  1.00  0.00    -0.744 OA
ENDBRANCH  73  74
ENDBRANCH  52  66
BRANCH  53  78
ATOM     78  C   UNL A   1      39.786  28.219  29.038  1.00  0.00     0.058 A 
ATOM     79  C   UNL A   1      38.762  28.291  29.999  1.00  0.00     0.135 A 
ATOM     80  C   UNL A   1      39.530  28.882  27.819  1.00  0.00     0.135 A 
ATOM     81  F   UNL A   1      38.921  27.711  31.199  1.00  0.00    -0.206 F 
ATOM     82  C   UNL A   1      37.580  29.013  29.783  1.00  0.00     0.059 A 
ATOM     83  C   UNL A   1      38.356  29.592  27.574  1.00  0.00     0.059 A 
ATOM     84  F   UNL A   1      40.454  28.946  26.850  1.00  0.00    -0.206 F 
ATOM     85  C   UNL A   1      37.396  29.678  28.572  1.00  0.00     0.060 A 
BRANCH  85  86
ATOM     86  S   UNL A   1      35.964  30.762  28.351  1.00  0.00     0.124 S 
ATOM     87  O   UNL A   1      36.582  31.974  27.824  1.00  0.00    -0.237 OA
ATOM     88  O   UNL A   1      35.145  30.002  27.413  1.00  0.00    -0.237 OA
ATOM     89  O   UNL A   1      35.415  30.877  29.700  1.00  0.00    -0.744 OA
ENDBRANCH  85  86
ENDBRANCH  53  78
BRANCH  65  90
ATOM     90  C   UNL A   1      44.971  26.994  32.491  1.00  0.00     0.058 A 
ATOM     91  C   UNL A   1      44.787  27.331  33.846  1.00  0.00     0.135 A 
ATOM     92  C   UNL A   1      44.730  25.661  32.129  1.00  0.00     0.135 A 
ATOM     93  F   UNL A   1      44.886  28.603  34.257  1.00  0.00    -0.206 F 
ATOM     94  C   UNL A   1      44.427  26.380  34.801  1.00  0.00     0.059 A 
ATOM     95  C   UNL A   1      44.336  24.701  33.058  1.00  0.00     0.059 A 
ATOM     96  F   UNL A   1      44.819  25.288  30.842  1.00  0.00    -0.206 F 
ATOM     97  C   UNL A   1      44.202  25.065  34.397  1.00  0.00     0.060 A 
BRANCH  97  98
ATOM     98  S   UNL A   1      43.663  23.848  35.617  1.00  0.00     0.124 S 
ATOM     99  O   UNL A   1      44.102  24.454  36.869  1.00  0.00    -0.237 OA
ATOM    100  O   UNL A   1      42.218  23.804  35.406  1.00  0.00    -0.237 OA
ATOM    101  O   UNL A   1      44.376  22.634  35.226  1.00  0.00    -0.744 OA
ENDBRANCH  97  98
ENDBRANCH  65  90
ENDBRANCH  39  40
ENDBRANCH  32  34
ENDBRANCH  31  32
ENDBRANCH  30  31
ENDBRANCH  29  30
ENDBRANCH  28  29
ENDBRANCH  27  28
ENDBRANCH   1  27
TORSDOF 23
ENDMDL
MODEL 3
REMARK VINA RESULT:     -10.3      2.903      9.222
REMARK SMILES Cc1nc(CC(=O)N2Cc3nc[nH]c3C[C@H]2C(=O)OCCOCCOCCOC(=O)c2ccc(-c3c4nc(c(-c5c(F)cc(S(=O)(=O)[O-])cc5F)c5ccc([nH]5)c(-c5c(F)cc(S(=O)(=O)[O-])cc5F)c5nc(c(-c6c(F)cc(S(=O)(=O)[O-])cc6F)c6ccc3[nH]6)C=C5)C=C4)cc2)cs1
REMARK SMILES IDX 23 1 22 2 21 3 20 4 19 5 17 6 18 7 16 8 8 9 9 10 10 11 15 12
REMARK SMILES IDX 11 13 14 14 12 15 13 16 6 18 7 19 5 20 4 21 1 22 2 23 3 24
REMARK SMILES IDX 98 25 97 26 24 27 25 28 26 29 27 30 28 31 29 32 30 33 31 34
REMARK SMILES IDX 32 35 96 36 33 37 95 38 34 39 35 40 36 41 89 42 37 43 94 44
REMARK SMILES IDX 88 45 90 46 38 47 93 48 87 49 86 50 39 52 73 53 52 54 72 55
REMARK SMILES IDX 53 56 56 57 71 58 91 59 54 60 55 61 70 63 92 64 57 65 40 66
REMARK SMILES IDX 41 67 50 68 42 69 43 70 49 71 51 72 44 73 45 74 46 75 47 76
REMARK SMILES IDX 48 77 74 78 75 79 84 80 76 81 77 82 83 83 85 84 78 85 79 86
REMARK SMILES IDX 80 87 81 88 82 89 58 90 59 91 68 92 60 93 61 94 67 95 69 96
REMARK SMILES IDX 62 97 63 98 64 99 65 100 66 101
REMARK H PARENT 13 17 90 51 56 62
REMARK Flexibility Score: inf
ROOT
ATOM      1  C   UNL A   1      32.570  28.359  23.875  1.00  0.00     0.188 C 
ENDROOT
BRANCH   1   2
ATOM      2  O   UNL A   1      32.412  28.059  22.502  1.00  0.00    -0.376 OA
BRANCH   2   3
ATOM      3  C   UNL A   1      32.217  26.705  22.119  1.00  0.00     0.202 C 
BRANCH   3   4
ATOM      4  C   UNL A   1      32.336  25.568  23.156  1.00  0.00     0.261 C 
BRANCH   4   5
ATOM      5  O   UNL A   1      33.672  25.268  23.610  1.00  0.00    -0.462 OA
BRANCH   5   6
ATOM      6  C   UNL A   1      33.844  24.994  24.922  1.00  0.00     0.329 C 
ATOM      7  O   UNL A   1      34.269  25.813  25.736  1.00  0.00    -0.250 OA
BRANCH   6   8
ATOM      8  C   UNL A   1      33.500  23.539  25.343  1.00  0.00     0.201 C 
ATOM      9  N   UNL A   1      33.594  22.331  24.436  1.00  0.00    -0.322 N 
ATOM     10  C   UNL A   1      34.936  22.009  23.881  1.00  0.00     0.178 C 
ATOM     11  C   UNL A   1      35.988  22.348  24.882  1.00  0.00     0.081 A 
ATOM     12  C   UNL A   1      34.376  23.264  26.604  1.00  0.00     0.093 C 
ATOM     13  N   UNL A   1      37.338  22.289  24.656  1.00  0.00    -0.240 NA
ATOM     14  C   UNL A   1      35.731  22.921  26.108  1.00  0.00     0.042 A 
ATOM     15  C   UNL A   1      37.884  22.829  25.723  1.00  0.00     0.197 A 
ATOM     16  N   UNL A   1      36.945  23.227  26.639  1.00  0.00    -0.348 N 
ATOM     17  H   UNL A   1      37.116  23.651  27.511  1.00  0.00     0.167 HD
BRANCH   9  18
ATOM     18  C   UNL A   1      32.656  21.296  24.424  1.00  0.00     0.229 C 
ATOM     19  O   UNL A   1      31.693  21.323  23.647  1.00  0.00    -0.274 OA
BRANCH  18  20
ATOM     20  C   UNL A   1      32.677  20.201  25.488  1.00  0.00     0.157 C 
BRANCH  20  21
ATOM     21  C   UNL A   1      32.977  18.823  25.026  1.00  0.00     0.061 A 
ATOM     22  C   UNL A   1      32.375  15.284  25.718  1.00  0.00     0.079 C 
ATOM     23  C   UNL A   1      32.783  16.617  25.199  1.00  0.00     0.090 A 
ATOM     24  N   UNL A   1      32.455  17.762  25.756  1.00  0.00    -0.246 NA
ATOM     25  S   UNL A   1      33.773  16.741  23.799  1.00  0.00    -0.127 S 
ATOM     26  C   UNL A   1      33.715  18.450  23.919  1.00  0.00     0.091 A 
ENDBRANCH  20  21
ENDBRANCH  18  20
ENDBRANCH   9  18
ENDBRANCH   6   8
ENDBRANCH   5   6
ENDBRANCH   4   5
ENDBRANCH   3   4
ENDBRANCH   2   3
ENDBRANCH   1   2
BRANCH   1  27
ATOM     27  C   UNL A   1      31.591  29.323  24.567  1.00  0.00     0.188 C 
BRANCH  27  28
ATOM     28  O   UNL A   1      31.483  29.290  25.971  1.00  0.00    -0.376 OA
BRANCH  28  29
ATOM     29  C   UNL A   1      32.522  29.423  26.922  1.00  0.00     0.202 C 
BRANCH  29  30
ATOM     30  C   UNL A   1      33.343  30.684  27.143  1.00  0.00     0.261 C 
BRANCH  30  31
ATOM     31  O   UNL A   1      34.714  30.446  27.295  1.00  0.00    -0.460 OA
BRANCH  31  32
ATOM     32  C   UNL A   1      35.382  31.470  27.852  1.00  0.00     0.338 C 
ATOM     33  O   UNL A   1      35.330  32.654  27.543  1.00  0.00    -0.246 OA
BRANCH  32  34
ATOM     34  C   UNL A   1      36.182  30.911  28.938  1.00  0.00     0.060 A 
ATOM     35  C   UNL A   1      36.947  31.821  29.667  1.00  0.00     0.016 A 
ATOM     36  C   UNL A   1      36.439  29.535  28.906  1.00  0.00     0.016 A 
ATOM     37  C   UNL A   1      38.189  31.406  30.060  1.00  0.00     0.010 A 
ATOM     38  C   UNL A   1      37.693  29.136  29.248  1.00  0.00     0.010 A 
ATOM     39  C   UNL A   1      38.573  30.112  29.708  1.00  0.00    -0.014 A 
BRANCH  39  40
ATOM     40  C   UNL A   1      39.959  29.753  29.838  1.00  0.00     0.031 A 
ATOM     41  C   UNL A   1      40.369  29.659  31.250  1.00  0.00     0.074 A 
ATOM     42  C   UNL A   1      40.659  29.410  28.740  1.00  0.00     0.049 A 
ATOM     43  N   UNL A   1      41.266  30.356  31.861  1.00  0.00    -0.248 NA
ATOM     44  C   UNL A   1      39.529  28.842  32.148  1.00  0.00     0.031 C 
ATOM     45  C   UNL A   1      40.163  29.259  27.365  1.00  0.00     0.029 A 
ATOM     46  N   UNL A   1      41.940  28.979  28.642  1.00  0.00    -0.354 N 
ATOM     47  C   UNL A   1      41.275  29.863  33.159  1.00  0.00     0.074 A 
ATOM     48  C   UNL A   1      40.051  29.134  33.337  1.00  0.00     0.031 C 
ATOM     49  C   UNL A   1      41.059  28.548  26.645  1.00  0.00     0.029 A 
ATOM     50  C   UNL A   1      42.220  28.281  27.472  1.00  0.00     0.049 A 
ATOM     51  H   UNL A   1      42.615  29.146  29.340  1.00  0.00     0.167 HD
ATOM     52  C   UNL A   1      42.428  29.821  33.874  1.00  0.00     0.037 A 
ATOM     53  C   UNL A   1      43.279  27.451  27.286  1.00  0.00     0.037 A 
ATOM     54  C   UNL A   1      43.405  30.736  33.340  1.00  0.00     0.049 A 
ATOM     55  C   UNL A   1      44.274  27.782  28.348  1.00  0.00     0.074 A 
ATOM     56  C   UNL A   1      43.412  32.100  33.117  1.00  0.00     0.029 A 
ATOM     57  N   UNL A   1      44.418  30.217  32.568  1.00  0.00    -0.354 N 
ATOM     58  N   UNL A   1      44.919  28.917  28.408  1.00  0.00    -0.248 NA
ATOM     59  C   UNL A   1      44.188  27.056  29.610  1.00  0.00     0.031 C 
ATOM     60  C   UNL A   1      44.115  32.274  31.892  1.00  0.00     0.029 A 
ATOM     61  C   UNL A   1      44.557  31.022  31.464  1.00  0.00     0.049 A 
ATOM     62  H   UNL A   1      44.948  29.412  32.771  1.00  0.00     0.167 HD
ATOM     63  C   UNL A   1      44.948  29.247  29.758  1.00  0.00     0.074 A 
ATOM     64  C   UNL A   1      44.557  28.024  30.456  1.00  0.00     0.031 C 
ATOM     65  C   UNL A   1      44.993  30.551  30.166  1.00  0.00     0.037 A 
BRANCH  52  66
ATOM     66  C   UNL A   1      42.780  28.671  34.780  1.00  0.00     0.058 A 
ATOM     67  C   UNL A   1      43.127  28.940  36.116  1.00  0.00     0.135 A 
ATOM     68  C   UNL A   1      43.057  27.359  34.327  1.00  0.00     0.135 A 
ATOM     69  F   UNL A   1      42.918  30.156  36.644  1.00  0.00    -0.206 F 
ATOM     70  C   UNL A   1      43.766  27.998  36.920  1.00  0.00     0.059 A 
ATOM     71  C   UNL A   1      43.636  26.387  35.128  1.00  0.00     0.059 A 
ATOM     72  F   UNL A   1      42.875  26.977  33.057  1.00  0.00    -0.206 F 
ATOM     73  C   UNL A   1      44.031  26.729  36.408  1.00  0.00     0.060 A 
BRANCH  73  74
ATOM     74  S   UNL A   1      44.962  25.550  37.396  1.00  0.00     0.124 S 
ATOM     75  O   UNL A   1      44.824  26.121  38.730  1.00  0.00    -0.237 OA
ATOM     76  O   UNL A   1      44.233  24.310  37.150  1.00  0.00    -0.237 OA
ATOM     77  O   UNL A   1      46.300  25.608  36.816  1.00  0.00    -0.744 OA
ENDBRANCH  73  74
ENDBRANCH  52  66
BRANCH  53  78
ATOM     78  C   UNL A   1      43.310  26.178  26.509  1.00  0.00     0.058 A 
ATOM     79  C   UNL A   1      44.216  25.997  25.450  1.00  0.00     0.135 A 
ATOM     80  C   UNL A   1      42.636  25.018  26.945  1.00  0.00     0.135 A 
ATOM     81  F   UNL A   1      44.922  27.038  24.981  1.00  0.00    -0.206 F 
ATOM     82  C   UNL A   1      44.473  24.738  24.889  1.00  0.00     0.059 A 
ATOM     83  C   UNL A   1      42.861  23.758  26.392  1.00  0.00     0.059 A 
ATOM     84  F   UNL A   1      41.799  25.046  27.991  1.00  0.00    -0.206 F 
ATOM     85  C   UNL A   1      43.803  23.620  25.383  1.00  0.00     0.060 A 
BRANCH  85  86
ATOM     86  S   UNL A   1      44.257  21.970  24.797  1.00  0.00     0.124 S 
ATOM     87  O   UNL A   1      45.500  21.724  25.520  1.00  0.00    -0.237 OA
ATOM     88  O   UNL A   1      43.109  21.170  25.209  1.00  0.00    -0.237 OA
ATOM     89  O   UNL A   1      44.400  22.150  23.354  1.00  0.00    -0.744 OA
ENDBRANCH  85  86
ENDBRANCH  53  78
BRANCH  65  90
ATOM     90  C   UNL A   1      45.292  31.609  29.134  1.00  0.00     0.058 A 
ATOM     91  C   UNL A   1      46.585  31.933  28.681  1.00  0.00     0.135 A 
ATOM     92  C   UNL A   1      44.214  32.202  28.461  1.00  0.00     0.135 A 
ATOM     93  F   UNL A   1      47.665  31.327  29.193  1.00  0.00    -0.206 F 
ATOM     94  C   UNL A   1      46.797  32.838  27.640  1.00  0.00     0.059 A 
ATOM     95  C   UNL A   1      44.400  33.080  27.397  1.00  0.00     0.059 A 
ATOM     96  F   UNL A   1      42.954  31.882  28.797  1.00  0.00    -0.206 F 
ATOM     97  C   UNL A   1      45.696  33.407  27.002  1.00  0.00     0.060 A 
BRANCH  97  98
ATOM     98  S   UNL A   1      45.964  34.520  25.606  1.00  0.00     0.124 S 
ATOM     99  O   UNL A   1      45.549  35.806  26.156  1.00  0.00    -0.237 OA
ATOM    100  O   UNL A   1      47.395  34.372  25.351  1.00  0.00    -0.237 OA
ATOM    101  O   UNL A   1      45.097  33.977  24.564  1.00  0.00    -0.744 OA
ENDBRANCH  97  98
ENDBRANCH  65  90
ENDBRANCH  39  40
ENDBRANCH  32  34
ENDBRANCH  31  32
ENDBRANCH  30  31
ENDBRANCH  29  30
ENDBRANCH  28  29
ENDBRANCH  27  28
ENDBRANCH   1  27
TORSDOF 23
ENDMDL
