MODEL 1
REMARK VINA RESULT:      -9.7      0.000      0.000
REMARK SMILES O=C(OCCOCCOCCOC(=O)[C@H](O)Cc1ccc(O)cc1)c1ccc(-c2c3nc(c(-c4c(F)cc(S(=O)(=O)[O-])cc4F)c4ccc([nH]4)c(-c4c(F)cc(S(=O)(=O)[O-])cc4F)c4nc(c(-c5c(F)cc(S(=O)(=O)[O-])cc5F)c5ccc2[nH]5)C=C4)C=C3)cc1
REMARK SMILES IDX 7 1 6 2 5 3 4 4 3 5 2 6 1 7 25 8 26 9 90 10 27 11 89 12
REMARK SMILES IDX 28 13 29 14 30 15 83 16 31 17 88 18 82 19 84 20 32 21 87 22
REMARK SMILES IDX 81 23 80 24 33 26 67 27 46 28 66 29 47 30 50 31 65 32 85 33
REMARK SMILES IDX 48 34 49 35 64 37 86 38 51 39 34 40 35 41 44 42 36 43 37 44
REMARK SMILES IDX 43 45 45 46 38 47 39 48 40 49 41 50 42 51 68 52 69 53 78 54
REMARK SMILES IDX 70 55 71 56 77 57 79 58 72 59 73 60 74 61 75 62 76 63 52 64
REMARK SMILES IDX 53 65 62 66 54 67 55 68 61 69 63 70 56 71 57 72 58 73 59 74
REMARK SMILES IDX 60 75 8 76 9 77 10 78 11 79 12 80 13 81 14 82 15 83 17 84
REMARK SMILES IDX 18 85 19 86 24 87 20 88 23 89 21 90 22 91 16 93
REMARK H PARENT 84 25 50 36 22 92 16 94
REMARK Flexibility Score: inf
ROOT
ATOM      1  C   UNL A   1      42.206  20.370  26.473  1.00  0.00     0.188 C 
ENDROOT
BRANCH   1   2
ATOM      2  O   UNL A   1      42.778  21.096  25.386  1.00  0.00    -0.376 OA
BRANCH   2   3
ATOM      3  C   UNL A   1      43.551  22.244  25.740  1.00  0.00     0.202 C 
BRANCH   3   4
ATOM      4  C   UNL A   1      42.868  23.340  26.582  1.00  0.00     0.261 C 
BRANCH   4   5
ATOM      5  O   UNL A   1      43.052  24.684  26.104  1.00  0.00    -0.460 OA
BRANCH   5   6
ATOM      6  C   UNL A   1      42.159  25.707  26.102  1.00  0.00     0.338 C 
ATOM      7  O   UNL A   1      41.587  25.988  25.049  1.00  0.00    -0.246 OA
BRANCH   6   8
ATOM      8  C   UNL A   1      41.861  26.532  27.309  1.00  0.00     0.060 A 
ATOM      9  C   UNL A   1      42.439  27.772  27.567  1.00  0.00     0.016 A 
ATOM     10  C   UNL A   1      40.863  26.083  28.186  1.00  0.00     0.016 A 
ATOM     11  C   UNL A   1      42.128  28.510  28.695  1.00  0.00     0.010 A 
ATOM     12  C   UNL A   1      40.491  26.849  29.298  1.00  0.00     0.010 A 
ATOM     13  C   UNL A   1      41.143  28.060  29.563  1.00  0.00    -0.014 A 
BRANCH  13  14
ATOM     14  C   UNL A   1      40.896  28.847  30.783  1.00  0.00     0.031 A 
ATOM     15  C   UNL A   1      39.748  29.804  30.783  1.00  0.00     0.074 A 
ATOM     16  C   UNL A   1      41.617  28.608  31.895  1.00  0.00     0.049 A 
ATOM     17  N   UNL A   1      39.401  30.666  31.695  1.00  0.00    -0.248 NA
ATOM     18  C   UNL A   1      38.865  29.782  29.602  1.00  0.00     0.031 C 
ATOM     19  C   UNL A   1      42.672  27.598  32.012  1.00  0.00     0.029 A 
ATOM     20  N   UNL A   1      41.573  29.177  33.138  1.00  0.00    -0.354 N 
ATOM     21  C   UNL A   1      38.294  31.324  31.180  1.00  0.00     0.074 A 
ATOM     22  C   UNL A   1      38.008  30.752  29.886  1.00  0.00     0.031 C 
ATOM     23  C   UNL A   1      43.181  27.626  33.254  1.00  0.00     0.029 A 
ATOM     24  C   UNL A   1      42.542  28.702  33.993  1.00  0.00     0.049 A 
ATOM     25  H   UNL A   1      40.913  29.860  33.397  1.00  0.00     0.167 HD
ATOM     26  C   UNL A   1      37.602  32.337  31.747  1.00  0.00     0.037 A 
ATOM     27  C   UNL A   1      42.914  29.141  35.208  1.00  0.00     0.037 A 
ATOM     28  C   UNL A   1      37.914  32.864  33.047  1.00  0.00     0.049 A 
ATOM     29  C   UNL A   1      42.193  30.330  35.766  1.00  0.00     0.074 A 
ATOM     30  C   UNL A   1      37.292  33.890  33.732  1.00  0.00     0.029 A 
ATOM     31  N   UNL A   1      38.951  32.409  33.851  1.00  0.00    -0.354 N 
ATOM     32  N   UNL A   1      41.178  30.984  35.257  1.00  0.00    -0.248 NA
ATOM     33  C   UNL A   1      42.686  30.861  37.042  1.00  0.00     0.031 C 
ATOM     34  C   UNL A   1      37.994  34.098  34.922  1.00  0.00     0.029 A 
ATOM     35  C   UNL A   1      39.015  33.163  35.007  1.00  0.00     0.049 A 
ATOM     36  H   UNL A   1      39.550  31.659  33.632  1.00  0.00     0.167 HD
ATOM     37  C   UNL A   1      40.913  32.014  36.144  1.00  0.00     0.074 A 
ATOM     38  C   UNL A   1      41.857  31.877  37.238  1.00  0.00     0.031 C 
ATOM     39  C   UNL A   1      39.981  32.993  36.063  1.00  0.00     0.037 A 
BRANCH  26  40
ATOM     40  C   UNL A   1      36.518  32.985  30.941  1.00  0.00     0.058 A 
ATOM     41  C   UNL A   1      35.157  32.814  31.230  1.00  0.00     0.135 A 
ATOM     42  C   UNL A   1      36.863  33.830  29.873  1.00  0.00     0.135 A 
ATOM     43  F   UNL A   1      34.772  31.986  32.215  1.00  0.00    -0.206 F 
ATOM     44  C   UNL A   1      34.173  33.463  30.491  1.00  0.00     0.059 A 
ATOM     45  C   UNL A   1      35.898  34.506  29.135  1.00  0.00     0.059 A 
ATOM     46  F   UNL A   1      38.152  34.005  29.540  1.00  0.00    -0.206 F 
ATOM     47  C   UNL A   1      34.556  34.316  29.451  1.00  0.00     0.060 A 
BRANCH  47  48
ATOM     48  S   UNL A   1      33.268  35.191  28.540  1.00  0.00     0.124 S 
ATOM     49  O   UNL A   1      34.040  36.231  27.869  1.00  0.00    -0.237 OA
ATOM     50  O   UNL A   1      32.728  34.146  27.683  1.00  0.00    -0.237 OA
ATOM     51  O   UNL A   1      32.368  35.663  29.594  1.00  0.00    -0.744 OA
ENDBRANCH  47  48
ENDBRANCH  26  40
BRANCH  27  52
ATOM     52  C   UNL A   1      44.093  28.574  35.908  1.00  0.00     0.058 A 
ATOM     53  C   UNL A   1      43.967  27.529  36.833  1.00  0.00     0.135 A 
ATOM     54  C   UNL A   1      45.366  29.128  35.713  1.00  0.00     0.135 A 
ATOM     55  F   UNL A   1      42.764  26.989  37.078  1.00  0.00    -0.206 F 
ATOM     56  C   UNL A   1      45.066  27.050  37.543  1.00  0.00     0.059 A 
ATOM     57  C   UNL A   1      46.477  28.665  36.410  1.00  0.00     0.059 A 
ATOM     58  F   UNL A   1      45.535  30.139  34.845  1.00  0.00    -0.206 F 
ATOM     59  C   UNL A   1      46.318  27.626  37.323  1.00  0.00     0.060 A 
BRANCH  59  60
ATOM     60  S   UNL A   1      47.760  26.971  38.194  1.00  0.00     0.124 S 
ATOM     61  O   UNL A   1      47.153  25.946  39.034  1.00  0.00    -0.237 OA
ATOM     62  O   UNL A   1      48.598  26.488  37.100  1.00  0.00    -0.237 OA
ATOM     63  O   UNL A   1      48.283  28.141  38.895  1.00  0.00    -0.744 OA
ENDBRANCH  59  60
ENDBRANCH  27  52
BRANCH  39  64
ATOM     64  C   UNL A   1      39.940  33.975  37.190  1.00  0.00     0.058 A 
ATOM     65  C   UNL A   1      40.691  35.159  37.152  1.00  0.00     0.135 A 
ATOM     66  C   UNL A   1      39.086  33.759  38.281  1.00  0.00     0.135 A 
ATOM     67  F   UNL A   1      41.535  35.393  36.135  1.00  0.00    -0.206 F 
ATOM     68  C   UNL A   1      40.595  36.101  38.166  1.00  0.00     0.059 A 
ATOM     69  C   UNL A   1      38.952  34.702  39.290  1.00  0.00     0.059 A 
ATOM     70  F   UNL A   1      38.350  32.638  38.354  1.00  0.00    -0.206 F 
ATOM     71  C   UNL A   1      39.713  35.868  39.224  1.00  0.00     0.060 A 
BRANCH  71  72
ATOM     72  S   UNL A   1      39.541  37.136  40.492  1.00  0.00     0.124 S 
ATOM     73  O   UNL A   1      40.933  37.377  40.857  1.00  0.00    -0.237 OA
ATOM     74  O   UNL A   1      38.879  38.215  39.764  1.00  0.00    -0.237 OA
ATOM     75  O   UNL A   1      38.727  36.485  41.515  1.00  0.00    -0.744 OA
ENDBRANCH  71  72
ENDBRANCH  39  64
ENDBRANCH  13  14
ENDBRANCH   6   8
ENDBRANCH   5   6
ENDBRANCH   4   5
ENDBRANCH   3   4
ENDBRANCH   2   3
ENDBRANCH   1   2
BRANCH   1  76
ATOM     76  C   UNL A   1      40.676  20.396  26.465  1.00  0.00     0.188 C 
BRANCH  76  77
ATOM     77  O   UNL A   1      40.051  21.430  25.708  1.00  0.00    -0.376 OA
BRANCH  77  78
ATOM     78  C   UNL A   1      38.763  21.857  26.134  1.00  0.00     0.202 C 
BRANCH  78  79
ATOM     79  C   UNL A   1      37.543  21.507  25.262  1.00  0.00     0.261 C 
BRANCH  79  80
ATOM     80  O   UNL A   1      36.255  21.743  25.857  1.00  0.00    -0.461 OA
BRANCH  80  81
ATOM     81  C   UNL A   1      35.221  21.852  24.973  1.00  0.00     0.335 C 
ATOM     82  O   UNL A   1      35.349  22.184  23.799  1.00  0.00    -0.249 OA
BRANCH  81  83
ATOM     83  C   UNL A   1      33.881  21.418  25.598  1.00  0.00     0.228 C 
BRANCH  83  84
ATOM     84  C   UNL A   1      33.271  20.358  24.661  1.00  0.00     0.079 C 
BRANCH  84  85
ATOM     85  C   UNL A   1      33.582  18.888  24.827  1.00  0.00    -0.045 A 
ATOM     86  C   UNL A   1      34.800  18.278  24.507  1.00  0.00     0.007 A 
ATOM     87  C   UNL A   1      32.535  18.078  25.311  1.00  0.00     0.007 A 
ATOM     88  C   UNL A   1      34.975  16.903  24.691  1.00  0.00     0.046 A 
ATOM     89  C   UNL A   1      32.695  16.703  25.455  1.00  0.00     0.046 A 
ATOM     90  C   UNL A   1      33.921  16.130  25.162  1.00  0.00     0.115 A 
BRANCH  90  91
ATOM     91  O   UNL A   1      34.082  14.794  25.376  1.00  0.00    -0.508 OA
ATOM     92  H   UNL A   1      33.639  14.175  24.829  1.00  0.00     0.293 HD
ENDBRANCH  90  91
ENDBRANCH  84  85
ENDBRANCH  83  84
BRANCH  83  93
ATOM     93  O   UNL A   1      34.100  20.906  26.913  1.00  0.00    -0.381 OA
ATOM     94  H   UNL A   1      34.854  20.298  26.902  1.00  0.00     0.211 HD
ENDBRANCH  83  93
ENDBRANCH  81  83
ENDBRANCH  80  81
ENDBRANCH  79  80
ENDBRANCH  78  79
ENDBRANCH  77  78
ENDBRANCH  76  77
ENDBRANCH   1  76
TORSDOF 24
ENDMDL
MODEL 2
REMARK VINA RESULT:      -9.7      5.329     10.313
REMARK SMILES O=C(OCCOCCOCCOC(=O)[C@H](O)Cc1ccc(O)cc1)c1ccc(-c2c3nc(c(-c4c(F)cc(S(=O)(=O)[O-])cc4F)c4ccc([nH]4)c(-c4c(F)cc(S(=O)(=O)[O-])cc4F)c4nc(c(-c5c(F)cc(S(=O)(=O)[O-])cc5F)c5ccc2[nH]5)C=C4)C=C3)cc1
REMARK SMILES IDX 7 1 6 2 5 3 4 4 3 5 2 6 1 7 25 8 26 9 90 10 27 11 89 12
REMARK SMILES IDX 28 13 29 14 30 15 83 16 31 17 88 18 82 19 84 20 32 21 87 22
REMARK SMILES IDX 81 23 80 24 33 26 67 27 46 28 66 29 47 30 50 31 65 32 85 33
REMARK SMILES IDX 48 34 49 35 64 37 86 38 51 39 34 40 35 41 44 42 36 43 37 44
REMARK SMILES IDX 43 45 45 46 38 47 39 48 40 49 41 50 42 51 68 52 69 53 78 54
REMARK SMILES IDX 70 55 71 56 77 57 79 58 72 59 73 60 74 61 75 62 76 63 52 64
REMARK SMILES IDX 53 65 62 66 54 67 55 68 61 69 63 70 56 71 57 72 58 73 59 74
REMARK SMILES IDX 60 75 8 76 9 77 10 78 11 79 12 80 13 81 14 82 15 83 17 84
REMARK SMILES IDX 18 85 19 86 24 87 20 88 23 89 21 90 22 91 16 93
REMARK H PARENT 84 25 50 36 22 92 16 94
REMARK Flexibility Score: inf
ROOT
ATOM      1  C   UNL A   1      31.033  28.616  23.829  1.00  0.00     0.188 C 
ENDROOT
BRANCH   1   2
ATOM      2  O   UNL A   1      31.621  29.226  24.977  1.00  0.00    -0.376 OA
BRANCH   2   3
ATOM      3  C   UNL A   1      33.014  28.978  25.172  1.00  0.00     0.202 C 
BRANCH   3   4
ATOM      4  C   UNL A   1      33.437  28.202  26.435  1.00  0.00     0.261 C 
BRANCH   4   5
ATOM      5  O   UNL A   1      33.496  28.981  27.642  1.00  0.00    -0.460 OA
BRANCH   5   6
ATOM      6  C   UNL A   1      34.375  29.963  27.970  1.00  0.00     0.338 C 
ATOM      7  O   UNL A   1      33.961  31.119  28.058  1.00  0.00    -0.246 OA
BRANCH   6   8
ATOM      8  C   UNL A   1      35.829  29.715  28.196  1.00  0.00     0.060 A 
ATOM      9  C   UNL A   1      36.814  29.933  27.237  1.00  0.00     0.016 A 
ATOM     10  C   UNL A   1      36.243  29.339  29.482  1.00  0.00     0.016 A 
ATOM     11  C   UNL A   1      38.154  29.699  27.490  1.00  0.00     0.010 A 
ATOM     12  C   UNL A   1      37.601  29.161  29.772  1.00  0.00     0.010 A 
ATOM     13  C   UNL A   1      38.559  29.322  28.763  1.00  0.00    -0.014 A 
BRANCH  13  14
ATOM     14  C   UNL A   1      39.986  29.020  28.965  1.00  0.00     0.031 A 
ATOM     15  C   UNL A   1      40.859  30.093  29.533  1.00  0.00     0.074 A 
ATOM     16  C   UNL A   1      40.446  27.772  28.753  1.00  0.00     0.049 A 
ATOM     17  N   UNL A   1      42.150  30.092  29.703  1.00  0.00    -0.248 NA
ATOM     18  C   UNL A   1      40.189  31.329  29.978  1.00  0.00     0.031 C 
ATOM     19  C   UNL A   1      39.627  26.637  28.320  1.00  0.00     0.029 A 
ATOM     20  N   UNL A   1      41.699  27.239  28.882  1.00  0.00    -0.354 N 
ATOM     21  C   UNL A   1      42.455  31.340  30.226  1.00  0.00     0.074 A 
ATOM     22  C   UNL A   1      41.216  32.069  30.368  1.00  0.00     0.031 C 
ATOM     23  C   UNL A   1      40.401  25.545  28.210  1.00  0.00     0.029 A 
ATOM     24  C   UNL A   1      41.776  25.921  28.491  1.00  0.00     0.049 A 
ATOM     25  H   UNL A   1      42.471  27.747  29.221  1.00  0.00     0.167 HD
ATOM     26  C   UNL A   1      43.677  31.827  30.532  1.00  0.00     0.037 A 
ATOM     27  C   UNL A   1      42.852  25.134  28.311  1.00  0.00     0.037 A 
ATOM     28  C   UNL A   1      44.882  31.057  30.389  1.00  0.00     0.049 A 
ATOM     29  C   UNL A   1      44.200  25.735  28.564  1.00  0.00     0.074 A 
ATOM     30  C   UNL A   1      46.183  31.436  30.663  1.00  0.00     0.029 A 
ATOM     31  N   UNL A   1      44.930  29.752  29.918  1.00  0.00    -0.354 N 
ATOM     32  N   UNL A   1      44.492  26.932  29.011  1.00  0.00    -0.248 NA
ATOM     33  C   UNL A   1      45.364  24.896  28.257  1.00  0.00     0.031 C 
ATOM     34  C   UNL A   1      47.023  30.381  30.295  1.00  0.00     0.029 A 
ATOM     35  C   UNL A   1      46.242  29.325  29.849  1.00  0.00     0.049 A 
ATOM     36  H   UNL A   1      44.146  29.211  29.671  1.00  0.00     0.167 HD
ATOM     37  C   UNL A   1      45.875  26.998  29.031  1.00  0.00     0.074 A 
ATOM     38  C   UNL A   1      46.361  25.708  28.579  1.00  0.00     0.031 C 
ATOM     39  C   UNL A   1      46.676  28.032  29.382  1.00  0.00     0.037 A 
BRANCH  26  40
ATOM     40  C   UNL A   1      43.776  33.259  30.961  1.00  0.00     0.058 A 
ATOM     41  C   UNL A   1      43.789  33.645  32.308  1.00  0.00     0.135 A 
ATOM     42  C   UNL A   1      43.898  34.264  29.986  1.00  0.00     0.135 A 
ATOM     43  F   UNL A   1      43.636  32.729  33.278  1.00  0.00    -0.206 F 
ATOM     44  C   UNL A   1      43.926  34.980  32.677  1.00  0.00     0.059 A 
ATOM     45  C   UNL A   1      44.058  35.601  30.332  1.00  0.00     0.059 A 
ATOM     46  F   UNL A   1      43.864  33.948  28.682  1.00  0.00    -0.206 F 
ATOM     47  C   UNL A   1      44.069  35.949  31.679  1.00  0.00     0.060 A 
BRANCH  47  48
ATOM     48  S   UNL A   1      44.301  37.668  32.178  1.00  0.00     0.124 S 
ATOM     49  O   UNL A   1      43.319  37.797  33.249  1.00  0.00    -0.237 OA
ATOM     50  O   UNL A   1      45.698  37.687  32.590  1.00  0.00    -0.237 OA
ATOM     51  O   UNL A   1      43.999  38.419  30.959  1.00  0.00    -0.744 OA
ENDBRANCH  47  48
ENDBRANCH  26  40
BRANCH  27  52
ATOM     52  C   UNL A   1      42.726  23.771  27.738  1.00  0.00     0.058 A 
ATOM     53  C   UNL A   1      42.673  23.556  26.354  1.00  0.00     0.135 A 
ATOM     54  C   UNL A   1      42.580  22.660  28.581  1.00  0.00     0.135 A 
ATOM     55  F   UNL A   1      42.775  24.593  25.509  1.00  0.00    -0.206 F 
ATOM     56  C   UNL A   1      42.480  22.283  25.823  1.00  0.00     0.059 A 
ATOM     57  C   UNL A   1      42.387  21.380  28.073  1.00  0.00     0.059 A 
ATOM     58  F   UNL A   1      42.613  22.817  29.915  1.00  0.00    -0.206 F 
ATOM     59  C   UNL A   1      42.339  21.200  26.693  1.00  0.00     0.060 A 
BRANCH  59  60
ATOM     60  S   UNL A   1      42.148  19.536  26.013  1.00  0.00     0.124 S 
ATOM     61  O   UNL A   1      40.711  19.480  25.778  1.00  0.00    -0.237 OA
ATOM     62  O   UNL A   1      42.989  19.585  24.820  1.00  0.00    -0.237 OA
ATOM     63  O   UNL A   1      42.653  18.681  27.084  1.00  0.00    -0.744 OA
ENDBRANCH  59  60
ENDBRANCH  27  52
BRANCH  39  64
ATOM     64  C   UNL A   1      48.150  27.797  29.296  1.00  0.00     0.058 A 
ATOM     65  C   UNL A   1      48.889  27.386  30.415  1.00  0.00     0.135 A 
ATOM     66  C   UNL A   1      48.811  27.914  28.065  1.00  0.00     0.135 A 
ATOM     67  F   UNL A   1      48.297  27.281  31.616  1.00  0.00    -0.206 F 
ATOM     68  C   UNL A   1      50.242  27.099  30.315  1.00  0.00     0.059 A 
ATOM     69  C   UNL A   1      50.157  27.603  27.936  1.00  0.00     0.059 A 
ATOM     70  F   UNL A   1      48.138  28.304  26.970  1.00  0.00    -0.206 F 
ATOM     71  C   UNL A   1      50.863  27.198  29.068  1.00  0.00     0.060 A 
BRANCH  71  72
ATOM     72  S   UNL A   1      52.602  26.747  28.938  1.00  0.00     0.124 S 
ATOM     73  O   UNL A   1      53.247  28.056  28.944  1.00  0.00    -0.237 OA
ATOM     74  O   UNL A   1      52.802  25.935  30.135  1.00  0.00    -0.237 OA
ATOM     75  O   UNL A   1      52.671  26.018  27.674  1.00  0.00    -0.744 OA
ENDBRANCH  71  72
ENDBRANCH  39  64
ENDBRANCH  13  14
ENDBRANCH   6   8
ENDBRANCH   5   6
ENDBRANCH   4   5
ENDBRANCH   3   4
ENDBRANCH   2   3
ENDBRANCH   1   2
BRANCH   1  76
ATOM     76  C   UNL A   1      30.515  27.203  24.106  1.00  0.00     0.188 C 
BRANCH  76  77
ATOM     77  O   UNL A   1      31.473  26.147  24.079  1.00  0.00    -0.376 OA
BRANCH  77  78
ATOM     78  C   UNL A   1      31.146  24.957  24.788  1.00  0.00     0.202 C 
BRANCH  78  79
ATOM     79  C   UNL A   1      30.805  23.689  23.985  1.00  0.00     0.261 C 
BRANCH  79  80
ATOM     80  O   UNL A   1      31.903  23.067  23.295  1.00  0.00    -0.461 OA
BRANCH  80  81
ATOM     81  C   UNL A   1      32.809  22.440  24.100  1.00  0.00     0.335 C 
ATOM     82  O   UNL A   1      33.826  22.969  24.538  1.00  0.00    -0.249 OA
BRANCH  81  83
ATOM     83  C   UNL A   1      32.360  21.013  24.473  1.00  0.00     0.228 C 
BRANCH  83  84
ATOM     84  C   UNL A   1      33.636  20.162  24.613  1.00  0.00     0.079 C 
BRANCH  84  85
ATOM     85  C   UNL A   1      33.566  18.670  24.843  1.00  0.00    -0.045 A 
ATOM     86  C   UNL A   1      32.572  18.010  25.573  1.00  0.00     0.007 A 
ATOM     87  C   UNL A   1      34.616  17.903  24.298  1.00  0.00     0.007 A 
ATOM     88  C   UNL A   1      32.611  16.621  25.733  1.00  0.00     0.046 A 
ATOM     89  C   UNL A   1      34.678  16.527  24.491  1.00  0.00     0.046 A 
ATOM     90  C   UNL A   1      33.665  15.894  25.191  1.00  0.00     0.115 A 
BRANCH  90  91
ATOM     91  O   UNL A   1      33.705  14.537  25.309  1.00  0.00    -0.508 OA
ATOM     92  H   UNL A   1      33.080  14.009  24.852  1.00  0.00     0.293 HD
ENDBRANCH  90  91
ENDBRANCH  84  85
ENDBRANCH  83  84
BRANCH  83  93
ATOM     93  O   UNL A   1      31.602  21.043  25.683  1.00  0.00    -0.381 OA
ATOM     94  H   UNL A   1      31.359  21.959  25.890  1.00  0.00     0.211 HD
ENDBRANCH  83  93
ENDBRANCH  81  83
ENDBRANCH  80  81
ENDBRANCH  79  80
ENDBRANCH  78  79
ENDBRANCH  77  78
ENDBRANCH  76  77
ENDBRANCH   1  76
TORSDOF 24
ENDMDL
MODEL 3
REMARK VINA RESULT:      -9.7      2.094      9.211
REMARK SMILES O=C(OCCOCCOCCOC(=O)[C@H](O)Cc1ccc(O)cc1)c1ccc(-c2c3nc(c(-c4c(F)cc(S(=O)(=O)[O-])cc4F)c4ccc([nH]4)c(-c4c(F)cc(S(=O)(=O)[O-])cc4F)c4nc(c(-c5c(F)cc(S(=O)(=O)[O-])cc5F)c5ccc2[nH]5)C=C4)C=C3)cc1
REMARK SMILES IDX 7 1 6 2 5 3 4 4 3 5 2 6 1 7 25 8 26 9 90 10 27 11 89 12
REMARK SMILES IDX 28 13 29 14 30 15 83 16 31 17 88 18 82 19 84 20 32 21 87 22
REMARK SMILES IDX 81 23 80 24 33 26 67 27 46 28 66 29 47 30 50 31 65 32 85 33
REMARK SMILES IDX 48 34 49 35 64 37 86 38 51 39 34 40 35 41 44 42 36 43 37 44
REMARK SMILES IDX 43 45 45 46 38 47 39 48 40 49 41 50 42 51 68 52 69 53 78 54
REMARK SMILES IDX 70 55 71 56 77 57 79 58 72 59 73 60 74 61 75 62 76 63 52 64
REMARK SMILES IDX 53 65 62 66 54 67 55 68 61 69 63 70 56 71 57 72 58 73 59 74
REMARK SMILES IDX 60 75 8 76 9 77 10 78 11 79 12 80 13 81 14 82 15 83 17 84
REMARK SMILES IDX 18 85 19 86 24 87 20 88 23 89 21 90 22 91 16 93
REMARK H PARENT 84 25 50 36 22 92 16 94
REMARK Flexibility Score: inf
ROOT
ATOM      1  C   UNL A   1      36.863  21.112  24.947  1.00  0.00     0.188 C 
ENDROOT
BRANCH   1   2
ATOM      2  O   UNL A   1      37.045  22.310  24.194  1.00  0.00    -0.376 OA
BRANCH   2   3
ATOM      3  C   UNL A   1      36.968  23.530  24.934  1.00  0.00     0.202 C 
BRANCH   3   4
ATOM      4  C   UNL A   1      37.896  23.691  26.154  1.00  0.00     0.261 C 
BRANCH   4   5
ATOM      5  O   UNL A   1      39.104  24.432  25.912  1.00  0.00    -0.460 OA
BRANCH   5   6
ATOM      6  C   UNL A   1      40.152  24.633  26.752  1.00  0.00     0.338 C 
ATOM      7  O   UNL A   1      41.135  23.899  26.655  1.00  0.00    -0.246 OA
BRANCH   6   8
ATOM      8  C   UNL A   1      40.157  25.683  27.813  1.00  0.00     0.060 A 
ATOM      9  C   UNL A   1      39.248  25.730  28.866  1.00  0.00     0.016 A 
ATOM     10  C   UNL A   1      41.201  26.620  27.810  1.00  0.00     0.016 A 
ATOM     11  C   UNL A   1      39.293  26.716  29.835  1.00  0.00     0.010 A 
ATOM     12  C   UNL A   1      41.298  27.585  28.820  1.00  0.00     0.010 A 
ATOM     13  C   UNL A   1      40.325  27.644  29.826  1.00  0.00    -0.014 A 
BRANCH  13  14
ATOM     14  C   UNL A   1      40.292  28.714  30.838  1.00  0.00     0.031 A 
ATOM     15  C   UNL A   1      41.272  28.647  31.966  1.00  0.00     0.074 A 
ATOM     16  C   UNL A   1      39.479  29.774  30.671  1.00  0.00     0.049 A 
ATOM     17  N   UNL A   1      41.364  29.411  33.016  1.00  0.00    -0.248 NA
ATOM     18  C   UNL A   1      42.292  27.584  31.897  1.00  0.00     0.031 C 
ATOM     19  C   UNL A   1      38.583  29.973  29.528  1.00  0.00     0.029 A 
ATOM     20  N   UNL A   1      39.277  30.887  31.440  1.00  0.00    -0.354 N 
ATOM     21  C   UNL A   1      42.415  28.894  33.759  1.00  0.00     0.074 A 
ATOM     22  C   UNL A   1      42.949  27.764  33.034  1.00  0.00     0.031 C 
ATOM     23  C   UNL A   1      37.921  31.132  29.678  1.00  0.00     0.029 A 
ATOM     24  C   UNL A   1      38.290  31.715  30.956  1.00  0.00     0.049 A 
ATOM     25  H   UNL A   1      39.787  31.076  32.260  1.00  0.00     0.167 HD
ATOM     26  C   UNL A   1      42.867  29.326  34.956  1.00  0.00     0.037 A 
ATOM     27  C   UNL A   1      37.703  32.783  31.524  1.00  0.00     0.037 A 
ATOM     28  C   UNL A   1      42.315  30.466  35.633  1.00  0.00     0.049 A 
ATOM     29  C   UNL A   1      38.157  33.177  32.896  1.00  0.00     0.074 A 
ATOM     30  C   UNL A   1      42.681  31.005  36.852  1.00  0.00     0.029 A 
ATOM     31  N   UNL A   1      41.265  31.236  35.149  1.00  0.00    -0.354 N 
ATOM     32  N   UNL A   1      39.118  32.657  33.620  1.00  0.00    -0.248 NA
ATOM     33  C   UNL A   1      37.430  34.276  33.542  1.00  0.00     0.031 C 
ATOM     34  C   UNL A   1      41.809  32.060  37.134  1.00  0.00     0.029 A 
ATOM     35  C   UNL A   1      40.939  32.217  36.065  1.00  0.00     0.049 A 
ATOM     36  H   UNL A   1      40.819  31.103  34.281  1.00  0.00     0.167 HD
ATOM     37  C   UNL A   1      39.107  33.357  34.815  1.00  0.00     0.074 A 
ATOM     38  C   UNL A   1      38.063  34.358  34.703  1.00  0.00     0.031 C 
ATOM     39  C   UNL A   1      39.883  33.186  35.912  1.00  0.00     0.037 A 
BRANCH  26  40
ATOM     40  C   UNL A   1      43.935  28.523  35.636  1.00  0.00     0.058 A 
ATOM     41  C   UNL A   1      45.301  28.771  35.446  1.00  0.00     0.135 A 
ATOM     42  C   UNL A   1      43.567  27.504  36.530  1.00  0.00     0.135 A 
ATOM     43  F   UNL A   1      45.706  29.708  34.573  1.00  0.00    -0.206 F 
ATOM     44  C   UNL A   1      46.270  28.038  36.124  1.00  0.00     0.059 A 
ATOM     45  C   UNL A   1      44.518  26.774  37.235  1.00  0.00     0.059 A 
ATOM     46  F   UNL A   1      42.272  27.211  36.725  1.00  0.00    -0.206 F 
ATOM     47  C   UNL A   1      45.866  27.048  37.025  1.00  0.00     0.060 A 
BRANCH  47  48
ATOM     48  S   UNL A   1      47.136  26.146  37.936  1.00  0.00     0.124 S 
ATOM     49  O   UNL A   1      47.626  27.172  38.849  1.00  0.00    -0.237 OA
ATOM     50  O   UNL A   1      46.373  25.065  38.544  1.00  0.00    -0.237 OA
ATOM     51  O   UNL A   1      48.077  25.737  36.892  1.00  0.00    -0.744 OA
ENDBRANCH  47  48
ENDBRANCH  26  40
BRANCH  27  52
ATOM     52  C   UNL A   1      36.543  33.458  30.888  1.00  0.00     0.058 A 
ATOM     53  C   UNL A   1      36.695  34.276  29.760  1.00  0.00     0.135 A 
ATOM     54  C   UNL A   1      35.265  33.351  31.454  1.00  0.00     0.135 A 
ATOM     55  F   UNL A   1      37.905  34.436  29.205  1.00  0.00    -0.206 F 
ATOM     56  C   UNL A   1      35.617  34.966  29.212  1.00  0.00     0.059 A 
ATOM     57  C   UNL A   1      34.174  34.029  30.923  1.00  0.00     0.059 A 
ATOM     58  F   UNL A   1      35.072  32.587  32.542  1.00  0.00    -0.206 F 
ATOM     59  C   UNL A   1      34.358  34.835  29.802  1.00  0.00     0.060 A 
BRANCH  59  60
ATOM     60  S   UNL A   1      32.941  35.679  29.063  1.00  0.00     0.124 S 
ATOM     61  O   UNL A   1      32.165  36.035  30.244  1.00  0.00    -0.237 OA
ATOM     62  O   UNL A   1      33.570  36.789  28.352  1.00  0.00    -0.237 OA
ATOM     63  O   UNL A   1      32.357  34.653  28.202  1.00  0.00    -0.744 OA
ENDBRANCH  59  60
ENDBRANCH  27  52
BRANCH  39  64
ATOM     64  C   UNL A   1      39.629  34.107  37.062  1.00  0.00     0.058 A 
ATOM     65  C   UNL A   1      38.860  33.703  38.162  1.00  0.00     0.135 A 
ATOM     66  C   UNL A   1      40.224  35.377  37.091  1.00  0.00     0.135 A 
ATOM     67  F   UNL A   1      38.257  32.504  38.164  1.00  0.00    -0.206 F 
ATOM     68  C   UNL A   1      38.686  34.535  39.260  1.00  0.00     0.059 A 
ATOM     69  C   UNL A   1      40.090  36.211  38.191  1.00  0.00     0.059 A 
ATOM     70  F   UNL A   1      40.969  35.799  36.057  1.00  0.00    -0.206 F 
ATOM     71  C   UNL A   1      39.317  35.781  39.269  1.00  0.00     0.060 A 
BRANCH  71  72
ATOM     72  S   UNL A   1      39.147  36.817  40.733  1.00  0.00     0.124 S 
ATOM     73  O   UNL A   1      40.542  37.021  41.112  1.00  0.00    -0.237 OA
ATOM     74  O   UNL A   1      38.454  37.988  40.206  1.00  0.00    -0.237 OA
ATOM     75  O   UNL A   1      38.363  35.989  41.646  1.00  0.00    -0.744 OA
ENDBRANCH  71  72
ENDBRANCH  39  64
ENDBRANCH  13  14
ENDBRANCH   6   8
ENDBRANCH   5   6
ENDBRANCH   4   5
ENDBRANCH   3   4
ENDBRANCH   2   3
ENDBRANCH   1   2
BRANCH   1  76
ATOM     76  C   UNL A   1      35.404  20.869  25.335  1.00  0.00     0.188 C 
BRANCH  76  77
ATOM     77  O   UNL A   1      34.713  19.835  24.639  1.00  0.00    -0.376 OA
BRANCH  77  78
ATOM     78  C   UNL A   1      33.400  19.517  25.086  1.00  0.00     0.202 C 
BRANCH  78  79
ATOM     79  C   UNL A   1      32.226  20.390  24.608  1.00  0.00     0.261 C 
BRANCH  79  80
ATOM     80  O   UNL A   1      31.616  21.227  25.606  1.00  0.00    -0.461 OA
BRANCH  80  81
ATOM     81  C   UNL A   1      31.665  22.566  25.346  1.00  0.00     0.335 C 
ATOM     82  O   UNL A   1      31.903  23.047  24.243  1.00  0.00    -0.249 OA
BRANCH  81  83
ATOM     83  C   UNL A   1      31.292  23.407  26.583  1.00  0.00     0.228 C 
BRANCH  83  84
ATOM     84  C   UNL A   1      30.718  24.739  26.064  1.00  0.00     0.079 C 
BRANCH  84  85
ATOM     85  C   UNL A   1      31.598  25.951  25.862  1.00  0.00    -0.045 A 
ATOM     86  C   UNL A   1      32.955  26.029  26.193  1.00  0.00     0.007 A 
ATOM     87  C   UNL A   1      30.974  27.096  25.330  1.00  0.00     0.007 A 
ATOM     88  C   UNL A   1      33.674  27.208  25.974  1.00  0.00     0.046 A 
ATOM     89  C   UNL A   1      31.677  28.283  25.150  1.00  0.00     0.046 A 
ATOM     90  C   UNL A   1      33.027  28.323  25.455  1.00  0.00     0.115 A 
BRANCH  90  91
ATOM     91  O   UNL A   1      33.717  29.472  25.205  1.00  0.00    -0.508 OA
ATOM     92  H   UNL A   1      33.581  30.226  25.745  1.00  0.00     0.293 HD
ENDBRANCH  90  91
ENDBRANCH  84  85
ENDBRANCH  83  84
BRANCH  83  93
ATOM     93  O   UNL A   1      30.351  22.697  27.389  1.00  0.00    -0.381 OA
ATOM     94  H   UNL A   1      30.402  21.749  27.188  1.00  0.00     0.211 HD
ENDBRANCH  83  93
ENDBRANCH  81  83
ENDBRANCH  80  81
ENDBRANCH  79  80
ENDBRANCH  78  79
ENDBRANCH  77  78
ENDBRANCH  76  77
ENDBRANCH   1  76
TORSDOF 24
ENDMDL
