MODEL 1
REMARK VINA RESULT:     -10.5      0.000      0.000
REMARK SMILES COc1ccc2c(c1)C=C(C(=O)OCCOCCOCCOC(=O)c1ccc(-c3c4nc(c(-c5c(F)cc(S(=O)(=O)[O-])cc5F)c5ccc([nH]5)c(-c5c(F)cc(S(=O)(=O)[O-])cc5F)c5nc(c(-c6c(F)cc(S(=O)(=O)[O-])cc6F)c6ccc3[nH]6)C=C5)C=C4)cc1)[C@H](C(F)(F)F)O2
REMARK SMILES IDX 18 1 17 2 16 3 15 4 14 5 13 6 11 7 12 8 10 9 3 10 4 11 8 12
REMARK SMILES IDX 5 13 7 14 6 15 9 16 96 17 91 18 2 19 1 20 92 21 93 22 94 23
REMARK SMILES IDX 95 24 19 25 20 26 21 27 22 28 23 29 24 30 25 31 26 32 90 33
REMARK SMILES IDX 27 34 89 35 28 36 29 37 30 38 83 39 31 40 88 41 82 42 84 43
REMARK SMILES IDX 32 44 87 45 81 46 80 47 33 49 67 50 46 51 66 52 47 53 50 54
REMARK SMILES IDX 65 55 85 56 48 57 49 58 64 60 86 61 51 62 34 63 35 64 44 65
REMARK SMILES IDX 36 66 37 67 43 68 45 69 38 70 39 71 40 72 41 73 42 74 68 75
REMARK SMILES IDX 69 76 78 77 70 78 71 79 77 80 79 81 72 82 73 83 74 84 75 85
REMARK SMILES IDX 76 86 52 87 53 88 62 89 54 90 55 91 61 92 63 93 56 94 57 95
REMARK SMILES IDX 58 96 59 97 60 98
REMARK H PARENT 84 48 50 59
REMARK Flexibility Score: inf
ROOT
ATOM      1  C   UNL A   1      31.822  29.697  25.389  1.00  0.00     0.188 C 
ENDROOT
BRANCH   1   2
ATOM      2  C   UNL A   1      31.465  29.319  23.938  1.00  0.00     0.188 C 
BRANCH   2   3
ATOM      3  O   UNL A   1      30.180  28.726  23.802  1.00  0.00    -0.376 OA
BRANCH   3   4
ATOM      4  C   UNL A   1      30.072  27.697  22.828  1.00  0.00     0.202 C 
BRANCH   4   5
ATOM      5  C   UNL A   1      31.428  27.127  22.409  1.00  0.00     0.261 C 
BRANCH   5   6
ATOM      6  O   UNL A   1      31.461  25.692  22.345  1.00  0.00    -0.460 OA
BRANCH   6   7
ATOM      7  C   UNL A   1      32.677  25.108  22.251  1.00  0.00     0.338 C 
ATOM      8  O   UNL A   1      33.610  25.508  21.579  1.00  0.00    -0.246 OA
BRANCH   7   9
ATOM      9  C   UNL A   1      32.733  23.945  23.160  1.00  0.00     0.087 C 
ATOM     10  C   UNL A   1      32.570  19.200  24.034  1.00  0.00     0.119 A 
ATOM     11  C   UNL A   1      33.099  19.428  25.307  1.00  0.00     0.050 A 
ATOM     12  C   UNL A   1      32.383  20.280  23.162  1.00  0.00     0.058 A 
ATOM     13  C   UNL A   1      33.420  20.726  25.712  1.00  0.00     0.051 A 
ATOM     14  C   UNL A   1      32.705  21.581  23.561  1.00  0.00     0.021 A 
ATOM     15  C   UNL A   1      33.206  21.797  24.847  1.00  0.00     0.128 A 
ATOM     16  C   UNL A   1      32.612  22.711  22.642  1.00  0.00     0.027 C 
ATOM     17  O   UNL A   1      33.567  23.040  25.292  1.00  0.00    -0.475 OA
ATOM     18  C   UNL A   1      32.862  24.143  24.656  1.00  0.00     0.316 C 
BRANCH  10  19
ATOM     19  O   UNL A   1      32.228  17.980  23.517  1.00  0.00    -0.497 OA
ATOM     20  C   UNL A   1      33.299  17.112  23.166  1.00  0.00     0.278 C 
ENDBRANCH  10  19
BRANCH  18  21
ATOM     21  C   UNL A   1      33.469  25.464  25.154  1.00  0.00     0.430 C 
ATOM     22  F   UNL A   1      33.881  25.350  26.440  1.00  0.00    -0.167 F 
ATOM     23  F   UNL A   1      34.577  25.772  24.433  1.00  0.00    -0.167 F 
ATOM     24  F   UNL A   1      32.616  26.503  25.056  1.00  0.00    -0.167 F 
ENDBRANCH  18  21
ENDBRANCH   7   9
ENDBRANCH   6   7
ENDBRANCH   5   6
ENDBRANCH   4   5
ENDBRANCH   3   4
ENDBRANCH   2   3
ENDBRANCH   1   2
BRANCH   1  25
ATOM     25  O   UNL A   1      33.046  29.263  25.969  1.00  0.00    -0.376 OA
BRANCH  25  26
ATOM     26  C   UNL A   1      33.592  29.983  27.065  1.00  0.00     0.202 C 
BRANCH  26  27
ATOM     27  C   UNL A   1      34.849  29.422  27.738  1.00  0.00     0.261 C 
BRANCH  27  28
ATOM     28  O   UNL A   1      35.664  30.411  28.388  1.00  0.00    -0.460 OA
BRANCH  28  29
ATOM     29  C   UNL A   1      36.311  29.982  29.499  1.00  0.00     0.338 C 
ATOM     30  O   UNL A   1      35.808  29.600  30.542  1.00  0.00    -0.246 OA
BRANCH  29  31
ATOM     31  C   UNL A   1      37.760  29.880  29.233  1.00  0.00     0.060 A 
ATOM     32  C   UNL A   1      38.172  29.705  27.904  1.00  0.00     0.016 A 
ATOM     33  C   UNL A   1      38.696  29.872  30.270  1.00  0.00     0.016 A 
ATOM     34  C   UNL A   1      39.518  29.492  27.609  1.00  0.00     0.010 A 
ATOM     35  C   UNL A   1      40.043  29.633  29.974  1.00  0.00     0.010 A 
ATOM     36  C   UNL A   1      40.455  29.415  28.647  1.00  0.00    -0.014 A 
BRANCH  36  37
ATOM     37  C   UNL A   1      41.831  28.938  28.358  1.00  0.00     0.031 A 
ATOM     38  C   UNL A   1      42.958  29.937  28.357  1.00  0.00     0.074 A 
ATOM     39  C   UNL A   1      42.079  27.639  28.117  1.00  0.00     0.049 A 
ATOM     40  N   UNL A   1      44.225  29.757  28.090  1.00  0.00    -0.248 NA
ATOM     41  C   UNL A   1      42.607  31.324  28.708  1.00  0.00     0.031 C 
ATOM     42  C   UNL A   1      41.082  26.570  28.130  1.00  0.00     0.029 A 
ATOM     43  N   UNL A   1      43.253  27.000  27.802  1.00  0.00    -0.354 N 
ATOM     44  C   UNL A   1      44.823  31.003  28.236  1.00  0.00     0.074 A 
ATOM     45  C   UNL A   1      43.777  31.936  28.597  1.00  0.00     0.031 C 
ATOM     46  C   UNL A   1      41.684  25.409  27.814  1.00  0.00     0.029 A 
ATOM     47  C   UNL A   1      43.101  25.658  27.552  1.00  0.00     0.049 A 
ATOM     48  H   UNL A   1      44.122  27.461  27.760  1.00  0.00     0.167 HD
ATOM     49  C   UNL A   1      46.126  31.340  28.090  1.00  0.00     0.037 A 
ATOM     50  C   UNL A   1      43.998  24.742  27.135  1.00  0.00     0.037 A 
ATOM     51  C   UNL A   1      47.165  30.413  27.727  1.00  0.00     0.049 A 
ATOM     52  C   UNL A   1      45.431  25.155  26.909  1.00  0.00     0.074 A 
ATOM     53  C   UNL A   1      48.519  30.657  27.567  1.00  0.00     0.029 A 
ATOM     54  N   UNL A   1      46.968  29.068  27.458  1.00  0.00    -0.354 N 
ATOM     55  N   UNL A   1      45.987  26.332  27.075  1.00  0.00    -0.248 NA
ATOM     56  C   UNL A   1      46.359  24.114  26.441  1.00  0.00     0.031 C 
ATOM     57  C   UNL A   1      49.133  29.467  27.162  1.00  0.00     0.029 A 
ATOM     58  C   UNL A   1      48.170  28.472  27.112  1.00  0.00     0.049 A 
ATOM     59  H   UNL A   1      46.101  28.603  27.507  1.00  0.00     0.167 HD
ATOM     60  C   UNL A   1      47.333  26.166  26.759  1.00  0.00     0.074 A 
ATOM     61  C   UNL A   1      47.508  24.774  26.399  1.00  0.00     0.031 C 
ATOM     62  C   UNL A   1      48.331  27.082  26.768  1.00  0.00     0.037 A 
BRANCH  49  63
ATOM     63  C   UNL A   1      46.500  32.779  28.302  1.00  0.00     0.058 A 
ATOM     64  C   UNL A   1      46.887  33.260  29.562  1.00  0.00     0.135 A 
ATOM     65  C   UNL A   1      46.509  33.677  27.224  1.00  0.00     0.135 A 
ATOM     66  F   UNL A   1      46.876  32.446  30.630  1.00  0.00    -0.206 F 
ATOM     67  C   UNL A   1      47.253  34.589  29.749  1.00  0.00     0.059 A 
ATOM     68  C   UNL A   1      46.894  35.005  27.384  1.00  0.00     0.059 A 
ATOM     69  F   UNL A   1      46.143  33.268  25.999  1.00  0.00    -0.206 F 
ATOM     70  C   UNL A   1      47.253  35.454  28.654  1.00  0.00     0.060 A 
BRANCH  70  71
ATOM     71  S   UNL A   1      47.744  37.172  28.910  1.00  0.00     0.124 S 
ATOM     72  O   UNL A   1      47.974  37.197  30.351  1.00  0.00    -0.237 OA
ATOM     73  O   UNL A   1      48.937  37.286  28.077  1.00  0.00    -0.237 OA
ATOM     74  O   UNL A   1      46.586  37.930  28.447  1.00  0.00    -0.744 OA
ENDBRANCH  70  71
ENDBRANCH  49  63
BRANCH  50  75
ATOM     75  C   UNL A   1      43.569  23.342  26.875  1.00  0.00     0.058 A 
ATOM     76  C   UNL A   1      43.329  22.884  25.571  1.00  0.00     0.135 A 
ATOM     77  C   UNL A   1      43.364  22.441  27.933  1.00  0.00     0.135 A 
ATOM     78  F   UNL A   1      43.496  23.713  24.530  1.00  0.00    -0.206 F 
ATOM     79  C   UNL A   1      42.880  21.590  25.324  1.00  0.00     0.059 A 
ATOM     80  C   UNL A   1      42.939  21.135  27.709  1.00  0.00     0.059 A 
ATOM     81  F   UNL A   1      43.586  22.828  29.199  1.00  0.00    -0.206 F 
ATOM     82  C   UNL A   1      42.685  20.724  26.402  1.00  0.00     0.060 A 
BRANCH  82  83
ATOM     83  S   UNL A   1      42.124  19.038  26.072  1.00  0.00     0.124 S 
ATOM     84  O   UNL A   1      40.707  19.249  25.804  1.00  0.00    -0.237 OA
ATOM     85  O   UNL A   1      42.942  18.658  24.925  1.00  0.00    -0.237 OA
ATOM     86  O   UNL A   1      42.434  18.335  27.314  1.00  0.00    -0.744 OA
ENDBRANCH  82  83
ENDBRANCH  50  75
BRANCH  62  87
ATOM     87  C   UNL A   1      49.715  26.609  26.414  1.00  0.00     0.058 A 
ATOM     88  C   UNL A   1      50.242  26.770  25.124  1.00  0.00     0.135 A 
ATOM     89  C   UNL A   1      50.543  26.041  27.396  1.00  0.00     0.135 A 
ATOM     90  F   UNL A   1      49.490  27.302  24.148  1.00  0.00    -0.206 F 
ATOM     91  C   UNL A   1      51.537  26.367  24.813  1.00  0.00     0.059 A 
ATOM     92  C   UNL A   1      51.850  25.653  27.114  1.00  0.00     0.059 A 
ATOM     93  F   UNL A   1      50.091  25.876  28.649  1.00  0.00    -0.206 F 
ATOM     94  C   UNL A   1      52.335  25.811  25.816  1.00  0.00     0.060 A 
BRANCH  94  95
ATOM     95  S   UNL A   1      54.028  25.327  25.413  1.00  0.00     0.124 S 
ATOM     96  O   UNL A   1      53.890  23.883  25.254  1.00  0.00    -0.237 OA
ATOM     97  O   UNL A   1      54.286  26.078  24.188  1.00  0.00    -0.237 OA
ATOM     98  O   UNL A   1      54.791  25.762  26.579  1.00  0.00    -0.744 OA
ENDBRANCH  94  95
ENDBRANCH  62  87
ENDBRANCH  36  37
ENDBRANCH  29  31
ENDBRANCH  28  29
ENDBRANCH  27  28
ENDBRANCH  26  27
ENDBRANCH  25  26
ENDBRANCH   1  25
TORSDOF 22
ENDMDL
MODEL 2
REMARK VINA RESULT:     -10.3      6.619     11.821
REMARK SMILES COc1ccc2c(c1)C=C(C(=O)OCCOCCOCCOC(=O)c1ccc(-c3c4nc(c(-c5c(F)cc(S(=O)(=O)[O-])cc5F)c5ccc([nH]5)c(-c5c(F)cc(S(=O)(=O)[O-])cc5F)c5nc(c(-c6c(F)cc(S(=O)(=O)[O-])cc6F)c6ccc3[nH]6)C=C5)C=C4)cc1)[C@H](C(F)(F)F)O2
REMARK SMILES IDX 18 1 17 2 16 3 15 4 14 5 13 6 11 7 12 8 10 9 3 10 4 11 8 12
REMARK SMILES IDX 5 13 7 14 6 15 9 16 96 17 91 18 2 19 1 20 92 21 93 22 94 23
REMARK SMILES IDX 95 24 19 25 20 26 21 27 22 28 23 29 24 30 25 31 26 32 90 33
REMARK SMILES IDX 27 34 89 35 28 36 29 37 30 38 83 39 31 40 88 41 82 42 84 43
REMARK SMILES IDX 32 44 87 45 81 46 80 47 33 49 67 50 46 51 66 52 47 53 50 54
REMARK SMILES IDX 65 55 85 56 48 57 49 58 64 60 86 61 51 62 34 63 35 64 44 65
REMARK SMILES IDX 36 66 37 67 43 68 45 69 38 70 39 71 40 72 41 73 42 74 68 75
REMARK SMILES IDX 69 76 78 77 70 78 71 79 77 80 79 81 72 82 73 83 74 84 75 85
REMARK SMILES IDX 76 86 52 87 53 88 62 89 54 90 55 91 61 92 63 93 56 94 57 95
REMARK SMILES IDX 58 96 59 97 60 98
REMARK H PARENT 84 48 50 59
REMARK Flexibility Score: inf
ROOT
ATOM      1  C   UNL A   1      40.339  20.557  26.102  1.00  0.00     0.188 C 
ENDROOT
BRANCH   1   2
ATOM      2  C   UNL A   1      39.292  21.665  26.337  1.00  0.00     0.188 C 
BRANCH   2   3
ATOM      3  O   UNL A   1      38.085  21.472  25.611  1.00  0.00    -0.376 OA
BRANCH   3   4
ATOM      4  C   UNL A   1      37.617  22.596  24.878  1.00  0.00     0.202 C 
BRANCH   4   5
ATOM      5  C   UNL A   1      36.775  23.552  25.724  1.00  0.00     0.261 C 
BRANCH   5   6
ATOM      6  O   UNL A   1      35.384  23.201  25.788  1.00  0.00    -0.460 OA
BRANCH   6   7
ATOM      7  C   UNL A   1      34.745  23.000  24.613  1.00  0.00     0.338 C 
ATOM      8  O   UNL A   1      34.784  23.738  23.645  1.00  0.00    -0.246 OA
BRANCH   7   9
ATOM      9  C   UNL A   1      34.051  21.698  24.649  1.00  0.00     0.087 C 
ATOM     10  C   UNL A   1      34.035  16.871  24.712  1.00  0.00     0.119 A 
ATOM     11  C   UNL A   1      32.689  16.891  25.084  1.00  0.00     0.050 A 
ATOM     12  C   UNL A   1      34.723  18.080  24.548  1.00  0.00     0.058 A 
ATOM     13  C   UNL A   1      32.031  18.109  25.272  1.00  0.00     0.051 A 
ATOM     14  C   UNL A   1      34.071  19.301  24.737  1.00  0.00     0.021 A 
ATOM     15  C   UNL A   1      32.716  19.306  25.081  1.00  0.00     0.128 A 
ATOM     16  C   UNL A   1      34.785  20.572  24.667  1.00  0.00     0.027 C 
ATOM     17  O   UNL A   1      32.024  20.465  25.308  1.00  0.00    -0.475 OA
ATOM     18  C   UNL A   1      32.539  21.630  24.603  1.00  0.00     0.316 C 
BRANCH  10  19
ATOM     19  O   UNL A   1      34.792  15.748  24.509  1.00  0.00    -0.497 OA
ATOM     20  C   UNL A   1      35.905  15.564  25.377  1.00  0.00     0.278 C 
ENDBRANCH  10  19
BRANCH  18  21
ATOM     21  C   UNL A   1      31.751  22.867  25.063  1.00  0.00     0.430 C 
ATOM     22  F   UNL A   1      30.468  22.542  25.352  1.00  0.00    -0.167 F 
ATOM     23  F   UNL A   1      32.280  23.359  26.212  1.00  0.00    -0.167 F 
ATOM     24  F   UNL A   1      31.758  23.860  24.153  1.00  0.00    -0.167 F 
ENDBRANCH  18  21
ENDBRANCH   7   9
ENDBRANCH   6   7
ENDBRANCH   5   6
ENDBRANCH   4   5
ENDBRANCH   3   4
ENDBRANCH   2   3
ENDBRANCH   1   2
BRANCH   1  25
ATOM     25  O   UNL A   1      41.729  20.848  26.181  1.00  0.00    -0.376 OA
BRANCH  25  26
ATOM     26  C   UNL A   1      42.161  21.996  26.897  1.00  0.00     0.202 C 
BRANCH  26  27
ATOM     27  C   UNL A   1      42.496  23.259  26.097  1.00  0.00     0.261 C 
BRANCH  27  28
ATOM     28  O   UNL A   1      41.485  24.278  26.149  1.00  0.00    -0.460 OA
BRANCH  28  29
ATOM     29  C   UNL A   1      41.934  25.542  25.955  1.00  0.00     0.338 C 
ATOM     30  O   UNL A   1      42.175  26.082  24.889  1.00  0.00    -0.246 OA
BRANCH  29  31
ATOM     31  C   UNL A   1      41.948  26.276  27.237  1.00  0.00     0.060 A 
ATOM     32  C   UNL A   1      40.947  25.980  28.172  1.00  0.00     0.016 A 
ATOM     33  C   UNL A   1      42.873  27.292  27.488  1.00  0.00     0.016 A 
ATOM     34  C   UNL A   1      40.849  26.718  29.351  1.00  0.00     0.010 A 
ATOM     35  C   UNL A   1      42.757  28.048  28.659  1.00  0.00     0.010 A 
ATOM     36  C   UNL A   1      41.728  27.784  29.582  1.00  0.00    -0.014 A 
BRANCH  36  37
ATOM     37  C   UNL A   1      41.465  28.722  30.701  1.00  0.00     0.031 A 
ATOM     38  C   UNL A   1      42.314  28.626  31.942  1.00  0.00     0.074 A 
ATOM     39  C   UNL A   1      40.501  29.656  30.612  1.00  0.00     0.049 A 
ATOM     40  N   UNL A   1      42.236  29.308  33.054  1.00  0.00    -0.248 NA
ATOM     41  C   UNL A   1      43.396  27.628  31.921  1.00  0.00     0.031 C 
ATOM     42  C   UNL A   1      39.641  29.877  29.450  1.00  0.00     0.029 A 
ATOM     43  N   UNL A   1      40.077  30.588  31.527  1.00  0.00    -0.354 N 
ATOM     44  C   UNL A   1      43.253  28.823  33.867  1.00  0.00     0.074 A 
ATOM     45  C   UNL A   1      43.923  27.774  33.128  1.00  0.00     0.031 C 
ATOM     46  C   UNL A   1      38.776  30.868  29.732  1.00  0.00     0.029 A 
ATOM     47  C   UNL A   1      39.004  31.332  31.100  1.00  0.00     0.049 A 
ATOM     48  H   UNL A   1      40.503  30.711  32.406  1.00  0.00     0.167 HD
ATOM     49  C   UNL A   1      43.603  29.219  35.114  1.00  0.00     0.037 A 
ATOM     50  C   UNL A   1      38.275  32.262  31.749  1.00  0.00     0.037 A 
ATOM     51  C   UNL A   1      42.933  30.258  35.850  1.00  0.00     0.049 A 
ATOM     52  C   UNL A   1      38.638  32.636  33.163  1.00  0.00     0.074 A 
ATOM     53  C   UNL A   1      43.223  30.739  37.116  1.00  0.00     0.029 A 
ATOM     54  N   UNL A   1      41.836  30.971  35.394  1.00  0.00    -0.354 N 
ATOM     55  N   UNL A   1      39.618  32.186  33.911  1.00  0.00    -0.248 NA
ATOM     56  C   UNL A   1      37.798  33.647  33.823  1.00  0.00     0.031 C 
ATOM     57  C   UNL A   1      42.275  31.715  37.440  1.00  0.00     0.029 A 
ATOM     58  C   UNL A   1      41.422  31.873  36.360  1.00  0.00     0.049 A 
ATOM     59  H   UNL A   1      41.414  30.854  34.512  1.00  0.00     0.167 HD
ATOM     60  C   UNL A   1      39.528  32.878  35.116  1.00  0.00     0.074 A 
ATOM     61  C   UNL A   1      38.403  33.781  34.995  1.00  0.00     0.031 C 
ATOM     62  C   UNL A   1      40.307  32.775  36.221  1.00  0.00     0.037 A 
BRANCH  49  63
ATOM     63  C   UNL A   1      44.751  28.508  35.772  1.00  0.00     0.058 A 
ATOM     64  C   UNL A   1      46.075  28.942  35.608  1.00  0.00     0.135 A 
ATOM     65  C   UNL A   1      44.519  27.404  36.607  1.00  0.00     0.135 A 
ATOM     66  F   UNL A   1      46.352  29.980  34.804  1.00  0.00    -0.206 F 
ATOM     67  C   UNL A   1      47.133  28.294  36.237  1.00  0.00     0.059 A 
ATOM     68  C   UNL A   1      45.559  26.755  37.264  1.00  0.00     0.059 A 
ATOM     69  F   UNL A   1      43.270  26.947  36.792  1.00  0.00    -0.206 F 
ATOM     70  C   UNL A   1      46.865  27.201  37.063  1.00  0.00     0.060 A 
BRANCH  70  71
ATOM     71  S   UNL A   1      48.247  26.378  37.883  1.00  0.00     0.124 S 
ATOM     72  O   UNL A   1      49.363  26.756  37.021  1.00  0.00    -0.237 OA
ATOM     73  O   UNL A   1      48.236  26.990  39.208  1.00  0.00    -0.237 OA
ATOM     74  O   UNL A   1      47.875  24.967  37.844  1.00  0.00    -0.744 OA
ENDBRANCH  70  71
ENDBRANCH  49  63
BRANCH  50  75
ATOM     75  C   UNL A   1      37.107  32.894  31.080  1.00  0.00     0.058 A 
ATOM     76  C   UNL A   1      35.795  32.496  31.378  1.00  0.00     0.135 A 
ATOM     77  C   UNL A   1      37.282  33.890  30.107  1.00  0.00     0.135 A 
ATOM     78  F   UNL A   1      35.578  31.536  32.290  1.00  0.00    -0.206 F 
ATOM     79  C   UNL A   1      34.699  33.048  30.722  1.00  0.00     0.059 A 
ATOM     80  C   UNL A   1      36.201  34.474  29.453  1.00  0.00     0.059 A 
ATOM     81  F   UNL A   1      38.517  34.311  29.790  1.00  0.00    -0.206 F 
ATOM     82  C   UNL A   1      34.914  34.035  29.758  1.00  0.00     0.060 A 
BRANCH  82  83
ATOM     83  S   UNL A   1      33.485  34.763  28.925  1.00  0.00     0.124 S 
ATOM     84  O   UNL A   1      34.059  35.983  28.372  1.00  0.00    -0.237 OA
ATOM     85  O   UNL A   1      33.128  33.729  27.959  1.00  0.00    -0.237 OA
ATOM     86  O   UNL A   1      32.527  34.952  30.012  1.00  0.00    -0.744 OA
ENDBRANCH  82  83
ENDBRANCH  50  75
BRANCH  62  87
ATOM     87  C   UNL A   1      39.999  33.686  37.378  1.00  0.00     0.058 A 
ATOM     88  C   UNL A   1      40.562  34.967  37.477  1.00  0.00     0.135 A 
ATOM     89  C   UNL A   1      39.082  33.292  38.366  1.00  0.00     0.135 A 
ATOM     90  F   UNL A   1      41.447  35.389  36.562  1.00  0.00    -0.206 F 
ATOM     91  C   UNL A   1      40.242  35.821  38.528  1.00  0.00     0.059 A 
ATOM     92  C   UNL A   1      38.729  34.139  39.413  1.00  0.00     0.059 A 
ATOM     93  F   UNL A   1      38.506  32.081  38.310  1.00  0.00    -0.206 F 
ATOM     94  C   UNL A   1      39.322  35.399  39.491  1.00  0.00     0.060 A 
BRANCH  94  95
ATOM     95  S   UNL A   1      38.883  36.528  40.830  1.00  0.00     0.124 S 
ATOM     96  O   UNL A   1      38.520  37.733  40.091  1.00  0.00    -0.237 OA
ATOM     97  O   UNL A   1      37.780  35.829  41.483  1.00  0.00    -0.237 OA
ATOM     98  O   UNL A   1      40.111  36.618  41.614  1.00  0.00    -0.744 OA
ENDBRANCH  94  95
ENDBRANCH  62  87
ENDBRANCH  36  37
ENDBRANCH  29  31
ENDBRANCH  28  29
ENDBRANCH  27  28
ENDBRANCH  26  27
ENDBRANCH  25  26
ENDBRANCH   1  25
TORSDOF 22
ENDMDL
MODEL 3
REMARK VINA RESULT:     -10.3      6.316     11.845
REMARK SMILES COc1ccc2c(c1)C=C(C(=O)OCCOCCOCCOC(=O)c1ccc(-c3c4nc(c(-c5c(F)cc(S(=O)(=O)[O-])cc5F)c5ccc([nH]5)c(-c5c(F)cc(S(=O)(=O)[O-])cc5F)c5nc(c(-c6c(F)cc(S(=O)(=O)[O-])cc6F)c6ccc3[nH]6)C=C5)C=C4)cc1)[C@H](C(F)(F)F)O2
REMARK SMILES IDX 18 1 17 2 16 3 15 4 14 5 13 6 11 7 12 8 10 9 3 10 4 11 8 12
REMARK SMILES IDX 5 13 7 14 6 15 9 16 96 17 91 18 2 19 1 20 92 21 93 22 94 23
REMARK SMILES IDX 95 24 19 25 20 26 21 27 22 28 23 29 24 30 25 31 26 32 90 33
REMARK SMILES IDX 27 34 89 35 28 36 29 37 30 38 83 39 31 40 88 41 82 42 84 43
REMARK SMILES IDX 32 44 87 45 81 46 80 47 33 49 67 50 46 51 66 52 47 53 50 54
REMARK SMILES IDX 65 55 85 56 48 57 49 58 64 60 86 61 51 62 34 63 35 64 44 65
REMARK SMILES IDX 36 66 37 67 43 68 45 69 38 70 39 71 40 72 41 73 42 74 68 75
REMARK SMILES IDX 69 76 78 77 70 78 71 79 77 80 79 81 72 82 73 83 74 84 75 85
REMARK SMILES IDX 76 86 52 87 53 88 62 89 54 90 55 91 61 92 63 93 56 94 57 95
REMARK SMILES IDX 58 96 59 97 60 98
REMARK H PARENT 84 48 50 59
REMARK Flexibility Score: inf
ROOT
ATOM      1  C   UNL A   1      40.369  22.274  26.033  1.00  0.00     0.188 C 
ENDROOT
BRANCH   1   2
ATOM      2  C   UNL A   1      38.907  21.826  26.235  1.00  0.00     0.188 C 
BRANCH   2   3
ATOM      3  O   UNL A   1      38.509  20.772  25.369  1.00  0.00    -0.376 OA
BRANCH   3   4
ATOM      4  C   UNL A   1      37.190  20.862  24.849  1.00  0.00     0.202 C 
BRANCH   4   5
ATOM      5  C   UNL A   1      36.934  22.167  24.093  1.00  0.00     0.261 C 
BRANCH   5   6
ATOM      6  O   UNL A   1      35.623  22.715  24.306  1.00  0.00    -0.460 OA
BRANCH   6   7
ATOM      7  C   UNL A   1      35.530  23.790  25.121  1.00  0.00     0.338 C 
ATOM      8  O   UNL A   1      36.445  24.287  25.753  1.00  0.00    -0.246 OA
BRANCH   7   9
ATOM      9  C   UNL A   1      34.156  24.329  25.068  1.00  0.00     0.087 C 
ATOM     10  C   UNL A   1      30.677  26.946  22.982  1.00  0.00     0.119 A 
ATOM     11  C   UNL A   1      29.735  26.339  23.816  1.00  0.00     0.050 A 
ATOM     12  C   UNL A   1      32.021  26.561  23.064  1.00  0.00     0.058 A 
ATOM     13  C   UNL A   1      30.137  25.368  24.738  1.00  0.00     0.051 A 
ATOM     14  C   UNL A   1      32.428  25.588  23.983  1.00  0.00     0.021 A 
ATOM     15  C   UNL A   1      31.479  25.011  24.831  1.00  0.00     0.128 A 
ATOM     16  C   UNL A   1      33.802  25.099  24.024  1.00  0.00     0.027 C 
ATOM     17  O   UNL A   1      31.804  24.034  25.733  1.00  0.00    -0.475 OA
ATOM     18  C   UNL A   1      33.183  24.069  26.198  1.00  0.00     0.316 C 
BRANCH  10  19
ATOM     19  O   UNL A   1      30.410  27.897  22.035  1.00  0.00    -0.497 OA
ATOM     20  C   UNL A   1      30.698  29.245  22.385  1.00  0.00     0.278 C 
ENDBRANCH  10  19
BRANCH  18  21
ATOM     21  C   UNL A   1      33.431  22.842  27.089  1.00  0.00     0.430 C 
ATOM     22  F   UNL A   1      32.389  22.639  27.931  1.00  0.00    -0.167 F 
ATOM     23  F   UNL A   1      33.519  21.721  26.329  1.00  0.00    -0.167 F 
ATOM     24  F   UNL A   1      34.566  22.936  27.809  1.00  0.00    -0.167 F 
ENDBRANCH  18  21
ENDBRANCH   7   9
ENDBRANCH   6   7
ENDBRANCH   5   6
ENDBRANCH   4   5
ENDBRANCH   3   4
ENDBRANCH   2   3
ENDBRANCH   1   2
BRANCH   1  25
ATOM     25  O   UNL A   1      41.442  21.483  26.530  1.00  0.00    -0.376 OA
BRANCH  25  26
ATOM     26  C   UNL A   1      42.641  21.383  25.776  1.00  0.00     0.202 C 
BRANCH  26  27
ATOM     27  C   UNL A   1      43.814  22.288  26.166  1.00  0.00     0.261 C 
BRANCH  27  28
ATOM     28  O   UNL A   1      43.445  23.425  26.962  1.00  0.00    -0.460 OA
BRANCH  28  29
ATOM     29  C   UNL A   1      43.088  24.527  26.258  1.00  0.00     0.338 C 
ATOM     30  O   UNL A   1      43.091  24.659  25.046  1.00  0.00    -0.246 OA
BRANCH  29  31
ATOM     31  C   UNL A   1      42.518  25.544  27.165  1.00  0.00     0.060 A 
ATOM     32  C   UNL A   1      43.154  26.792  27.232  1.00  0.00     0.016 A 
ATOM     33  C   UNL A   1      41.433  25.258  27.996  1.00  0.00     0.016 A 
ATOM     34  C   UNL A   1      42.725  27.749  28.151  1.00  0.00     0.010 A 
ATOM     35  C   UNL A   1      41.021  26.211  28.935  1.00  0.00     0.010 A 
ATOM     36  C   UNL A   1      41.682  27.448  29.036  1.00  0.00    -0.014 A 
BRANCH  36  37
ATOM     37  C   UNL A   1      41.399  28.359  30.172  1.00  0.00     0.031 A 
ATOM     38  C   UNL A   1      42.226  28.234  31.425  1.00  0.00     0.074 A 
ATOM     39  C   UNL A   1      40.435  29.294  30.088  1.00  0.00     0.049 A 
ATOM     40  N   UNL A   1      42.128  28.890  32.552  1.00  0.00    -0.248 NA
ATOM     41  C   UNL A   1      43.309  27.237  31.399  1.00  0.00     0.031 C 
ATOM     42  C   UNL A   1      39.596  29.543  28.918  1.00  0.00     0.029 A 
ATOM     43  N   UNL A   1      39.996  30.205  31.018  1.00  0.00    -0.354 N 
ATOM     44  C   UNL A   1      43.132  28.386  33.370  1.00  0.00     0.074 A 
ATOM     45  C   UNL A   1      43.815  27.355  32.619  1.00  0.00     0.031 C 
ATOM     46  C   UNL A   1      38.725  30.527  29.208  1.00  0.00     0.029 A 
ATOM     47  C   UNL A   1      38.930  30.958  30.590  1.00  0.00     0.049 A 
ATOM     48  H   UNL A   1      40.406  30.307  31.907  1.00  0.00     0.167 HD
ATOM     49  C   UNL A   1      43.459  28.751  34.632  1.00  0.00     0.037 A 
ATOM     50  C   UNL A   1      38.188  31.873  31.248  1.00  0.00     0.037 A 
ATOM     51  C   UNL A   1      42.776  29.772  35.381  1.00  0.00     0.049 A 
ATOM     52  C   UNL A   1      38.527  32.213  32.677  1.00  0.00     0.074 A 
ATOM     53  C   UNL A   1      43.044  30.223  36.663  1.00  0.00     0.029 A 
ATOM     54  N   UNL A   1      41.687  30.496  34.923  1.00  0.00    -0.354 N 
ATOM     55  N   UNL A   1      39.494  31.745  33.431  1.00  0.00    -0.248 NA
ATOM     56  C   UNL A   1      37.674  33.208  33.346  1.00  0.00     0.031 C 
ATOM     57  C   UNL A   1      42.090  31.192  36.994  1.00  0.00     0.029 A 
ATOM     58  C   UNL A   1      41.255  31.375  35.902  1.00  0.00     0.049 A 
ATOM     59  H   UNL A   1      41.280  30.400  34.031  1.00  0.00     0.167 HD
ATOM     60  C   UNL A   1      39.382  32.408  34.650  1.00  0.00     0.074 A 
ATOM     61  C   UNL A   1      38.259  33.314  34.531  1.00  0.00     0.031 C 
ATOM     62  C   UNL A   1      40.142  32.280  35.766  1.00  0.00     0.037 A 
BRANCH  49  63
ATOM     63  C   UNL A   1      44.596  28.026  35.293  1.00  0.00     0.058 A 
ATOM     64  C   UNL A   1      44.392  26.835  36.008  1.00  0.00     0.135 A 
ATOM     65  C   UNL A   1      45.910  28.506  35.176  1.00  0.00     0.135 A 
ATOM     66  F   UNL A   1      43.153  26.344  36.165  1.00  0.00    -0.206 F 
ATOM     67  C   UNL A   1      45.451  26.155  36.600  1.00  0.00     0.059 A 
ATOM     68  C   UNL A   1      46.986  27.830  35.741  1.00  0.00     0.059 A 
ATOM     69  F   UNL A   1      46.157  29.643  34.507  1.00  0.00    -0.206 F 
ATOM     70  C   UNL A   1      46.745  26.660  36.461  1.00  0.00     0.060 A 
BRANCH  70  71
ATOM     71  S   UNL A   1      48.111  25.759  37.224  1.00  0.00     0.124 S 
ATOM     72  O   UNL A   1      49.080  25.723  36.132  1.00  0.00    -0.237 OA
ATOM     73  O   UNL A   1      48.461  26.616  38.352  1.00  0.00    -0.237 OA
ATOM     74  O   UNL A   1      47.516  24.474  37.577  1.00  0.00    -0.744 OA
ENDBRANCH  70  71
ENDBRANCH  49  63
BRANCH  50  75
ATOM     75  C   UNL A   1      37.031  32.519  30.575  1.00  0.00     0.058 A 
ATOM     76  C   UNL A   1      37.196  33.672  29.792  1.00  0.00     0.135 A 
ATOM     77  C   UNL A   1      35.731  32.011  30.724  1.00  0.00     0.135 A 
ATOM     78  F   UNL A   1      38.418  34.203  29.633  1.00  0.00    -0.206 F 
ATOM     79  C   UNL A   1      36.112  34.311  29.199  1.00  0.00     0.059 A 
ATOM     80  C   UNL A   1      34.634  32.619  30.121  1.00  0.00     0.059 A 
ATOM     81  F   UNL A   1      35.521  30.907  31.458  1.00  0.00    -0.206 F 
ATOM     82  C   UNL A   1      34.833  33.777  29.372  1.00  0.00     0.060 A 
BRANCH  82  83
ATOM     83  S   UNL A   1      33.433  34.599  28.580  1.00  0.00     0.124 S 
ATOM     84  O   UNL A   1      34.076  35.767  27.989  1.00  0.00    -0.237 OA
ATOM     85  O   UNL A   1      32.967  33.584  27.642  1.00  0.00    -0.237 OA
ATOM     86  O   UNL A   1      32.532  34.872  29.696  1.00  0.00    -0.744 OA
ENDBRANCH  82  83
ENDBRANCH  50  75
BRANCH  62  87
ATOM     87  C   UNL A   1      39.813  33.163  36.939  1.00  0.00     0.058 A 
ATOM     88  C   UNL A   1      38.831  32.808  37.875  1.00  0.00     0.135 A 
ATOM     89  C   UNL A   1      40.533  34.348  37.158  1.00  0.00     0.135 A 
ATOM     90  F   UNL A   1      38.111  31.688  37.709  1.00  0.00    -0.206 F 
ATOM     91  C   UNL A   1      38.559  33.608  38.981  1.00  0.00     0.059 A 
ATOM     92  C   UNL A   1      40.295  35.152  38.270  1.00  0.00     0.059 A 
ATOM     93  F   UNL A   1      41.492  34.726  36.298  1.00  0.00    -0.206 F 
ATOM     94  C   UNL A   1      39.299  34.778  39.171  1.00  0.00     0.060 A 
BRANCH  94  95
ATOM     95  S   UNL A   1      38.966  35.791  40.629  1.00  0.00     0.124 S 
ATOM     96  O   UNL A   1      40.274  35.813  41.276  1.00  0.00    -0.237 OA
ATOM     97  O   UNL A   1      38.528  37.054  40.042  1.00  0.00    -0.237 OA
ATOM     98  O   UNL A   1      37.929  35.042  41.332  1.00  0.00    -0.744 OA
ENDBRANCH  94  95
ENDBRANCH  62  87
ENDBRANCH  36  37
ENDBRANCH  29  31
ENDBRANCH  28  29
ENDBRANCH  27  28
ENDBRANCH  26  27
ENDBRANCH  25  26
ENDBRANCH   1  25
TORSDOF 22
ENDMDL
