MODEL 1
REMARK VINA RESULT:     -11.1      0.000      0.000
REMARK SMILES CC(C)Oc1ccc(-c2ccc(/C(=C\c3ccc(S(C)(=O)=O)cc3)C(=O)OCCOCCOCCOC(=O)c3ccc(-c4c5nc(c(-c6c(F)cc(S(=O)(=O)[O-])cc6F)c6ccc([nH]6)c(-c6c(F)cc(S(=O)(=O)[O-])cc6F)c6nc(c(-c7c(F)cc(S(=O)(=O)[O-])cc7F)c7ccc4[nH]7)C=C6)C=C5)cc3)cc2)cc1
REMARK SMILES IDX 31 1 30 2 29 3 28 4 27 5 25 6 26 7 13 8 14 9 12 10 9 11
REMARK SMILES IDX 10 12 106 13 11 14 105 15 8 16 5 17 6 18 108 19 7 20 107 21
REMARK SMILES IDX 4 22 2 23 1 24 3 25 15 26 16 27 24 28 17 29 23 30 18 31
REMARK SMILES IDX 19 32 20 33 21 34 22 35 32 36 33 37 34 38 35 39 36 40 37 41
REMARK SMILES IDX 38 42 39 43 40 44 104 45 41 46 103 47 42 48 43 49 44 50
REMARK SMILES IDX 97 51 45 52 102 53 96 54 98 55 46 56 101 57 95 58 94 59
REMARK SMILES IDX 47 61 81 62 60 63 80 64 61 65 64 66 79 67 99 68 62 69 63 70
REMARK SMILES IDX 78 72 100 73 65 74 48 75 49 76 58 77 50 78 51 79 57 80 59 81
REMARK SMILES IDX 52 82 53 83 54 84 55 85 56 86 82 87 83 88 92 89 84 90 85 91
REMARK SMILES IDX 91 92 93 93 86 94 87 95 88 96 89 97 90 98 66 99 67 100
REMARK SMILES IDX 76 101 68 102 69 103 75 104 77 105 70 106 71 107 72 108
REMARK SMILES IDX 73 109 74 110
REMARK H PARENT 98 60 64 71
REMARK Flexibility Score: inf
ROOT
ATOM      1  C   UNL A   1      32.717  27.428  26.402  1.00  0.00     0.188 C 
ENDROOT
BRANCH   1   2
ATOM      2  O   UNL A   1      31.962  26.445  25.735  1.00  0.00    -0.376 OA
BRANCH   2   3
ATOM      3  C   UNL A   1      31.576  26.670  24.391  1.00  0.00     0.202 C 
BRANCH   3   4
ATOM      4  C   UNL A   1      30.755  25.670  23.547  1.00  0.00     0.261 C 
BRANCH   4   5
ATOM      5  O   UNL A   1      31.237  25.352  22.237  1.00  0.00    -0.460 OA
BRANCH   5   6
ATOM      6  C   UNL A   1      32.568  25.101  22.094  1.00  0.00     0.338 C 
ATOM      7  O   UNL A   1      33.373  25.852  21.567  1.00  0.00    -0.246 OA
BRANCH   6   8
ATOM      8  C   UNL A   1      32.945  23.815  22.791  1.00  0.00     0.067 C 
ATOM      9  C   UNL A   1      32.010  22.830  22.722  1.00  0.00     0.024 C 
BRANCH   8  10
ATOM     10  C   UNL A   1      34.253  23.733  23.520  1.00  0.00    -0.011 A 
ATOM     11  C   UNL A   1      36.657  23.293  25.040  1.00  0.00    -0.018 A 
ATOM     12  C   UNL A   1      36.564  22.946  23.687  1.00  0.00     0.009 A 
ATOM     13  C   UNL A   1      35.539  23.917  25.606  1.00  0.00     0.009 A 
ATOM     14  C   UNL A   1      35.412  23.211  22.937  1.00  0.00     0.009 A 
ATOM     15  C   UNL A   1      34.364  24.131  24.862  1.00  0.00     0.009 A 
BRANCH  11  16
ATOM     16  C   UNL A   1      37.908  23.075  25.797  1.00  0.00    -0.018 A 
ATOM     17  C   UNL A   1      40.252  22.671  27.345  1.00  0.00     0.119 A 
ATOM     18  C   UNL A   1      39.584  23.891  27.379  1.00  0.00     0.047 A 
ATOM     19  C   UNL A   1      39.751  21.647  26.552  1.00  0.00     0.047 A 
ATOM     20  C   UNL A   1      38.433  24.091  26.613  1.00  0.00     0.012 A 
ATOM     21  C   UNL A   1      38.600  21.853  25.775  1.00  0.00     0.012 A 
BRANCH  17  22
ATOM     22  O   UNL A   1      41.273  22.533  28.237  1.00  0.00    -0.491 OA
BRANCH  22  23
ATOM     23  C   UNL A   1      42.610  22.306  27.767  1.00  0.00     0.167 C 
ATOM     24  C   UNL A   1      42.774  22.431  26.257  1.00  0.00     0.052 C 
ATOM     25  C   UNL A   1      43.668  23.077  28.554  1.00  0.00     0.052 C 
ENDBRANCH  22  23
ENDBRANCH  17  22
ENDBRANCH  11  16
ENDBRANCH   8  10
BRANCH   9  26
ATOM     26  C   UNL A   1      32.123  21.447  23.216  1.00  0.00    -0.025 A 
ATOM     27  C   UNL A   1      32.120  20.429  22.251  1.00  0.00     0.009 A 
ATOM     28  C   UNL A   1      32.400  21.128  24.554  1.00  0.00     0.009 A 
ATOM     29  C   UNL A   1      32.526  19.139  22.586  1.00  0.00     0.021 A 
ATOM     30  C   UNL A   1      32.820  19.836  24.895  1.00  0.00     0.021 A 
ATOM     31  C   UNL A   1      32.912  18.857  23.899  1.00  0.00     0.067 A 
BRANCH  31  32
ATOM     32  S   UNL A   1      33.699  17.298  24.233  1.00  0.00     0.175 S 
ATOM     33  C   UNL A   1      32.964  16.763  25.752  1.00  0.00     0.163 C 
ATOM     34  O   UNL A   1      33.278  16.380  23.191  1.00  0.00    -0.224 OA
ATOM     35  O   UNL A   1      35.104  17.547  24.483  1.00  0.00    -0.224 OA
ENDBRANCH  31  32
ENDBRANCH   9  26
ENDBRANCH   6   8
ENDBRANCH   5   6
ENDBRANCH   4   5
ENDBRANCH   3   4
ENDBRANCH   2   3
ENDBRANCH   1   2
BRANCH   1  36
ATOM     36  C   UNL A   1      31.922  28.719  26.699  1.00  0.00     0.188 C 
BRANCH  36  37
ATOM     37  O   UNL A   1      32.506  29.741  27.494  1.00  0.00    -0.376 OA
BRANCH  37  38
ATOM     38  C   UNL A   1      33.511  30.564  26.919  1.00  0.00     0.202 C 
BRANCH  38  39
ATOM     39  C   UNL A   1      34.080  31.778  27.679  1.00  0.00     0.261 C 
BRANCH  39  40
ATOM     40  O   UNL A   1      33.147  32.552  28.450  1.00  0.00    -0.460 OA
BRANCH  40  41
ATOM     41  C   UNL A   1      33.580  33.773  28.848  1.00  0.00     0.338 C 
ATOM     42  O   UNL A   1      33.037  34.852  28.643  1.00  0.00    -0.246 OA
BRANCH  41  43
ATOM     43  C   UNL A   1      34.742  33.615  29.745  1.00  0.00     0.060 A 
ATOM     44  C   UNL A   1      35.937  34.288  29.445  1.00  0.00     0.016 A 
ATOM     45  C   UNL A   1      34.669  32.765  30.847  1.00  0.00     0.016 A 
ATOM     46  C   UNL A   1      37.066  34.105  30.243  1.00  0.00     0.010 A 
ATOM     47  C   UNL A   1      35.810  32.560  31.627  1.00  0.00     0.010 A 
ATOM     48  C   UNL A   1      37.019  33.209  31.316  1.00  0.00    -0.014 A 
BRANCH  48  49
ATOM     49  C   UNL A   1      38.264  32.780  31.998  1.00  0.00     0.031 A 
ATOM     50  C   UNL A   1      39.174  31.826  31.276  1.00  0.00     0.074 A 
ATOM     51  C   UNL A   1      38.567  33.193  33.242  1.00  0.00     0.049 A 
ATOM     52  N   UNL A   1      40.218  31.178  31.719  1.00  0.00    -0.248 NA
ATOM     53  C   UNL A   1      38.851  31.562  29.864  1.00  0.00     0.031 C 
ATOM     54  C   UNL A   1      37.797  34.159  34.022  1.00  0.00     0.029 A 
ATOM     55  N   UNL A   1      39.599  32.832  34.073  1.00  0.00    -0.354 N 
ATOM     56  C   UNL A   1      40.662  30.408  30.650  1.00  0.00     0.074 A 
ATOM     57  C   UNL A   1      39.766  30.660  29.543  1.00  0.00     0.031 C 
ATOM     58  C   UNL A   1      38.376  34.303  35.228  1.00  0.00     0.029 A 
ATOM     59  C   UNL A   1      39.518  33.394  35.326  1.00  0.00     0.049 A 
ATOM     60  H   UNL A   1      40.326  32.229  33.799  1.00  0.00     0.167 HD
ATOM     61  C   UNL A   1      41.719  29.562  30.600  1.00  0.00     0.037 A 
ATOM     62  C   UNL A   1      40.252  33.164  36.434  1.00  0.00     0.037 A 
ATOM     63  C   UNL A   1      42.597  29.308  31.711  1.00  0.00     0.049 A 
ATOM     64  C   UNL A   1      41.370  32.151  36.384  1.00  0.00     0.074 A 
ATOM     65  C   UNL A   1      43.695  28.468  31.764  1.00  0.00     0.029 A 
ATOM     66  N   UNL A   1      42.469  29.881  32.968  1.00  0.00    -0.354 N 
ATOM     67  N   UNL A   1      41.782  31.424  35.370  1.00  0.00    -0.248 NA
ATOM     68  C   UNL A   1      42.116  31.914  37.629  1.00  0.00     0.031 C 
ATOM     69  C   UNL A   1      44.198  28.490  33.067  1.00  0.00     0.029 A 
ATOM     70  C   UNL A   1      43.458  29.398  33.808  1.00  0.00     0.049 A 
ATOM     71  H   UNL A   1      41.779  30.535  33.224  1.00  0.00     0.167 HD
ATOM     72  C   UNL A   1      42.860  30.681  35.845  1.00  0.00     0.074 A 
ATOM     73  C   UNL A   1      43.033  31.040  37.237  1.00  0.00     0.031 C 
ATOM     74  C   UNL A   1      43.640  29.789  35.185  1.00  0.00     0.037 A 
BRANCH  61  75
ATOM     75  C   UNL A   1      41.955  28.821  29.313  1.00  0.00     0.058 A 
ATOM     76  C   UNL A   1      41.319  27.600  29.033  1.00  0.00     0.135 A 
ATOM     77  C   UNL A   1      42.814  29.350  28.337  1.00  0.00     0.135 A 
ATOM     78  F   UNL A   1      40.503  27.040  29.939  1.00  0.00    -0.206 F 
ATOM     79  C   UNL A   1      41.553  26.916  27.845  1.00  0.00     0.059 A 
ATOM     80  C   UNL A   1      43.037  28.698  27.127  1.00  0.00     0.059 A 
ATOM     81  F   UNL A   1      43.450  30.512  28.552  1.00  0.00    -0.206 F 
ATOM     82  C   UNL A   1      42.414  27.473  26.899  1.00  0.00     0.060 A 
BRANCH  82  83
ATOM     83  S   UNL A   1      42.708  26.569  25.364  1.00  0.00     0.124 S 
ATOM     84  O   UNL A   1      41.507  25.743  25.279  1.00  0.00    -0.237 OA
ATOM     85  O   UNL A   1      42.808  27.645  24.383  1.00  0.00    -0.237 OA
ATOM     86  O   UNL A   1      43.949  25.846  25.627  1.00  0.00    -0.744 OA
ENDBRANCH  82  83
ENDBRANCH  61  75
BRANCH  62  87
ATOM     87  C   UNL A   1      39.940  33.882  37.701  1.00  0.00     0.058 A 
ATOM     88  C   UNL A   1      40.598  35.075  38.036  1.00  0.00     0.135 A 
ATOM     89  C   UNL A   1      38.988  33.388  38.608  1.00  0.00     0.135 A 
ATOM     90  F   UNL A   1      41.533  35.577  37.216  1.00  0.00    -0.206 F 
ATOM     91  C   UNL A   1      40.334  35.746  39.227  1.00  0.00     0.059 A 
ATOM     92  C   UNL A   1      38.687  34.056  39.791  1.00  0.00     0.059 A 
ATOM     93  F   UNL A   1      38.327  32.252  38.336  1.00  0.00    -0.206 F 
ATOM     94  C   UNL A   1      39.372  35.230  40.097  1.00  0.00     0.060 A 
BRANCH  94  95
ATOM     95  S   UNL A   1      39.009  36.130  41.620  1.00  0.00     0.124 S 
ATOM     96  O   UNL A   1      38.809  37.486  41.121  1.00  0.00    -0.237 OA
ATOM     97  O   UNL A   1      37.815  35.446  42.104  1.00  0.00    -0.237 OA
ATOM     98  O   UNL A   1      40.209  35.926  42.426  1.00  0.00    -0.744 OA
ENDBRANCH  94  95
ENDBRANCH  62  87
BRANCH  74  99
ATOM     99  C   UNL A   1      44.807  29.183  35.919  1.00  0.00     0.058 A 
ATOM    100  C   UNL A   1      46.036  29.848  36.049  1.00  0.00     0.135 A 
ATOM    101  C   UNL A   1      44.650  27.960  36.593  1.00  0.00     0.135 A 
ATOM    102  F   UNL A   1      46.244  31.016  35.421  1.00  0.00    -0.206 F 
ATOM    103  C   UNL A   1      47.069  29.319  36.819  1.00  0.00     0.059 A 
ATOM    104  C   UNL A   1      45.657  27.427  37.391  1.00  0.00     0.059 A 
ATOM    105  F   UNL A   1      43.491  27.287  36.509  1.00  0.00    -0.206 F 
ATOM    106  C   UNL A   1      46.865  28.114  37.497  1.00  0.00     0.060 A 
BRANCH 106 107
ATOM    107  S   UNL A   1      48.186  27.480  38.553  1.00  0.00     0.124 S 
ATOM    108  O   UNL A   1      49.070  28.635  38.647  1.00  0.00    -0.237 OA
ATOM    109  O   UNL A   1      47.466  27.130  39.774  1.00  0.00    -0.237 OA
ATOM    110  O   UNL A   1      48.712  26.346  37.797  1.00  0.00    -0.744 OA
ENDBRANCH 106 107
ENDBRANCH  74  99
ENDBRANCH  48  49
ENDBRANCH  41  43
ENDBRANCH  40  41
ENDBRANCH  39  40
ENDBRANCH  38  39
ENDBRANCH  37  38
ENDBRANCH  36  37
ENDBRANCH   1  36
TORSDOF 26
ENDMDL
MODEL 2
REMARK VINA RESULT:     -10.9      1.056      7.737
REMARK SMILES CC(C)Oc1ccc(-c2ccc(/C(=C\c3ccc(S(C)(=O)=O)cc3)C(=O)OCCOCCOCCOC(=O)c3ccc(-c4c5nc(c(-c6c(F)cc(S(=O)(=O)[O-])cc6F)c6ccc([nH]6)c(-c6c(F)cc(S(=O)(=O)[O-])cc6F)c6nc(c(-c7c(F)cc(S(=O)(=O)[O-])cc7F)c7ccc4[nH]7)C=C6)C=C5)cc3)cc2)cc1
REMARK SMILES IDX 31 1 30 2 29 3 28 4 27 5 25 6 26 7 13 8 14 9 12 10 9 11
REMARK SMILES IDX 10 12 106 13 11 14 105 15 8 16 5 17 6 18 108 19 7 20 107 21
REMARK SMILES IDX 4 22 2 23 1 24 3 25 15 26 16 27 24 28 17 29 23 30 18 31
REMARK SMILES IDX 19 32 20 33 21 34 22 35 32 36 33 37 34 38 35 39 36 40 37 41
REMARK SMILES IDX 38 42 39 43 40 44 104 45 41 46 103 47 42 48 43 49 44 50
REMARK SMILES IDX 97 51 45 52 102 53 96 54 98 55 46 56 101 57 95 58 94 59
REMARK SMILES IDX 47 61 81 62 60 63 80 64 61 65 64 66 79 67 99 68 62 69 63 70
REMARK SMILES IDX 78 72 100 73 65 74 48 75 49 76 58 77 50 78 51 79 57 80 59 81
REMARK SMILES IDX 52 82 53 83 54 84 55 85 56 86 82 87 83 88 92 89 84 90 85 91
REMARK SMILES IDX 91 92 93 93 86 94 87 95 88 96 89 97 90 98 66 99 67 100
REMARK SMILES IDX 76 101 68 102 69 103 75 104 77 105 70 106 71 107 72 108
REMARK SMILES IDX 73 109 74 110
REMARK H PARENT 98 60 64 71
REMARK Flexibility Score: inf
ROOT
ATOM      1  C   UNL A   1      33.323  29.053  25.726  1.00  0.00     0.188 C 
ENDROOT
BRANCH   1   2
ATOM      2  O   UNL A   1      32.932  27.724  25.479  1.00  0.00    -0.376 OA
BRANCH   2   3
ATOM      3  C   UNL A   1      32.387  27.391  24.215  1.00  0.00     0.202 C 
BRANCH   3   4
ATOM      4  C   UNL A   1      31.603  26.092  23.925  1.00  0.00     0.261 C 
BRANCH   4   5
ATOM      5  O   UNL A   1      31.562  25.627  22.572  1.00  0.00    -0.460 OA
BRANCH   5   6
ATOM      6  C   UNL A   1      32.700  25.087  22.052  1.00  0.00     0.338 C 
ATOM      7  O   UNL A   1      33.390  25.602  21.187  1.00  0.00    -0.246 OA
BRANCH   6   8
ATOM      8  C   UNL A   1      33.066  23.816  22.780  1.00  0.00     0.067 C 
ATOM      9  C   UNL A   1      32.137  22.825  22.710  1.00  0.00     0.024 C 
BRANCH   8  10
ATOM     10  C   UNL A   1      34.358  23.753  23.538  1.00  0.00    -0.011 A 
ATOM     11  C   UNL A   1      36.714  23.375  25.147  1.00  0.00    -0.018 A 
ATOM     12  C   UNL A   1      36.615  22.857  23.850  1.00  0.00     0.009 A 
ATOM     13  C   UNL A   1      35.632  24.135  25.605  1.00  0.00     0.009 A 
ATOM     14  C   UNL A   1      35.489  23.089  23.050  1.00  0.00     0.009 A 
ATOM     15  C   UNL A   1      34.480  24.318  24.817  1.00  0.00     0.009 A 
BRANCH  11  16
ATOM     16  C   UNL A   1      37.941  23.184  25.949  1.00  0.00    -0.018 A 
ATOM     17  C   UNL A   1      40.355  22.801  27.393  1.00  0.00     0.119 A 
ATOM     18  C   UNL A   1      39.821  21.773  26.623  1.00  0.00     0.047 A 
ATOM     19  C   UNL A   1      39.698  24.024  27.439  1.00  0.00     0.047 A 
ATOM     20  C   UNL A   1      38.630  21.960  25.916  1.00  0.00     0.012 A 
ATOM     21  C   UNL A   1      38.497  24.207  26.736  1.00  0.00     0.012 A 
BRANCH  17  22
ATOM     22  O   UNL A   1      41.588  22.563  27.921  1.00  0.00    -0.491 OA
BRANCH  22  23
ATOM     23  C   UNL A   1      42.754  23.139  27.313  1.00  0.00     0.167 C 
ATOM     24  C   UNL A   1      43.901  23.401  28.281  1.00  0.00     0.052 C 
ATOM     25  C   UNL A   1      43.192  22.418  26.041  1.00  0.00     0.052 C 
ENDBRANCH  22  23
ENDBRANCH  17  22
ENDBRANCH  11  16
ENDBRANCH   8  10
BRANCH   9  26
ATOM     26  C   UNL A   1      32.245  21.453  23.232  1.00  0.00    -0.025 A 
ATOM     27  C   UNL A   1      32.097  20.411  22.304  1.00  0.00     0.009 A 
ATOM     28  C   UNL A   1      32.649  21.157  24.542  1.00  0.00     0.009 A 
ATOM     29  C   UNL A   1      32.483  19.113  22.634  1.00  0.00     0.021 A 
ATOM     30  C   UNL A   1      33.049  19.857  24.876  1.00  0.00     0.021 A 
ATOM     31  C   UNL A   1      32.995  18.850  23.907  1.00  0.00     0.067 A 
BRANCH  31  32
ATOM     32  S   UNL A   1      33.747  17.266  24.205  1.00  0.00     0.175 S 
ATOM     33  C   UNL A   1      32.900  16.649  25.630  1.00  0.00     0.163 C 
ATOM     34  O   UNL A   1      33.402  16.416  23.081  1.00  0.00    -0.224 OA
ATOM     35  O   UNL A   1      35.132  17.488  24.572  1.00  0.00    -0.224 OA
ENDBRANCH  31  32
ENDBRANCH   9  26
ENDBRANCH   6   8
ENDBRANCH   5   6
ENDBRANCH   4   5
ENDBRANCH   3   4
ENDBRANCH   2   3
ENDBRANCH   1   2
BRANCH   1  36
ATOM     36  C   UNL A   1      32.174  29.947  26.243  1.00  0.00     0.188 C 
BRANCH  36  37
ATOM     37  O   UNL A   1      32.470  31.098  27.021  1.00  0.00    -0.376 OA
BRANCH  37  38
ATOM     38  C   UNL A   1      31.758  32.301  26.759  1.00  0.00     0.202 C 
BRANCH  38  39
ATOM     39  C   UNL A   1      32.218  33.645  27.356  1.00  0.00     0.261 C 
BRANCH  39  40
ATOM     40  O   UNL A   1      33.446  33.635  28.102  1.00  0.00    -0.460 OA
BRANCH  40  41
ATOM     41  C   UNL A   1      33.431  34.315  29.274  1.00  0.00     0.338 C 
ATOM     42  O   UNL A   1      32.518  34.999  29.719  1.00  0.00    -0.246 OA
BRANCH  41  43
ATOM     43  C   UNL A   1      34.634  33.969  30.058  1.00  0.00     0.060 A 
ATOM     44  C   UNL A   1      35.872  34.519  29.692  1.00  0.00     0.016 A 
ATOM     45  C   UNL A   1      34.548  33.067  31.117  1.00  0.00     0.016 A 
ATOM     46  C   UNL A   1      37.032  34.160  30.379  1.00  0.00     0.010 A 
ATOM     47  C   UNL A   1      35.715  32.685  31.783  1.00  0.00     0.010 A 
ATOM     48  C   UNL A   1      36.964  33.209  31.403  1.00  0.00    -0.014 A 
BRANCH  48  49
ATOM     49  C   UNL A   1      38.200  32.600  31.952  1.00  0.00     0.031 A 
ATOM     50  C   UNL A   1      38.649  33.025  33.322  1.00  0.00     0.074 A 
ATOM     51  C   UNL A   1      38.930  31.720  31.244  1.00  0.00     0.049 A 
ATOM     52  N   UNL A   1      39.770  32.773  33.944  1.00  0.00    -0.248 NA
ATOM     53  C   UNL A   1      37.707  33.858  34.087  1.00  0.00     0.031 C 
ATOM     54  C   UNL A   1      38.570  31.187  29.932  1.00  0.00     0.029 A 
ATOM     55  N   UNL A   1      40.140  31.135  31.527  1.00  0.00    -0.354 N 
ATOM     56  C   UNL A   1      39.680  33.437  35.162  1.00  0.00     0.074 A 
ATOM     57  C   UNL A   1      38.402  34.113  35.184  1.00  0.00     0.031 C 
ATOM     58  C   UNL A   1      39.548  30.363  29.515  1.00  0.00     0.029 A 
ATOM     59  C   UNL A   1      40.629  30.360  30.501  1.00  0.00     0.049 A 
ATOM     60  H   UNL A   1      40.611  31.258  32.381  1.00  0.00     0.167 HD
ATOM     61  C   UNL A   1      40.587  33.482  36.168  1.00  0.00     0.037 A 
ATOM     62  C   UNL A   1      41.829  29.760  30.357  1.00  0.00     0.037 A 
ATOM     63  C   UNL A   1      41.861  32.817  36.130  1.00  0.00     0.049 A 
ATOM     64  C   UNL A   1      42.860  29.897  31.451  1.00  0.00     0.074 A 
ATOM     65  C   UNL A   1      42.851  32.801  37.096  1.00  0.00     0.029 A 
ATOM     66  N   UNL A   1      42.328  32.059  35.065  1.00  0.00    -0.354 N 
ATOM     67  N   UNL A   1      42.770  30.529  32.598  1.00  0.00    -0.248 NA
ATOM     68  C   UNL A   1      44.163  29.251  31.227  1.00  0.00     0.031 C 
ATOM     69  C   UNL A   1      43.939  32.082  36.594  1.00  0.00     0.029 A 
ATOM     70  C   UNL A   1      43.600  31.588  35.344  1.00  0.00     0.049 A 
ATOM     71  H   UNL A   1      41.829  31.882  34.235  1.00  0.00     0.167 HD
ATOM     72  C   UNL A   1      43.983  30.318  33.248  1.00  0.00     0.074 A 
ATOM     73  C   UNL A   1      44.794  29.507  32.365  1.00  0.00     0.031 C 
ATOM     74  C   UNL A   1      44.385  30.752  34.469  1.00  0.00     0.037 A 
BRANCH  61  75
ATOM     75  C   UNL A   1      40.245  34.313  37.373  1.00  0.00     0.058 A 
ATOM     76  C   UNL A   1      39.663  33.751  38.521  1.00  0.00     0.135 A 
ATOM     77  C   UNL A   1      40.521  35.690  37.387  1.00  0.00     0.135 A 
ATOM     78  F   UNL A   1      39.361  32.444  38.554  1.00  0.00    -0.206 F 
ATOM     79  C   UNL A   1      39.339  34.530  39.627  1.00  0.00     0.059 A 
ATOM     80  C   UNL A   1      40.234  36.483  38.495  1.00  0.00     0.059 A 
ATOM     81  F   UNL A   1      41.073  36.281  36.316  1.00  0.00    -0.206 F 
ATOM     82  C   UNL A   1      39.628  35.895  39.603  1.00  0.00     0.060 A 
BRANCH  82  83
ATOM     83  S   UNL A   1      39.197  36.892  41.046  1.00  0.00     0.124 S 
ATOM     84  O   UNL A   1      38.843  38.165  40.425  1.00  0.00    -0.237 OA
ATOM     85  O   UNL A   1      38.088  36.139  41.623  1.00  0.00    -0.237 OA
ATOM     86  O   UNL A   1      40.425  36.898  41.835  1.00  0.00    -0.744 OA
ENDBRANCH  82  83
ENDBRANCH  61  75
BRANCH  62  87
ATOM     87  C   UNL A   1      42.139  28.996  29.117  1.00  0.00     0.058 A 
ATOM     88  C   UNL A   1      41.944  27.608  29.054  1.00  0.00     0.135 A 
ATOM     89  C   UNL A   1      42.647  29.633  27.972  1.00  0.00     0.135 A 
ATOM     90  F   UNL A   1      41.484  26.949  30.128  1.00  0.00    -0.206 F 
ATOM     91  C   UNL A   1      42.251  26.877  27.911  1.00  0.00     0.059 A 
ATOM     92  C   UNL A   1      42.935  28.927  26.807  1.00  0.00     0.059 A 
ATOM     93  F   UNL A   1      42.852  30.959  27.975  1.00  0.00    -0.206 F 
ATOM     94  C   UNL A   1      42.743  27.548  26.790  1.00  0.00     0.060 A 
BRANCH  94  95
ATOM     95  S   UNL A   1      43.100  26.594  25.297  1.00  0.00     0.124 S 
ATOM     96  O   UNL A   1      44.252  25.806  25.719  1.00  0.00    -0.237 OA
ATOM     97  O   UNL A   1      41.857  25.855  25.101  1.00  0.00    -0.237 OA
ATOM     98  O   UNL A   1      43.372  27.623  24.298  1.00  0.00    -0.744 OA
ENDBRANCH  94  95
ENDBRANCH  62  87
BRANCH  74  99
ATOM     99  C   UNL A   1      45.730  30.304  34.977  1.00  0.00     0.058 A 
ATOM    100  C   UNL A   1      45.912  29.080  35.636  1.00  0.00     0.135 A 
ATOM    101  C   UNL A   1      46.873  31.074  34.699  1.00  0.00     0.135 A 
ATOM    102  F   UNL A   1      44.855  28.307  35.933  1.00  0.00    -0.206 F 
ATOM    103  C   UNL A   1      47.179  28.635  36.005  1.00  0.00     0.059 A 
ATOM    104  C   UNL A   1      48.151  30.637  35.032  1.00  0.00     0.059 A 
ATOM    105  F   UNL A   1      46.757  32.251  34.062  1.00  0.00    -0.206 F 
ATOM    106  C   UNL A   1      48.294  29.415  35.688  1.00  0.00     0.060 A 
BRANCH 106 107
ATOM    107  S   UNL A   1      49.937  28.790  36.103  1.00  0.00     0.124 S 
ATOM    108  O   UNL A   1      49.612  27.620  36.912  1.00  0.00    -0.237 OA
ATOM    109  O   UNL A   1      50.506  28.514  34.788  1.00  0.00    -0.237 OA
ATOM    110  O   UNL A   1      50.551  29.901  36.824  1.00  0.00    -0.744 OA
ENDBRANCH 106 107
ENDBRANCH  74  99
ENDBRANCH  48  49
ENDBRANCH  41  43
ENDBRANCH  40  41
ENDBRANCH  39  40
ENDBRANCH  38  39
ENDBRANCH  37  38
ENDBRANCH  36  37
ENDBRANCH   1  36
TORSDOF 26
ENDMDL
MODEL 3
REMARK VINA RESULT:     -10.1      4.860      6.700
REMARK SMILES CC(C)Oc1ccc(-c2ccc(/C(=C\c3ccc(S(C)(=O)=O)cc3)C(=O)OCCOCCOCCOC(=O)c3ccc(-c4c5nc(c(-c6c(F)cc(S(=O)(=O)[O-])cc6F)c6ccc([nH]6)c(-c6c(F)cc(S(=O)(=O)[O-])cc6F)c6nc(c(-c7c(F)cc(S(=O)(=O)[O-])cc7F)c7ccc4[nH]7)C=C6)C=C5)cc3)cc2)cc1
REMARK SMILES IDX 31 1 30 2 29 3 28 4 27 5 25 6 26 7 13 8 14 9 12 10 9 11
REMARK SMILES IDX 10 12 106 13 11 14 105 15 8 16 5 17 6 18 108 19 7 20 107 21
REMARK SMILES IDX 4 22 2 23 1 24 3 25 15 26 16 27 24 28 17 29 23 30 18 31
REMARK SMILES IDX 19 32 20 33 21 34 22 35 32 36 33 37 34 38 35 39 36 40 37 41
REMARK SMILES IDX 38 42 39 43 40 44 104 45 41 46 103 47 42 48 43 49 44 50
REMARK SMILES IDX 97 51 45 52 102 53 96 54 98 55 46 56 101 57 95 58 94 59
REMARK SMILES IDX 47 61 81 62 60 63 80 64 61 65 64 66 79 67 99 68 62 69 63 70
REMARK SMILES IDX 78 72 100 73 65 74 48 75 49 76 58 77 50 78 51 79 57 80 59 81
REMARK SMILES IDX 52 82 53 83 54 84 55 85 56 86 82 87 83 88 92 89 84 90 85 91
REMARK SMILES IDX 91 92 93 93 86 94 87 95 88 96 89 97 90 98 66 99 67 100
REMARK SMILES IDX 76 101 68 102 69 103 75 104 77 105 70 106 71 107 72 108
REMARK SMILES IDX 73 109 74 110
REMARK H PARENT 98 60 64 71
REMARK Flexibility Score: inf
ROOT
ATOM      1  C   UNL A   1      33.533  28.899  25.679  1.00  0.00     0.188 C 
ENDROOT
BRANCH   1   2
ATOM      2  O   UNL A   1      33.036  27.586  25.576  1.00  0.00    -0.376 OA
BRANCH   2   3
ATOM      3  C   UNL A   1      32.511  27.146  24.336  1.00  0.00     0.202 C 
BRANCH   3   4
ATOM      4  C   UNL A   1      31.566  25.935  24.178  1.00  0.00     0.261 C 
BRANCH   4   5
ATOM      5  O   UNL A   1      31.464  25.334  22.881  1.00  0.00    -0.460 OA
BRANCH   5   6
ATOM      6  C   UNL A   1      32.606  24.859  22.311  1.00  0.00     0.338 C 
ATOM      7  O   UNL A   1      33.231  25.413  21.422  1.00  0.00    -0.246 OA
BRANCH   6   8
ATOM      8  C   UNL A   1      33.070  23.606  23.015  1.00  0.00     0.067 C 
ATOM      9  C   UNL A   1      32.214  22.552  22.936  1.00  0.00     0.024 C 
BRANCH   8  10
ATOM     10  C   UNL A   1      34.371  23.624  23.762  1.00  0.00    -0.011 A 
ATOM     11  C   UNL A   1      36.792  23.360  25.294  1.00  0.00    -0.018 A 
ATOM     12  C   UNL A   1      36.755  23.096  23.920  1.00  0.00     0.009 A 
ATOM     13  C   UNL A   1      35.604  23.813  25.879  1.00  0.00     0.009 A 
ATOM     14  C   UNL A   1      35.588  23.278  23.167  1.00  0.00     0.009 A 
ATOM     15  C   UNL A   1      34.420  23.942  25.129  1.00  0.00     0.009 A 
BRANCH  11  16
ATOM     16  C   UNL A   1      38.052  23.235  26.058  1.00  0.00    -0.018 A 
ATOM     17  C   UNL A   1      40.524  22.975  27.427  1.00  0.00     0.119 A 
ATOM     18  C   UNL A   1      39.991  21.901  26.721  1.00  0.00     0.047 A 
ATOM     19  C   UNL A   1      39.837  24.182  27.445  1.00  0.00     0.047 A 
ATOM     20  C   UNL A   1      38.771  22.028  26.052  1.00  0.00     0.012 A 
ATOM     21  C   UNL A   1      38.607  24.304  26.780  1.00  0.00     0.012 A 
BRANCH  17  22
ATOM     22  O   UNL A   1      41.782  22.791  27.919  1.00  0.00    -0.491 OA
BRANCH  22  23
ATOM     23  C   UNL A   1      42.918  23.261  27.180  1.00  0.00     0.167 C 
ATOM     24  C   UNL A   1      42.737  24.643  26.563  1.00  0.00     0.052 C 
ATOM     25  C   UNL A   1      44.237  23.106  27.934  1.00  0.00     0.052 C 
ENDBRANCH  22  23
ENDBRANCH  17  22
ENDBRANCH  11  16
ENDBRANCH   8  10
BRANCH   9  26
ATOM     26  C   UNL A   1      32.426  21.183  23.434  1.00  0.00    -0.025 A 
ATOM     27  C   UNL A   1      32.065  20.135  22.574  1.00  0.00     0.009 A 
ATOM     28  C   UNL A   1      33.112  20.894  24.623  1.00  0.00     0.009 A 
ATOM     29  C   UNL A   1      32.504  18.836  22.822  1.00  0.00     0.021 A 
ATOM     30  C   UNL A   1      33.567  19.592  24.872  1.00  0.00     0.021 A 
ATOM     31  C   UNL A   1      33.287  18.578  23.950  1.00  0.00     0.067 A 
BRANCH  31  32
ATOM     32  S   UNL A   1      34.074  16.989  24.087  1.00  0.00     0.175 S 
ATOM     33  C   UNL A   1      33.005  16.070  25.155  1.00  0.00     0.163 C 
ATOM     34  O   UNL A   1      34.022  16.376  22.772  1.00  0.00    -0.224 OA
ATOM     35  O   UNL A   1      35.338  17.171  24.773  1.00  0.00    -0.224 OA
ENDBRANCH  31  32
ENDBRANCH   9  26
ENDBRANCH   6   8
ENDBRANCH   5   6
ENDBRANCH   4   5
ENDBRANCH   3   4
ENDBRANCH   2   3
ENDBRANCH   1   2
BRANCH   1  36
ATOM     36  C   UNL A   1      32.518  29.897  26.279  1.00  0.00     0.188 C 
BRANCH  36  37
ATOM     37  O   UNL A   1      32.977  30.972  27.086  1.00  0.00    -0.376 OA
BRANCH  37  38
ATOM     38  C   UNL A   1      32.319  32.228  26.989  1.00  0.00     0.202 C 
BRANCH  38  39
ATOM     39  C   UNL A   1      32.901  33.487  27.660  1.00  0.00     0.261 C 
BRANCH  39  40
ATOM     40  O   UNL A   1      34.267  33.413  28.099  1.00  0.00    -0.460 OA
BRANCH  40  41
ATOM     41  C   UNL A   1      34.503  33.825  29.369  1.00  0.00     0.338 C 
ATOM     42  O   UNL A   1      33.681  34.247  30.172  1.00  0.00    -0.246 OA
BRANCH  41  43
ATOM     43  C   UNL A   1      35.902  33.523  29.731  1.00  0.00     0.060 A 
ATOM     44  C   UNL A   1      36.433  34.053  30.918  1.00  0.00     0.016 A 
ATOM     45  C   UNL A   1      36.701  32.763  28.879  1.00  0.00     0.016 A 
ATOM     46  C   UNL A   1      37.769  33.832  31.250  1.00  0.00     0.010 A 
ATOM     47  C   UNL A   1      38.048  32.569  29.199  1.00  0.00     0.010 A 
ATOM     48  C   UNL A   1      38.594  33.122  30.372  1.00  0.00    -0.014 A 
BRANCH  48  49
ATOM     49  C   UNL A   1      40.066  33.117  30.554  1.00  0.00     0.031 A 
ATOM     50  C   UNL A   1      40.666  32.055  31.433  1.00  0.00     0.074 A 
ATOM     51  C   UNL A   1      40.852  34.049  29.988  1.00  0.00     0.049 A 
ATOM     52  N   UNL A   1      41.887  31.941  31.883  1.00  0.00    -0.248 NA
ATOM     53  C   UNL A   1      39.757  30.983  31.872  1.00  0.00     0.031 C 
ATOM     54  C   UNL A   1      40.398  35.094  29.072  1.00  0.00     0.029 A 
ATOM     55  N   UNL A   1      42.200  34.277  30.120  1.00  0.00    -0.354 N 
ATOM     56  C   UNL A   1      41.888  30.801  32.679  1.00  0.00     0.074 A 
ATOM     57  C   UNL A   1      40.544  30.269  32.661  1.00  0.00     0.031 C 
ATOM     58  C   UNL A   1      41.450  35.862  28.735  1.00  0.00     0.029 A 
ATOM     59  C   UNL A   1      42.635  35.403  29.460  1.00  0.00     0.049 A 
ATOM     60  H   UNL A   1      42.797  33.690  30.636  1.00  0.00     0.167 HD
ATOM     61  C   UNL A   1      42.918  30.253  33.367  1.00  0.00     0.037 A 
ATOM     62  C   UNL A   1      43.837  36.015  29.478  1.00  0.00     0.037 A 
ATOM     63  C   UNL A   1      44.249  30.799  33.389  1.00  0.00     0.049 A 
ATOM     64  C   UNL A   1      44.947  35.439  30.324  1.00  0.00     0.074 A 
ATOM     65  C   UNL A   1      45.362  30.320  34.056  1.00  0.00     0.029 A 
ATOM     66  N   UNL A   1      44.644  31.951  32.724  1.00  0.00    -0.354 N 
ATOM     67  N   UNL A   1      44.940  34.363  31.076  1.00  0.00    -0.248 NA
ATOM     68  C   UNL A   1      46.226  36.166  30.335  1.00  0.00     0.031 C 
ATOM     69  C   UNL A   1      46.416  31.213  33.841  1.00  0.00     0.029 A 
ATOM     70  C   UNL A   1      45.979  32.209  32.982  1.00  0.00     0.049 A 
ATOM     71  H   UNL A   1      44.061  32.503  32.154  1.00  0.00     0.167 HD
ATOM     72  C   UNL A   1      46.222  34.262  31.611  1.00  0.00     0.074 A 
ATOM     73  C   UNL A   1      46.976  35.388  31.103  1.00  0.00     0.031 C 
ATOM     74  C   UNL A   1      46.729  33.317  32.442  1.00  0.00     0.037 A 
BRANCH  61  75
ATOM     75  C   UNL A   1      42.631  29.025  34.184  1.00  0.00     0.058 A 
ATOM     76  C   UNL A   1      42.784  27.731  33.658  1.00  0.00     0.135 A 
ATOM     77  C   UNL A   1      42.215  29.142  35.521  1.00  0.00     0.135 A 
ATOM     78  F   UNL A   1      43.161  27.561  32.382  1.00  0.00    -0.206 F 
ATOM     79  C   UNL A   1      42.504  26.601  34.418  1.00  0.00     0.059 A 
ATOM     80  C   UNL A   1      41.961  28.023  36.309  1.00  0.00     0.059 A 
ATOM     81  F   UNL A   1      42.049  30.353  36.074  1.00  0.00    -0.206 F 
ATOM     82  C   UNL A   1      42.092  26.758  35.743  1.00  0.00     0.060 A 
BRANCH  82  83
ATOM     83  S   UNL A   1      41.730  25.278  36.713  1.00  0.00     0.124 S 
ATOM     84  O   UNL A   1      40.499  25.672  37.393  1.00  0.00    -0.237 OA
ATOM     85  O   UNL A   1      41.583  24.258  35.680  1.00  0.00    -0.237 OA
ATOM     86  O   UNL A   1      42.903  25.137  37.569  1.00  0.00    -0.744 OA
ENDBRANCH  82  83
ENDBRANCH  61  75
BRANCH  62  87
ATOM     87  C   UNL A   1      44.053  37.264  28.697  1.00  0.00     0.058 A 
ATOM     88  C   UNL A   1      43.745  38.520  29.241  1.00  0.00     0.135 A 
ATOM     89  C   UNL A   1      44.559  37.231  27.387  1.00  0.00     0.135 A 
ATOM     90  F   UNL A   1      43.235  38.606  30.479  1.00  0.00    -0.206 F 
ATOM     91  C   UNL A   1      43.919  39.695  28.515  1.00  0.00     0.059 A 
ATOM     92  C   UNL A   1      44.769  38.394  26.652  1.00  0.00     0.059 A 
ATOM     93  F   UNL A   1      44.873  36.056  26.817  1.00  0.00    -0.206 F 
ATOM     94  C   UNL A   1      44.437  39.621  27.221  1.00  0.00     0.060 A 
BRANCH  94  95
ATOM     95  S   UNL A   1      44.697  41.155  26.303  1.00  0.00     0.124 S 
ATOM     96  O   UNL A   1      43.351  41.714  26.274  1.00  0.00    -0.237 OA
ATOM     97  O   UNL A   1      45.662  41.855  27.144  1.00  0.00    -0.237 OA
ATOM     98  O   UNL A   1      45.216  40.694  25.018  1.00  0.00    -0.744 OA
ENDBRANCH  94  95
ENDBRANCH  62  87
BRANCH  74  99
ATOM     99  C   UNL A   1      48.189  33.397  32.805  1.00  0.00     0.058 A 
ATOM    100  C   UNL A   1      48.638  34.046  33.964  1.00  0.00     0.135 A 
ATOM    101  C   UNL A   1      49.140  32.716  32.025  1.00  0.00     0.135 A 
ATOM    102  F   UNL A   1      47.775  34.718  34.742  1.00  0.00    -0.206 F 
ATOM    103  C   UNL A   1      49.980  34.019  34.337  1.00  0.00     0.059 A 
ATOM    104  C   UNL A   1      50.479  32.651  32.394  1.00  0.00     0.059 A 
ATOM    105  F   UNL A   1      48.762  32.070  30.910  1.00  0.00    -0.206 F 
ATOM    106  C   UNL A   1      50.891  33.308  33.551  1.00  0.00     0.060 A 
BRANCH 106 107
ATOM    107  S   UNL A   1      52.613  33.218  34.089  1.00  0.00     0.124 S 
ATOM    108  O   UNL A   1      52.783  34.503  34.756  1.00  0.00    -0.237 OA
ATOM    109  O   UNL A   1      52.606  32.046  34.959  1.00  0.00    -0.237 OA
ATOM    110  O   UNL A   1      53.351  33.057  32.839  1.00  0.00    -0.744 OA
ENDBRANCH 106 107
ENDBRANCH  74  99
ENDBRANCH  48  49
ENDBRANCH  41  43
ENDBRANCH  40  41
ENDBRANCH  39  40
ENDBRANCH  38  39
ENDBRANCH  37  38
ENDBRANCH  36  37
ENDBRANCH   1  36
TORSDOF 26
ENDMDL
