MODEL 1
REMARK VINA RESULT:      -9.9      0.000      0.000
REMARK SMILES O=CN[C@@H](Cc1cc(Cl)ccc1[N+](=O)[O-])C(=O)OCCOCCOCCOC(=O)c1ccc(-c2c3nc(c(-c4c(F)cc(S(=O)(=O)[O-])cc4F)c4ccc([nH]4)c(-c4c(F)cc(S(=O)(=O)[O-])cc4F)c4nc(c(-c5c(F)cc(S(=O)(=O)[O-])cc5F)c5ccc2[nH]5)C=C4)C=C3)cc1
REMARK SMILES IDX 22 1 21 2 20 3 19 4 18 5 16 6 17 7 4 8 3 9 1 10 2 11 5 13
REMARK SMILES IDX 6 14 7 15 12 16 8 17 11 18 9 19 10 20 13 21 14 22 15 23
REMARK SMILES IDX 23 24 24 25 25 26 26 27 27 28 28 29 29 30 30 31 31 32 95 33
REMARK SMILES IDX 32 34 94 35 33 36 34 37 35 38 88 39 36 40 93 41 87 42 89 43
REMARK SMILES IDX 37 44 92 45 86 46 85 47 38 49 72 50 51 51 71 52 52 53 55 54
REMARK SMILES IDX 70 55 90 56 53 57 54 58 69 60 91 61 56 62 39 63 40 64 49 65
REMARK SMILES IDX 41 66 42 67 48 68 50 69 43 70 44 71 45 72 46 73 47 74 73 75
REMARK SMILES IDX 74 76 83 77 75 78 76 79 82 80 84 81 77 82 78 83 79 84 80 85
REMARK SMILES IDX 81 86 57 87 58 88 67 89 59 90 60 91 66 92 68 93 61 94 62 95
REMARK SMILES IDX 63 96 64 97 65 98
REMARK H PARENT 3 12 89 48 55 59
REMARK Flexibility Score: inf
ROOT
ATOM      1  C   UNL A   1      39.192  22.176  26.186  1.00  0.00     0.188 C 
ENDROOT
BRANCH   1   2
ATOM      2  O   UNL A   1      38.300  21.348  25.446  1.00  0.00    -0.376 OA
BRANCH   2   3
ATOM      3  C   UNL A   1      37.364  21.969  24.570  1.00  0.00     0.202 C 
BRANCH   3   4
ATOM      4  C   UNL A   1      35.906  21.498  24.649  1.00  0.00     0.261 C 
BRANCH   4   5
ATOM      5  O   UNL A   1      35.023  22.235  23.776  1.00  0.00    -0.462 OA
BRANCH   5   6
ATOM      6  C   UNL A   1      33.695  22.178  24.053  1.00  0.00     0.329 C 
ATOM      7  O   UNL A   1      32.984  21.216  23.782  1.00  0.00    -0.250 OA
BRANCH   6   8
ATOM      8  C   UNL A   1      33.116  23.495  24.645  1.00  0.00     0.196 C 
BRANCH   8   9
ATOM      9  N   UNL A   1      32.569  23.582  26.003  1.00  0.00    -0.345 N 
ATOM     10  O   UNL A   1      32.250  22.756  28.086  1.00  0.00    -0.279 OA
ATOM     11  C   UNL A   1      32.774  22.660  26.986  1.00  0.00     0.337 C 
ATOM     12  H   UNL A   1      32.012  24.364  26.220  1.00  0.00     0.164 HD
ENDBRANCH   8   9
BRANCH   8  13
ATOM     13  C   UNL A   1      34.173  24.602  24.472  1.00  0.00     0.079 C 
BRANCH  13  14
ATOM     14  C   UNL A   1      33.763  26.070  24.587  1.00  0.00     0.034 A 
ATOM     15  C   UNL A   1      33.958  26.815  25.772  1.00  0.00     0.031 A 
ATOM     16  C   UNL A   1      33.190  26.767  23.495  1.00  0.00     0.272 A 
ATOM     17  C   UNL A   1      33.658  28.178  25.855  1.00  0.00     0.041 A 
ATOM     18  C   UNL A   1      32.891  28.143  23.585  1.00  0.00     0.087 A 
ATOM     19  Cl  UNL A   1      33.947  29.025  27.326  1.00  0.00    -0.084 Cl
ATOM     20  C   UNL A   1      33.137  28.848  24.761  1.00  0.00     0.027 A 
BRANCH  16  21
ATOM     21  N   UNL A   1      32.840  26.104  22.224  1.00  0.00     0.062 N 
ATOM     22  O   UNL A   1      31.763  25.490  22.187  1.00  0.00    -0.258 OA
ATOM     23  O   UNL A   1      33.616  26.206  21.267  1.00  0.00    -0.258 OA
ENDBRANCH  16  21
ENDBRANCH  13  14
ENDBRANCH   8  13
ENDBRANCH   6   8
ENDBRANCH   5   6
ENDBRANCH   4   5
ENDBRANCH   3   4
ENDBRANCH   2   3
ENDBRANCH   1   2
BRANCH   1  24
ATOM     24  C   UNL A   1      40.509  21.558  26.684  1.00  0.00     0.188 C 
BRANCH  24  25
ATOM     25  O   UNL A   1      41.495  21.384  25.688  1.00  0.00    -0.376 OA
BRANCH  25  26
ATOM     26  C   UNL A   1      42.521  22.361  25.644  1.00  0.00     0.202 C 
BRANCH  26  27
ATOM     27  C   UNL A   1      42.356  23.627  26.505  1.00  0.00     0.261 C 
BRANCH  27  28
ATOM     28  O   UNL A   1      41.502  24.662  25.982  1.00  0.00    -0.460 OA
BRANCH  28  29
ATOM     29  C   UNL A   1      42.006  25.917  25.899  1.00  0.00     0.338 C 
ATOM     30  O   UNL A   1      42.325  26.503  24.878  1.00  0.00    -0.246 OA
BRANCH  29  31
ATOM     31  C   UNL A   1      41.877  26.548  27.240  1.00  0.00     0.060 A 
ATOM     32  C   UNL A   1      40.761  26.250  28.039  1.00  0.00     0.016 A 
ATOM     33  C   UNL A   1      42.873  27.397  27.728  1.00  0.00     0.016 A 
ATOM     34  C   UNL A   1      40.629  26.819  29.311  1.00  0.00     0.010 A 
ATOM     35  C   UNL A   1      42.726  27.987  28.990  1.00  0.00     0.010 A 
ATOM     36  C   UNL A   1      41.590  27.726  29.779  1.00  0.00    -0.014 A 
BRANCH  36  37
ATOM     37  C   UNL A   1      41.323  28.560  30.982  1.00  0.00     0.031 A 
ATOM     38  C   UNL A   1      40.210  29.573  30.909  1.00  0.00     0.074 A 
ATOM     39  C   UNL A   1      42.048  28.446  32.112  1.00  0.00     0.049 A 
ATOM     40  N   UNL A   1      39.849  30.481  31.777  1.00  0.00    -0.248 NA
ATOM     41  C   UNL A   1      39.398  29.560  29.680  1.00  0.00     0.031 C 
ATOM     42  C   UNL A   1      43.123  27.484  32.337  1.00  0.00     0.029 A 
ATOM     43  N   UNL A   1      41.993  29.167  33.282  1.00  0.00    -0.354 N 
ATOM     44  C   UNL A   1      38.780  31.155  31.198  1.00  0.00     0.074 A 
ATOM     45  C   UNL A   1      38.567  30.568  29.892  1.00  0.00     0.031 C 
ATOM     46  C   UNL A   1      43.641  27.686  33.563  1.00  0.00     0.029 A 
ATOM     47  C   UNL A   1      42.959  28.816  34.196  1.00  0.00     0.049 A 
ATOM     48  H   UNL A   1      41.324  29.871  33.449  1.00  0.00     0.167 HD
ATOM     49  C   UNL A   1      38.035  32.166  31.707  1.00  0.00     0.037 A 
ATOM     50  C   UNL A   1      43.276  29.361  35.390  1.00  0.00     0.037 A 
ATOM     51  C   UNL A   1      38.248  32.754  33.003  1.00  0.00     0.049 A 
ATOM     52  C   UNL A   1      42.484  30.539  35.906  1.00  0.00     0.074 A 
ATOM     53  C   UNL A   1      37.538  33.774  33.611  1.00  0.00     0.029 A 
ATOM     54  N   UNL A   1      39.251  32.384  33.887  1.00  0.00    -0.354 N 
ATOM     55  N   UNL A   1      41.463  31.155  35.356  1.00  0.00    -0.248 NA
ATOM     56  C   UNL A   1      42.886  31.098  37.206  1.00  0.00     0.031 C 
ATOM     57  C   UNL A   1      38.144  34.059  34.839  1.00  0.00     0.029 A 
ATOM     58  C   UNL A   1      39.193  33.173  35.025  1.00  0.00     0.049 A 
ATOM     59  H   UNL A   1      39.906  31.666  33.730  1.00  0.00     0.167 HD
ATOM     60  C   UNL A   1      41.084  32.148  36.257  1.00  0.00     0.074 A 
ATOM     61  C   UNL A   1      41.979  32.046  37.391  1.00  0.00     0.031 C 
ATOM     62  C   UNL A   1      40.082  33.058  36.156  1.00  0.00     0.037 A 
BRANCH  49  63
ATOM     63  C   UNL A   1      36.937  32.723  30.842  1.00  0.00     0.058 A 
ATOM     64  C   UNL A   1      37.140  33.836  30.011  1.00  0.00     0.135 A 
ATOM     65  C   UNL A   1      35.670  32.118  30.826  1.00  0.00     0.135 A 
ATOM     66  F   UNL A   1      38.327  34.465  30.001  1.00  0.00    -0.206 F 
ATOM     67  C   UNL A   1      36.118  34.348  29.218  1.00  0.00     0.059 A 
ATOM     68  C   UNL A   1      34.642  32.594  30.017  1.00  0.00     0.059 A 
ATOM     69  F   UNL A   1      35.419  31.052  31.602  1.00  0.00    -0.206 F 
ATOM     70  C   UNL A   1      34.872  33.719  29.229  1.00  0.00     0.060 A 
BRANCH  70  71
ATOM     71  S   UNL A   1      33.557  34.395  28.193  1.00  0.00     0.124 S 
ATOM     72  O   UNL A   1      34.324  35.018  27.119  1.00  0.00    -0.237 OA
ATOM     73  O   UNL A   1      32.806  33.200  27.824  1.00  0.00    -0.237 OA
ATOM     74  O   UNL A   1      32.861  35.318  29.083  1.00  0.00    -0.744 OA
ENDBRANCH  70  71
ENDBRANCH  49  63
BRANCH  50  75
ATOM     75  C   UNL A   1      44.408  28.811  36.187  1.00  0.00     0.058 A 
ATOM     76  C   UNL A   1      45.693  29.369  36.104  1.00  0.00     0.135 A 
ATOM     77  C   UNL A   1      44.234  27.706  37.035  1.00  0.00     0.135 A 
ATOM     78  F   UNL A   1      45.918  30.415  35.293  1.00  0.00    -0.206 F 
ATOM     79  C   UNL A   1      46.764  28.848  36.822  1.00  0.00     0.059 A 
ATOM     80  C   UNL A   1      45.283  27.184  37.786  1.00  0.00     0.059 A 
ATOM     81  F   UNL A   1      43.025  27.133  37.154  1.00  0.00    -0.206 F 
ATOM     82  C   UNL A   1      46.548  27.757  37.666  1.00  0.00     0.060 A 
BRANCH  82  83
ATOM     83  S   UNL A   1      47.934  27.125  38.636  1.00  0.00     0.124 S 
ATOM     84  O   UNL A   1      48.089  25.782  38.090  1.00  0.00    -0.237 OA
ATOM     85  O   UNL A   1      48.994  28.074  38.309  1.00  0.00    -0.237 OA
ATOM     86  O   UNL A   1      47.442  27.195  40.009  1.00  0.00    -0.744 OA
ENDBRANCH  82  83
ENDBRANCH  50  75
BRANCH  62  87
ATOM     87  C   UNL A   1      39.860  33.992  37.316  1.00  0.00     0.058 A 
ATOM     88  C   UNL A   1      40.356  35.305  37.323  1.00  0.00     0.135 A 
ATOM     89  C   UNL A   1      39.081  33.584  38.415  1.00  0.00     0.135 A 
ATOM     90  F   UNL A   1      41.109  35.747  36.303  1.00  0.00    -0.206 F 
ATOM     91  C   UNL A   1      40.111  36.171  38.384  1.00  0.00     0.059 A 
ATOM     92  C   UNL A   1      38.797  34.444  39.472  1.00  0.00     0.059 A 
ATOM     93  F   UNL A   1      38.569  32.345  38.457  1.00  0.00    -0.206 F 
ATOM     94  C   UNL A   1      39.328  35.733  39.454  1.00  0.00     0.060 A 
BRANCH  94  95
ATOM     95  S   UNL A   1      38.988  36.879  40.808  1.00  0.00     0.124 S 
ATOM     96  O   UNL A   1      38.179  36.053  41.697  1.00  0.00    -0.237 OA
ATOM     97  O   UNL A   1      40.329  37.200  41.287  1.00  0.00    -0.237 OA
ATOM     98  O   UNL A   1      38.283  37.978  40.157  1.00  0.00    -0.744 OA
ENDBRANCH  94  95
ENDBRANCH  62  87
ENDBRANCH  36  37
ENDBRANCH  29  31
ENDBRANCH  28  29
ENDBRANCH  27  28
ENDBRANCH  26  27
ENDBRANCH  25  26
ENDBRANCH  24  25
ENDBRANCH   1  24
TORSDOF 24
ENDMDL
MODEL 2
REMARK VINA RESULT:      -9.9      1.145      8.233
REMARK SMILES O=CN[C@@H](Cc1cc(Cl)ccc1[N+](=O)[O-])C(=O)OCCOCCOCCOC(=O)c1ccc(-c2c3nc(c(-c4c(F)cc(S(=O)(=O)[O-])cc4F)c4ccc([nH]4)c(-c4c(F)cc(S(=O)(=O)[O-])cc4F)c4nc(c(-c5c(F)cc(S(=O)(=O)[O-])cc5F)c5ccc2[nH]5)C=C4)C=C3)cc1
REMARK SMILES IDX 22 1 21 2 20 3 19 4 18 5 16 6 17 7 4 8 3 9 1 10 2 11 5 13
REMARK SMILES IDX 6 14 7 15 12 16 8 17 11 18 9 19 10 20 13 21 14 22 15 23
REMARK SMILES IDX 23 24 24 25 25 26 26 27 27 28 28 29 29 30 30 31 31 32 95 33
REMARK SMILES IDX 32 34 94 35 33 36 34 37 35 38 88 39 36 40 93 41 87 42 89 43
REMARK SMILES IDX 37 44 92 45 86 46 85 47 38 49 72 50 51 51 71 52 52 53 55 54
REMARK SMILES IDX 70 55 90 56 53 57 54 58 69 60 91 61 56 62 39 63 40 64 49 65
REMARK SMILES IDX 41 66 42 67 48 68 50 69 43 70 44 71 45 72 46 73 47 74 73 75
REMARK SMILES IDX 74 76 83 77 75 78 76 79 82 80 84 81 77 82 78 83 79 84 80 85
REMARK SMILES IDX 81 86 57 87 58 88 67 89 59 90 60 91 66 92 68 93 61 94 62 95
REMARK SMILES IDX 63 96 64 97 65 98
REMARK H PARENT 3 12 89 48 55 59
REMARK Flexibility Score: inf
ROOT
ATOM      1  C   UNL A   1      39.055  21.187  26.114  1.00  0.00     0.188 C 
ENDROOT
BRANCH   1   2
ATOM      2  O   UNL A   1      38.423  20.677  24.943  1.00  0.00    -0.376 OA
BRANCH   2   3
ATOM      3  C   UNL A   1      37.010  20.493  24.959  1.00  0.00     0.202 C 
BRANCH   3   4
ATOM      4  C   UNL A   1      36.183  21.469  25.806  1.00  0.00     0.261 C 
BRANCH   4   5
ATOM      5  O   UNL A   1      35.200  22.196  25.037  1.00  0.00    -0.462 OA
BRANCH   5   6
ATOM      6  C   UNL A   1      34.766  23.375  25.551  1.00  0.00     0.329 C 
ATOM      7  O   UNL A   1      34.619  23.582  26.751  1.00  0.00    -0.250 OA
BRANCH   6   8
ATOM      8  C   UNL A   1      34.354  24.420  24.474  1.00  0.00     0.196 C 
BRANCH   8   9
ATOM      9  N   UNL A   1      34.423  24.146  23.035  1.00  0.00    -0.345 N 
ATOM     10  O   UNL A   1      33.471  23.583  21.059  1.00  0.00    -0.279 OA
ATOM     11  C   UNL A   1      33.350  23.854  22.246  1.00  0.00     0.337 C 
ATOM     12  H   UNL A   1      35.309  24.176  22.607  1.00  0.00     0.164 HD
ENDBRANCH   8   9
BRANCH   8  13
ATOM     13  C   UNL A   1      32.936  24.919  24.809  1.00  0.00     0.079 C 
BRANCH  13  14
ATOM     14  C   UNL A   1      32.752  26.149  25.698  1.00  0.00     0.034 A 
ATOM     15  C   UNL A   1      33.829  26.999  26.038  1.00  0.00     0.031 A 
ATOM     16  C   UNL A   1      31.481  26.513  26.205  1.00  0.00     0.272 A 
ATOM     17  C   UNL A   1      33.651  28.167  26.784  1.00  0.00     0.041 A 
ATOM     18  C   UNL A   1      31.307  27.696  26.956  1.00  0.00     0.087 A 
ATOM     19  Cl  UNL A   1      35.007  29.168  27.138  1.00  0.00    -0.084 Cl
ATOM     20  C   UNL A   1      32.391  28.526  27.234  1.00  0.00     0.027 A 
BRANCH  16  21
ATOM     21  N   UNL A   1      30.279  25.679  26.014  1.00  0.00     0.062 N 
ATOM     22  O   UNL A   1      30.140  24.711  26.777  1.00  0.00    -0.258 OA
ATOM     23  O   UNL A   1      29.474  25.989  25.130  1.00  0.00    -0.258 OA
ENDBRANCH  16  21
ENDBRANCH  13  14
ENDBRANCH   8  13
ENDBRANCH   6   8
ENDBRANCH   5   6
ENDBRANCH   4   5
ENDBRANCH   3   4
ENDBRANCH   2   3
ENDBRANCH   1   2
BRANCH   1  24
ATOM     24  C   UNL A   1      40.438  20.629  26.490  1.00  0.00     0.188 C 
BRANCH  24  25
ATOM     25  O   UNL A   1      41.482  20.994  25.612  1.00  0.00    -0.376 OA
BRANCH  25  26
ATOM     26  C   UNL A   1      42.460  21.878  26.133  1.00  0.00     0.202 C 
BRANCH  26  27
ATOM     27  C   UNL A   1      41.985  23.044  27.021  1.00  0.00     0.261 C 
BRANCH  27  28
ATOM     28  O   UNL A   1      41.068  23.983  26.426  1.00  0.00    -0.460 OA
BRANCH  28  29
ATOM     29  C   UNL A   1      41.540  25.213  26.108  1.00  0.00     0.338 C 
ATOM     30  O   UNL A   1      41.792  25.623  24.988  1.00  0.00    -0.246 OA
BRANCH  29  31
ATOM     31  C   UNL A   1      41.468  26.057  27.330  1.00  0.00     0.060 A 
ATOM     32  C   UNL A   1      40.344  25.964  28.169  1.00  0.00     0.016 A 
ATOM     33  C   UNL A   1      42.522  26.906  27.674  1.00  0.00     0.016 A 
ATOM     34  C   UNL A   1      40.265  26.737  29.333  1.00  0.00     0.010 A 
ATOM     35  C   UNL A   1      42.428  27.699  28.825  1.00  0.00     0.010 A 
ATOM     36  C   UNL A   1      41.288  27.642  29.647  1.00  0.00    -0.014 A 
BRANCH  36  37
ATOM     37  C   UNL A   1      41.089  28.674  30.702  1.00  0.00     0.031 A 
ATOM     38  C   UNL A   1      41.970  28.618  31.923  1.00  0.00     0.074 A 
ATOM     39  C   UNL A   1      40.149  29.633  30.601  1.00  0.00     0.049 A 
ATOM     40  N   UNL A   1      41.928  29.334  33.016  1.00  0.00    -0.248 NA
ATOM     41  C   UNL A   1      43.042  27.609  31.906  1.00  0.00     0.031 C 
ATOM     42  C   UNL A   1      39.258  29.831  29.461  1.00  0.00     0.029 A 
ATOM     43  N   UNL A   1      39.778  30.614  31.491  1.00  0.00    -0.354 N 
ATOM     44  C   UNL A   1      42.955  28.855  33.822  1.00  0.00     0.074 A 
ATOM     45  C   UNL A   1      43.587  27.770  33.102  1.00  0.00     0.031 C 
ATOM     46  C   UNL A   1      38.429  30.858  29.728  1.00  0.00     0.029 A 
ATOM     47  C   UNL A   1      38.706  31.367  31.072  1.00  0.00     0.049 A 
ATOM     48  H   UNL A   1      40.237  30.763  32.350  1.00  0.00     0.167 HD
ATOM     49  C   UNL A   1      43.345  29.282  35.047  1.00  0.00     0.037 A 
ATOM     50  C   UNL A   1      38.010  32.333  31.710  1.00  0.00     0.037 A 
ATOM     51  C   UNL A   1      42.714  30.357  35.766  1.00  0.00     0.049 A 
ATOM     52  C   UNL A   1      38.411  32.741  33.108  1.00  0.00     0.074 A 
ATOM     53  C   UNL A   1      43.046  30.871  37.008  1.00  0.00     0.029 A 
ATOM     54  N   UNL A   1      41.618  31.078  35.316  1.00  0.00    -0.354 N 
ATOM     55  N   UNL A   1      39.396  32.293  33.851  1.00  0.00    -0.248 NA
ATOM     56  C   UNL A   1      37.605  33.788  33.755  1.00  0.00     0.031 C 
ATOM     57  C   UNL A   1      42.116  31.865  37.333  1.00  0.00     0.029 A 
ATOM     58  C   UNL A   1      41.245  32.015  36.267  1.00  0.00     0.049 A 
ATOM     59  H   UNL A   1      41.171  30.945  34.449  1.00  0.00     0.167 HD
ATOM     60  C   UNL A   1      39.346  33.026  35.036  1.00  0.00     0.074 A 
ATOM     61  C   UNL A   1      38.240  33.951  34.907  1.00  0.00     0.031 C 
ATOM     62  C   UNL A   1      40.148  32.942  36.127  1.00  0.00     0.037 A 
BRANCH  49  63
ATOM     63  C   UNL A   1      44.492  28.560  35.702  1.00  0.00     0.058 A 
ATOM     64  C   UNL A   1      44.287  27.457  36.545  1.00  0.00     0.135 A 
ATOM     65  C   UNL A   1      45.814  28.964  35.462  1.00  0.00     0.135 A 
ATOM     66  F   UNL A   1      43.041  27.039  36.824  1.00  0.00    -0.206 F 
ATOM     67  C   UNL A   1      45.352  26.797  37.150  1.00  0.00     0.059 A 
ATOM     68  C   UNL A   1      46.897  28.300  36.032  1.00  0.00     0.059 A 
ATOM     69  F   UNL A   1      46.068  30.015  34.665  1.00  0.00    -0.206 F 
ATOM     70  C   UNL A   1      46.654  27.228  36.888  1.00  0.00     0.060 A 
BRANCH  70  71
ATOM     71  S   UNL A   1      48.024  26.361  37.680  1.00  0.00     0.124 S 
ATOM     72  O   UNL A   1      49.111  26.612  36.739  1.00  0.00    -0.237 OA
ATOM     73  O   UNL A   1      48.128  27.048  38.964  1.00  0.00    -0.237 OA
ATOM     74  O   UNL A   1      47.561  24.979  37.749  1.00  0.00    -0.744 OA
ENDBRANCH  70  71
ENDBRANCH  49  63
BRANCH  50  75
ATOM     75  C   UNL A   1      36.846  32.981  31.043  1.00  0.00     0.058 A 
ATOM     76  C   UNL A   1      37.028  33.965  30.060  1.00  0.00     0.135 A 
ATOM     77  C   UNL A   1      35.527  32.641  31.387  1.00  0.00     0.135 A 
ATOM     78  F   UNL A   1      38.267  34.341  29.709  1.00  0.00    -0.206 F 
ATOM     79  C   UNL A   1      35.949  34.597  29.450  1.00  0.00     0.059 A 
ATOM     80  C   UNL A   1      34.431  33.237  30.770  1.00  0.00     0.059 A 
ATOM     81  F   UNL A   1      35.295  31.704  32.320  1.00  0.00    -0.206 F 
ATOM     82  C   UNL A   1      34.652  34.221  29.808  1.00  0.00     0.060 A 
BRANCH  82  83
ATOM     83  S   UNL A   1      33.260  35.008  28.967  1.00  0.00     0.124 S 
ATOM     84  O   UNL A   1      33.916  36.120  28.289  1.00  0.00    -0.237 OA
ATOM     85  O   UNL A   1      32.775  33.932  28.108  1.00  0.00    -0.237 OA
ATOM     86  O   UNL A   1      32.369  35.374  30.064  1.00  0.00    -0.744 OA
ENDBRANCH  82  83
ENDBRANCH  50  75
BRANCH  62  87
ATOM     87  C   UNL A   1      39.898  33.904  37.259  1.00  0.00     0.058 A 
ATOM     88  C   UNL A   1      40.470  35.185  37.289  1.00  0.00     0.135 A 
ATOM     89  C   UNL A   1      39.020  33.558  38.302  1.00  0.00     0.135 A 
ATOM     90  F   UNL A   1      41.320  35.567  36.321  1.00  0.00    -0.206 F 
ATOM     91  C   UNL A   1      40.201  36.079  38.321  1.00  0.00     0.059 A 
ATOM     92  C   UNL A   1      38.713  34.448  39.327  1.00  0.00     0.059 A 
ATOM     93  F   UNL A   1      38.433  32.351  38.320  1.00  0.00    -0.206 F 
ATOM     94  C   UNL A   1      39.319  35.703  39.335  1.00  0.00     0.060 A 
BRANCH  94  95
ATOM     95  S   UNL A   1      38.952  36.886  40.650  1.00  0.00     0.124 S 
ATOM     96  O   UNL A   1      40.290  37.230  41.118  1.00  0.00    -0.237 OA
ATOM     97  O   UNL A   1      38.243  37.940  39.931  1.00  0.00    -0.237 OA
ATOM     98  O   UNL A   1      38.138  36.116  41.584  1.00  0.00    -0.744 OA
ENDBRANCH  94  95
ENDBRANCH  62  87
ENDBRANCH  36  37
ENDBRANCH  29  31
ENDBRANCH  28  29
ENDBRANCH  27  28
ENDBRANCH  26  27
ENDBRANCH  25  26
ENDBRANCH  24  25
ENDBRANCH   1  24
TORSDOF 24
ENDMDL
MODEL 3
REMARK VINA RESULT:      -9.6      5.918      8.648
REMARK SMILES O=CN[C@@H](Cc1cc(Cl)ccc1[N+](=O)[O-])C(=O)OCCOCCOCCOC(=O)c1ccc(-c2c3nc(c(-c4c(F)cc(S(=O)(=O)[O-])cc4F)c4ccc([nH]4)c(-c4c(F)cc(S(=O)(=O)[O-])cc4F)c4nc(c(-c5c(F)cc(S(=O)(=O)[O-])cc5F)c5ccc2[nH]5)C=C4)C=C3)cc1
REMARK SMILES IDX 22 1 21 2 20 3 19 4 18 5 16 6 17 7 4 8 3 9 1 10 2 11 5 13
REMARK SMILES IDX 6 14 7 15 12 16 8 17 11 18 9 19 10 20 13 21 14 22 15 23
REMARK SMILES IDX 23 24 24 25 25 26 26 27 27 28 28 29 29 30 30 31 31 32 95 33
REMARK SMILES IDX 32 34 94 35 33 36 34 37 35 38 88 39 36 40 93 41 87 42 89 43
REMARK SMILES IDX 37 44 92 45 86 46 85 47 38 49 72 50 51 51 71 52 52 53 55 54
REMARK SMILES IDX 70 55 90 56 53 57 54 58 69 60 91 61 56 62 39 63 40 64 49 65
REMARK SMILES IDX 41 66 42 67 48 68 50 69 43 70 44 71 45 72 46 73 47 74 73 75
REMARK SMILES IDX 74 76 83 77 75 78 76 79 82 80 84 81 77 82 78 83 79 84 80 85
REMARK SMILES IDX 81 86 57 87 58 88 67 89 59 90 60 91 66 92 68 93 61 94 62 95
REMARK SMILES IDX 63 96 64 97 65 98
REMARK H PARENT 3 12 89 48 55 59
REMARK Flexibility Score: inf
ROOT
ATOM      1  C   UNL A   1      36.193  21.324  25.690  1.00  0.00     0.188 C 
ENDROOT
BRANCH   1   2
ATOM      2  O   UNL A   1      34.962  21.701  25.079  1.00  0.00    -0.376 OA
BRANCH   2   3
ATOM      3  C   UNL A   1      33.905  22.171  25.911  1.00  0.00     0.202 C 
BRANCH   3   4
ATOM      4  C   UNL A   1      33.048  23.326  25.376  1.00  0.00     0.261 C 
BRANCH   4   5
ATOM      5  O   UNL A   1      31.817  22.882  24.765  1.00  0.00    -0.462 OA
BRANCH   5   6
ATOM      6  C   UNL A   1      31.189  23.759  23.940  1.00  0.00     0.329 C 
ATOM      7  O   UNL A   1      30.340  23.433  23.118  1.00  0.00    -0.250 OA
BRANCH   6   8
ATOM      8  C   UNL A   1      31.724  25.217  24.044  1.00  0.00     0.196 C 
BRANCH   8   9
ATOM      9  N   UNL A   1      32.208  25.969  22.883  1.00  0.00    -0.345 N 
ATOM     10  O   UNL A   1      33.749  26.403  21.282  1.00  0.00    -0.279 OA
ATOM     11  C   UNL A   1      33.367  25.710  22.214  1.00  0.00     0.337 C 
ATOM     12  H   UNL A   1      31.654  26.717  22.562  1.00  0.00     0.164 HD
ENDBRANCH   8   9
BRANCH   8  13
ATOM     13  C   UNL A   1      30.663  26.065  24.770  1.00  0.00     0.079 C 
BRANCH  13  14
ATOM     14  C   UNL A   1      30.916  27.552  25.017  1.00  0.00     0.034 A 
ATOM     15  C   UNL A   1      31.660  28.014  26.126  1.00  0.00     0.031 A 
ATOM     16  C   UNL A   1      30.435  28.543  24.127  1.00  0.00     0.272 A 
ATOM     17  C   UNL A   1      31.959  29.367  26.313  1.00  0.00     0.041 A 
ATOM     18  C   UNL A   1      30.743  29.907  24.319  1.00  0.00     0.087 A 
ATOM     19  Cl  UNL A   1      32.894  29.852  27.675  1.00  0.00    -0.084 Cl
ATOM     20  C   UNL A   1      31.515  30.314  25.406  1.00  0.00     0.027 A 
BRANCH  16  21
ATOM     21  N   UNL A   1      29.566  28.226  22.977  1.00  0.00     0.062 N 
ATOM     22  O   UNL A   1      30.128  27.919  21.915  1.00  0.00    -0.258 OA
ATOM     23  O   UNL A   1      28.340  28.266  23.130  1.00  0.00    -0.258 OA
ENDBRANCH  16  21
ENDBRANCH  13  14
ENDBRANCH   8  13
ENDBRANCH   6   8
ENDBRANCH   5   6
ENDBRANCH   4   5
ENDBRANCH   3   4
ENDBRANCH   2   3
ENDBRANCH   1   2
BRANCH   1  24
ATOM     24  C   UNL A   1      37.439  22.173  25.388  1.00  0.00     0.188 C 
BRANCH  24  25
ATOM     25  O   UNL A   1      38.663  21.472  25.456  1.00  0.00    -0.376 OA
BRANCH  25  26
ATOM     26  C   UNL A   1      38.598  20.073  25.240  1.00  0.00     0.202 C 
BRANCH  26  27
ATOM     27  C   UNL A   1      39.744  19.200  25.784  1.00  0.00     0.261 C 
BRANCH  27  28
ATOM     28  O   UNL A   1      41.083  19.582  25.417  1.00  0.00    -0.460 OA
BRANCH  28  29
ATOM     29  C   UNL A   1      42.041  19.533  26.375  1.00  0.00     0.338 C 
ATOM     30  O   UNL A   1      42.612  18.533  26.775  1.00  0.00    -0.246 OA
BRANCH  29  31
ATOM     31  C   UNL A   1      42.448  20.930  26.682  1.00  0.00     0.060 A 
ATOM     32  C   UNL A   1      42.569  21.860  25.636  1.00  0.00     0.016 A 
ATOM     33  C   UNL A   1      42.669  21.335  28.000  1.00  0.00     0.016 A 
ATOM     34  C   UNL A   1      42.934  23.185  25.906  1.00  0.00     0.010 A 
ATOM     35  C   UNL A   1      43.061  22.653  28.265  1.00  0.00     0.010 A 
ATOM     36  C   UNL A   1      43.224  23.580  27.219  1.00  0.00    -0.014 A 
BRANCH  36  37
ATOM     37  C   UNL A   1      43.894  24.882  27.488  1.00  0.00     0.031 A 
ATOM     38  C   UNL A   1      43.044  26.031  27.967  1.00  0.00     0.074 A 
ATOM     39  C   UNL A   1      45.216  25.062  27.304  1.00  0.00     0.049 A 
ATOM     40  N   UNL A   1      43.369  27.281  28.171  1.00  0.00    -0.248 NA
ATOM     41  C   UNL A   1      41.632  25.723  28.245  1.00  0.00     0.031 C 
ATOM     42  C   UNL A   1      46.163  24.031  26.886  1.00  0.00     0.029 A 
ATOM     43  N   UNL A   1      45.988  26.194  27.431  1.00  0.00    -0.354 N 
ATOM     44  C   UNL A   1      42.203  27.911  28.590  1.00  0.00     0.074 A 
ATOM     45  C   UNL A   1      41.156  26.911  28.584  1.00  0.00     0.031 C 
ATOM     46  C   UNL A   1      47.386  24.581  26.773  1.00  0.00     0.029 A 
ATOM     47  C   UNL A   1      47.303  26.011  27.074  1.00  0.00     0.049 A 
ATOM     48  H   UNL A   1      45.631  27.055  27.749  1.00  0.00     0.167 HD
ATOM     49  C   UNL A   1      42.017  29.202  28.953  1.00  0.00     0.037 A 
ATOM     50  C   UNL A   1      48.315  26.900  26.972  1.00  0.00     0.037 A 
ATOM     51  C   UNL A   1      43.055  30.199  28.954  1.00  0.00     0.049 A 
ATOM     52  C   UNL A   1      48.069  28.352  27.306  1.00  0.00     0.074 A 
ATOM     53  C   UNL A   1      42.967  31.532  29.318  1.00  0.00     0.029 A 
ATOM     54  N   UNL A   1      44.368  29.978  28.563  1.00  0.00    -0.354 N 
ATOM     55  N   UNL A   1      46.966  28.931  27.718  1.00  0.00    -0.248 NA
ATOM     56  C   UNL A   1      49.207  29.273  27.162  1.00  0.00     0.031 C 
ATOM     57  C   UNL A   1      44.212  32.130  29.095  1.00  0.00     0.029 A 
ATOM     58  C   UNL A   1      45.093  31.156  28.654  1.00  0.00     0.049 A 
ATOM     59  H   UNL A   1      44.731  29.112  28.267  1.00  0.00     0.167 HD
ATOM     60  C   UNL A   1      47.287  30.273  27.913  1.00  0.00     0.074 A 
ATOM     61  C   UNL A   1      48.689  30.418  27.582  1.00  0.00     0.031 C 
ATOM     62  C   UNL A   1      46.493  31.291  28.332  1.00  0.00     0.037 A 
BRANCH  49  63
ATOM     63  C   UNL A   1      40.626  29.619  29.350  1.00  0.00     0.058 A 
ATOM     64  C   UNL A   1      40.290  29.900  30.684  1.00  0.00     0.135 A 
ATOM     65  C   UNL A   1      39.623  29.762  28.378  1.00  0.00     0.135 A 
ATOM     66  F   UNL A   1      41.205  29.761  31.657  1.00  0.00    -0.206 F 
ATOM     67  C   UNL A   1      39.001  30.280  31.043  1.00  0.00     0.059 A 
ATOM     68  C   UNL A   1      38.335  30.171  28.711  1.00  0.00     0.059 A 
ATOM     69  F   UNL A   1      39.889  29.504  27.088  1.00  0.00    -0.206 F 
ATOM     70  C   UNL A   1      38.030  30.412  30.049  1.00  0.00     0.060 A 
BRANCH  70  71
ATOM     71  S   UNL A   1      36.363  30.908  30.532  1.00  0.00     0.124 S 
ATOM     72  O   UNL A   1      35.651  30.810  29.262  1.00  0.00    -0.237 OA
ATOM     73  O   UNL A   1      36.016  29.902  31.531  1.00  0.00    -0.237 OA
ATOM     74  O   UNL A   1      36.544  32.261  31.048  1.00  0.00    -0.744 OA
ENDBRANCH  70  71
ENDBRANCH  49  63
BRANCH  50  75
ATOM     75  C   UNL A   1      49.662  26.451  26.520  1.00  0.00     0.058 A 
ATOM     76  C   UNL A   1      50.033  26.515  25.169  1.00  0.00     0.135 A 
ATOM     77  C   UNL A   1      50.601  25.934  27.428  1.00  0.00     0.135 A 
ATOM     78  F   UNL A   1      49.166  26.982  24.257  1.00  0.00    -0.206 F 
ATOM     79  C   UNL A   1      51.278  26.073  24.731  1.00  0.00     0.059 A 
ATOM     80  C   UNL A   1      51.863  25.513  27.019  1.00  0.00     0.059 A 
ATOM     81  F   UNL A   1      50.299  25.852  28.734  1.00  0.00    -0.206 F 
ATOM     82  C   UNL A   1      52.190  25.579  25.665  1.00  0.00     0.060 A 
BRANCH  82  83
ATOM     83  S   UNL A   1      53.823  25.063  25.092  1.00  0.00     0.124 S 
ATOM     84  O   UNL A   1      54.007  25.914  23.923  1.00  0.00    -0.237 OA
ATOM     85  O   UNL A   1      54.662  25.371  26.246  1.00  0.00    -0.237 OA
ATOM     86  O   UNL A   1      53.648  23.640  24.816  1.00  0.00    -0.744 OA
ENDBRANCH  82  83
ENDBRANCH  50  75
BRANCH  62  87
ATOM     87  C   UNL A   1      47.122  32.648  28.507  1.00  0.00     0.058 A 
ATOM     88  C   UNL A   1      47.748  33.031  29.703  1.00  0.00     0.135 A 
ATOM     89  C   UNL A   1      47.152  33.559  27.436  1.00  0.00     0.135 A 
ATOM     90  F   UNL A   1      47.746  32.204  30.761  1.00  0.00    -0.206 F 
ATOM     91  C   UNL A   1      48.360  34.274  29.840  1.00  0.00     0.059 A 
ATOM     92  C   UNL A   1      47.785  34.794  27.540  1.00  0.00     0.059 A 
ATOM     93  F   UNL A   1      46.581  33.242  26.263  1.00  0.00    -0.206 F 
ATOM     94  C   UNL A   1      48.376  35.148  28.752  1.00  0.00     0.060 A 
BRANCH  94  95
ATOM     95  S   UNL A   1      49.203  36.744  28.932  1.00  0.00     0.124 S 
ATOM     96  O   UNL A   1      48.068  37.655  29.027  1.00  0.00    -0.237 OA
ATOM     97  O   UNL A   1      49.972  36.558  30.159  1.00  0.00    -0.237 OA
ATOM     98  O   UNL A   1      49.998  36.855  27.713  1.00  0.00    -0.744 OA
ENDBRANCH  94  95
ENDBRANCH  62  87
ENDBRANCH  36  37
ENDBRANCH  29  31
ENDBRANCH  28  29
ENDBRANCH  27  28
ENDBRANCH  26  27
ENDBRANCH  25  26
ENDBRANCH  24  25
ENDBRANCH   1  24
TORSDOF 24
ENDMDL
