MODEL 1
REMARK VINA RESULT:      -9.9      0.000      0.000
REMARK SMILES CC(C)c1cc(C(=O)N[C@@H](Cc2c[nH]c3ccccc23)C(=O)OCCOCCOCCOC(=O)c2ccc(-c3c4nc(c(-c5c(F)cc(S(=O)(=O)[O-])cc5F)c5ccc([nH]5)c(-c5c(F)cc(S(=O)(=O)[O-])cc5F)c5nc(c(-c6c(F)cc(S(=O)(=O)[O-])cc6F)c6ccc3[nH]6)C=C5)C=C4)cc2)n(C)n1
REMARK SMILES IDX 27 1 26 2 25 3 24 4 23 5 21 6 22 7 10 8 9 9 7 10 8 11 6 13
REMARK SMILES IDX 4 14 5 15 103 16 101 17 102 18 2 19 1 20 3 21 11 22 12 23
REMARK SMILES IDX 13 24 20 25 14 26 15 27 19 28 16 30 18 31 17 32 28 33 29 34
REMARK SMILES IDX 30 35 31 36 32 37 33 38 34 39 35 40 36 41 100 42 37 43 99 44
REMARK SMILES IDX 38 45 39 46 40 47 93 48 41 49 98 50 92 51 94 52 42 53 97 54
REMARK SMILES IDX 91 55 90 56 43 58 77 59 56 60 76 61 57 62 60 63 75 64 95 65
REMARK SMILES IDX 58 66 59 67 74 69 96 70 61 71 44 72 45 73 54 74 46 75 47 76
REMARK SMILES IDX 53 77 55 78 48 79 49 80 50 81 51 82 52 83 78 84 79 85 88 86
REMARK SMILES IDX 80 87 81 88 87 89 89 90 82 91 83 92 84 93 85 94 86 95 62 96
REMARK SMILES IDX 63 97 72 98 64 99 65 100 71 101 73 102 66 103 67 104 68 105
REMARK SMILES IDX 69 106 70 107
REMARK H PARENT 9 12 14 29 94 57 60 68
REMARK Flexibility Score: inf
ROOT
ATOM      1  C   UNL A   1      33.671  30.875  27.105  1.00  0.00     0.188 C 
ENDROOT
BRANCH   1   2
ATOM      2  O   UNL A   1      32.322  30.537  26.821  1.00  0.00    -0.376 OA
BRANCH   2   3
ATOM      3  C   UNL A   1      31.822  29.278  27.254  1.00  0.00     0.202 C 
BRANCH   3   4
ATOM      4  C   UNL A   1      32.695  28.013  27.160  1.00  0.00     0.261 C 
BRANCH   4   5
ATOM      5  O   UNL A   1      32.650  27.334  25.887  1.00  0.00    -0.462 OA
BRANCH   5   6
ATOM      6  C   UNL A   1      32.087  26.103  25.908  1.00  0.00     0.329 C 
ATOM      7  O   UNL A   1      31.032  25.836  26.482  1.00  0.00    -0.250 OA
BRANCH   6   8
ATOM      8  C   UNL A   1      32.856  25.003  25.147  1.00  0.00     0.197 C 
BRANCH   8   9
ATOM      9  N   UNL A   1      33.394  25.111  23.796  1.00  0.00    -0.337 N 
ATOM     10  C   UNL A   1      33.066  25.882  22.704  1.00  0.00     0.270 C 
ATOM     11  O   UNL A   1      33.597  25.476  21.662  1.00  0.00    -0.268 OA
ATOM     12  H   UNL A   1      34.151  24.503  23.630  1.00  0.00     0.164 HD
BRANCH  10  13
ATOM     13  C   UNL A   1      32.268  27.111  22.681  1.00  0.00     0.126 A 
ATOM     14  C   UNL A   1      30.413  28.413  22.484  1.00  0.00     0.066 A 
ATOM     15  C   UNL A   1      30.866  27.082  22.564  1.00  0.00     0.059 A 
ATOM     16  N   UNL A   1      31.457  29.232  22.459  1.00  0.00    -0.177 NA
ATOM     17  N   UNL A   1      32.516  28.467  22.768  1.00  0.00    -0.263 N 
ATOM     18  C   UNL A   1      33.638  29.239  23.242  1.00  0.00     0.174 C 
BRANCH  14  19
ATOM     19  C   UNL A   1      29.015  28.972  22.420  1.00  0.00     0.034 C 
ATOM     20  C   UNL A   1      28.044  28.165  23.295  1.00  0.00     0.014 C 
ATOM     21  C   UNL A   1      28.955  30.439  22.838  1.00  0.00     0.014 C 
ENDBRANCH  14  19
ENDBRANCH  10  13
ENDBRANCH   8   9
BRANCH   8  22
ATOM     22  C   UNL A   1      33.960  24.456  26.067  1.00  0.00     0.074 C 
BRANCH  22  23
ATOM     23  C   UNL A   1      34.161  22.986  25.848  1.00  0.00    -0.020 A 
ATOM     24  C   UNL A   1      33.189  22.014  25.727  1.00  0.00     0.087 A 
ATOM     25  C   UNL A   1      35.419  22.355  25.595  1.00  0.00     0.003 A 
ATOM     26  N   UNL A   1      33.803  20.842  25.369  1.00  0.00    -0.361 N 
ATOM     27  C   UNL A   1      35.162  21.026  25.268  1.00  0.00     0.046 A 
ATOM     28  C   UNL A   1      36.749  22.820  25.554  1.00  0.00     0.010 A 
ATOM     29  H   UNL A   1      33.337  19.989  25.206  1.00  0.00     0.166 HD
ATOM     30  C   UNL A   1      36.176  20.136  24.897  1.00  0.00     0.026 A 
ATOM     31  C   UNL A   1      37.773  21.947  25.184  1.00  0.00     0.001 A 
ATOM     32  C   UNL A   1      37.488  20.624  24.860  1.00  0.00     0.002 A 
ENDBRANCH  22  23
ENDBRANCH   8  22
ENDBRANCH   6   8
ENDBRANCH   5   6
ENDBRANCH   4   5
ENDBRANCH   3   4
ENDBRANCH   2   3
ENDBRANCH   1   2
BRANCH   1  33
ATOM     33  C   UNL A   1      33.976  31.711  28.357  1.00  0.00     0.188 C 
BRANCH  33  34
ATOM     34  O   UNL A   1      34.726  32.883  28.177  1.00  0.00    -0.376 OA
BRANCH  34  35
ATOM     35  C   UNL A   1      34.079  34.062  27.735  1.00  0.00     0.202 C 
BRANCH  35  36
ATOM     36  C   UNL A   1      32.858  34.722  28.413  1.00  0.00     0.261 C 
BRANCH  36  37
ATOM     37  O   UNL A   1      32.631  34.492  29.808  1.00  0.00    -0.460 OA
BRANCH  37  38
ATOM     38  C   UNL A   1      33.355  35.246  30.672  1.00  0.00     0.338 C 
ATOM     39  O   UNL A   1      33.004  36.293  31.202  1.00  0.00    -0.246 OA
BRANCH  38  40
ATOM     40  C   UNL A   1      34.564  34.487  31.053  1.00  0.00     0.060 A 
ATOM     41  C   UNL A   1      34.428  33.346  31.852  1.00  0.00     0.016 A 
ATOM     42  C   UNL A   1      35.827  34.901  30.628  1.00  0.00     0.016 A 
ATOM     43  C   UNL A   1      35.554  32.614  32.221  1.00  0.00     0.010 A 
ATOM     44  C   UNL A   1      36.961  34.194  31.053  1.00  0.00     0.010 A 
ATOM     45  C   UNL A   1      36.834  33.062  31.879  1.00  0.00    -0.014 A 
BRANCH  45  46
ATOM     46  C   UNL A   1      38.026  32.480  32.554  1.00  0.00     0.031 A 
ATOM     47  C   UNL A   1      38.768  31.365  31.859  1.00  0.00     0.074 A 
ATOM     48  C   UNL A   1      38.508  32.975  33.709  1.00  0.00     0.049 A 
ATOM     49  N   UNL A   1      39.777  30.646  32.278  1.00  0.00    -0.248 NA
ATOM     50  C   UNL A   1      38.315  31.030  30.500  1.00  0.00     0.031 C 
ATOM     51  C   UNL A   1      37.986  34.141  34.415  1.00  0.00     0.029 A 
ATOM     52  N   UNL A   1      39.570  32.563  34.479  1.00  0.00    -0.354 N 
ATOM     53  C   UNL A   1      40.061  29.756  31.247  1.00  0.00     0.074 A 
ATOM     54  C   UNL A   1      39.111  30.019  30.189  1.00  0.00     0.031 C 
ATOM     55  C   UNL A   1      38.727  34.352  35.518  1.00  0.00     0.029 A 
ATOM     56  C   UNL A   1      39.743  33.304  35.625  1.00  0.00     0.049 A 
ATOM     57  H   UNL A   1      40.153  31.808  34.234  1.00  0.00     0.167 HD
ATOM     58  C   UNL A   1      41.026  28.807  31.187  1.00  0.00     0.037 A 
ATOM     59  C   UNL A   1      40.599  33.138  36.654  1.00  0.00     0.037 A 
ATOM     60  C   UNL A   1      41.977  28.552  32.238  1.00  0.00     0.049 A 
ATOM     61  C   UNL A   1      41.581  31.991  36.626  1.00  0.00     0.074 A 
ATOM     62  C   UNL A   1      42.973  27.592  32.283  1.00  0.00     0.029 A 
ATOM     63  N   UNL A   1      42.053  29.259  33.429  1.00  0.00    -0.354 N 
ATOM     64  N   UNL A   1      41.804  31.116  35.675  1.00  0.00    -0.248 NA
ATOM     65  C   UNL A   1      42.420  31.804  37.819  1.00  0.00     0.031 C 
ATOM     66  C   UNL A   1      43.613  27.681  33.524  1.00  0.00     0.029 A 
ATOM     67  C   UNL A   1      43.059  28.739  34.227  1.00  0.00     0.049 A 
ATOM     68  H   UNL A   1      41.477  30.021  33.671  1.00  0.00     0.167 HD
ATOM     69  C   UNL A   1      42.829  30.296  36.140  1.00  0.00     0.074 A 
ATOM     70  C   UNL A   1      43.188  30.786  37.454  1.00  0.00     0.031 C 
ATOM     71  C   UNL A   1      43.419  29.236  35.533  1.00  0.00     0.037 A 
BRANCH  58  72
ATOM     72  C   UNL A   1      41.058  27.928  29.965  1.00  0.00     0.058 A 
ATOM     73  C   UNL A   1      42.077  28.022  29.003  1.00  0.00     0.135 A 
ATOM     74  C   UNL A   1      40.053  26.968  29.759  1.00  0.00     0.135 A 
ATOM     75  F   UNL A   1      43.053  28.935  29.137  1.00  0.00    -0.206 F 
ATOM     76  C   UNL A   1      42.078  27.220  27.865  1.00  0.00     0.059 A 
ATOM     77  C   UNL A   1      40.052  26.135  28.646  1.00  0.00     0.059 A 
ATOM     78  F   UNL A   1      39.054  26.837  30.645  1.00  0.00    -0.206 F 
ATOM     79  C   UNL A   1      41.060  26.281  27.695  1.00  0.00     0.060 A 
BRANCH  79  80
ATOM     80  S   UNL A   1      41.066  25.259  26.206  1.00  0.00     0.124 S 
ATOM     81  O   UNL A   1      41.416  26.239  25.181  1.00  0.00    -0.237 OA
ATOM     82  O   UNL A   1      42.091  24.269  26.513  1.00  0.00    -0.237 OA
ATOM     83  O   UNL A   1      39.702  24.745  26.139  1.00  0.00    -0.744 OA
ENDBRANCH  79  80
ENDBRANCH  58  72
BRANCH  59  84
ATOM     84  C   UNL A   1      40.548  34.057  37.827  1.00  0.00     0.058 A 
ATOM     85  C   UNL A   1      39.638  33.850  38.875  1.00  0.00     0.135 A 
ATOM     86  C   UNL A   1      41.394  35.174  37.913  1.00  0.00     0.135 A 
ATOM     87  F   UNL A   1      38.789  32.812  38.832  1.00  0.00    -0.206 F 
ATOM     88  C   UNL A   1      39.564  34.720  39.959  1.00  0.00     0.059 A 
ATOM     89  C   UNL A   1      41.361  36.041  39.001  1.00  0.00     0.059 A 
ATOM     90  F   UNL A   1      42.281  35.424  36.935  1.00  0.00    -0.206 F 
ATOM     91  C   UNL A   1      40.435  35.810  40.016  1.00  0.00     0.060 A 
BRANCH  91  92
ATOM     92  S   UNL A   1      40.365  36.903  41.452  1.00  0.00     0.124 S 
ATOM     93  O   UNL A   1      38.987  36.723  41.894  1.00  0.00    -0.237 OA
ATOM     94  O   UNL A   1      41.394  36.336  42.318  1.00  0.00    -0.237 OA
ATOM     95  O   UNL A   1      40.682  38.214  40.893  1.00  0.00    -0.744 OA
ENDBRANCH  91  92
ENDBRANCH  59  84
BRANCH  71  96
ATOM     96  C   UNL A   1      44.548  28.550  36.258  1.00  0.00     0.058 A 
ATOM     97  C   UNL A   1      45.870  29.020  36.190  1.00  0.00     0.135 A 
ATOM     98  C   UNL A   1      44.294  27.440  37.081  1.00  0.00     0.135 A 
ATOM     99  F   UNL A   1      46.173  30.074  35.417  1.00  0.00    -0.206 F 
ATOM    100  C   UNL A   1      46.901  28.400  36.890  1.00  0.00     0.059 A 
ATOM    101  C   UNL A   1      45.304  26.823  37.813  1.00  0.00     0.059 A 
ATOM    102  F   UNL A   1      43.048  26.954  37.195  1.00  0.00    -0.206 F 
ATOM    103  C   UNL A   1      46.607  27.302  37.702  1.00  0.00     0.060 A 
BRANCH 103 104
ATOM    104  S   UNL A   1      47.948  26.529  38.631  1.00  0.00     0.124 S 
ATOM    105  O   UNL A   1      47.803  25.129  38.248  1.00  0.00    -0.237 OA
ATOM    106  O   UNL A   1      49.127  27.211  38.104  1.00  0.00    -0.237 OA
ATOM    107  O   UNL A   1      47.624  26.836  40.020  1.00  0.00    -0.744 OA
ENDBRANCH 103 104
ENDBRANCH  71  96
ENDBRANCH  45  46
ENDBRANCH  38  40
ENDBRANCH  37  38
ENDBRANCH  36  37
ENDBRANCH  35  36
ENDBRANCH  34  35
ENDBRANCH  33  34
ENDBRANCH   1  33
TORSDOF 25
ENDMDL
MODEL 2
REMARK VINA RESULT:      -9.5      5.237      8.027
REMARK SMILES CC(C)c1cc(C(=O)N[C@@H](Cc2c[nH]c3ccccc23)C(=O)OCCOCCOCCOC(=O)c2ccc(-c3c4nc(c(-c5c(F)cc(S(=O)(=O)[O-])cc5F)c5ccc([nH]5)c(-c5c(F)cc(S(=O)(=O)[O-])cc5F)c5nc(c(-c6c(F)cc(S(=O)(=O)[O-])cc6F)c6ccc3[nH]6)C=C5)C=C4)cc2)n(C)n1
REMARK SMILES IDX 27 1 26 2 25 3 24 4 23 5 21 6 22 7 10 8 9 9 7 10 8 11 6 13
REMARK SMILES IDX 4 14 5 15 103 16 101 17 102 18 2 19 1 20 3 21 11 22 12 23
REMARK SMILES IDX 13 24 20 25 14 26 15 27 19 28 16 30 18 31 17 32 28 33 29 34
REMARK SMILES IDX 30 35 31 36 32 37 33 38 34 39 35 40 36 41 100 42 37 43 99 44
REMARK SMILES IDX 38 45 39 46 40 47 93 48 41 49 98 50 92 51 94 52 42 53 97 54
REMARK SMILES IDX 91 55 90 56 43 58 77 59 56 60 76 61 57 62 60 63 75 64 95 65
REMARK SMILES IDX 58 66 59 67 74 69 96 70 61 71 44 72 45 73 54 74 46 75 47 76
REMARK SMILES IDX 53 77 55 78 48 79 49 80 50 81 51 82 52 83 78 84 79 85 88 86
REMARK SMILES IDX 80 87 81 88 87 89 89 90 82 91 83 92 84 93 85 94 86 95 62 96
REMARK SMILES IDX 63 97 72 98 64 99 65 100 71 101 73 102 66 103 67 104 68 105
REMARK SMILES IDX 69 106 70 107
REMARK H PARENT 9 12 14 29 94 57 60 68
REMARK Flexibility Score: inf
ROOT
ATOM      1  C   UNL A   1      33.289  32.628  27.650  1.00  0.00     0.188 C 
ENDROOT
BRANCH   1   2
ATOM      2  O   UNL A   1      34.149  31.711  28.308  1.00  0.00    -0.376 OA
BRANCH   2   3
ATOM      3  C   UNL A   1      34.505  30.504  27.645  1.00  0.00     0.202 C 
BRANCH   3   4
ATOM      4  C   UNL A   1      33.455  29.709  26.847  1.00  0.00     0.261 C 
BRANCH   4   5
ATOM      5  O   UNL A   1      33.660  28.281  26.820  1.00  0.00    -0.462 OA
BRANCH   5   6
ATOM      6  C   UNL A   1      33.768  27.735  25.586  1.00  0.00     0.329 C 
ATOM      7  O   UNL A   1      34.114  28.358  24.583  1.00  0.00    -0.250 OA
BRANCH   6   8
ATOM      8  C   UNL A   1      33.425  26.233  25.488  1.00  0.00     0.197 C 
BRANCH   8   9
ATOM      9  N   UNL A   1      32.092  25.651  25.566  1.00  0.00    -0.337 N 
ATOM     10  C   UNL A   1      30.858  26.042  25.097  1.00  0.00     0.270 C 
ATOM     11  O   UNL A   1      29.932  25.399  25.610  1.00  0.00    -0.268 OA
ATOM     12  H   UNL A   1      32.068  24.799  26.059  1.00  0.00     0.164 HD
BRANCH  10  13
ATOM     13  C   UNL A   1      30.566  27.024  24.049  1.00  0.00     0.126 A 
ATOM     14  C   UNL A   1      29.734  28.927  23.121  1.00  0.00     0.066 A 
ATOM     15  C   UNL A   1      29.953  28.257  24.340  1.00  0.00     0.059 A 
ATOM     16  N   UNL A   1      30.097  28.140  22.116  1.00  0.00    -0.177 NA
ATOM     17  N   UNL A   1      30.755  27.117  22.684  1.00  0.00    -0.263 N 
ATOM     18  C   UNL A   1      31.610  26.423  21.754  1.00  0.00     0.174 C 
BRANCH  14  19
ATOM     19  C   UNL A   1      29.180  30.301  22.840  1.00  0.00     0.034 C 
ATOM     20  C   UNL A   1      29.169  30.607  21.335  1.00  0.00     0.014 C 
ATOM     21  C   UNL A   1      27.770  30.483  23.393  1.00  0.00     0.014 C 
ENDBRANCH  14  19
ENDBRANCH  10  13
ENDBRANCH   8   9
BRANCH   8  22
ATOM     22  C   UNL A   1      34.138  25.652  24.256  1.00  0.00     0.074 C 
BRANCH  22  23
ATOM     23  C   UNL A   1      34.262  24.161  24.362  1.00  0.00    -0.020 A 
ATOM     24  C   UNL A   1      33.361  23.209  23.929  1.00  0.00     0.087 A 
ATOM     25  C   UNL A   1      35.419  23.462  24.827  1.00  0.00     0.003 A 
ATOM     26  N   UNL A   1      33.944  21.977  24.070  1.00  0.00    -0.361 N 
ATOM     27  C   UNL A   1      35.206  22.104  24.603  1.00  0.00     0.046 A 
ATOM     28  C   UNL A   1      36.657  23.876  25.359  1.00  0.00     0.010 A 
ATOM     29  H   UNL A   1      33.520  21.123  23.825  1.00  0.00     0.166 HD
ATOM     30  C   UNL A   1      36.176  21.136  24.884  1.00  0.00     0.026 A 
ATOM     31  C   UNL A   1      37.638  22.924  25.643  1.00  0.00     0.001 A 
ATOM     32  C   UNL A   1      37.398  21.574  25.407  1.00  0.00     0.002 A 
ENDBRANCH  22  23
ENDBRANCH   8  22
ENDBRANCH   6   8
ENDBRANCH   5   6
ENDBRANCH   4   5
ENDBRANCH   3   4
ENDBRANCH   2   3
ENDBRANCH   1   2
BRANCH   1  33
ATOM     33  C   UNL A   1      33.344  34.110  28.051  1.00  0.00     0.188 C 
BRANCH  33  34
ATOM     34  O   UNL A   1      34.188  34.454  29.118  1.00  0.00    -0.376 OA
BRANCH  34  35
ATOM     35  C   UNL A   1      33.635  35.042  30.280  1.00  0.00     0.202 C 
BRANCH  35  36
ATOM     36  C   UNL A   1      34.008  34.676  31.734  1.00  0.00     0.261 C 
BRANCH  36  37
ATOM     37  O   UNL A   1      34.394  33.329  32.033  1.00  0.00    -0.460 OA
BRANCH  37  38
ATOM     38  C   UNL A   1      35.077  33.137  33.189  1.00  0.00     0.338 C 
ATOM     39  O   UNL A   1      34.617  33.160  34.324  1.00  0.00    -0.246 OA
BRANCH  38  40
ATOM     40  C   UNL A   1      36.439  32.672  32.855  1.00  0.00     0.060 A 
ATOM     41  C   UNL A   1      37.470  32.861  33.783  1.00  0.00     0.016 A 
ATOM     42  C   UNL A   1      36.700  32.056  31.630  1.00  0.00     0.016 A 
ATOM     43  C   UNL A   1      38.761  32.428  33.489  1.00  0.00     0.010 A 
ATOM     44  C   UNL A   1      38.013  31.678  31.317  1.00  0.00     0.010 A 
ATOM     45  C   UNL A   1      39.059  31.889  32.233  1.00  0.00    -0.014 A 
BRANCH  45  46
ATOM     46  C   UNL A   1      40.479  31.751  31.807  1.00  0.00     0.031 A 
ATOM     47  C   UNL A   1      41.098  32.870  31.007  1.00  0.00     0.074 A 
ATOM     48  C   UNL A   1      41.244  30.712  32.189  1.00  0.00     0.049 A 
ATOM     49  N   UNL A   1      42.281  32.946  30.455  1.00  0.00    -0.248 NA
ATOM     50  C   UNL A   1      40.269  34.071  30.819  1.00  0.00     0.031 C 
ATOM     51  C   UNL A   1      40.826  29.636  33.083  1.00  0.00     0.029 A 
ATOM     52  N   UNL A   1      42.549  30.408  31.885  1.00  0.00    -0.354 N 
ATOM     53  C   UNL A   1      42.329  34.190  29.832  1.00  0.00     0.074 A 
ATOM     54  C   UNL A   1      41.052  34.828  30.065  1.00  0.00     0.031 C 
ATOM     55  C   UNL A   1      41.855  28.786  33.255  1.00  0.00     0.029 A 
ATOM     56  C   UNL A   1      42.987  29.228  32.441  1.00  0.00     0.049 A 
ATOM     57  H   UNL A   1      43.119  30.981  31.321  1.00  0.00     0.167 HD
ATOM     58  C   UNL A   1      43.344  34.748  29.130  1.00  0.00     0.037 A 
ATOM     59  C   UNL A   1      44.153  28.567  32.286  1.00  0.00     0.037 A 
ATOM     60  C   UNL A   1      44.618  34.116  28.906  1.00  0.00     0.049 A 
ATOM     61  C   UNL A   1      45.223  29.147  31.392  1.00  0.00     0.074 A 
ATOM     62  C   UNL A   1      45.698  34.590  28.182  1.00  0.00     0.029 A 
ATOM     63  N   UNL A   1      44.985  32.873  29.401  1.00  0.00    -0.354 N 
ATOM     64  N   UNL A   1      45.238  30.295  30.757  1.00  0.00    -0.248 NA
ATOM     65  C   UNL A   1      46.430  28.334  31.185  1.00  0.00     0.031 C 
ATOM     66  C   UNL A   1      46.697  33.609  28.192  1.00  0.00     0.029 A 
ATOM     67  C   UNL A   1      46.264  32.552  28.976  1.00  0.00     0.049 A 
ATOM     68  H   UNL A   1      44.420  32.304  29.973  1.00  0.00     0.167 HD
ATOM     69  C   UNL A   1      46.466  30.355  30.103  1.00  0.00     0.074 A 
ATOM     70  C   UNL A   1      47.170  29.132  30.428  1.00  0.00     0.031 C 
ATOM     71  C   UNL A   1      46.965  31.336  29.309  1.00  0.00     0.037 A 
BRANCH  58  72
ATOM     72  C   UNL A   1      43.091  36.092  28.498  1.00  0.00     0.058 A 
ATOM     73  C   UNL A   1      43.343  37.296  29.174  1.00  0.00     0.135 A 
ATOM     74  C   UNL A   1      42.596  36.171  27.185  1.00  0.00     0.135 A 
ATOM     75  F   UNL A   1      43.798  37.281  30.437  1.00  0.00    -0.206 F 
ATOM     76  C   UNL A   1      43.080  38.529  28.585  1.00  0.00     0.059 A 
ATOM     77  C   UNL A   1      42.355  37.393  26.566  1.00  0.00     0.059 A 
ATOM     78  F   UNL A   1      42.335  35.052  26.493  1.00  0.00    -0.206 F 
ATOM     79  C   UNL A   1      42.583  38.567  27.280  1.00  0.00     0.060 A 
BRANCH  79  80
ATOM     80  S   UNL A   1      42.231  40.173  26.535  1.00  0.00     0.124 S 
ATOM     81  O   UNL A   1      42.135  41.028  27.715  1.00  0.00    -0.237 OA
ATOM     82  O   UNL A   1      43.402  40.388  25.691  1.00  0.00    -0.237 OA
ATOM     83  O   UNL A   1      40.979  39.951  25.820  1.00  0.00    -0.744 OA
ENDBRANCH  79  80
ENDBRANCH  58  72
BRANCH  59  84
ATOM     84  C   UNL A   1      44.366  27.255  32.962  1.00  0.00     0.058 A 
ATOM     85  C   UNL A   1      44.131  26.044  32.292  1.00  0.00     0.135 A 
ATOM     86  C   UNL A   1      44.788  27.187  34.299  1.00  0.00     0.135 A 
ATOM     87  F   UNL A   1      43.703  26.052  31.021  1.00  0.00    -0.206 F 
ATOM     88  C   UNL A   1      44.299  24.816  32.925  1.00  0.00     0.059 A 
ATOM     89  C   UNL A   1      44.992  25.971  34.945  1.00  0.00     0.059 A 
ATOM     90  F   UNL A   1      45.022  28.314  34.990  1.00  0.00    -0.206 F 
ATOM     91  C   UNL A   1      44.737  24.789  34.251  1.00  0.00     0.060 A 
BRANCH  91  92
ATOM     92  S   UNL A   1      45.000  23.190  35.046  1.00  0.00     0.124 S 
ATOM     93  O   UNL A   1      43.799  22.462  34.653  1.00  0.00    -0.237 OA
ATOM     94  O   UNL A   1      46.248  22.745  34.432  1.00  0.00    -0.237 OA
ATOM     95  O   UNL A   1      45.096  23.530  36.462  1.00  0.00    -0.744 OA
ENDBRANCH  91  92
ENDBRANCH  59  84
BRANCH  71  96
ATOM     96  C   UNL A   1      48.358  31.156  28.763  1.00  0.00     0.058 A 
ATOM     97  C   UNL A   1      48.598  30.532  27.528  1.00  0.00     0.135 A 
ATOM     98  C   UNL A   1      49.465  31.671  29.458  1.00  0.00     0.135 A 
ATOM     99  F   UNL A   1      47.580  30.017  26.821  1.00  0.00    -0.206 F 
ATOM    100  C   UNL A   1      49.886  30.399  27.016  1.00  0.00     0.059 A 
ATOM    101  C   UNL A   1      50.758  31.578  28.950  1.00  0.00     0.059 A 
ATOM    102  F   UNL A   1      49.296  32.290  30.637  1.00  0.00    -0.206 F 
ATOM    103  C   UNL A   1      50.960  30.929  27.734  1.00  0.00     0.060 A 
BRANCH 103 104
ATOM    104  S   UNL A   1      52.621  30.782  27.042  1.00  0.00     0.124 S 
ATOM    105  O   UNL A   1      53.444  31.268  28.144  1.00  0.00    -0.237 OA
ATOM    106  O   UNL A   1      52.718  29.352  26.762  1.00  0.00    -0.237 OA
ATOM    107  O   UNL A   1      52.579  31.642  25.864  1.00  0.00    -0.744 OA
ENDBRANCH 103 104
ENDBRANCH  71  96
ENDBRANCH  45  46
ENDBRANCH  38  40
ENDBRANCH  37  38
ENDBRANCH  36  37
ENDBRANCH  35  36
ENDBRANCH  34  35
ENDBRANCH  33  34
ENDBRANCH   1  33
TORSDOF 25
ENDMDL
MODEL 3
REMARK VINA RESULT:      -9.4      4.700      9.171
REMARK SMILES CC(C)c1cc(C(=O)N[C@@H](Cc2c[nH]c3ccccc23)C(=O)OCCOCCOCCOC(=O)c2ccc(-c3c4nc(c(-c5c(F)cc(S(=O)(=O)[O-])cc5F)c5ccc([nH]5)c(-c5c(F)cc(S(=O)(=O)[O-])cc5F)c5nc(c(-c6c(F)cc(S(=O)(=O)[O-])cc6F)c6ccc3[nH]6)C=C5)C=C4)cc2)n(C)n1
REMARK SMILES IDX 27 1 26 2 25 3 24 4 23 5 21 6 22 7 10 8 9 9 7 10 8 11 6 13
REMARK SMILES IDX 4 14 5 15 103 16 101 17 102 18 2 19 1 20 3 21 11 22 12 23
REMARK SMILES IDX 13 24 20 25 14 26 15 27 19 28 16 30 18 31 17 32 28 33 29 34
REMARK SMILES IDX 30 35 31 36 32 37 33 38 34 39 35 40 36 41 100 42 37 43 99 44
REMARK SMILES IDX 38 45 39 46 40 47 93 48 41 49 98 50 92 51 94 52 42 53 97 54
REMARK SMILES IDX 91 55 90 56 43 58 77 59 56 60 76 61 57 62 60 63 75 64 95 65
REMARK SMILES IDX 58 66 59 67 74 69 96 70 61 71 44 72 45 73 54 74 46 75 47 76
REMARK SMILES IDX 53 77 55 78 48 79 49 80 50 81 51 82 52 83 78 84 79 85 88 86
REMARK SMILES IDX 80 87 81 88 87 89 89 90 82 91 83 92 84 93 85 94 86 95 62 96
REMARK SMILES IDX 63 97 72 98 64 99 65 100 71 101 73 102 66 103 67 104 68 105
REMARK SMILES IDX 69 106 70 107
REMARK H PARENT 9 12 14 29 94 57 60 68
REMARK Flexibility Score: inf
ROOT
ATOM      1  C   UNL A   1      33.133  32.831  27.460  1.00  0.00     0.188 C 
ENDROOT
BRANCH   1   2
ATOM      2  O   UNL A   1      33.964  31.903  28.141  1.00  0.00    -0.376 OA
BRANCH   2   3
ATOM      3  C   UNL A   1      34.299  30.679  27.499  1.00  0.00     0.202 C 
BRANCH   3   4
ATOM      4  C   UNL A   1      33.196  29.705  27.045  1.00  0.00     0.261 C 
BRANCH   4   5
ATOM      5  O   UNL A   1      33.584  28.315  27.013  1.00  0.00    -0.462 OA
BRANCH   5   6
ATOM      6  C   UNL A   1      33.661  27.764  25.779  1.00  0.00     0.329 C 
ATOM      7  O   UNL A   1      34.114  28.342  24.791  1.00  0.00    -0.250 OA
BRANCH   6   8
ATOM      8  C   UNL A   1      33.138  26.318  25.659  1.00  0.00     0.197 C 
BRANCH   8   9
ATOM      9  N   UNL A   1      31.745  25.898  25.760  1.00  0.00    -0.337 N 
ATOM     10  C   UNL A   1      30.572  26.369  25.215  1.00  0.00     0.270 C 
ATOM     11  O   UNL A   1      29.570  25.894  25.767  1.00  0.00    -0.268 OA
ATOM     12  H   UNL A   1      31.617  25.114  26.341  1.00  0.00     0.164 HD
BRANCH  10  13
ATOM     13  C   UNL A   1      30.411  27.256  24.060  1.00  0.00     0.126 A 
ATOM     14  C   UNL A   1      29.775  29.107  22.900  1.00  0.00     0.066 A 
ATOM     15  C   UNL A   1      29.878  28.552  24.190  1.00  0.00     0.059 A 
ATOM     16  N   UNL A   1      30.131  28.197  22.000  1.00  0.00    -0.177 NA
ATOM     17  N   UNL A   1      30.679  27.195  22.706  1.00  0.00    -0.263 N 
ATOM     18  C   UNL A   1      31.528  26.350  21.903  1.00  0.00     0.174 C 
BRANCH  14  19
ATOM     19  C   UNL A   1      29.342  30.479  22.451  1.00  0.00     0.034 C 
ATOM     20  C   UNL A   1      28.280  30.401  21.344  1.00  0.00     0.014 C 
ATOM     21  C   UNL A   1      28.797  31.322  23.601  1.00  0.00     0.014 C 
ENDBRANCH  14  19
ENDBRANCH  10  13
ENDBRANCH   8   9
BRANCH   8  22
ATOM     22  C   UNL A   1      33.745  25.684  24.396  1.00  0.00     0.074 C 
BRANCH  22  23
ATOM     23  C   UNL A   1      33.798  24.190  24.519  1.00  0.00    -0.020 A 
ATOM     24  C   UNL A   1      32.821  23.282  24.162  1.00  0.00     0.087 A 
ATOM     25  C   UNL A   1      34.945  23.436  24.917  1.00  0.00     0.003 A 
ATOM     26  N   UNL A   1      33.346  22.023  24.284  1.00  0.00    -0.361 N 
ATOM     27  C   UNL A   1      34.646  22.089  24.730  1.00  0.00     0.046 A 
ATOM     28  C   UNL A   1      36.236  23.790  25.359  1.00  0.00     0.010 A 
ATOM     29  H   UNL A   1      32.863  21.189  24.081  1.00  0.00     0.166 HD
ATOM     30  C   UNL A   1      35.581  21.074  24.962  1.00  0.00     0.026 A 
ATOM     31  C   UNL A   1      37.182  22.791  25.594  1.00  0.00     0.001 A 
ATOM     32  C   UNL A   1      36.857  21.453  25.397  1.00  0.00     0.002 A 
ENDBRANCH  22  23
ENDBRANCH   8  22
ENDBRANCH   6   8
ENDBRANCH   5   6
ENDBRANCH   4   5
ENDBRANCH   3   4
ENDBRANCH   2   3
ENDBRANCH   1   2
BRANCH   1  33
ATOM     33  C   UNL A   1      33.120  34.294  27.928  1.00  0.00     0.188 C 
BRANCH  33  34
ATOM     34  O   UNL A   1      33.937  34.624  29.020  1.00  0.00    -0.376 OA
BRANCH  34  35
ATOM     35  C   UNL A   1      33.345  35.121  30.206  1.00  0.00     0.202 C 
BRANCH  35  36
ATOM     36  C   UNL A   1      33.753  34.729  31.643  1.00  0.00     0.261 C 
BRANCH  36  37
ATOM     37  O   UNL A   1      33.951  33.345  31.956  1.00  0.00    -0.460 OA
BRANCH  37  38
ATOM     38  C   UNL A   1      34.742  33.072  33.023  1.00  0.00     0.338 C 
ATOM     39  O   UNL A   1      34.408  33.073  34.202  1.00  0.00    -0.246 OA
BRANCH  38  40
ATOM     40  C   UNL A   1      36.032  32.550  32.527  1.00  0.00     0.060 A 
ATOM     41  C   UNL A   1      37.001  32.141  33.450  1.00  0.00     0.016 A 
ATOM     42  C   UNL A   1      36.288  32.470  31.158  1.00  0.00     0.016 A 
ATOM     43  C   UNL A   1      38.224  31.643  33.004  1.00  0.00     0.010 A 
ATOM     44  C   UNL A   1      37.542  32.026  30.718  1.00  0.00     0.010 A 
ATOM     45  C   UNL A   1      38.531  31.638  31.640  1.00  0.00    -0.014 A 
BRANCH  45  46
ATOM     46  C   UNL A   1      39.939  31.435  31.200  1.00  0.00     0.031 A 
ATOM     47  C   UNL A   1      40.943  32.522  31.491  1.00  0.00     0.074 A 
ATOM     48  C   UNL A   1      40.356  30.284  30.641  1.00  0.00     0.049 A 
ATOM     49  N   UNL A   1      42.199  32.615  31.140  1.00  0.00    -0.248 NA
ATOM     50  C   UNL A   1      40.462  33.652  32.303  1.00  0.00     0.031 C 
ATOM     51  C   UNL A   1      39.535  29.094  30.437  1.00  0.00     0.029 A 
ATOM     52  N   UNL A   1      41.593  29.925  30.162  1.00  0.00    -0.354 N 
ATOM     53  C   UNL A   1      42.651  33.823  31.662  1.00  0.00     0.074 A 
ATOM     54  C   UNL A   1      41.531  34.433  32.344  1.00  0.00     0.031 C 
ATOM     55  C   UNL A   1      40.289  28.134  29.872  1.00  0.00     0.029 A 
ATOM     56  C   UNL A   1      41.632  28.659  29.625  1.00  0.00     0.049 A 
ATOM     57  H   UNL A   1      42.379  30.517  30.200  1.00  0.00     0.167 HD
ATOM     58  C   UNL A   1      43.886  34.373  31.581  1.00  0.00     0.037 A 
ATOM     59  C   UNL A   1      42.625  28.011  28.981  1.00  0.00     0.037 A 
ATOM     60  C   UNL A   1      45.003  33.762  30.909  1.00  0.00     0.049 A 
ATOM     61  C   UNL A   1      43.956  28.698  28.787  1.00  0.00     0.074 A 
ATOM     62  C   UNL A   1      46.285  34.255  30.747  1.00  0.00     0.029 A 
ATOM     63  N   UNL A   1      44.973  32.522  30.287  1.00  0.00    -0.354 N 
ATOM     64  N   UNL A   1      44.358  29.865  29.231  1.00  0.00    -0.248 NA
ATOM     65  C   UNL A   1      44.966  27.981  27.993  1.00  0.00     0.031 C 
ATOM     66  C   UNL A   1      47.014  33.341  29.978  1.00  0.00     0.029 A 
ATOM     67  C   UNL A   1      46.205  32.247  29.715  1.00  0.00     0.049 A 
ATOM     68  H   UNL A   1      44.190  31.924  30.257  1.00  0.00     0.167 HD
ATOM     69  C   UNL A   1      45.675  30.008  28.799  1.00  0.00     0.074 A 
ATOM     70  C   UNL A   1      46.004  28.804  28.066  1.00  0.00     0.031 C 
ATOM     71  C   UNL A   1      46.531  31.042  28.994  1.00  0.00     0.037 A 
BRANCH  58  72
ATOM     72  C   UNL A   1      44.076  35.740  32.184  1.00  0.00     0.058 A 
ATOM     73  C   UNL A   1      44.543  35.920  33.496  1.00  0.00     0.135 A 
ATOM     74  C   UNL A   1      43.792  36.890  31.429  1.00  0.00     0.135 A 
ATOM     75  F   UNL A   1      44.812  34.857  34.271  1.00  0.00    -0.206 F 
ATOM     76  C   UNL A   1      44.689  37.190  34.048  1.00  0.00     0.059 A 
ATOM     77  C   UNL A   1      43.960  38.168  31.949  1.00  0.00     0.059 A 
ATOM     78  F   UNL A   1      43.341  36.777  30.170  1.00  0.00    -0.206 F 
ATOM     79  C   UNL A   1      44.392  38.308  33.266  1.00  0.00     0.060 A 
BRANCH  79  80
ATOM     80  S   UNL A   1      44.570  39.948  34.000  1.00  0.00     0.124 S 
ATOM     81  O   UNL A   1      44.807  39.616  35.402  1.00  0.00    -0.237 OA
ATOM     82  O   UNL A   1      45.714  40.491  33.276  1.00  0.00    -0.237 OA
ATOM     83  O   UNL A   1      43.291  40.590  33.717  1.00  0.00    -0.744 OA
ENDBRANCH  79  80
ENDBRANCH  58  72
BRANCH  59  84
ATOM     84  C   UNL A   1      42.396  26.645  28.431  1.00  0.00     0.058 A 
ATOM     85  C   UNL A   1      41.703  26.451  27.226  1.00  0.00     0.135 A 
ATOM     86  C   UNL A   1      42.846  25.502  29.112  1.00  0.00     0.135 A 
ATOM     87  F   UNL A   1      41.229  27.506  26.547  1.00  0.00    -0.206 F 
ATOM     88  C   UNL A   1      41.459  25.177  26.721  1.00  0.00     0.059 A 
ATOM     89  C   UNL A   1      42.642  24.220  28.613  1.00  0.00     0.059 A 
ATOM     90  F   UNL A   1      43.511  25.628  30.272  1.00  0.00    -0.206 F 
ATOM     91  C   UNL A   1      41.939  24.067  27.419  1.00  0.00     0.060 A 
BRANCH  91  92
ATOM     92  S   UNL A   1      41.661  22.421  26.729  1.00  0.00     0.124 S 
ATOM     93  O   UNL A   1      42.326  21.572  27.711  1.00  0.00    -0.237 OA
ATOM     94  O   UNL A   1      40.203  22.345  26.700  1.00  0.00    -0.237 OA
ATOM     95  O   UNL A   1      42.302  22.493  25.419  1.00  0.00    -0.744 OA
ENDBRANCH  91  92
ENDBRANCH  59  84
BRANCH  71  96
ATOM     96  C   UNL A   1      47.928  30.909  28.445  1.00  0.00     0.058 A 
ATOM     97  C   UNL A   1      48.927  30.187  29.120  1.00  0.00     0.135 A 
ATOM     98  C   UNL A   1      48.258  31.462  27.196  1.00  0.00     0.135 A 
ATOM     99  F   UNL A   1      48.672  29.640  30.319  1.00  0.00    -0.206 F 
ATOM    100  C   UNL A   1      50.206  30.042  28.590  1.00  0.00     0.059 A 
ATOM    101  C   UNL A   1      49.520  31.303  26.633  1.00  0.00     0.059 A 
ATOM    102  F   UNL A   1      47.340  32.151  26.499  1.00  0.00    -0.206 F 
ATOM    103  C   UNL A   1      50.492  30.602  27.343  1.00  0.00     0.060 A 
BRANCH 103 104
ATOM    104  S   UNL A   1      52.145  30.375  26.651  1.00  0.00     0.124 S 
ATOM    105  O   UNL A   1      52.597  31.755  26.511  1.00  0.00    -0.237 OA
ATOM    106  O   UNL A   1      52.812  29.593  27.687  1.00  0.00    -0.237 OA
ATOM    107  O   UNL A   1      51.898  29.666  25.400  1.00  0.00    -0.744 OA
ENDBRANCH 103 104
ENDBRANCH  71  96
ENDBRANCH  45  46
ENDBRANCH  38  40
ENDBRANCH  37  38
ENDBRANCH  36  37
ENDBRANCH  35  36
ENDBRANCH  34  35
ENDBRANCH  33  34
ENDBRANCH   1  33
TORSDOF 25
ENDMDL
