MODEL 1
REMARK VINA RESULT:     -10.3      0.000      0.000
REMARK SMILES COc1ccc2c(c1)[C@H]([NH2+][C@H]1CCC[C@H](C(=O)OCCOCCOCCOC(=O)c3ccc(-c4c5nc(c(-c6c(F)cc(S(=O)(=O)[O-])cc6F)c6ccc([nH]6)c(-c6c(F)cc(S(=O)(=O)[O-])cc6F)c6nc(c(-c7c(F)cc(S(=O)(=O)[O-])cc7F)c7ccc4[nH]7)C=C6)C=C5)cc3)C1)CC2
REMARK SMILES IDX 22 1 21 2 20 3 19 4 18 5 16 6 17 7 15 8 11 9 12 10 96 11
REMARK SMILES IDX 13 12 14 13 10 14 9 17 3 18 4 19 8 20 5 21 7 22 6 23 98 24
REMARK SMILES IDX 97 25 2 26 1 27 23 28 24 29 25 30 26 31 27 32 28 33 29 34
REMARK SMILES IDX 30 35 31 36 95 37 32 38 94 39 33 40 34 41 35 42 88 43 36 44
REMARK SMILES IDX 93 45 87 46 89 47 37 48 92 49 86 50 85 51 38 53 72 54 51 55
REMARK SMILES IDX 71 56 52 57 55 58 70 59 90 60 53 61 54 62 69 64 91 65 56 66
REMARK SMILES IDX 39 67 40 68 49 69 41 70 42 71 48 72 50 73 43 74 44 75 45 76
REMARK SMILES IDX 46 77 47 78 73 79 74 80 83 81 75 82 76 83 82 84 84 85 77 86
REMARK SMILES IDX 78 87 79 88 80 89 81 90 57 91 58 92 67 93 59 94 60 95 66 96
REMARK SMILES IDX 68 97 61 98 62 99 63 100 64 101 65 102
REMARK H PARENT 10 15 10 16 89 52 55 63
REMARK Flexibility Score: inf
ROOT
ATOM      1  C   UNL A   1      40.050  21.240  26.271  1.00  0.00     0.188 C 
ENDROOT
BRANCH   1   2
ATOM      2  O   UNL A   1      38.918  20.602  25.689  1.00  0.00    -0.376 OA
BRANCH   2   3
ATOM      3  C   UNL A   1      37.942  21.427  25.051  1.00  0.00     0.202 C 
BRANCH   3   4
ATOM      4  C   UNL A   1      36.469  21.093  25.318  1.00  0.00     0.261 C 
BRANCH   4   5
ATOM      5  O   UNL A   1      35.685  22.288  25.486  1.00  0.00    -0.463 OA
BRANCH   5   6
ATOM      6  C   UNL A   1      34.569  22.144  26.253  1.00  0.00     0.309 C 
ATOM      7  O   UNL A   1      34.503  21.430  27.244  1.00  0.00    -0.252 OA
BRANCH   6   8
ATOM      8  C   UNL A   1      33.453  23.062  25.757  1.00  0.00     0.105 C 
ATOM      9  C   UNL A   1      31.471  24.463  26.584  1.00  0.00     0.183 C 
ATOM     10  C   UNL A   1      30.559  23.732  25.577  1.00  0.00     0.065 C 
ATOM     11  C   UNL A   1      32.649  23.565  26.957  1.00  0.00     0.080 C 
ATOM     12  C   UNL A   1      31.260  23.063  24.397  1.00  0.00     0.007 C 
ATOM     13  C   UNL A   1      32.572  22.352  24.729  1.00  0.00     0.016 C 
BRANCH   9  14
ATOM     14  N   UNL A   1      31.723  25.828  26.178  1.00  0.00    -0.338 N 
ATOM     15  H   UNL A   1      31.379  25.884  25.219  1.00  0.00     0.347 HD
ATOM     16  H   UNL A   1      31.293  26.313  26.965  1.00  0.00     0.347 HD
BRANCH  14  17
ATOM     17  C   UNL A   1      32.994  26.512  26.154  1.00  0.00     0.214 C 
ATOM     18  C   UNL A   1      33.589  26.630  22.366  1.00  0.00     0.119 A 
ATOM     19  C   UNL A   1      33.940  27.977  22.249  1.00  0.00     0.047 A 
ATOM     20  C   UNL A   1      33.327  26.071  23.612  1.00  0.00     0.056 A 
ATOM     21  C   UNL A   1      34.051  28.773  23.395  1.00  0.00     0.008 A 
ATOM     22  C   UNL A   1      33.382  26.871  24.740  1.00  0.00     0.016 A 
ATOM     23  C   UNL A   1      33.773  28.207  24.631  1.00  0.00    -0.038 A 
ATOM     24  C   UNL A   1      33.832  28.846  25.982  1.00  0.00     0.042 C 
ATOM     25  C   UNL A   1      32.871  27.936  26.766  1.00  0.00     0.075 C 
BRANCH  18  26
ATOM     26  O   UNL A   1      33.358  25.877  21.247  1.00  0.00    -0.497 OA
ATOM     27  C   UNL A   1      33.066  24.525  21.592  1.00  0.00     0.278 C 
ENDBRANCH  18  26
ENDBRANCH  14  17
ENDBRANCH   9  14
ENDBRANCH   6   8
ENDBRANCH   5   6
ENDBRANCH   4   5
ENDBRANCH   3   4
ENDBRANCH   2   3
ENDBRANCH   1   2
BRANCH   1  28
ATOM     28  C   UNL A   1      41.411  20.522  26.193  1.00  0.00     0.188 C 
BRANCH  28  29
ATOM     29  O   UNL A   1      42.492  21.326  25.747  1.00  0.00    -0.376 OA
BRANCH  29  30
ATOM     30  C   UNL A   1      42.375  22.710  26.072  1.00  0.00     0.202 C 
BRANCH  30  31
ATOM     31  C   UNL A   1      43.672  23.515  25.900  1.00  0.00     0.261 C 
BRANCH  31  32
ATOM     32  O   UNL A   1      43.713  24.746  26.647  1.00  0.00    -0.460 OA
BRANCH  32  33
ATOM     33  C   UNL A   1      43.070  25.804  26.110  1.00  0.00     0.338 C 
ATOM     34  O   UNL A   1      42.883  26.024  24.920  1.00  0.00    -0.246 OA
BRANCH  33  35
ATOM     35  C   UNL A   1      42.509  26.613  27.206  1.00  0.00     0.060 A 
ATOM     36  C   UNL A   1      42.985  27.909  27.406  1.00  0.00     0.016 A 
ATOM     37  C   UNL A   1      41.550  26.080  28.070  1.00  0.00     0.016 A 
ATOM     38  C   UNL A   1      42.517  28.669  28.473  1.00  0.00     0.010 A 
ATOM     39  C   UNL A   1      41.094  26.846  29.152  1.00  0.00     0.010 A 
ATOM     40  C   UNL A   1      41.598  28.138  29.381  1.00  0.00    -0.014 A 
BRANCH  40  41
ATOM     41  C   UNL A   1      41.313  28.881  30.638  1.00  0.00     0.031 A 
ATOM     42  C   UNL A   1      40.131  29.814  30.679  1.00  0.00     0.074 A 
ATOM     43  C   UNL A   1      42.022  28.664  31.762  1.00  0.00     0.049 A 
ATOM     44  N   UNL A   1      39.775  30.665  31.606  1.00  0.00    -0.248 NA
ATOM     45  C   UNL A   1      39.225  29.776  29.519  1.00  0.00     0.031 C 
ATOM     46  C   UNL A   1      43.110  27.697  31.905  1.00  0.00     0.029 A 
ATOM     47  N   UNL A   1      41.923  29.241  33.006  1.00  0.00    -0.354 N 
ATOM     48  C   UNL A   1      38.639  31.302  31.120  1.00  0.00     0.074 A 
ATOM     49  C   UNL A   1      38.357  30.731  29.820  1.00  0.00     0.031 C 
ATOM     50  C   UNL A   1      43.572  27.741  33.167  1.00  0.00     0.029 A 
ATOM     51  C   UNL A   1      42.865  28.789  33.900  1.00  0.00     0.049 A 
ATOM     52  H   UNL A   1      41.241  29.913  33.235  1.00  0.00     0.167 HD
ATOM     53  C   UNL A   1      37.903  32.279  31.700  1.00  0.00     0.037 A 
ATOM     54  C   UNL A   1      43.157  29.204  35.149  1.00  0.00     0.037 A 
ATOM     55  C   UNL A   1      38.162  32.814  33.011  1.00  0.00     0.049 A 
ATOM     56  C   UNL A   1      42.379  30.346  35.749  1.00  0.00     0.074 A 
ATOM     57  C   UNL A   1      37.486  33.819  33.682  1.00  0.00     0.029 A 
ATOM     58  N   UNL A   1      39.171  32.378  33.858  1.00  0.00    -0.354 N 
ATOM     59  N   UNL A   1      41.366  31.009  35.243  1.00  0.00    -0.248 NA
ATOM     60  C   UNL A   1      42.799  30.813  37.078  1.00  0.00     0.031 C 
ATOM     61  C   UNL A   1      38.110  34.016  34.920  1.00  0.00     0.029 A 
ATOM     62  C   UNL A   1      39.147  33.103  35.037  1.00  0.00     0.049 A 
ATOM     63  H   UNL A   1      39.810  31.658  33.651  1.00  0.00     0.167 HD
ATOM     64  C   UNL A   1      41.023  31.964  36.194  1.00  0.00     0.074 A 
ATOM     65  C   UNL A   1      41.924  31.782  37.313  1.00  0.00     0.031 C 
ATOM     66  C   UNL A   1      40.051  32.910  36.143  1.00  0.00     0.037 A 
BRANCH  53  67
ATOM     67  C   UNL A   1      36.787  32.877  30.892  1.00  0.00     0.058 A 
ATOM     68  C   UNL A   1      35.450  32.482  31.051  1.00  0.00     0.135 A 
ATOM     69  C   UNL A   1      37.067  33.872  29.941  1.00  0.00     0.135 A 
ATOM     70  F   UNL A   1      35.130  31.518  31.929  1.00  0.00    -0.206 F 
ATOM     71  C   UNL A   1      34.433  33.031  30.275  1.00  0.00     0.059 A 
ATOM     72  C   UNL A   1      36.064  34.452  29.171  1.00  0.00     0.059 A 
ATOM     73  F   UNL A   1      38.330  34.283  29.745  1.00  0.00    -0.206 F 
ATOM     74  C   UNL A   1      34.753  34.012  29.333  1.00  0.00     0.060 A 
BRANCH  74  75
ATOM     75  S   UNL A   1      33.429  34.708  28.320  1.00  0.00     0.124 S 
ATOM     76  O   UNL A   1      34.184  35.545  27.393  1.00  0.00    -0.237 OA
ATOM     77  O   UNL A   1      32.817  33.516  27.742  1.00  0.00    -0.237 OA
ATOM     78  O   UNL A   1      32.604  35.426  29.285  1.00  0.00    -0.744 OA
ENDBRANCH  74  75
ENDBRANCH  53  67
BRANCH  54  79
ATOM     79  C   UNL A   1      44.281  28.576  35.896  1.00  0.00     0.058 A 
ATOM     80  C   UNL A   1      45.603  29.007  35.719  1.00  0.00     0.135 A 
ATOM     81  C   UNL A   1      44.050  27.538  36.813  1.00  0.00     0.135 A 
ATOM     82  F   UNL A   1      45.879  29.982  34.840  1.00  0.00    -0.206 F 
ATOM     83  C   UNL A   1      46.657  28.433  36.425  1.00  0.00     0.059 A 
ATOM     84  C   UNL A   1      45.082  26.968  37.551  1.00  0.00     0.059 A 
ATOM     85  F   UNL A   1      42.801  27.091  37.021  1.00  0.00    -0.206 F 
ATOM     86  C   UNL A   1      46.384  27.419  37.345  1.00  0.00     0.060 A 
BRANCH  86  87
ATOM     87  S   UNL A   1      47.745  26.733  38.316  1.00  0.00     0.124 S 
ATOM     88  O   UNL A   1      48.334  27.938  38.887  1.00  0.00    -0.237 OA
ATOM     89  O   UNL A   1      47.044  25.858  39.250  1.00  0.00    -0.237 OA
ATOM     90  O   UNL A   1      48.555  26.046  37.314  1.00  0.00    -0.744 OA
ENDBRANCH  86  87
ENDBRANCH  54  79
BRANCH  66  91
ATOM     91  C   UNL A   1      39.895  33.807  37.340  1.00  0.00     0.058 A 
ATOM     92  C   UNL A   1      40.520  35.062  37.404  1.00  0.00     0.135 A 
ATOM     93  C   UNL A   1      39.071  33.427  38.411  1.00  0.00     0.135 A 
ATOM     94  F   UNL A   1      41.323  35.469  36.408  1.00  0.00    -0.206 F 
ATOM     95  C   UNL A   1      40.350  35.901  38.500  1.00  0.00     0.059 A 
ATOM     96  C   UNL A   1      38.867  34.261  39.506  1.00  0.00     0.059 A 
ATOM     97  F   UNL A   1      38.442  32.241  38.392  1.00  0.00    -0.206 F 
ATOM     98  C   UNL A   1      39.521  35.491  39.547  1.00  0.00     0.060 A 
BRANCH  98  99
ATOM     99  S   UNL A   1      39.284  36.601  40.951  1.00  0.00     0.124 S 
ATOM    100  O   UNL A   1      38.381  35.822  41.793  1.00  0.00    -0.237 OA
ATOM    101  O   UNL A   1      40.643  36.763  41.458  1.00  0.00    -0.237 OA
ATOM    102  O   UNL A   1      38.702  37.795  40.345  1.00  0.00    -0.744 OA
ENDBRANCH  98  99
ENDBRANCH  66  91
ENDBRANCH  40  41
ENDBRANCH  33  35
ENDBRANCH  32  33
ENDBRANCH  31  32
ENDBRANCH  30  31
ENDBRANCH  29  30
ENDBRANCH  28  29
ENDBRANCH   1  28
TORSDOF 23
ENDMDL
MODEL 2
REMARK VINA RESULT:      -9.9      1.463      2.392
REMARK SMILES COc1ccc2c(c1)[C@H]([NH2+][C@H]1CCC[C@H](C(=O)OCCOCCOCCOC(=O)c3ccc(-c4c5nc(c(-c6c(F)cc(S(=O)(=O)[O-])cc6F)c6ccc([nH]6)c(-c6c(F)cc(S(=O)(=O)[O-])cc6F)c6nc(c(-c7c(F)cc(S(=O)(=O)[O-])cc7F)c7ccc4[nH]7)C=C6)C=C5)cc3)C1)CC2
REMARK SMILES IDX 22 1 21 2 20 3 19 4 18 5 16 6 17 7 15 8 11 9 12 10 96 11
REMARK SMILES IDX 13 12 14 13 10 14 9 17 3 18 4 19 8 20 5 21 7 22 6 23 98 24
REMARK SMILES IDX 97 25 2 26 1 27 23 28 24 29 25 30 26 31 27 32 28 33 29 34
REMARK SMILES IDX 30 35 31 36 95 37 32 38 94 39 33 40 34 41 35 42 88 43 36 44
REMARK SMILES IDX 93 45 87 46 89 47 37 48 92 49 86 50 85 51 38 53 72 54 51 55
REMARK SMILES IDX 71 56 52 57 55 58 70 59 90 60 53 61 54 62 69 64 91 65 56 66
REMARK SMILES IDX 39 67 40 68 49 69 41 70 42 71 48 72 50 73 43 74 44 75 45 76
REMARK SMILES IDX 46 77 47 78 73 79 74 80 83 81 75 82 76 83 82 84 84 85 77 86
REMARK SMILES IDX 78 87 79 88 80 89 81 90 57 91 58 92 67 93 59 94 60 95 66 96
REMARK SMILES IDX 68 97 61 98 62 99 63 100 64 101 65 102
REMARK H PARENT 10 15 10 16 89 52 55 63
REMARK Flexibility Score: inf
ROOT
ATOM      1  C   UNL A   1      42.570  21.168  27.341  1.00  0.00     0.188 C 
ENDROOT
BRANCH   1   2
ATOM      2  O   UNL A   1      41.241  20.668  27.449  1.00  0.00    -0.376 OA
BRANCH   2   3
ATOM      3  C   UNL A   1      40.278  21.121  26.496  1.00  0.00     0.202 C 
BRANCH   3   4
ATOM      4  C   UNL A   1      39.614  22.476  26.772  1.00  0.00     0.261 C 
BRANCH   4   5
ATOM      5  O   UNL A   1      38.469  22.679  25.923  1.00  0.00    -0.463 OA
BRANCH   5   6
ATOM      6  C   UNL A   1      37.805  23.850  26.119  1.00  0.00     0.309 C 
ATOM      7  O   UNL A   1      38.187  24.742  26.865  1.00  0.00    -0.252 OA
BRANCH   6   8
ATOM      8  C   UNL A   1      36.576  23.930  25.215  1.00  0.00     0.105 C 
ATOM      9  C   UNL A   1      34.023  23.692  25.249  1.00  0.00     0.183 C 
ATOM     10  C   UNL A   1      34.122  22.679  24.090  1.00  0.00     0.065 C 
ATOM     11  C   UNL A   1      35.321  23.681  26.053  1.00  0.00     0.080 C 
ATOM     12  C   UNL A   1      35.399  22.733  23.254  1.00  0.00     0.007 C 
ATOM     13  C   UNL A   1      36.690  22.954  24.043  1.00  0.00     0.016 C 
BRANCH   9  14
ATOM     14  N   UNL A   1      33.478  24.956  24.803  1.00  0.00    -0.338 N 
ATOM     15  H   UNL A   1      34.192  25.646  25.035  1.00  0.00     0.347 HD
ATOM     16  H   UNL A   1      33.228  24.697  23.849  1.00  0.00     0.347 HD
BRANCH  14  17
ATOM     17  C   UNL A   1      32.233  25.563  25.208  1.00  0.00     0.214 C 
ATOM     18  C   UNL A   1      33.531  28.984  26.362  1.00  0.00     0.119 A 
ATOM     19  C   UNL A   1      32.610  29.795  25.696  1.00  0.00     0.047 A 
ATOM     20  C   UNL A   1      33.433  27.598  26.297  1.00  0.00     0.056 A 
ATOM     21  C   UNL A   1      31.562  29.215  24.971  1.00  0.00     0.008 A 
ATOM     22  C   UNL A   1      32.431  27.023  25.535  1.00  0.00     0.016 A 
ATOM     23  C   UNL A   1      31.484  27.831  24.903  1.00  0.00    -0.038 A 
ATOM     24  C   UNL A   1      30.462  26.990  24.206  1.00  0.00     0.042 C 
ATOM     25  C   UNL A   1      31.257  25.690  24.005  1.00  0.00     0.075 C 
BRANCH  18  26
ATOM     26  O   UNL A   1      34.626  29.536  26.969  1.00  0.00    -0.497 OA
ATOM     27  C   UNL A   1      34.316  30.813  27.520  1.00  0.00     0.278 C 
ENDBRANCH  18  26
ENDBRANCH  14  17
ENDBRANCH   9  14
ENDBRANCH   6   8
ENDBRANCH   5   6
ENDBRANCH   4   5
ENDBRANCH   3   4
ENDBRANCH   2   3
ENDBRANCH   1   2
BRANCH   1  28
ATOM     28  C   UNL A   1      42.870  22.565  27.918  1.00  0.00     0.188 C 
BRANCH  28  29
ATOM     29  O   UNL A   1      44.164  23.071  27.628  1.00  0.00    -0.376 OA
BRANCH  29  30
ATOM     30  C   UNL A   1      44.234  23.888  26.461  1.00  0.00     0.202 C 
BRANCH  30  31
ATOM     31  C   UNL A   1      42.981  23.837  25.574  1.00  0.00     0.261 C 
BRANCH  31  32
ATOM     32  O   UNL A   1      41.968  24.802  25.917  1.00  0.00    -0.460 OA
BRANCH  32  33
ATOM     33  C   UNL A   1      42.284  26.102  25.737  1.00  0.00     0.338 C 
ATOM     34  O   UNL A   1      42.794  26.605  24.744  1.00  0.00    -0.246 OA
BRANCH  33  35
ATOM     35  C   UNL A   1      41.800  26.864  26.903  1.00  0.00     0.060 A 
ATOM     36  C   UNL A   1      42.175  28.200  27.044  1.00  0.00     0.016 A 
ATOM     37  C   UNL A   1      41.018  26.250  27.883  1.00  0.00     0.016 A 
ATOM     38  C   UNL A   1      41.784  28.922  28.168  1.00  0.00     0.010 A 
ATOM     39  C   UNL A   1      40.639  26.979  29.021  1.00  0.00     0.010 A 
ATOM     40  C   UNL A   1      41.046  28.314  29.187  1.00  0.00    -0.014 A 
BRANCH  40  41
ATOM     41  C   UNL A   1      40.862  29.036  30.474  1.00  0.00     0.031 A 
ATOM     42  C   UNL A   1      39.743  30.037  30.593  1.00  0.00     0.074 A 
ATOM     43  C   UNL A   1      41.605  28.745  31.559  1.00  0.00     0.049 A 
ATOM     44  N   UNL A   1      39.480  30.880  31.556  1.00  0.00    -0.248 NA
ATOM     45  C   UNL A   1      38.787  30.085  29.475  1.00  0.00     0.031 C 
ATOM     46  C   UNL A   1      42.639  27.711  31.628  1.00  0.00     0.029 A 
ATOM     47  N   UNL A   1      41.597  29.291  32.820  1.00  0.00    -0.354 N 
ATOM     48  C   UNL A   1      38.365  31.598  31.139  1.00  0.00     0.074 A 
ATOM     49  C   UNL A   1      37.992  31.081  29.839  1.00  0.00     0.031 C 
ATOM     50  C   UNL A   1      43.157  27.692  32.868  1.00  0.00     0.029 A 
ATOM     51  C   UNL A   1      42.548  28.759  33.659  1.00  0.00     0.049 A 
ATOM     52  H   UNL A   1      40.968  29.997  33.097  1.00  0.00     0.167 HD
ATOM     53  C   UNL A   1      37.716  32.600  31.777  1.00  0.00     0.037 A 
ATOM     54  C   UNL A   1      42.919  29.120  34.903  1.00  0.00     0.037 A 
ATOM     55  C   UNL A   1      38.064  33.081  33.088  1.00  0.00     0.049 A 
ATOM     56  C   UNL A   1      42.239  30.289  35.567  1.00  0.00     0.074 A 
ATOM     57  C   UNL A   1      37.480  34.106  33.815  1.00  0.00     0.029 A 
ATOM     58  N   UNL A   1      39.080  32.562  33.877  1.00  0.00    -0.354 N 
ATOM     59  N   UNL A   1      41.247  31.026  35.125  1.00  0.00    -0.248 NA
ATOM     60  C   UNL A   1      42.744  30.693  36.888  1.00  0.00     0.031 C 
ATOM     61  C   UNL A   1      38.168  34.229  35.027  1.00  0.00     0.029 A 
ATOM     62  C   UNL A   1      39.152  33.254  35.074  1.00  0.00     0.049 A 
ATOM     63  H   UNL A   1      39.664  31.811  33.623  1.00  0.00     0.167 HD
ATOM     64  C   UNL A   1      41.004  31.972  36.115  1.00  0.00     0.074 A 
ATOM     65  C   UNL A   1      41.941  31.704  37.187  1.00  0.00     0.031 C 
ATOM     66  C   UNL A   1      40.091  32.975  36.132  1.00  0.00     0.037 A 
BRANCH  53  67
ATOM     67  C   UNL A   1      36.604  33.287  31.036  1.00  0.00     0.058 A 
ATOM     68  C   UNL A   1      36.843  34.154  29.960  1.00  0.00     0.135 A 
ATOM     69  C   UNL A   1      35.270  33.063  31.414  1.00  0.00     0.135 A 
ATOM     70  F   UNL A   1      38.100  34.421  29.572  1.00  0.00    -0.206 F 
ATOM     71  C   UNL A   1      35.800  34.799  29.302  1.00  0.00     0.059 A 
ATOM     72  C   UNL A   1      34.209  33.679  30.756  1.00  0.00     0.059 A 
ATOM     73  F   UNL A   1      34.986  32.247  32.441  1.00  0.00    -0.206 F 
ATOM     74  C   UNL A   1      34.486  34.558  29.712  1.00  0.00     0.060 A 
BRANCH  74  75
ATOM     75  S   UNL A   1      33.140  35.412  28.862  1.00  0.00     0.124 S 
ATOM     76  O   UNL A   1      32.490  34.306  28.167  1.00  0.00    -0.237 OA
ATOM     77  O   UNL A   1      32.388  35.992  29.970  1.00  0.00    -0.237 OA
ATOM     78  O   UNL A   1      33.831  36.371  28.008  1.00  0.00    -0.744 OA
ENDBRANCH  74  75
ENDBRANCH  53  67
BRANCH  54  79
ATOM     79  C   UNL A   1      44.034  28.405  35.582  1.00  0.00     0.058 A 
ATOM     80  C   UNL A   1      45.368  28.796  35.398  1.00  0.00     0.135 A 
ATOM     81  C   UNL A   1      43.783  27.323  36.441  1.00  0.00     0.135 A 
ATOM     82  F   UNL A   1      45.662  29.811  34.572  1.00  0.00    -0.206 F 
ATOM     83  C   UNL A   1      46.414  28.140  36.041  1.00  0.00     0.059 A 
ATOM     84  C   UNL A   1      44.809  26.670  37.116  1.00  0.00     0.059 A 
ATOM     85  F   UNL A   1      42.523  26.911  36.653  1.00  0.00    -0.206 F 
ATOM     86  C   UNL A   1      46.123  27.083  36.905  1.00  0.00     0.060 A 
BRANCH  86  87
ATOM     87  S   UNL A   1      47.478  26.287  37.797  1.00  0.00     0.124 S 
ATOM     88  O   UNL A   1      48.169  25.590  36.719  1.00  0.00    -0.237 OA
ATOM     89  O   UNL A   1      48.179  27.430  38.373  1.00  0.00    -0.237 OA
ATOM     90  O   UNL A   1      46.787  25.435  38.760  1.00  0.00    -0.744 OA
ENDBRANCH  86  87
ENDBRANCH  54  79
BRANCH  66  91
ATOM     91  C   UNL A   1      40.042  33.845  37.358  1.00  0.00     0.058 A 
ATOM     92  C   UNL A   1      40.868  34.971  37.493  1.00  0.00     0.135 A 
ATOM     93  C   UNL A   1      39.123  33.577  38.384  1.00  0.00     0.135 A 
ATOM     94  F   UNL A   1      41.768  35.267  36.542  1.00  0.00    -0.206 F 
ATOM     95  C   UNL A   1      40.800  35.791  38.614  1.00  0.00     0.059 A 
ATOM     96  C   UNL A   1      39.021  34.398  39.504  1.00  0.00     0.059 A 
ATOM     97  F   UNL A   1      38.302  32.519  38.298  1.00  0.00    -0.206 F 
ATOM     98  C   UNL A   1      39.872  35.495  39.616  1.00  0.00     0.060 A 
BRANCH  98  99
ATOM     99  S   UNL A   1      39.772  36.582  41.054  1.00  0.00     0.124 S 
ATOM    100  O   UNL A   1      41.084  36.390  41.661  1.00  0.00    -0.237 OA
ATOM    101  O   UNL A   1      39.540  37.888  40.445  1.00  0.00    -0.237 OA
ATOM    102  O   UNL A   1      38.645  36.042  41.810  1.00  0.00    -0.744 OA
ENDBRANCH  98  99
ENDBRANCH  66  91
ENDBRANCH  40  41
ENDBRANCH  33  35
ENDBRANCH  32  33
ENDBRANCH  31  32
ENDBRANCH  30  31
ENDBRANCH  29  30
ENDBRANCH  28  29
ENDBRANCH   1  28
TORSDOF 23
ENDMDL
MODEL 3
REMARK VINA RESULT:      -9.6      6.843      9.420
REMARK SMILES COc1ccc2c(c1)[C@H]([NH2+][C@H]1CCC[C@H](C(=O)OCCOCCOCCOC(=O)c3ccc(-c4c5nc(c(-c6c(F)cc(S(=O)(=O)[O-])cc6F)c6ccc([nH]6)c(-c6c(F)cc(S(=O)(=O)[O-])cc6F)c6nc(c(-c7c(F)cc(S(=O)(=O)[O-])cc7F)c7ccc4[nH]7)C=C6)C=C5)cc3)C1)CC2
REMARK SMILES IDX 22 1 21 2 20 3 19 4 18 5 16 6 17 7 15 8 11 9 12 10 96 11
REMARK SMILES IDX 13 12 14 13 10 14 9 17 3 18 4 19 8 20 5 21 7 22 6 23 98 24
REMARK SMILES IDX 97 25 2 26 1 27 23 28 24 29 25 30 26 31 27 32 28 33 29 34
REMARK SMILES IDX 30 35 31 36 95 37 32 38 94 39 33 40 34 41 35 42 88 43 36 44
REMARK SMILES IDX 93 45 87 46 89 47 37 48 92 49 86 50 85 51 38 53 72 54 51 55
REMARK SMILES IDX 71 56 52 57 55 58 70 59 90 60 53 61 54 62 69 64 91 65 56 66
REMARK SMILES IDX 39 67 40 68 49 69 41 70 42 71 48 72 50 73 43 74 44 75 45 76
REMARK SMILES IDX 46 77 47 78 73 79 74 80 83 81 75 82 76 83 82 84 84 85 77 86
REMARK SMILES IDX 78 87 79 88 80 89 81 90 57 91 58 92 67 93 59 94 60 95 66 96
REMARK SMILES IDX 68 97 61 98 62 99 63 100 64 101 65 102
REMARK H PARENT 10 15 10 16 89 52 55 63
REMARK Flexibility Score: inf
ROOT
ATOM      1  C   UNL A   1      39.229  23.145  26.788  1.00  0.00     0.188 C 
ENDROOT
BRANCH   1   2
ATOM      2  O   UNL A   1      38.457  22.178  26.084  1.00  0.00    -0.376 OA
BRANCH   2   3
ATOM      3  C   UNL A   1      37.453  22.654  25.184  1.00  0.00     0.202 C 
BRANCH   3   4
ATOM      4  C   UNL A   1      36.070  22.948  25.779  1.00  0.00     0.261 C 
BRANCH   4   5
ATOM      5  O   UNL A   1      35.495  24.133  25.201  1.00  0.00    -0.463 OA
BRANCH   5   6
ATOM      6  C   UNL A   1      34.295  23.951  24.584  1.00  0.00     0.309 C 
ATOM      7  O   UNL A   1      33.828  22.857  24.298  1.00  0.00    -0.252 OA
BRANCH   6   8
ATOM      8  C   UNL A   1      33.583  25.288  24.386  1.00  0.00     0.105 C 
ATOM      9  C   UNL A   1      33.118  27.089  22.621  1.00  0.00     0.183 C 
ATOM     10  C   UNL A   1      33.662  28.155  23.593  1.00  0.00     0.065 C 
ATOM     11  C   UNL A   1      33.753  25.735  22.933  1.00  0.00     0.080 C 
ATOM     12  C   UNL A   1      33.675  27.775  25.072  1.00  0.00     0.007 C 
ATOM     13  C   UNL A   1      34.093  26.336  25.376  1.00  0.00     0.016 C 
BRANCH   9  14
ATOM     14  N   UNL A   1      31.680  27.180  22.484  1.00  0.00    -0.338 N 
ATOM     15  H   UNL A   1      31.525  28.000  21.897  1.00  0.00     0.347 HD
ATOM     16  H   UNL A   1      31.485  26.224  22.188  1.00  0.00     0.347 HD
BRANCH  14  17
ATOM     17  C   UNL A   1      30.707  27.294  23.543  1.00  0.00     0.214 C 
ATOM     18  C   UNL A   1      28.878  30.465  22.396  1.00  0.00     0.119 A 
ATOM     19  C   UNL A   1      27.564  30.012  22.530  1.00  0.00     0.047 A 
ATOM     20  C   UNL A   1      29.948  29.657  22.763  1.00  0.00     0.056 A 
ATOM     21  C   UNL A   1      27.313  28.740  23.059  1.00  0.00     0.008 A 
ATOM     22  C   UNL A   1      29.704  28.379  23.234  1.00  0.00     0.016 A 
ATOM     23  C   UNL A   1      28.391  27.938  23.408  1.00  0.00    -0.038 A 
ATOM     24  C   UNL A   1      28.375  26.563  23.995  1.00  0.00     0.042 C 
ATOM     25  C   UNL A   1      29.764  26.059  23.569  1.00  0.00     0.075 C 
BRANCH  18  26
ATOM     26  O   UNL A   1      29.138  31.653  21.768  1.00  0.00    -0.497 OA
ATOM     27  C   UNL A   1      28.536  32.741  22.464  1.00  0.00     0.278 C 
ENDBRANCH  18  26
ENDBRANCH  14  17
ENDBRANCH   9  14
ENDBRANCH   6   8
ENDBRANCH   5   6
ENDBRANCH   4   5
ENDBRANCH   3   4
ENDBRANCH   2   3
ENDBRANCH   1   2
BRANCH   1  28
ATOM     28  C   UNL A   1      40.637  22.742  27.267  1.00  0.00     0.188 C 
BRANCH  28  29
ATOM     29  O   UNL A   1      41.368  21.922  26.367  1.00  0.00    -0.376 OA
BRANCH  29  30
ATOM     30  C   UNL A   1      41.549  20.576  26.805  1.00  0.00     0.202 C 
BRANCH  30  31
ATOM     31  C   UNL A   1      42.620  19.795  26.030  1.00  0.00     0.261 C 
BRANCH  31  32
ATOM     32  O   UNL A   1      43.232  20.531  24.952  1.00  0.00    -0.460 OA
BRANCH  32  33
ATOM     33  C   UNL A   1      44.572  20.430  24.833  1.00  0.00     0.338 C 
ATOM     34  O   UNL A   1      45.205  19.456  24.444  1.00  0.00    -0.246 OA
BRANCH  33  35
ATOM     35  C   UNL A   1      45.166  21.744  25.137  1.00  0.00     0.060 A 
ATOM     36  C   UNL A   1      45.406  22.089  26.468  1.00  0.00     0.016 A 
ATOM     37  C   UNL A   1      45.441  22.657  24.118  1.00  0.00     0.016 A 
ATOM     38  C   UNL A   1      45.906  23.349  26.784  1.00  0.00     0.010 A 
ATOM     39  C   UNL A   1      45.931  23.930  24.445  1.00  0.00     0.010 A 
ATOM     40  C   UNL A   1      46.139  24.297  25.786  1.00  0.00    -0.014 A 
BRANCH  40  41
ATOM     41  C   UNL A   1      46.432  25.702  26.179  1.00  0.00     0.031 A 
ATOM     42  C   UNL A   1      45.315  26.552  26.725  1.00  0.00     0.074 A 
ATOM     43  C   UNL A   1      47.685  26.195  26.151  1.00  0.00     0.049 A 
ATOM     44  N   UNL A   1      45.300  27.831  26.996  1.00  0.00    -0.248 NA
ATOM     45  C   UNL A   1      44.046  25.863  27.010  1.00  0.00     0.031 C 
ATOM     46  C   UNL A   1      48.883  25.448  25.767  1.00  0.00     0.029 A 
ATOM     47  N   UNL A   1      48.159  27.447  26.463  1.00  0.00    -0.354 N 
ATOM     48  C   UNL A   1      44.010  28.112  27.430  1.00  0.00     0.074 A 
ATOM     49  C   UNL A   1      43.273  26.867  27.398  1.00  0.00     0.031 C 
ATOM     50  C   UNL A   1      49.954  26.253  25.876  1.00  0.00     0.029 A 
ATOM     51  C   UNL A   1      49.511  27.591  26.263  1.00  0.00     0.049 A 
ATOM     52  H   UNL A   1      47.584  28.172  26.800  1.00  0.00     0.167 HD
ATOM     53  C   UNL A   1      43.485  29.300  27.812  1.00  0.00     0.037 A 
ATOM     54  C   UNL A   1      50.297  28.684  26.337  1.00  0.00     0.037 A 
ATOM     55  C   UNL A   1      44.234  30.527  27.883  1.00  0.00     0.049 A 
ATOM     56  C   UNL A   1      49.681  30.014  26.687  1.00  0.00     0.074 A 
ATOM     57  C   UNL A   1      43.789  31.789  28.241  1.00  0.00     0.029 A 
ATOM     58  N   UNL A   1      45.587  30.646  27.604  1.00  0.00    -0.354 N 
ATOM     59  N   UNL A   1      48.437  30.288  27.002  1.00  0.00    -0.248 NA
ATOM     60  C   UNL A   1      50.568  31.186  26.666  1.00  0.00     0.031 C 
ATOM     61  C   UNL A   1      44.867  32.677  28.142  1.00  0.00     0.029 A 
ATOM     62  C   UNL A   1      45.992  31.960  27.765  1.00  0.00     0.049 A 
ATOM     63  H   UNL A   1      46.174  29.903  27.332  1.00  0.00     0.167 HD
ATOM     64  C   UNL A   1      48.395  31.661  27.227  1.00  0.00     0.074 A 
ATOM     65  C   UNL A   1      49.741  32.158  27.028  1.00  0.00     0.031 C 
ATOM     66  C   UNL A   1      47.336  32.439  27.563  1.00  0.00     0.037 A 
BRANCH  53  67
ATOM     67  C   UNL A   1      42.015  29.340  28.121  1.00  0.00     0.058 A 
ATOM     68  C   UNL A   1      41.037  29.310  27.116  1.00  0.00     0.135 A 
ATOM     69  C   UNL A   1      41.582  29.406  29.455  1.00  0.00     0.135 A 
ATOM     70  F   UNL A   1      41.396  29.271  25.823  1.00  0.00    -0.206 F 
ATOM     71  C   UNL A   1      39.680  29.373  27.421  1.00  0.00     0.059 A 
ATOM     72  C   UNL A   1      40.231  29.446  29.786  1.00  0.00     0.059 A 
ATOM     73  F   UNL A   1      42.477  29.443  30.455  1.00  0.00    -0.206 F 
ATOM     74  C   UNL A   1      39.288  29.446  28.760  1.00  0.00     0.060 A 
BRANCH  74  75
ATOM     75  S   UNL A   1      37.527  29.542  29.147  1.00  0.00     0.124 S 
ATOM     76  O   UNL A   1      37.452  28.733  30.359  1.00  0.00    -0.237 OA
ATOM     77  O   UNL A   1      37.324  30.976  29.329  1.00  0.00    -0.237 OA
ATOM     78  O   UNL A   1      36.888  28.967  27.968  1.00  0.00    -0.744 OA
ENDBRANCH  74  75
ENDBRANCH  53  67
BRANCH  54  79
ATOM     79  C   UNL A   1      51.745  28.581  26.012  1.00  0.00     0.058 A 
ATOM     80  C   UNL A   1      52.211  28.755  24.701  1.00  0.00     0.135 A 
ATOM     81  C   UNL A   1      52.695  28.318  27.013  1.00  0.00     0.135 A 
ATOM     82  F   UNL A   1      51.343  28.988  23.705  1.00  0.00    -0.206 F 
ATOM     83  C   UNL A   1      53.566  28.673  24.392  1.00  0.00     0.059 A 
ATOM     84  C   UNL A   1      54.056  28.260  26.734  1.00  0.00     0.059 A 
ATOM     85  F   UNL A   1      52.301  28.147  28.284  1.00  0.00    -0.206 F 
ATOM     86  C   UNL A   1      54.482  28.433  25.418  1.00  0.00     0.060 A 
BRANCH  86  87
ATOM     87  S   UNL A   1      56.245  28.407  25.026  1.00  0.00     0.124 S 
ATOM     88  O   UNL A   1      56.243  28.858  23.639  1.00  0.00    -0.237 OA
ATOM     89  O   UNL A   1      56.791  29.344  26.002  1.00  0.00    -0.237 OA
ATOM     90  O   UNL A   1      56.613  27.010  25.236  1.00  0.00    -0.744 OA
ENDBRANCH  86  87
ENDBRANCH  54  79
BRANCH  66  91
ATOM     91  C   UNL A   1      47.592  33.908  27.759  1.00  0.00     0.058 A 
ATOM     92  C   UNL A   1      48.062  34.415  28.981  1.00  0.00     0.135 A 
ATOM     93  C   UNL A   1      47.414  34.809  26.698  1.00  0.00     0.135 A 
ATOM     94  F   UNL A   1      48.243  33.595  30.028  1.00  0.00    -0.206 F 
ATOM     95  C   UNL A   1      48.326  35.770  29.150  1.00  0.00     0.059 A 
ATOM     96  C   UNL A   1      47.695  36.165  26.838  1.00  0.00     0.059 A 
ATOM     97  F   UNL A   1      46.978  34.373  25.506  1.00  0.00    -0.206 F 
ATOM     98  C   UNL A   1      48.138  36.639  28.072  1.00  0.00     0.060 A 
BRANCH  98  99
ATOM     99  S   UNL A   1      48.512  38.390  28.294  1.00  0.00     0.124 S 
ATOM    100  O   UNL A   1      47.181  38.952  28.497  1.00  0.00    -0.237 OA
ATOM    101  O   UNL A   1      49.382  38.381  29.466  1.00  0.00    -0.237 OA
ATOM    102  O   UNL A   1      49.164  38.760  27.041  1.00  0.00    -0.744 OA
ENDBRANCH  98  99
ENDBRANCH  66  91
ENDBRANCH  40  41
ENDBRANCH  33  35
ENDBRANCH  32  33
ENDBRANCH  31  32
ENDBRANCH  30  31
ENDBRANCH  29  30
ENDBRANCH  28  29
ENDBRANCH   1  28
TORSDOF 23
ENDMDL
