MODEL 1
REMARK VINA RESULT:     -10.0      0.000      0.000
REMARK SMILES O=C(OCCOCCOCCOC(=O)[C@@H](Cc1ccncc1)c1ccc(Cl)cc1)c1ccc(-c2c3nc(c(-c4c(F)cc(S(=O)(=O)[O-])cc4F)c4ccc([nH]4)c(-c4c(F)cc(S(=O)(=O)[O-])cc4F)c4nc(c(-c5c(F)cc(S(=O)(=O)[O-])cc5F)c5ccc2[nH]5)C=C4)C=C3)cc1
REMARK SMILES IDX 7 1 6 2 5 3 4 4 3 5 2 6 1 7 30 8 31 9 95 10 32 11 94 12
REMARK SMILES IDX 33 13 34 14 35 15 88 16 36 17 93 18 87 19 89 20 37 21 92 22
REMARK SMILES IDX 86 23 85 24 38 26 72 27 51 28 71 29 52 30 55 31 70 32 90 33
REMARK SMILES IDX 53 34 54 35 69 37 91 38 56 39 39 40 40 41 49 42 41 43 42 44
REMARK SMILES IDX 48 45 50 46 43 47 44 48 45 49 46 50 47 51 73 52 74 53 83 54
REMARK SMILES IDX 75 55 76 56 82 57 84 58 77 59 78 60 79 61 80 62 81 63 57 64
REMARK SMILES IDX 58 65 67 66 59 67 60 68 66 69 68 70 61 71 62 72 63 73 64 74
REMARK SMILES IDX 65 75 8 76 9 77 10 78 11 79 12 80 13 81 14 82 15 83 16 84
REMARK SMILES IDX 17 85 18 86 22 87 19 88 21 89 20 90 23 91 24 92 29 93 25 94
REMARK SMILES IDX 28 95 26 96 27 97
REMARK H PARENT 89 25 55 36
REMARK Flexibility Score: inf
ROOT
ATOM      1  C   UNL A   1      31.279  27.346  25.894  1.00  0.00     0.188 C 
ENDROOT
BRANCH   1   2
ATOM      2  O   UNL A   1      31.547  28.477  25.052  1.00  0.00    -0.376 OA
BRANCH   2   3
ATOM      3  C   UNL A   1      32.784  29.131  25.348  1.00  0.00     0.202 C 
BRANCH   3   4
ATOM      4  C   UNL A   1      33.621  28.535  26.492  1.00  0.00     0.261 C 
BRANCH   4   5
ATOM      5  O   UNL A   1      33.620  29.320  27.694  1.00  0.00    -0.460 OA
BRANCH   5   6
ATOM      6  C   UNL A   1      34.555  30.177  28.172  1.00  0.00     0.338 C 
ATOM      7  O   UNL A   1      34.171  31.296  28.518  1.00  0.00    -0.246 OA
BRANCH   6   8
ATOM      8  C   UNL A   1      36.027  29.890  28.257  1.00  0.00     0.060 A 
ATOM      9  C   UNL A   1      36.961  30.126  27.253  1.00  0.00     0.016 A 
ATOM     10  C   UNL A   1      36.512  29.383  29.484  1.00  0.00     0.016 A 
ATOM     11  C   UNL A   1      38.316  29.869  27.447  1.00  0.00     0.010 A 
ATOM     12  C   UNL A   1      37.875  29.121  29.688  1.00  0.00     0.010 A 
ATOM     13  C   UNL A   1      38.783  29.365  28.660  1.00  0.00    -0.014 A 
BRANCH  13  14
ATOM     14  C   UNL A   1      40.218  29.019  28.724  1.00  0.00     0.031 A 
ATOM     15  C   UNL A   1      41.122  29.938  29.480  1.00  0.00     0.074 A 
ATOM     16  C   UNL A   1      40.644  27.821  28.282  1.00  0.00     0.049 A 
ATOM     17  N   UNL A   1      42.390  29.803  29.744  1.00  0.00    -0.248 NA
ATOM     18  C   UNL A   1      40.520  31.178  30.003  1.00  0.00     0.031 C 
ATOM     19  C   UNL A   1      39.805  26.861  27.578  1.00  0.00     0.029 A 
ATOM     20  N   UNL A   1      41.844  27.172  28.416  1.00  0.00    -0.354 N 
ATOM     21  C   UNL A   1      42.758  30.975  30.388  1.00  0.00     0.074 A 
ATOM     22  C   UNL A   1      41.565  31.770  30.560  1.00  0.00     0.031 C 
ATOM     23  C   UNL A   1      40.468  25.698  27.456  1.00  0.00     0.029 A 
ATOM     24  C   UNL A   1      41.820  25.864  27.977  1.00  0.00     0.049 A 
ATOM     25  H   UNL A   1      42.649  27.599  28.790  1.00  0.00     0.167 HD
ATOM     26  C   UNL A   1      44.005  31.372  30.720  1.00  0.00     0.037 A 
ATOM     27  C   UNL A   1      42.794  24.928  27.978  1.00  0.00     0.037 A 
ATOM     28  C   UNL A   1      45.170  30.560  30.502  1.00  0.00     0.049 A 
ATOM     29  C   UNL A   1      44.174  25.385  28.396  1.00  0.00     0.074 A 
ATOM     30  C   UNL A   1      46.496  30.885  30.709  1.00  0.00     0.029 A 
ATOM     31  N   UNL A   1      45.142  29.260  30.012  1.00  0.00    -0.354 N 
ATOM     32  N   UNL A   1      44.533  26.528  28.939  1.00  0.00    -0.248 NA
ATOM     33  C   UNL A   1      45.294  24.476  28.120  1.00  0.00     0.031 C 
ATOM     34  C   UNL A   1      47.274  29.804  30.281  1.00  0.00     0.029 A 
ATOM     35  C   UNL A   1      46.431  28.780  29.874  1.00  0.00     0.049 A 
ATOM     36  H   UNL A   1      44.325  28.755  29.795  1.00  0.00     0.167 HD
ATOM     37  C   UNL A   1      45.921  26.495  29.015  1.00  0.00     0.074 A 
ATOM     38  C   UNL A   1      46.331  25.189  28.540  1.00  0.00     0.031 C 
ATOM     39  C   UNL A   1      46.787  27.469  29.392  1.00  0.00     0.037 A 
BRANCH  26  40
ATOM     40  C   UNL A   1      44.174  32.788  31.180  1.00  0.00     0.058 A 
ATOM     41  C   UNL A   1      44.244  33.147  32.531  1.00  0.00     0.135 A 
ATOM     42  C   UNL A   1      44.255  33.812  30.220  1.00  0.00     0.135 A 
ATOM     43  F   UNL A   1      44.121  32.214  33.488  1.00  0.00    -0.206 F 
ATOM     44  C   UNL A   1      44.388  34.478  32.918  1.00  0.00     0.059 A 
ATOM     45  C   UNL A   1      44.423  35.143  30.582  1.00  0.00     0.059 A 
ATOM     46  F   UNL A   1      44.162  33.521  28.912  1.00  0.00    -0.206 F 
ATOM     47  C   UNL A   1      44.482  35.466  31.935  1.00  0.00     0.060 A 
BRANCH  47  48
ATOM     48  S   UNL A   1      44.694  37.183  32.450  1.00  0.00     0.124 S 
ATOM     49  O   UNL A   1      43.797  37.876  31.531  1.00  0.00    -0.237 OA
ATOM     50  O   UNL A   1      44.265  37.142  33.844  1.00  0.00    -0.237 OA
ATOM     51  O   UNL A   1      46.118  37.428  32.241  1.00  0.00    -0.744 OA
ENDBRANCH  47  48
ENDBRANCH  26  40
BRANCH  27  52
ATOM     52  C   UNL A   1      42.573  23.540  27.456  1.00  0.00     0.058 A 
ATOM     53  C   UNL A   1      42.302  22.459  28.317  1.00  0.00     0.135 A 
ATOM     54  C   UNL A   1      42.710  23.240  26.090  1.00  0.00     0.135 A 
ATOM     55  F   UNL A   1      42.165  22.673  29.634  1.00  0.00    -0.206 F 
ATOM     56  C   UNL A   1      42.230  21.141  27.855  1.00  0.00     0.059 A 
ATOM     57  C   UNL A   1      42.594  21.944  25.599  1.00  0.00     0.059 A 
ATOM     58  F   UNL A   1      42.976  24.212  25.205  1.00  0.00    -0.206 F 
ATOM     59  C   UNL A   1      42.396  20.894  26.493  1.00  0.00     0.060 A 
BRANCH  59  60
ATOM     60  S   UNL A   1      42.399  19.204  25.850  1.00  0.00     0.124 S 
ATOM     61  O   UNL A   1      43.026  18.481  26.950  1.00  0.00    -0.237 OA
ATOM     62  O   UNL A   1      40.986  18.918  25.638  1.00  0.00    -0.237 OA
ATOM     63  O   UNL A   1      43.204  19.334  24.637  1.00  0.00    -0.744 OA
ENDBRANCH  59  60
ENDBRANCH  27  52
BRANCH  39  64
ATOM     64  C   UNL A   1      48.255  27.169  29.276  1.00  0.00     0.058 A 
ATOM     65  C   UNL A   1      48.985  27.552  28.141  1.00  0.00     0.135 A 
ATOM     66  C   UNL A   1      48.954  26.606  30.353  1.00  0.00     0.135 A 
ATOM     67  F   UNL A   1      48.359  28.093  27.083  1.00  0.00    -0.206 F 
ATOM     68  C   UNL A   1      50.363  27.384  28.077  1.00  0.00     0.059 A 
ATOM     69  C   UNL A   1      50.335  26.454  30.322  1.00  0.00     0.059 A 
ATOM     70  F   UNL A   1      48.300  26.237  31.466  1.00  0.00    -0.206 F 
ATOM     71  C   UNL A   1      51.031  26.844  29.178  1.00  0.00     0.060 A 
BRANCH  71  72
ATOM     72  S   UNL A   1      52.829  26.705  29.112  1.00  0.00     0.124 S 
ATOM     73  O   UNL A   1      53.115  25.994  30.353  1.00  0.00    -0.237 OA
ATOM     74  O   UNL A   1      53.037  25.946  27.882  1.00  0.00    -0.237 OA
ATOM     75  O   UNL A   1      53.275  28.095  29.066  1.00  0.00    -0.744 OA
ENDBRANCH  71  72
ENDBRANCH  39  64
ENDBRANCH  13  14
ENDBRANCH   6   8
ENDBRANCH   5   6
ENDBRANCH   4   5
ENDBRANCH   3   4
ENDBRANCH   2   3
ENDBRANCH   1   2
BRANCH   1  76
ATOM     76  C   UNL A   1      31.080  26.055  25.097  1.00  0.00     0.188 C 
BRANCH  76  77
ATOM     77  O   UNL A   1      29.994  25.219  25.503  1.00  0.00    -0.376 OA
BRANCH  77  78
ATOM     78  C   UNL A   1      30.234  24.264  26.529  1.00  0.00     0.202 C 
BRANCH  78  79
ATOM     79  C   UNL A   1      31.606  23.588  26.558  1.00  0.00     0.261 C 
BRANCH  79  80
ATOM     80  O   UNL A   1      31.610  22.273  25.995  1.00  0.00    -0.463 OA
BRANCH  80  81
ATOM     81  C   UNL A   1      32.401  22.119  24.899  1.00  0.00     0.313 C 
ATOM     82  O   UNL A   1      32.411  22.883  23.945  1.00  0.00    -0.252 OA
BRANCH  81  83
ATOM     83  C   UNL A   1      33.312  20.901  24.992  1.00  0.00     0.133 C 
BRANCH  83  84
ATOM     84  C   UNL A   1      33.141  19.814  23.913  1.00  0.00     0.055 C 
BRANCH  84  85
ATOM     85  C   UNL A   1      33.244  18.347  24.272  1.00  0.00    -0.044 A 
ATOM     86  C   UNL A   1      33.995  17.451  23.504  1.00  0.00     0.024 A 
ATOM     87  C   UNL A   1      32.654  17.857  25.437  1.00  0.00     0.024 A 
ATOM     88  C   UNL A   1      34.114  16.134  23.919  1.00  0.00     0.111 A 
ATOM     89  C   UNL A   1      32.837  16.525  25.781  1.00  0.00     0.111 A 
ATOM     90  N   UNL A   1      33.543  15.649  25.042  1.00  0.00    -0.265 NA
ENDBRANCH  84  85
ENDBRANCH  83  84
BRANCH  83  91
ATOM     91  C   UNL A   1      34.749  21.325  25.220  1.00  0.00    -0.033 A 
ATOM     92  C   UNL A   1      35.817  20.488  24.857  1.00  0.00     0.006 A 
ATOM     93  C   UNL A   1      35.024  22.558  25.832  1.00  0.00     0.006 A 
ATOM     94  C   UNL A   1      37.133  20.877  25.118  1.00  0.00     0.021 A 
ATOM     95  C   UNL A   1      36.334  22.955  26.066  1.00  0.00     0.021 A 
ATOM     96  C   UNL A   1      37.381  22.105  25.730  1.00  0.00     0.041 A 
ATOM     97  Cl  UNL A   1      38.978  22.567  26.139  1.00  0.00    -0.084 Cl
ENDBRANCH  83  91
ENDBRANCH  81  83
ENDBRANCH  80  81
ENDBRANCH  79  80
ENDBRANCH  78  79
ENDBRANCH  77  78
ENDBRANCH  76  77
ENDBRANCH   1  76
TORSDOF 23
ENDMDL
MODEL 2
REMARK VINA RESULT:      -9.8      5.166     10.176
REMARK SMILES O=C(OCCOCCOCCOC(=O)[C@@H](Cc1ccncc1)c1ccc(Cl)cc1)c1ccc(-c2c3nc(c(-c4c(F)cc(S(=O)(=O)[O-])cc4F)c4ccc([nH]4)c(-c4c(F)cc(S(=O)(=O)[O-])cc4F)c4nc(c(-c5c(F)cc(S(=O)(=O)[O-])cc5F)c5ccc2[nH]5)C=C4)C=C3)cc1
REMARK SMILES IDX 7 1 6 2 5 3 4 4 3 5 2 6 1 7 30 8 31 9 95 10 32 11 94 12
REMARK SMILES IDX 33 13 34 14 35 15 88 16 36 17 93 18 87 19 89 20 37 21 92 22
REMARK SMILES IDX 86 23 85 24 38 26 72 27 51 28 71 29 52 30 55 31 70 32 90 33
REMARK SMILES IDX 53 34 54 35 69 37 91 38 56 39 39 40 40 41 49 42 41 43 42 44
REMARK SMILES IDX 48 45 50 46 43 47 44 48 45 49 46 50 47 51 73 52 74 53 83 54
REMARK SMILES IDX 75 55 76 56 82 57 84 58 77 59 78 60 79 61 80 62 81 63 57 64
REMARK SMILES IDX 58 65 67 66 59 67 60 68 66 69 68 70 61 71 62 72 63 73 64 74
REMARK SMILES IDX 65 75 8 76 9 77 10 78 11 79 12 80 13 81 14 82 15 83 16 84
REMARK SMILES IDX 17 85 18 86 22 87 19 88 21 89 20 90 23 91 24 92 29 93 25 94
REMARK SMILES IDX 28 95 26 96 27 97
REMARK H PARENT 89 25 55 36
REMARK Flexibility Score: inf
ROOT
ATOM      1  C   UNL A   1      40.803  20.999  27.220  1.00  0.00     0.188 C 
ENDROOT
BRANCH   1   2
ATOM      2  O   UNL A   1      40.942  22.311  27.783  1.00  0.00    -0.376 OA
BRANCH   2   3
ATOM      3  C   UNL A   1      42.297  22.766  27.850  1.00  0.00     0.202 C 
BRANCH   3   4
ATOM      4  C   UNL A   1      42.826  23.534  26.627  1.00  0.00     0.261 C 
BRANCH   4   5
ATOM      5  O   UNL A   1      41.877  24.438  26.043  1.00  0.00    -0.460 OA
BRANCH   5   6
ATOM      6  C   UNL A   1      41.848  25.793  26.052  1.00  0.00     0.338 C 
ATOM      7  O   UNL A   1      42.017  26.370  24.977  1.00  0.00    -0.246 OA
BRANCH   6   8
ATOM      8  C   UNL A   1      41.688  26.644  27.280  1.00  0.00     0.060 A 
ATOM      9  C   UNL A   1      41.006  26.282  28.438  1.00  0.00     0.016 A 
ATOM     10  C   UNL A   1      42.329  27.903  27.276  1.00  0.00     0.016 A 
ATOM     11  C   UNL A   1      40.954  27.126  29.544  1.00  0.00     0.010 A 
ATOM     12  C   UNL A   1      42.282  28.761  28.385  1.00  0.00     0.010 A 
ATOM     13  C   UNL A   1      41.588  28.369  29.527  1.00  0.00    -0.014 A 
BRANCH  13  14
ATOM     14  C   UNL A   1      41.376  29.234  30.705  1.00  0.00     0.031 A 
ATOM     15  C   UNL A   1      40.123  30.049  30.753  1.00  0.00     0.074 A 
ATOM     16  C   UNL A   1      42.189  29.133  31.773  1.00  0.00     0.049 A 
ATOM     17  N   UNL A   1      39.681  30.811  31.711  1.00  0.00    -0.248 NA
ATOM     18  C   UNL A   1      39.259  30.005  29.560  1.00  0.00     0.031 C 
ATOM     19  C   UNL A   1      43.400  28.324  31.808  1.00  0.00     0.029 A 
ATOM     20  N   UNL A   1      42.097  29.640  33.044  1.00  0.00    -0.354 N 
ATOM     21  C   UNL A   1      38.532  31.403  31.209  1.00  0.00     0.074 A 
ATOM     22  C   UNL A   1      38.292  30.845  29.899  1.00  0.00     0.031 C 
ATOM     23  C   UNL A   1      43.868  28.280  33.067  1.00  0.00     0.029 A 
ATOM     24  C   UNL A   1      43.051  29.147  33.909  1.00  0.00     0.049 A 
ATOM     25  H   UNL A   1      41.413  30.295  33.313  1.00  0.00     0.167 HD
ATOM     26  C   UNL A   1      37.804  32.391  31.771  1.00  0.00     0.037 A 
ATOM     27  C   UNL A   1      43.247  29.396  35.222  1.00  0.00     0.037 A 
ATOM     28  C   UNL A   1      38.097  32.940  33.066  1.00  0.00     0.049 A 
ATOM     29  C   UNL A   1      42.389  30.476  35.842  1.00  0.00     0.074 A 
ATOM     30  C   UNL A   1      37.493  34.005  33.706  1.00  0.00     0.029 A 
ATOM     31  N   UNL A   1      39.094  32.470  33.913  1.00  0.00    -0.354 N 
ATOM     32  N   UNL A   1      41.343  31.091  35.334  1.00  0.00    -0.248 NA
ATOM     33  C   UNL A   1      42.785  30.968  37.169  1.00  0.00     0.031 C 
ATOM     34  C   UNL A   1      38.168  34.220  34.911  1.00  0.00     0.029 A 
ATOM     35  C   UNL A   1      39.147  33.247  35.055  1.00  0.00     0.049 A 
ATOM     36  H   UNL A   1      39.676  31.699  33.726  1.00  0.00     0.167 HD
ATOM     37  C   UNL A   1      40.995  32.076  36.251  1.00  0.00     0.074 A 
ATOM     38  C   UNL A   1      41.888  31.922  37.383  1.00  0.00     0.031 C 
ATOM     39  C   UNL A   1      40.060  33.053  36.154  1.00  0.00     0.037 A 
BRANCH  26  40
ATOM     40  C   UNL A   1      36.753  33.038  30.921  1.00  0.00     0.058 A 
ATOM     41  C   UNL A   1      37.051  33.964  29.914  1.00  0.00     0.135 A 
ATOM     42  C   UNL A   1      35.403  32.718  31.144  1.00  0.00     0.135 A 
ATOM     43  F   UNL A   1      38.320  34.342  29.694  1.00  0.00    -0.206 F 
ATOM     44  C   UNL A   1      36.044  34.553  29.153  1.00  0.00     0.059 A 
ATOM     45  C   UNL A   1      34.383  33.275  30.382  1.00  0.00     0.059 A 
ATOM     46  F   UNL A   1      35.064  31.860  32.119  1.00  0.00    -0.206 F 
ATOM     47  C   UNL A   1      34.714  34.197  29.392  1.00  0.00     0.060 A 
BRANCH  47  48
ATOM     48  S   UNL A   1      33.421  34.949  28.382  1.00  0.00     0.124 S 
ATOM     49  O   UNL A   1      34.206  35.578  27.324  1.00  0.00    -0.237 OA
ATOM     50  O   UNL A   1      32.630  33.790  27.981  1.00  0.00    -0.237 OA
ATOM     51  O   UNL A   1      32.760  35.869  29.304  1.00  0.00    -0.744 OA
ENDBRANCH  47  48
ENDBRANCH  26  40
BRANCH  27  52
ATOM     52  C   UNL A   1      44.351  28.751  36.005  1.00  0.00     0.058 A 
ATOM     53  C   UNL A   1      45.671  29.243  35.969  1.00  0.00     0.135 A 
ATOM     54  C   UNL A   1      44.137  27.576  36.744  1.00  0.00     0.135 A 
ATOM     55  F   UNL A   1      45.948  30.359  35.276  1.00  0.00    -0.206 F 
ATOM     56  C   UNL A   1      46.731  28.571  36.584  1.00  0.00     0.059 A 
ATOM     57  C   UNL A   1      45.167  26.916  37.405  1.00  0.00     0.059 A 
ATOM     58  F   UNL A   1      42.910  27.038  36.822  1.00  0.00    -0.206 F 
ATOM     59  C   UNL A   1      46.469  27.396  37.285  1.00  0.00     0.060 A 
BRANCH  59  60
ATOM     60  S   UNL A   1      47.811  26.438  38.028  1.00  0.00     0.124 S 
ATOM     61  O   UNL A   1      47.382  25.075  37.739  1.00  0.00    -0.237 OA
ATOM     62  O   UNL A   1      48.993  26.889  37.303  1.00  0.00    -0.237 OA
ATOM     63  O   UNL A   1      47.741  26.841  39.431  1.00  0.00    -0.744 OA
ENDBRANCH  59  60
ENDBRANCH  27  52
BRANCH  39  64
ATOM     64  C   UNL A   1      39.978  34.045  37.280  1.00  0.00     0.058 A 
ATOM     65  C   UNL A   1      39.163  33.807  38.396  1.00  0.00     0.135 A 
ATOM     66  C   UNL A   1      40.808  35.176  37.295  1.00  0.00     0.135 A 
ATOM     67  F   UNL A   1      38.349  32.739  38.427  1.00  0.00    -0.206 F 
ATOM     68  C   UNL A   1      39.171  34.661  39.492  1.00  0.00     0.059 A 
ATOM     69  C   UNL A   1      40.853  36.028  38.392  1.00  0.00     0.059 A 
ATOM     70  F   UNL A   1      41.616  35.436  36.255  1.00  0.00    -0.206 F 
ATOM     71  C   UNL A   1      40.029  35.763  39.486  1.00  0.00     0.060 A 
BRANCH  71  72
ATOM     72  S   UNL A   1      40.087  36.818  40.949  1.00  0.00     0.124 S 
ATOM     73  O   UNL A   1      40.600  35.896  41.956  1.00  0.00    -0.237 OA
ATOM     74  O   UNL A   1      41.002  37.877  40.533  1.00  0.00    -0.237 OA
ATOM     75  O   UNL A   1      38.698  37.231  41.124  1.00  0.00    -0.744 OA
ENDBRANCH  71  72
ENDBRANCH  39  64
ENDBRANCH  13  14
ENDBRANCH   6   8
ENDBRANCH   5   6
ENDBRANCH   4   5
ENDBRANCH   3   4
ENDBRANCH   2   3
ENDBRANCH   1   2
BRANCH   1  76
ATOM     76  C   UNL A   1      39.728  20.938  26.131  1.00  0.00     0.188 C 
BRANCH  76  77
ATOM     77  O   UNL A   1      38.896  22.091  25.995  1.00  0.00    -0.376 OA
BRANCH  77  78
ATOM     78  C   UNL A   1      37.778  22.008  25.121  1.00  0.00     0.202 C 
BRANCH  78  79
ATOM     79  C   UNL A   1      36.386  21.966  25.755  1.00  0.00     0.261 C 
BRANCH  79  80
ATOM     80  O   UNL A   1      35.646  20.785  25.436  1.00  0.00    -0.463 OA
BRANCH  80  81
ATOM     81  C   UNL A   1      34.297  20.896  25.575  1.00  0.00     0.313 C 
ATOM     82  O   UNL A   1      33.730  21.105  26.638  1.00  0.00    -0.252 OA
BRANCH  81  83
ATOM     83  C   UNL A   1      33.552  20.766  24.252  1.00  0.00     0.133 C 
BRANCH  83  84
ATOM     84  C   UNL A   1      32.488  19.656  24.154  1.00  0.00     0.055 C 
BRANCH  84  85
ATOM     85  C   UNL A   1      32.866  18.205  24.362  1.00  0.00    -0.044 A 
ATOM     86  C   UNL A   1      33.621  17.498  23.421  1.00  0.00     0.024 A 
ATOM     87  C   UNL A   1      32.538  17.547  25.548  1.00  0.00     0.024 A 
ATOM     88  C   UNL A   1      34.001  16.193  23.695  1.00  0.00     0.111 A 
ATOM     89  C   UNL A   1      32.972  16.243  25.742  1.00  0.00     0.111 A 
ATOM     90  N   UNL A   1      33.684  15.546  24.837  1.00  0.00    -0.265 NA
ENDBRANCH  84  85
ENDBRANCH  83  84
BRANCH  83  91
ATOM     91  C   UNL A   1      33.075  22.122  23.772  1.00  0.00    -0.033 A 
ATOM     92  C   UNL A   1      31.752  22.541  23.981  1.00  0.00     0.006 A 
ATOM     93  C   UNL A   1      33.958  22.967  23.079  1.00  0.00     0.006 A 
ATOM     94  C   UNL A   1      31.320  23.775  23.490  1.00  0.00     0.021 A 
ATOM     95  C   UNL A   1      33.535  24.205  22.615  1.00  0.00     0.021 A 
ATOM     96  C   UNL A   1      32.213  24.594  22.801  1.00  0.00     0.041 A 
ATOM     97  Cl  UNL A   1      31.688  26.072  22.114  1.00  0.00    -0.084 Cl
ENDBRANCH  83  91
ENDBRANCH  81  83
ENDBRANCH  80  81
ENDBRANCH  79  80
ENDBRANCH  78  79
ENDBRANCH  77  78
ENDBRANCH  76  77
ENDBRANCH   1  76
TORSDOF 23
ENDMDL
MODEL 3
REMARK VINA RESULT:      -9.5      3.423      9.831
REMARK SMILES O=C(OCCOCCOCCOC(=O)[C@@H](Cc1ccncc1)c1ccc(Cl)cc1)c1ccc(-c2c3nc(c(-c4c(F)cc(S(=O)(=O)[O-])cc4F)c4ccc([nH]4)c(-c4c(F)cc(S(=O)(=O)[O-])cc4F)c4nc(c(-c5c(F)cc(S(=O)(=O)[O-])cc5F)c5ccc2[nH]5)C=C4)C=C3)cc1
REMARK SMILES IDX 7 1 6 2 5 3 4 4 3 5 2 6 1 7 30 8 31 9 95 10 32 11 94 12
REMARK SMILES IDX 33 13 34 14 35 15 88 16 36 17 93 18 87 19 89 20 37 21 92 22
REMARK SMILES IDX 86 23 85 24 38 26 72 27 51 28 71 29 52 30 55 31 70 32 90 33
REMARK SMILES IDX 53 34 54 35 69 37 91 38 56 39 39 40 40 41 49 42 41 43 42 44
REMARK SMILES IDX 48 45 50 46 43 47 44 48 45 49 46 50 47 51 73 52 74 53 83 54
REMARK SMILES IDX 75 55 76 56 82 57 84 58 77 59 78 60 79 61 80 62 81 63 57 64
REMARK SMILES IDX 58 65 67 66 59 67 60 68 66 69 68 70 61 71 62 72 63 73 64 74
REMARK SMILES IDX 65 75 8 76 9 77 10 78 11 79 12 80 13 81 14 82 15 83 16 84
REMARK SMILES IDX 17 85 18 86 22 87 19 88 21 89 20 90 23 91 24 92 29 93 25 94
REMARK SMILES IDX 28 95 26 96 27 97
REMARK H PARENT 89 25 55 36
REMARK Flexibility Score: inf
ROOT
ATOM      1  C   UNL A   1      33.961  22.518  24.026  1.00  0.00     0.188 C 
ENDROOT
BRANCH   1   2
ATOM      2  O   UNL A   1      34.892  22.281  25.092  1.00  0.00    -0.376 OA
BRANCH   2   3
ATOM      3  C   UNL A   1      35.617  21.056  24.957  1.00  0.00     0.202 C 
BRANCH   3   4
ATOM      4  C   UNL A   1      37.149  21.168  24.880  1.00  0.00     0.261 C 
BRANCH   4   5
ATOM      5  O   UNL A   1      37.734  21.965  25.921  1.00  0.00    -0.460 OA
BRANCH   5   6
ATOM      6  C   UNL A   1      39.026  22.058  26.321  1.00  0.00     0.338 C 
ATOM      7  O   UNL A   1      39.704  21.030  26.287  1.00  0.00    -0.246 OA
BRANCH   6   8
ATOM      8  C   UNL A   1      39.676  23.302  26.858  1.00  0.00     0.060 A 
ATOM      9  C   UNL A   1      40.669  23.345  27.833  1.00  0.00     0.016 A 
ATOM     10  C   UNL A   1      39.278  24.531  26.286  1.00  0.00     0.016 A 
ATOM     11  C   UNL A   1      41.243  24.549  28.231  1.00  0.00     0.010 A 
ATOM     12  C   UNL A   1      39.852  25.750  26.681  1.00  0.00     0.010 A 
ATOM     13  C   UNL A   1      40.841  25.758  27.662  1.00  0.00    -0.014 A 
BRANCH  13  14
ATOM     14  C   UNL A   1      41.429  26.986  28.235  1.00  0.00     0.031 A 
ATOM     15  C   UNL A   1      42.862  27.280  27.927  1.00  0.00     0.074 A 
ATOM     16  C   UNL A   1      40.640  27.892  28.843  1.00  0.00     0.049 A 
ATOM     17  N   UNL A   1      43.567  28.328  28.243  1.00  0.00    -0.248 NA
ATOM     18  C   UNL A   1      43.600  26.254  27.170  1.00  0.00     0.031 C 
ATOM     19  C   UNL A   1      39.228  27.687  29.133  1.00  0.00     0.029 A 
ATOM     20  N   UNL A   1      40.877  29.177  29.257  1.00  0.00    -0.354 N 
ATOM     21  C   UNL A   1      44.851  28.054  27.799  1.00  0.00     0.074 A 
ATOM     22  C   UNL A   1      44.812  26.785  27.110  1.00  0.00     0.031 C 
ATOM     23  C   UNL A   1      38.689  28.843  29.555  1.00  0.00     0.029 A 
ATOM     24  C   UNL A   1      39.742  29.846  29.669  1.00  0.00     0.049 A 
ATOM     25  H   UNL A   1      41.773  29.585  29.260  1.00  0.00     0.167 HD
ATOM     26  C   UNL A   1      45.971  28.771  28.033  1.00  0.00     0.037 A 
ATOM     27  C   UNL A   1      39.591  31.113  30.111  1.00  0.00     0.037 A 
ATOM     28  C   UNL A   1      45.970  30.014  28.752  1.00  0.00     0.049 A 
ATOM     29  C   UNL A   1      40.858  31.912  30.323  1.00  0.00     0.074 A 
ATOM     30  C   UNL A   1      47.047  30.788  29.135  1.00  0.00     0.029 A 
ATOM     31  N   UNL A   1      44.825  30.658  29.208  1.00  0.00    -0.354 N 
ATOM     32  N   UNL A   1      42.088  31.616  29.967  1.00  0.00    -0.248 NA
ATOM     33  C   UNL A   1      40.740  33.168  31.077  1.00  0.00     0.031 C 
ATOM     34  C   UNL A   1      46.558  31.866  29.880  1.00  0.00     0.029 A 
ATOM     35  C   UNL A   1      45.172  31.801  29.902  1.00  0.00     0.049 A 
ATOM     36  H   UNL A   1      43.904  30.344  29.059  1.00  0.00     0.167 HD
ATOM     37  C   UNL A   1      42.893  32.616  30.502  1.00  0.00     0.074 A 
ATOM     38  C   UNL A   1      42.003  33.569  31.135  1.00  0.00     0.031 C 
ATOM     39  C   UNL A   1      44.245  32.718  30.518  1.00  0.00     0.037 A 
BRANCH  26  40
ATOM     40  C   UNL A   1      47.279  28.139  27.663  1.00  0.00     0.058 A 
ATOM     41  C   UNL A   1      47.843  28.248  26.386  1.00  0.00     0.135 A 
ATOM     42  C   UNL A   1      47.974  27.392  28.630  1.00  0.00     0.135 A 
ATOM     43  F   UNL A   1      47.196  28.907  25.413  1.00  0.00    -0.206 F 
ATOM     44  C   UNL A   1      49.055  27.635  26.078  1.00  0.00     0.059 A 
ATOM     45  C   UNL A   1      49.196  26.792  28.352  1.00  0.00     0.059 A 
ATOM     46  F   UNL A   1      47.459  27.233  29.860  1.00  0.00    -0.206 F 
ATOM     47  C   UNL A   1      49.725  26.915  27.070  1.00  0.00     0.060 A 
BRANCH  47  48
ATOM     48  S   UNL A   1      51.308  26.147  26.663  1.00  0.00     0.124 S 
ATOM     49  O   UNL A   1      51.073  24.764  27.067  1.00  0.00    -0.237 OA
ATOM     50  O   UNL A   1      51.404  26.380  25.226  1.00  0.00    -0.237 OA
ATOM     51  O   UNL A   1      52.265  26.885  27.482  1.00  0.00    -0.744 OA
ENDBRANCH  47  48
ENDBRANCH  26  40
BRANCH  27  52
ATOM     52  C   UNL A   1      38.258  31.669  30.514  1.00  0.00     0.058 A 
ATOM     53  C   UNL A   1      37.485  32.451  29.634  1.00  0.00     0.135 A 
ATOM     54  C   UNL A   1      37.759  31.504  31.817  1.00  0.00     0.135 A 
ATOM     55  F   UNL A   1      37.906  32.655  28.376  1.00  0.00    -0.206 F 
ATOM     56  C   UNL A   1      36.308  33.086  30.044  1.00  0.00     0.059 A 
ATOM     57  C   UNL A   1      36.566  32.085  32.234  1.00  0.00     0.059 A 
ATOM     58  F   UNL A   1      38.440  30.779  32.717  1.00  0.00    -0.206 F 
ATOM     59  C   UNL A   1      35.868  32.910  31.354  1.00  0.00     0.060 A 
BRANCH  59  60
ATOM     60  S   UNL A   1      34.402  33.773  31.966  1.00  0.00     0.124 S 
ATOM     61  O   UNL A   1      33.726  32.706  32.694  1.00  0.00    -0.237 OA
ATOM     62  O   UNL A   1      34.954  34.841  32.790  1.00  0.00    -0.237 OA
ATOM     63  O   UNL A   1      33.756  34.204  30.728  1.00  0.00    -0.744 OA
ENDBRANCH  59  60
ENDBRANCH  27  52
BRANCH  39  64
ATOM     64  C   UNL A   1      44.841  33.877  31.266  1.00  0.00     0.058 A 
ATOM     65  C   UNL A   1      45.024  35.122  30.646  1.00  0.00     0.135 A 
ATOM     66  C   UNL A   1      45.116  33.774  32.638  1.00  0.00     0.135 A 
ATOM     67  F   UNL A   1      44.777  35.268  29.334  1.00  0.00    -0.206 F 
ATOM     68  C   UNL A   1      45.464  36.228  31.361  1.00  0.00     0.059 A 
ATOM     69  C   UNL A   1      45.530  34.874  33.379  1.00  0.00     0.059 A 
ATOM     70  F   UNL A   1      44.942  32.607  33.277  1.00  0.00    -0.206 F 
ATOM     71  C   UNL A   1      45.703  36.097  32.731  1.00  0.00     0.060 A 
BRANCH  71  72
ATOM     72  S   UNL A   1      46.197  37.561  33.663  1.00  0.00     0.124 S 
ATOM     73  O   UNL A   1      47.621  37.641  33.353  1.00  0.00    -0.237 OA
ATOM     74  O   UNL A   1      45.360  38.602  33.076  1.00  0.00    -0.237 OA
ATOM     75  O   UNL A   1      45.874  37.210  35.043  1.00  0.00    -0.744 OA
ENDBRANCH  71  72
ENDBRANCH  39  64
ENDBRANCH  13  14
ENDBRANCH   6   8
ENDBRANCH   5   6
ENDBRANCH   4   5
ENDBRANCH   3   4
ENDBRANCH   2   3
ENDBRANCH   1   2
BRANCH   1  76
ATOM     76  C   UNL A   1      34.567  23.348  22.892  1.00  0.00     0.188 C 
BRANCH  76  77
ATOM     77  O   UNL A   1      33.643  24.024  22.035  1.00  0.00    -0.376 OA
BRANCH  77  78
ATOM     78  C   UNL A   1      33.297  25.366  22.353  1.00  0.00     0.202 C 
BRANCH  78  79
ATOM     79  C   UNL A   1      31.920  25.613  22.970  1.00  0.00     0.261 C 
BRANCH  79  80
ATOM     80  O   UNL A   1      31.390  26.912  22.689  1.00  0.00    -0.463 OA
BRANCH  80  81
ATOM     81  C   UNL A   1      30.653  27.462  23.692  1.00  0.00     0.313 C 
ATOM     82  O   UNL A   1      29.872  26.837  24.394  1.00  0.00    -0.252 OA
BRANCH  81  83
ATOM     83  C   UNL A   1      30.926  28.950  23.880  1.00  0.00     0.133 C 
BRANCH  83  84
ATOM     84  C   UNL A   1      29.704  29.865  24.089  1.00  0.00     0.055 C 
BRANCH  84  85
ATOM     85  C   UNL A   1      29.151  30.687  22.944  1.00  0.00    -0.044 A 
ATOM     86  C   UNL A   1      28.753  30.099  21.739  1.00  0.00     0.024 A 
ATOM     87  C   UNL A   1      28.943  32.059  23.088  1.00  0.00     0.024 A 
ATOM     88  C   UNL A   1      28.186  30.889  20.751  1.00  0.00     0.111 A 
ATOM     89  C   UNL A   1      28.358  32.769  22.050  1.00  0.00     0.111 A 
ATOM     90  N   UNL A   1      27.986  32.218  20.879  1.00  0.00    -0.265 NA
ENDBRANCH  84  85
ENDBRANCH  83  84
BRANCH  83  91
ATOM     91  C   UNL A   1      32.039  29.166  24.886  1.00  0.00    -0.033 A 
ATOM     92  C   UNL A   1      33.306  28.591  24.699  1.00  0.00     0.006 A 
ATOM     93  C   UNL A   1      31.797  29.926  26.042  1.00  0.00     0.006 A 
ATOM     94  C   UNL A   1      34.304  28.763  25.661  1.00  0.00     0.021 A 
ATOM     95  C   UNL A   1      32.798  30.119  26.984  1.00  0.00     0.021 A 
ATOM     96  C   UNL A   1      34.039  29.518  26.802  1.00  0.00     0.041 A 
ATOM     97  Cl  UNL A   1      35.215  29.674  28.037  1.00  0.00    -0.084 Cl
ENDBRANCH  83  91
ENDBRANCH  81  83
ENDBRANCH  80  81
ENDBRANCH  79  80
ENDBRANCH  78  79
ENDBRANCH  77  78
ENDBRANCH  76  77
ENDBRANCH   1  76
TORSDOF 23
ENDMDL
