MODEL 1
REMARK VINA RESULT:     -10.5      0.000      0.000
REMARK SMILES Cc1ccccc1-n1nc(Cl)c(C(=O)OCCOCCOCCOC(=O)c2ccc(-c3c4nc(c(-c5c(F)cc(S(=O)(=O)[O-])cc5F)c5ccc([nH]5)c(-c5c(F)cc(S(=O)(=O)[O-])cc5F)c5nc(c(-c6c(F)cc(S(=O)(=O)[O-])cc6F)c6ccc3[nH]6)C=C5)C=C4)cc2)n1
REMARK SMILES IDX 20 1 19 2 18 3 17 4 16 5 15 6 13 7 14 8 12 9 8 10 9 11 93 12
REMARK SMILES IDX 10 13 11 14 7 15 1 16 2 17 3 18 4 19 6 20 5 21 21 22 22 23
REMARK SMILES IDX 23 24 24 25 25 26 26 27 27 28 28 29 92 30 29 31 91 32 30 33
REMARK SMILES IDX 31 34 32 35 85 36 33 37 90 38 84 39 86 40 34 41 89 42 83 43
REMARK SMILES IDX 82 44 35 46 69 47 48 48 68 49 49 50 52 51 67 52 87 53 50 54
REMARK SMILES IDX 51 55 66 57 88 58 53 59 36 60 37 61 46 62 38 63 39 64 45 65
REMARK SMILES IDX 47 66 40 67 41 68 42 69 43 70 44 71 70 72 71 73 80 74 72 75
REMARK SMILES IDX 73 76 79 77 81 78 74 79 75 80 76 81 77 82 78 83 54 84 55 85
REMARK SMILES IDX 64 86 56 87 57 88 63 89 65 90 58 91 59 92 60 93 61 94 62 95
REMARK H PARENT 86 45 52 56
REMARK Flexibility Score: inf
ROOT
ATOM      1  C   UNL A   1      37.669  34.613  32.907  1.00  0.00     0.188 C 
ENDROOT
BRANCH   1   2
ATOM      2  C   UNL A   1      38.561  34.029  31.816  1.00  0.00     0.188 C 
BRANCH   2   3
ATOM      3  O   UNL A   1      38.705  34.643  30.515  1.00  0.00    -0.376 OA
BRANCH   3   4
ATOM      4  C   UNL A   1      39.850  34.502  29.663  1.00  0.00     0.202 C 
BRANCH   4   5
ATOM      5  C   UNL A   1      41.252  33.672  30.028  1.00  0.00     0.261 C 
BRANCH   5   6
ATOM      6  O   UNL A   1      42.921  33.879  29.534  1.00  0.00    -0.458 OA
BRANCH   6   7
ATOM      7  C   UNL A   1      43.813  34.837  28.847  1.00  0.00     0.362 C 
ATOM      8  O   UNL A   1      44.150  35.952  29.205  1.00  0.00    -0.244 OA
BRANCH   7   9
ATOM      9  C   UNL A   1      44.492  34.519  27.602  1.00  0.00     0.209 A 
ATOM     10  N   UNL A   1      46.323  34.291  26.650  1.00  0.00    -0.149 N 
ATOM     11  N   UNL A   1      45.733  33.156  26.256  1.00  0.00    -0.135 NA
ATOM     12  N   UNL A   1      45.540  35.254  27.198  1.00  0.00    -0.139 NA
ATOM     13  C   UNL A   1      44.669  33.183  27.065  1.00  0.00     0.186 A 
ATOM     14  Cl  UNL A   1      43.987  31.685  27.478  1.00  0.00    -0.057 Cl
BRANCH  10  15
ATOM     15  C   UNL A   1      47.683  34.521  26.459  1.00  0.00     0.089 A 
ATOM     16  C   UNL A   1      48.263  33.776  28.847  1.00  0.00     0.047 C 
ATOM     17  C   UNL A   1      48.557  34.511  27.561  1.00  0.00    -0.023 A 
ATOM     18  C   UNL A   1      49.763  35.192  27.416  1.00  0.00     0.006 A 
ATOM     19  C   UNL A   1      50.090  35.797  26.198  1.00  0.00     0.000 A 
ATOM     20  C   UNL A   1      48.049  35.001  25.201  1.00  0.00     0.030 A 
ATOM     21  C   UNL A   1      49.258  35.665  25.083  1.00  0.00     0.002 A 
ENDBRANCH  10  15
ENDBRANCH   7   9
ENDBRANCH   6   7
ENDBRANCH   5   6
ENDBRANCH   4   5
ENDBRANCH   3   4
ENDBRANCH   2   3
ENDBRANCH   1   2
BRANCH   1  22
ATOM     22  O   UNL A   1      36.599  33.728  33.166  1.00  0.00    -0.376 OA
BRANCH  22  23
ATOM     23  C   UNL A   1      36.462  32.626  32.300  1.00  0.00     0.202 C 
BRANCH  23  24
ATOM     24  C   UNL A   1      35.212  32.722  31.415  1.00  0.00     0.261 C 
BRANCH  24  25
ATOM     25  O   UNL A   1      34.922  31.475  30.732  1.00  0.00    -0.460 OA
BRANCH  25  26
ATOM     26  C   UNL A   1      35.374  31.315  29.422  1.00  0.00     0.338 C 
ATOM     27  O   UNL A   1      35.080  32.071  28.549  1.00  0.00    -0.246 OA
BRANCH  26  28
ATOM     28  C   UNL A   1      36.405  30.204  29.361  1.00  0.00     0.060 A 
ATOM     29  C   UNL A   1      36.971  29.426  30.380  1.00  0.00     0.016 A 
ATOM     30  C   UNL A   1      36.996  30.052  28.165  1.00  0.00     0.016 A 
ATOM     31  C   UNL A   1      38.241  28.675  30.211  1.00  0.00     0.010 A 
ATOM     32  C   UNL A   1      38.305  29.577  28.175  1.00  0.00     0.010 A 
ATOM     33  C   UNL A   1      39.034  28.745  29.059  1.00  0.00    -0.014 A 
BRANCH  33  34
ATOM     34  C   UNL A   1      40.610  28.138  28.829  1.00  0.00     0.031 A 
ATOM     35  C   UNL A   1      41.267  26.685  28.129  1.00  0.00     0.074 A 
ATOM     36  C   UNL A   1      41.604  28.856  29.400  1.00  0.00     0.049 A 
ATOM     37  N   UNL A   1      42.118  25.876  28.741  1.00  0.00    -0.248 NA
ATOM     38  C   UNL A   1      40.903  25.973  26.831  1.00  0.00     0.031 C 
ATOM     39  C   UNL A   1      43.044  28.640  29.279  1.00  0.00     0.029 A 
ATOM     40  N   UNL A   1      41.493  29.916  30.305  1.00  0.00    -0.354 N 
ATOM     41  C   UNL A   1      42.322  24.721  27.947  1.00  0.00     0.074 A 
ATOM     42  C   UNL A   1      41.425  24.769  26.869  1.00  0.00     0.031 C 
ATOM     43  C   UNL A   1      43.665  29.324  30.253  1.00  0.00     0.029 A 
ATOM     44  C   UNL A   1      42.641  29.903  31.106  1.00  0.00     0.049 A 
ATOM     45  H   UNL A   1      40.746  30.554  30.368  1.00  0.00     0.167 HD
ATOM     46  C   UNL A   1      43.346  23.828  28.021  1.00  0.00     0.037 A 
ATOM     47  C   UNL A   1      42.541  29.769  32.457  1.00  0.00     0.037 A 
ATOM     48  C   UNL A   1      44.305  24.325  28.956  1.00  0.00     0.049 A 
ATOM     49  C   UNL A   1      43.227  28.518  32.947  1.00  0.00     0.074 A 
ATOM     50  C   UNL A   1      45.293  25.278  28.786  1.00  0.00     0.029 A 
ATOM     51  N   UNL A   1      44.002  24.274  30.300  1.00  0.00    -0.354 N 
ATOM     52  N   UNL A   1      43.576  27.525  32.173  1.00  0.00    -0.248 NA
ATOM     53  C   UNL A   1      43.596  28.293  34.341  1.00  0.00     0.031 C 
ATOM     54  C   UNL A   1      45.490  25.905  30.040  1.00  0.00     0.029 A 
ATOM     55  C   UNL A   1      44.696  25.260  30.971  1.00  0.00     0.049 A 
ATOM     56  H   UNL A   1      43.385  23.631  30.718  1.00  0.00     0.167 HD
ATOM     57  C   UNL A   1      44.155  26.542  32.927  1.00  0.00     0.074 A 
ATOM     58  C   UNL A   1      44.167  27.078  34.273  1.00  0.00     0.031 C 
ATOM     59  C   UNL A   1      44.575  25.355  32.408  1.00  0.00     0.037 A 
BRANCH  46  60
ATOM     60  C   UNL A   1      43.573  22.827  26.887  1.00  0.00     0.058 A 
ATOM     61  C   UNL A   1      42.883  21.602  26.853  1.00  0.00     0.135 A 
ATOM     62  C   UNL A   1      44.594  22.964  25.909  1.00  0.00     0.135 A 
ATOM     63  F   UNL A   1      41.860  21.368  27.685  1.00  0.00    -0.206 F 
ATOM     64  C   UNL A   1      43.252  20.549  26.006  1.00  0.00     0.059 A 
ATOM     65  C   UNL A   1      45.019  21.903  25.092  1.00  0.00     0.059 A 
ATOM     66  F   UNL A   1      45.279  24.115  25.798  1.00  0.00    -0.206 F 
ATOM     67  C   UNL A   1      44.345  20.689  25.157  1.00  0.00     0.060 A 
BRANCH  67  68
ATOM     68  S   UNL A   1      44.908  19.252  24.209  1.00  0.00     0.124 S 
ATOM     69  O   UNL A   1      46.356  19.296  24.395  1.00  0.00    -0.237 OA
ATOM     70  O   UNL A   1      44.216  18.157  24.880  1.00  0.00    -0.237 OA
ATOM     71  O   UNL A   1      44.457  19.543  22.850  1.00  0.00    -0.744 OA
ENDBRANCH  67  68
ENDBRANCH  46  60
BRANCH  47  72
ATOM     72  C   UNL A   1      41.351  30.456  33.047  1.00  0.00     0.058 A 
ATOM     73  C   UNL A   1      40.239  29.648  33.375  1.00  0.00     0.135 A 
ATOM     74  C   UNL A   1      41.390  31.735  33.619  1.00  0.00     0.135 A 
ATOM     75  F   UNL A   1      40.125  28.418  32.846  1.00  0.00    -0.206 F 
ATOM     76  C   UNL A   1      39.303  30.020  34.336  1.00  0.00     0.059 A 
ATOM     77  C   UNL A   1      40.445  32.139  34.579  1.00  0.00     0.059 A 
ATOM     78  F   UNL A   1      42.422  32.553  33.366  1.00  0.00    -0.206 F 
ATOM     79  C   UNL A   1      39.446  31.246  34.974  1.00  0.00     0.060 A 
BRANCH  79  80
ATOM     80  S   UNL A   1      38.411  31.538  36.434  1.00  0.00     0.124 S 
ATOM     81  O   UNL A   1      39.319  32.259  37.317  1.00  0.00    -0.237 OA
ATOM     82  O   UNL A   1      37.326  32.335  35.860  1.00  0.00    -0.237 OA
ATOM     83  O   UNL A   1      38.049  30.191  36.862  1.00  0.00    -0.744 OA
ENDBRANCH  79  80
ENDBRANCH  47  72
BRANCH  59  84
ATOM     84  C   UNL A   1      44.980  24.159  33.218  1.00  0.00     0.058 A 
ATOM     85  C   UNL A   1      46.300  23.927  33.627  1.00  0.00     0.135 A 
ATOM     86  C   UNL A   1      43.994  23.298  33.757  1.00  0.00     0.135 A 
ATOM     87  F   UNL A   1      47.294  24.754  33.266  1.00  0.00    -0.206 F 
ATOM     88  C   UNL A   1      46.639  22.857  34.450  1.00  0.00     0.059 A 
ATOM     89  C   UNL A   1      44.302  22.264  34.630  1.00  0.00     0.059 A 
ATOM     90  F   UNL A   1      42.694  23.447  33.461  1.00  0.00    -0.206 F 
ATOM     91  C   UNL A   1      45.633  22.027  34.939  1.00  0.00     0.060 A 
BRANCH  91  92
ATOM     92  S   UNL A   1      46.049  20.632  35.994  1.00  0.00     0.124 S 
ATOM     93  O   UNL A   1      45.207  19.584  35.423  1.00  0.00    -0.237 OA
ATOM     94  O   UNL A   1      47.484  20.472  35.780  1.00  0.00    -0.237 OA
ATOM     95  O   UNL A   1      45.667  21.099  37.322  1.00  0.00    -0.744 OA
ENDBRANCH  91  92
ENDBRANCH  59  84
ENDBRANCH  33  34
ENDBRANCH  26  28
ENDBRANCH  25  26
ENDBRANCH  24  25
ENDBRANCH  23  24
ENDBRANCH  22  23
ENDBRANCH   1  22
TORSDOF 21
ENDMDL
MODEL 2
REMARK VINA RESULT:     -10.4      5.634     13.970
REMARK SMILES Cc1ccccc1-n1nc(Cl)c(C(=O)OCCOCCOCCOC(=O)c2ccc(-c3c4nc(c(-c5c(F)cc(S(=O)(=O)[O-])cc5F)c5ccc([nH]5)c(-c5c(F)cc(S(=O)(=O)[O-])cc5F)c5nc(c(-c6c(F)cc(S(=O)(=O)[O-])cc6F)c6ccc3[nH]6)C=C5)C=C4)cc2)n1
REMARK SMILES IDX 20 1 19 2 18 3 17 4 16 5 15 6 13 7 14 8 12 9 8 10 9 11 93 12
REMARK SMILES IDX 10 13 11 14 7 15 1 16 2 17 3 18 4 19 6 20 5 21 21 22 22 23
REMARK SMILES IDX 23 24 24 25 25 26 26 27 27 28 28 29 92 30 29 31 91 32 30 33
REMARK SMILES IDX 31 34 32 35 85 36 33 37 90 38 84 39 86 40 34 41 89 42 83 43
REMARK SMILES IDX 82 44 35 46 69 47 48 48 68 49 49 50 52 51 67 52 87 53 50 54
REMARK SMILES IDX 51 55 66 57 88 58 53 59 36 60 37 61 46 62 38 63 39 64 45 65
REMARK SMILES IDX 47 66 40 67 41 68 42 69 43 70 44 71 70 72 71 73 80 74 72 75
REMARK SMILES IDX 73 76 79 77 81 78 74 79 75 80 76 81 77 82 78 83 54 84 55 85
REMARK SMILES IDX 64 86 56 87 57 88 63 89 65 90 58 91 59 92 60 93 61 94 62 95
REMARK H PARENT 86 45 52 56
REMARK Flexibility Score: inf
ROOT
ATOM      1  C   UNL A   1      40.049  22.197  26.611  1.00  0.00     0.188 C 
ENDROOT
BRANCH   1   2
ATOM      2  C   UNL A   1      39.039  21.513  25.694  1.00  0.00     0.188 C 
BRANCH   2   3
ATOM      3  O   UNL A   1      37.638  21.395  26.028  1.00  0.00    -0.376 OA
BRANCH   3   4
ATOM      4  C   UNL A   1      36.644  22.395  25.764  1.00  0.00     0.202 C 
BRANCH   4   5
ATOM      5  C   UNL A   1      35.039  22.329  26.218  1.00  0.00     0.261 C 
BRANCH   5   6
ATOM      6  O   UNL A   1      33.654  23.339  25.848  1.00  0.00    -0.458 OA
BRANCH   6   7
ATOM      7  C   UNL A   1      32.258  23.583  26.264  1.00  0.00     0.362 C 
ATOM      8  O   UNL A   1      31.771  23.498  27.378  1.00  0.00    -0.244 OA
BRANCH   7   9
ATOM      9  C   UNL A   1      31.235  24.045  25.341  1.00  0.00     0.209 A 
ATOM     10  N   UNL A   1      30.559  25.620  24.168  1.00  0.00    -0.149 N 
ATOM     11  N   UNL A   1      30.488  24.634  23.266  1.00  0.00    -0.135 NA
ATOM     12  N   UNL A   1      30.713  25.275  25.471  1.00  0.00    -0.139 NA
ATOM     13  C   UNL A   1      31.155  23.690  23.937  1.00  0.00     0.186 A 
ATOM     14  Cl  UNL A   1      31.955  22.515  23.008  1.00  0.00    -0.057 Cl
BRANCH  10  15
ATOM     15  C   UNL A   1      30.421  26.958  23.811  1.00  0.00     0.089 A 
ATOM     16  C   UNL A   1      27.858  26.838  23.899  1.00  0.00     0.047 C 
ATOM     17  C   UNL A   1      29.158  27.461  23.450  1.00  0.00    -0.023 A 
ATOM     18  C   UNL A   1      29.137  28.613  22.667  1.00  0.00     0.006 A 
ATOM     19  C   UNL A   1      30.332  29.254  22.322  1.00  0.00     0.000 A 
ATOM     20  C   UNL A   1      31.609  27.656  23.591  1.00  0.00     0.030 A 
ATOM     21  C   UNL A   1      31.559  28.804  22.819  1.00  0.00     0.002 A 
ENDBRANCH  10  15
ENDBRANCH   7   9
ENDBRANCH   6   7
ENDBRANCH   5   6
ENDBRANCH   4   5
ENDBRANCH   3   4
ENDBRANCH   2   3
ENDBRANCH   1   2
BRANCH   1  22
ATOM     22  O   UNL A   1      41.086  21.292  26.930  1.00  0.00    -0.376 OA
BRANCH  22  23
ATOM     23  C   UNL A   1      42.218  21.305  26.095  1.00  0.00     0.202 C 
BRANCH  23  24
ATOM     24  C   UNL A   1      42.507  22.696  25.513  1.00  0.00     0.261 C 
BRANCH  24  25
ATOM     25  O   UNL A   1      43.928  22.981  25.443  1.00  0.00    -0.460 OA
BRANCH  25  26
ATOM     26  C   UNL A   1      44.553  23.515  26.569  1.00  0.00     0.338 C 
ATOM     27  O   UNL A   1      45.581  23.083  26.993  1.00  0.00    -0.246 OA
BRANCH  26  28
ATOM     28  C   UNL A   1      43.849  24.788  27.000  1.00  0.00     0.060 A 
ATOM     29  C   UNL A   1      43.870  26.075  26.448  1.00  0.00     0.016 A 
ATOM     30  C   UNL A   1      43.241  24.714  28.195  1.00  0.00     0.016 A 
ATOM     31  C   UNL A   1      43.461  27.284  27.207  1.00  0.00     0.010 A 
ATOM     32  C   UNL A   1      43.161  25.898  28.924  1.00  0.00     0.010 A 
ATOM     33  C   UNL A   1      43.106  27.266  28.561  1.00  0.00    -0.014 A 
BRANCH  33  34
ATOM     34  C   UNL A   1      42.855  28.593  29.600  1.00  0.00     0.031 A 
ATOM     35  C   UNL A   1      41.464  29.531  30.066  1.00  0.00     0.074 A 
ATOM     36  C   UNL A   1      43.973  29.151  30.119  1.00  0.00     0.049 A 
ATOM     37  N   UNL A   1      41.390  30.852  29.991  1.00  0.00    -0.248 NA
ATOM     38  C   UNL A   1      40.064  29.076  30.461  1.00  0.00     0.031 C 
ATOM     39  C   UNL A   1      44.059  30.217  31.115  1.00  0.00     0.029 A 
ATOM     40  N   UNL A   1      45.304  28.903  29.769  1.00  0.00    -0.354 N 
ATOM     41  C   UNL A   1      40.072  31.267  30.302  1.00  0.00     0.074 A 
ATOM     42  C   UNL A   1      39.271  30.121  30.421  1.00  0.00     0.031 C 
ATOM     43  C   UNL A   1      45.304  30.718  31.101  1.00  0.00     0.029 A 
ATOM     44  C   UNL A   1      46.025  30.076  30.016  1.00  0.00     0.049 A 
ATOM     45  H   UNL A   1      45.667  28.060  29.415  1.00  0.00     0.167 HD
ATOM     46  C   UNL A   1      39.655  32.507  30.675  1.00  0.00     0.037 A 
ATOM     47  C   UNL A   1      46.697  30.701  29.009  1.00  0.00     0.037 A 
ATOM     48  C   UNL A   1      40.808  33.329  30.860  1.00  0.00     0.049 A 
ATOM     49  C   UNL A   1      46.171  32.094  28.766  1.00  0.00     0.074 A 
ATOM     50  C   UNL A   1      41.670  33.413  31.940  1.00  0.00     0.029 A 
ATOM     51  N   UNL A   1      41.494  33.763  29.746  1.00  0.00    -0.354 N 
ATOM     52  N   UNL A   1      45.023  32.530  29.212  1.00  0.00    -0.248 NA
ATOM     53  C   UNL A   1      46.903  33.115  28.023  1.00  0.00     0.031 C 
ATOM     54  C   UNL A   1      42.940  33.779  31.435  1.00  0.00     0.029 A 
ATOM     55  C   UNL A   1      42.811  34.010  30.076  1.00  0.00     0.049 A 
ATOM     56  H   UNL A   1      41.104  33.880  28.850  1.00  0.00     0.167 HD
ATOM     57  C   UNL A   1      44.837  33.822  28.803  1.00  0.00     0.074 A 
ATOM     58  C   UNL A   1      46.050  34.151  28.083  1.00  0.00     0.031 C 
ATOM     59  C   UNL A   1      43.706  34.532  29.069  1.00  0.00     0.037 A 
BRANCH  46  60
ATOM     60  C   UNL A   1      38.261  32.697  31.275  1.00  0.00     0.058 A 
ATOM     61  C   UNL A   1      37.176  33.096  30.474  1.00  0.00     0.135 A 
ATOM     62  C   UNL A   1      37.993  32.668  32.670  1.00  0.00     0.135 A 
ATOM     63  F   UNL A   1      37.279  33.111  29.139  1.00  0.00    -0.206 F 
ATOM     64  C   UNL A   1      35.964  33.547  31.011  1.00  0.00     0.059 A 
ATOM     65  C   UNL A   1      36.809  33.172  33.233  1.00  0.00     0.059 A 
ATOM     66  F   UNL A   1      38.931  32.240  33.533  1.00  0.00    -0.206 F 
ATOM     67  C   UNL A   1      35.799  33.623  32.391  1.00  0.00     0.060 A 
BRANCH  67  68
ATOM     68  S   UNL A   1      34.293  34.380  33.054  1.00  0.00     0.124 S 
ATOM     69  O   UNL A   1      34.754  34.945  34.320  1.00  0.00    -0.237 OA
ATOM     70  O   UNL A   1      33.958  35.346  32.014  1.00  0.00    -0.237 OA
ATOM     71  O   UNL A   1      33.375  33.252  33.187  1.00  0.00    -0.744 OA
ENDBRANCH  67  68
ENDBRANCH  46  60
BRANCH  47  72
ATOM     72  C   UNL A   1      47.308  29.763  28.018  1.00  0.00     0.058 A 
ATOM     73  C   UNL A   1      48.478  29.079  28.415  1.00  0.00     0.135 A 
ATOM     74  C   UNL A   1      46.628  29.252  26.903  1.00  0.00     0.135 A 
ATOM     75  F   UNL A   1      49.193  29.526  29.462  1.00  0.00    -0.206 F 
ATOM     76  C   UNL A   1      48.867  27.870  27.846  1.00  0.00     0.059 A 
ATOM     77  C   UNL A   1      47.012  28.041  26.300  1.00  0.00     0.059 A 
ATOM     78  F   UNL A   1      45.500  29.838  26.477  1.00  0.00    -0.206 F 
ATOM     79  C   UNL A   1      48.095  27.329  26.824  1.00  0.00     0.060 A 
BRANCH  79  80
ATOM     80  S   UNL A   1      48.446  25.615  26.349  1.00  0.00     0.124 S 
ATOM     81  O   UNL A   1      47.415  25.353  25.352  1.00  0.00    -0.237 OA
ATOM     82  O   UNL A   1      49.808  25.737  25.827  1.00  0.00    -0.237 OA
ATOM     83  O   UNL A   1      48.312  24.886  27.605  1.00  0.00    -0.744 OA
ENDBRANCH  79  80
ENDBRANCH  47  72
BRANCH  59  84
ATOM     84  C   UNL A   1      43.348  35.846  28.439  1.00  0.00     0.058 A 
ATOM     85  C   UNL A   1      42.851  35.955  27.134  1.00  0.00     0.135 A 
ATOM     86  C   UNL A   1      43.333  37.027  29.219  1.00  0.00     0.135 A 
ATOM     87  F   UNL A   1      42.714  34.874  26.351  1.00  0.00    -0.206 F 
ATOM     88  C   UNL A   1      42.444  37.174  26.601  1.00  0.00     0.059 A 
ATOM     89  C   UNL A   1      42.872  38.240  28.728  1.00  0.00     0.059 A 
ATOM     90  F   UNL A   1      43.755  37.033  30.494  1.00  0.00    -0.206 F 
ATOM     91  C   UNL A   1      42.467  38.312  27.403  1.00  0.00     0.060 A 
BRANCH  91  92
ATOM     92  S   UNL A   1      41.958  39.900  26.731  1.00  0.00     0.124 S 
ATOM     93  O   UNL A   1      43.176  40.319  26.042  1.00  0.00    -0.237 OA
ATOM     94  O   UNL A   1      40.835  39.549  25.868  1.00  0.00    -0.237 OA
ATOM     95  O   UNL A   1      41.610  40.665  27.924  1.00  0.00    -0.744 OA
ENDBRANCH  91  92
ENDBRANCH  59  84
ENDBRANCH  33  34
ENDBRANCH  26  28
ENDBRANCH  25  26
ENDBRANCH  24  25
ENDBRANCH  23  24
ENDBRANCH  22  23
ENDBRANCH   1  22
TORSDOF 21
ENDMDL
MODEL 3
REMARK VINA RESULT:     -10.3      1.384      2.072
REMARK SMILES Cc1ccccc1-n1nc(Cl)c(C(=O)OCCOCCOCCOC(=O)c2ccc(-c3c4nc(c(-c5c(F)cc(S(=O)(=O)[O-])cc5F)c5ccc([nH]5)c(-c5c(F)cc(S(=O)(=O)[O-])cc5F)c5nc(c(-c6c(F)cc(S(=O)(=O)[O-])cc6F)c6ccc3[nH]6)C=C5)C=C4)cc2)n1
REMARK SMILES IDX 20 1 19 2 18 3 17 4 16 5 15 6 13 7 14 8 12 9 8 10 9 11 93 12
REMARK SMILES IDX 10 13 11 14 7 15 1 16 2 17 3 18 4 19 6 20 5 21 21 22 22 23
REMARK SMILES IDX 23 24 24 25 25 26 26 27 27 28 28 29 92 30 29 31 91 32 30 33
REMARK SMILES IDX 31 34 32 35 85 36 33 37 90 38 84 39 86 40 34 41 89 42 83 43
REMARK SMILES IDX 82 44 35 46 69 47 48 48 68 49 49 50 52 51 67 52 87 53 50 54
REMARK SMILES IDX 51 55 66 57 88 58 53 59 36 60 37 61 46 62 38 63 39 64 45 65
REMARK SMILES IDX 47 66 40 67 41 68 42 69 43 70 44 71 70 72 71 73 80 74 72 75
REMARK SMILES IDX 73 76 79 77 81 78 74 79 75 80 76 81 77 82 78 83 54 84 55 85
REMARK SMILES IDX 64 86 56 87 57 88 63 89 65 90 58 91 59 92 60 93 61 94 62 95
REMARK H PARENT 86 45 52 56
REMARK Flexibility Score: inf
ROOT
ATOM      1  C   UNL A   1      37.536  34.590  32.934  1.00  0.00     0.188 C 
ENDROOT
BRANCH   1   2
ATOM      2  C   UNL A   1      38.542  34.143  31.877  1.00  0.00     0.188 C 
BRANCH   2   3
ATOM      3  O   UNL A   1      38.598  34.730  30.558  1.00  0.00    -0.376 OA
BRANCH   3   4
ATOM      4  C   UNL A   1      39.718  34.638  29.666  1.00  0.00     0.202 C 
BRANCH   4   5
ATOM      5  C   UNL A   1      41.286  34.256  30.092  1.00  0.00     0.261 C 
BRANCH   5   6
ATOM      6  O   UNL A   1      42.841  34.930  29.642  1.00  0.00    -0.458 OA
BRANCH   6   7
ATOM      7  C   UNL A   1      44.124  34.555  29.012  1.00  0.00     0.362 C 
ATOM      8  O   UNL A   1      44.516  34.797  27.884  1.00  0.00    -0.244 OA
BRANCH   7   9
ATOM      9  C   UNL A   1      45.174  33.853  29.732  1.00  0.00     0.209 A 
ATOM     10  N   UNL A   1      46.641  32.388  29.639  1.00  0.00    -0.149 N 
ATOM     11  N   UNL A   1      47.360  33.378  30.181  1.00  0.00    -0.135 NA
ATOM     12  N   UNL A   1      45.291  32.521  29.626  1.00  0.00    -0.139 NA
ATOM     13  C   UNL A   1      46.497  34.382  30.004  1.00  0.00     0.186 A 
ATOM     14  Cl  UNL A   1      47.157  35.940  29.861  1.00  0.00    -0.057 Cl
BRANCH  10  15
ATOM     15  C   UNL A   1      47.234  31.224  29.155  1.00  0.00     0.089 A 
ATOM     16  C   UNL A   1      47.309  32.125  26.751  1.00  0.00     0.047 C 
ATOM     17  C   UNL A   1      47.323  31.008  27.768  1.00  0.00    -0.023 A 
ATOM     18  C   UNL A   1      47.465  29.690  27.342  1.00  0.00     0.006 A 
ATOM     19  C   UNL A   1      47.575  28.654  28.277  1.00  0.00     0.000 A 
ATOM     20  C   UNL A   1      47.475  30.225  30.098  1.00  0.00     0.030 A 
ATOM     21  C   UNL A   1      47.624  28.924  29.647  1.00  0.00     0.002 A 
ENDBRANCH  10  15
ENDBRANCH   7   9
ENDBRANCH   6   7
ENDBRANCH   5   6
ENDBRANCH   4   5
ENDBRANCH   3   4
ENDBRANCH   2   3
ENDBRANCH   1   2
BRANCH   1  22
ATOM     22  O   UNL A   1      36.630  33.538  33.198  1.00  0.00    -0.376 OA
BRANCH  22  23
ATOM     23  C   UNL A   1      36.550  32.513  32.238  1.00  0.00     0.202 C 
BRANCH  23  24
ATOM     24  C   UNL A   1      35.200  32.493  31.507  1.00  0.00     0.261 C 
BRANCH  24  25
ATOM     25  O   UNL A   1      35.032  31.306  30.689  1.00  0.00    -0.460 OA
BRANCH  25  26
ATOM     26  C   UNL A   1      35.580  31.300  29.407  1.00  0.00     0.338 C 
ATOM     27  O   UNL A   1      35.362  32.164  28.616  1.00  0.00    -0.246 OA
BRANCH  26  28
ATOM     28  C   UNL A   1      36.600  30.183  29.284  1.00  0.00     0.060 A 
ATOM     29  C   UNL A   1      37.111  29.303  30.247  1.00  0.00     0.016 A 
ATOM     30  C   UNL A   1      37.241  30.137  28.105  1.00  0.00     0.016 A 
ATOM     31  C   UNL A   1      38.378  28.551  30.060  1.00  0.00     0.010 A 
ATOM     32  C   UNL A   1      38.542  29.642  28.125  1.00  0.00     0.010 A 
ATOM     33  C   UNL A   1      39.222  28.718  28.955  1.00  0.00    -0.014 A 
BRANCH  33  34
ATOM     34  C   UNL A   1      40.799  28.111  28.736  1.00  0.00     0.031 A 
ATOM     35  C   UNL A   1      41.460  26.661  28.032  1.00  0.00     0.074 A 
ATOM     36  C   UNL A   1      41.789  28.824  29.319  1.00  0.00     0.049 A 
ATOM     37  N   UNL A   1      42.306  25.847  28.647  1.00  0.00    -0.248 NA
ATOM     38  C   UNL A   1      41.107  25.958  26.727  1.00  0.00     0.031 C 
ATOM     39  C   UNL A   1      43.230  28.608  29.209  1.00  0.00     0.029 A 
ATOM     40  N   UNL A   1      41.672  29.879  30.230  1.00  0.00    -0.354 N 
ATOM     41  C   UNL A   1      42.515  24.697  27.847  1.00  0.00     0.074 A 
ATOM     42  C   UNL A   1      41.627  24.753  26.763  1.00  0.00     0.031 C 
ATOM     43  C   UNL A   1      43.843  29.285  30.193  1.00  0.00     0.029 A 
ATOM     44  C   UNL A   1      42.812  29.861  31.040  1.00  0.00     0.049 A 
ATOM     45  H   UNL A   1      40.925  30.518  30.289  1.00  0.00     0.167 HD
ATOM     46  C   UNL A   1      43.537  23.802  27.926  1.00  0.00     0.037 A 
ATOM     47  C   UNL A   1      42.701  29.719  32.389  1.00  0.00     0.037 A 
ATOM     48  C   UNL A   1      44.489  24.293  28.871  1.00  0.00     0.049 A 
ATOM     49  C   UNL A   1      43.381  28.463  32.877  1.00  0.00     0.074 A 
ATOM     50  C   UNL A   1      45.479  25.246  28.716  1.00  0.00     0.029 A 
ATOM     51  N   UNL A   1      44.174  24.234  30.213  1.00  0.00    -0.354 N 
ATOM     52  N   UNL A   1      43.736  27.475  32.101  1.00  0.00    -0.248 NA
ATOM     53  C   UNL A   1      43.738  28.230  34.273  1.00  0.00     0.031 C 
ATOM     54  C   UNL A   1      45.666  25.865  29.974  1.00  0.00     0.029 A 
ATOM     55  C   UNL A   1      44.864  25.216  30.896  1.00  0.00     0.049 A 
ATOM     56  H   UNL A   1      43.553  23.590  30.622  1.00  0.00     0.167 HD
ATOM     57  C   UNL A   1      44.307  26.487  32.854  1.00  0.00     0.074 A 
ATOM     58  C   UNL A   1      44.308  27.015  34.203  1.00  0.00     0.031 C 
ATOM     59  C   UNL A   1      44.731  25.302  32.332  1.00  0.00     0.037 A 
BRANCH  46  60
ATOM     60  C   UNL A   1      43.773  22.808  26.787  1.00  0.00     0.058 A 
ATOM     61  C   UNL A   1      43.018  21.626  26.691  1.00  0.00     0.135 A 
ATOM     62  C   UNL A   1      44.856  22.901  25.872  1.00  0.00     0.135 A 
ATOM     63  F   UNL A   1      41.937  21.438  27.458  1.00  0.00    -0.206 F 
ATOM     64  C   UNL A   1      43.375  20.566  25.847  1.00  0.00     0.059 A 
ATOM     65  C   UNL A   1      45.267  21.830  25.061  1.00  0.00     0.059 A 
ATOM     66  F   UNL A   1      45.610  24.013  25.823  1.00  0.00    -0.206 F 
ATOM     67  C   UNL A   1      44.523  20.656  25.064  1.00  0.00     0.060 A 
BRANCH  67  68
ATOM     68  S   UNL A   1      45.057  19.204  24.123  1.00  0.00     0.124 S 
ATOM     69  O   UNL A   1      46.513  19.295  24.199  1.00  0.00    -0.237 OA
ATOM     70  O   UNL A   1      44.451  18.114  24.878  1.00  0.00    -0.237 OA
ATOM     71  O   UNL A   1      44.500  19.436  22.793  1.00  0.00    -0.744 OA
ENDBRANCH  67  68
ENDBRANCH  46  60
BRANCH  47  72
ATOM     72  C   UNL A   1      41.506  30.403  32.972  1.00  0.00     0.058 A 
ATOM     73  C   UNL A   1      40.396  29.593  33.298  1.00  0.00     0.135 A 
ATOM     74  C   UNL A   1      41.540  31.684  33.542  1.00  0.00     0.135 A 
ATOM     75  F   UNL A   1      40.287  28.361  32.771  1.00  0.00    -0.206 F 
ATOM     76  C   UNL A   1      39.455  29.964  34.254  1.00  0.00     0.059 A 
ATOM     77  C   UNL A   1      40.590  32.087  34.498  1.00  0.00     0.059 A 
ATOM     78  F   UNL A   1      42.570  32.504  33.292  1.00  0.00    -0.206 F 
ATOM     79  C   UNL A   1      39.591  31.192  34.890  1.00  0.00     0.060 A 
BRANCH  79  80
ATOM     80  S   UNL A   1      38.550  31.483  36.346  1.00  0.00     0.124 S 
ATOM     81  O   UNL A   1      37.463  32.284  35.793  1.00  0.00    -0.237 OA
ATOM     82  O   UNL A   1      38.194  30.114  36.720  1.00  0.00    -0.237 OA
ATOM     83  O   UNL A   1      39.444  32.179  37.263  1.00  0.00    -0.744 OA
ENDBRANCH  79  80
ENDBRANCH  47  72
BRANCH  59  84
ATOM     84  C   UNL A   1      45.128  24.101  33.138  1.00  0.00     0.058 A 
ATOM     85  C   UNL A   1      46.324  24.032  33.864  1.00  0.00     0.135 A 
ATOM     86  C   UNL A   1      44.207  23.044  33.339  1.00  0.00     0.135 A 
ATOM     87  F   UNL A   1      47.212  25.037  33.835  1.00  0.00    -0.206 F 
ATOM     88  C   UNL A   1      46.631  22.943  34.674  1.00  0.00     0.059 A 
ATOM     89  C   UNL A   1      44.467  21.980  34.191  1.00  0.00     0.059 A 
ATOM     90  F   UNL A   1      43.016  23.022  32.720  1.00  0.00    -0.206 F 
ATOM     91  C   UNL A   1      45.700  21.919  34.824  1.00  0.00     0.060 A 
BRANCH  91  92
ATOM     92  S   UNL A   1      46.082  20.496  35.855  1.00  0.00     0.124 S 
ATOM     93  O   UNL A   1      46.071  21.099  37.185  1.00  0.00    -0.237 OA
ATOM     94  O   UNL A   1      44.983  19.578  35.571  1.00  0.00    -0.237 OA
ATOM     95  O   UNL A   1      47.388  20.074  35.361  1.00  0.00    -0.744 OA
ENDBRANCH  91  92
ENDBRANCH  59  84
ENDBRANCH  33  34
ENDBRANCH  26  28
ENDBRANCH  25  26
ENDBRANCH  24  25
ENDBRANCH  23  24
ENDBRANCH  22  23
ENDBRANCH   1  22
TORSDOF 21
ENDMDL
