MODEL 1
REMARK VINA RESULT:      -8.6      0.000      0.000
REMARK SMILES C=CC[NH2+]CC(=O)N1CCC[C@@H]1C(=O)OCCOCCOCCOC(=O)c1ccc(-c2c3nc(c(-c4c(F)cc(S(=O)(=O)[O-])cc4F)c4ccc([nH]4)c(-c4c(F)cc(S(=O)(=O)[O-])cc4F)c4nc(c(-c5c(F)cc(S(=O)(=O)[O-])cc5F)c5ccc2[nH]5)C=C4)C=C3)cc1
REMARK SMILES IDX 19 1 18 2 17 3 16 4 15 5 13 6 14 7 12 8 8 9 9 10 10 11 11 12
REMARK SMILES IDX 6 13 7 14 5 15 4 16 3 19 2 20 1 21 20 22 21 23 22 24 23 25
REMARK SMILES IDX 24 26 25 27 26 28 27 29 28 30 92 31 29 32 91 33 30 34 31 35
REMARK SMILES IDX 32 36 85 37 33 38 90 39 84 40 86 41 34 42 89 43 83 44 82 45
REMARK SMILES IDX 35 47 69 48 48 49 68 50 49 51 52 52 67 53 87 54 50 55 51 56
REMARK SMILES IDX 66 58 88 59 53 60 36 61 37 62 46 63 38 64 39 65 45 66 47 67
REMARK SMILES IDX 40 68 41 69 42 70 43 71 44 72 70 73 71 74 80 75 72 76 73 77
REMARK SMILES IDX 79 78 81 79 74 80 75 81 76 82 77 83 78 84 54 85 55 86 64 87
REMARK SMILES IDX 56 88 57 89 63 90 65 91 58 92 59 93 60 94 61 95 62 96
REMARK H PARENT 4 17 4 18 86 46 52 57
REMARK Flexibility Score: inf
ROOT
ATOM      1  C   UNL A   1      36.935  23.300  24.732  1.00  0.00     0.188 C 
ENDROOT
BRANCH   1   2
ATOM      2  O   UNL A   1      35.605  23.755  24.914  1.00  0.00    -0.376 OA
BRANCH   2   3
ATOM      3  C   UNL A   1      34.885  23.345  26.077  1.00  0.00     0.202 C 
BRANCH   3   4
ATOM      4  C   UNL A   1      33.406  23.738  26.251  1.00  0.00     0.261 C 
BRANCH   4   5
ATOM      5  O   UNL A   1      32.819  24.378  25.097  1.00  0.00    -0.462 OA
BRANCH   5   6
ATOM      6  C   UNL A   1      32.123  25.512  25.335  1.00  0.00     0.328 C 
ATOM      7  O   UNL A   1      32.145  26.106  26.411  1.00  0.00    -0.250 OA
BRANCH   6   8
ATOM      8  C   UNL A   1      31.302  26.037  24.141  1.00  0.00     0.195 C 
ATOM      9  N   UNL A   1      31.912  27.198  23.505  1.00  0.00    -0.324 N 
ATOM     10  C   UNL A   1      30.887  27.798  22.669  1.00  0.00     0.121 C 
ATOM     11  C   UNL A   1      29.701  27.819  23.596  1.00  0.00     0.024 C 
ATOM     12  C   UNL A   1      29.827  26.480  24.309  1.00  0.00     0.039 C 
BRANCH   9  13
ATOM     13  C   UNL A   1      33.237  27.117  23.083  1.00  0.00     0.278 C 
ATOM     14  O   UNL A   1      33.617  26.362  22.195  1.00  0.00    -0.268 OA
BRANCH  13  15
ATOM     15  C   UNL A   1      34.112  28.260  23.678  1.00  0.00     0.362 C 
BRANCH  15  16
ATOM     16  N   UNL A   1      33.326  29.158  24.591  1.00  0.00    -0.335 N 
ATOM     17  H   UNL A   1      33.353  30.116  24.241  1.00  0.00     0.347 HD
ATOM     18  H   UNL A   1      32.353  28.854  24.633  1.00  0.00     0.347 HD
BRANCH  16  19
ATOM     19  C   UNL A   1      33.927  29.101  25.916  1.00  0.00     0.289 C 
BRANCH  19  20
ATOM     20  C   UNL A   1      33.087  29.379  27.114  1.00  0.00     0.025 C 
ATOM     21  C   UNL A   1      31.747  29.348  27.016  1.00  0.00     0.010 C 
ENDBRANCH  19  20
ENDBRANCH  16  19
ENDBRANCH  15  16
ENDBRANCH  13  15
ENDBRANCH   9  13
ENDBRANCH   6   8
ENDBRANCH   5   6
ENDBRANCH   4   5
ENDBRANCH   3   4
ENDBRANCH   2   3
ENDBRANCH   1   2
BRANCH   1  22
ATOM     22  C   UNL A   1      37.866  23.314  25.941  1.00  0.00     0.188 C 
BRANCH  22  23
ATOM     23  O   UNL A   1      38.741  22.215  26.049  1.00  0.00    -0.376 OA
BRANCH  23  24
ATOM     24  C   UNL A   1      38.439  21.024  25.341  1.00  0.00     0.202 C 
BRANCH  24  25
ATOM     25  C   UNL A   1      39.222  19.730  25.630  1.00  0.00     0.261 C 
BRANCH  25  26
ATOM     26  O   UNL A   1      40.223  19.783  26.662  1.00  0.00    -0.460 OA
BRANCH  26  27
ATOM     27  C   UNL A   1      41.522  19.681  26.290  1.00  0.00     0.338 C 
ATOM     28  O   UNL A   1      42.032  18.754  25.679  1.00  0.00    -0.246 OA
BRANCH  27  29
ATOM     29  C   UNL A   1      42.142  21.019  26.487  1.00  0.00     0.060 A 
ATOM     30  C   UNL A   1      42.401  21.463  27.795  1.00  0.00     0.016 A 
ATOM     31  C   UNL A   1      42.539  21.793  25.396  1.00  0.00     0.016 A 
ATOM     32  C   UNL A   1      43.037  22.689  28.012  1.00  0.00     0.010 A 
ATOM     33  C   UNL A   1      43.150  23.033  25.616  1.00  0.00     0.010 A 
ATOM     34  C   UNL A   1      43.379  23.501  26.922  1.00  0.00    -0.014 A 
BRANCH  34  35
ATOM     35  C   UNL A   1      43.788  24.913  27.136  1.00  0.00     0.031 A 
ATOM     36  C   UNL A   1      45.235  25.272  26.923  1.00  0.00     0.074 A 
ATOM     37  C   UNL A   1      42.912  25.858  27.522  1.00  0.00     0.049 A 
ATOM     38  N   UNL A   1      45.854  26.402  27.140  1.00  0.00    -0.248 NA
ATOM     39  C   UNL A   1      46.098  24.201  26.399  1.00  0.00     0.031 C 
ATOM     40  C   UNL A   1      41.479  25.656  27.722  1.00  0.00     0.029 A 
ATOM     41  N   UNL A   1      43.112  27.182  27.835  1.00  0.00    -0.354 N 
ATOM     42  C   UNL A   1      47.181  26.176  26.793  1.00  0.00     0.074 A 
ATOM     43  C   UNL A   1      47.281  24.792  26.380  1.00  0.00     0.031 C 
ATOM     44  C   UNL A   1      40.931  26.809  28.145  1.00  0.00     0.029 A 
ATOM     45  C   UNL A   1      41.981  27.821  28.283  1.00  0.00     0.049 A 
ATOM     46  H   UNL A   1      43.984  27.630  27.745  1.00  0.00     0.167 HD
ATOM     47  C   UNL A   1      48.222  27.042  26.812  1.00  0.00     0.037 A 
ATOM     48  C   UNL A   1      41.815  29.065  28.779  1.00  0.00     0.037 A 
ATOM     49  C   UNL A   1      48.120  28.415  27.234  1.00  0.00     0.049 A 
ATOM     50  C   UNL A   1      43.002  29.993  28.868  1.00  0.00     0.074 A 
ATOM     51  C   UNL A   1      49.112  29.378  27.273  1.00  0.00     0.029 A 
ATOM     52  N   UNL A   1      46.961  29.017  27.706  1.00  0.00    -0.354 N 
ATOM     53  N   UNL A   1      44.249  29.776  28.518  1.00  0.00    -0.248 NA
ATOM     54  C   UNL A   1      42.760  31.334  29.419  1.00  0.00     0.031 C 
ATOM     55  C   UNL A   1      48.570  30.543  27.827  1.00  0.00     0.029 A 
ATOM     56  C   UNL A   1      47.223  30.328  28.069  1.00  0.00     0.049 A 
ATOM     57  H   UNL A   1      46.084  28.577  27.773  1.00  0.00     0.167 HD
ATOM     58  C   UNL A   1      44.932  30.961  28.781  1.00  0.00     0.074 A 
ATOM     59  C   UNL A   1      43.958  31.894  29.309  1.00  0.00     0.031 C 
ATOM     60  C   UNL A   1      46.246  31.251  28.597  1.00  0.00     0.037 A 
BRANCH  47  61
ATOM     61  C   UNL A   1      49.570  26.513  26.402  1.00  0.00     0.058 A 
ATOM     62  C   UNL A   1      50.372  25.761  27.277  1.00  0.00     0.135 A 
ATOM     63  C   UNL A   1      50.066  26.758  25.111  1.00  0.00     0.135 A 
ATOM     64  F   UNL A   1      49.958  25.512  28.530  1.00  0.00    -0.206 F 
ATOM     65  C   UNL A   1      51.631  25.306  26.900  1.00  0.00     0.059 A 
ATOM     66  C   UNL A   1      51.308  26.284  24.702  1.00  0.00     0.059 A 
ATOM     67  F   UNL A   1      49.343  27.474  24.234  1.00  0.00    -0.206 F 
ATOM     68  C   UNL A   1      52.092  25.577  25.611  1.00  0.00     0.060 A 
BRANCH  68  69
ATOM     69  S   UNL A   1      53.736  24.996  25.144  1.00  0.00     0.124 S 
ATOM     70  O   UNL A   1      53.904  25.620  23.834  1.00  0.00    -0.237 OA
ATOM     71  O   UNL A   1      54.572  25.535  26.213  1.00  0.00    -0.237 OA
ATOM     72  O   UNL A   1      53.596  23.543  25.132  1.00  0.00    -0.744 OA
ENDBRANCH  68  69
ENDBRANCH  47  61
BRANCH  48  73
ATOM     73  C   UNL A   1      40.472  29.502  29.248  1.00  0.00     0.058 A 
ATOM     74  C   UNL A   1      40.190  29.647  30.615  1.00  0.00     0.135 A 
ATOM     75  C   UNL A   1      39.446  29.797  28.336  1.00  0.00     0.135 A 
ATOM     76  F   UNL A   1      41.130  29.358  31.528  1.00  0.00    -0.206 F 
ATOM     77  C   UNL A   1      38.941  30.069  31.062  1.00  0.00     0.059 A 
ATOM     78  C   UNL A   1      38.197  30.246  28.757  1.00  0.00     0.059 A 
ATOM     79  F   UNL A   1      39.663  29.676  27.017  1.00  0.00    -0.206 F 
ATOM     80  C   UNL A   1      37.954  30.375  30.123  1.00  0.00     0.060 A 
BRANCH  80  81
ATOM     81  S   UNL A   1      36.360  30.990  30.713  1.00  0.00     0.124 S 
ATOM     82  O   UNL A   1      36.725  32.301  31.236  1.00  0.00    -0.237 OA
ATOM     83  O   UNL A   1      35.562  30.988  29.490  1.00  0.00    -0.237 OA
ATOM     84  O   UNL A   1      35.966  30.000  31.711  1.00  0.00    -0.744 OA
ENDBRANCH  80  81
ENDBRANCH  48  73
BRANCH  60  85
ATOM     85  C   UNL A   1      46.711  32.643  28.936  1.00  0.00     0.058 A 
ATOM     86  C   UNL A   1      46.665  33.691  28.002  1.00  0.00     0.135 A 
ATOM     87  C   UNL A   1      47.155  32.949  30.234  1.00  0.00     0.135 A 
ATOM     88  F   UNL A   1      46.253  33.457  26.746  1.00  0.00    -0.206 F 
ATOM     89  C   UNL A   1      47.065  34.982  28.335  1.00  0.00     0.059 A 
ATOM     90  C   UNL A   1      47.529  34.239  30.599  1.00  0.00     0.059 A 
ATOM     91  F   UNL A   1      47.207  31.990  31.173  1.00  0.00    -0.206 F 
ATOM     92  C   UNL A   1      47.492  35.248  29.637  1.00  0.00     0.060 A 
BRANCH  92  93
ATOM     93  S   UNL A   1      47.976  36.934  30.063  1.00  0.00     0.124 S 
ATOM     94  O   UNL A   1      48.721  37.336  28.875  1.00  0.00    -0.237 OA
ATOM     95  O   UNL A   1      46.687  37.589  30.256  1.00  0.00    -0.237 OA
ATOM     96  O   UNL A   1      48.774  36.764  31.275  1.00  0.00    -0.744 OA
ENDBRANCH  92  93
ENDBRANCH  60  85
ENDBRANCH  34  35
ENDBRANCH  27  29
ENDBRANCH  26  27
ENDBRANCH  25  26
ENDBRANCH  24  25
ENDBRANCH  23  24
ENDBRANCH  22  23
ENDBRANCH   1  22
TORSDOF 25
ENDMDL
MODEL 2
REMARK VINA RESULT:      -8.6      1.142      8.500
REMARK SMILES C=CC[NH2+]CC(=O)N1CCC[C@@H]1C(=O)OCCOCCOCCOC(=O)c1ccc(-c2c3nc(c(-c4c(F)cc(S(=O)(=O)[O-])cc4F)c4ccc([nH]4)c(-c4c(F)cc(S(=O)(=O)[O-])cc4F)c4nc(c(-c5c(F)cc(S(=O)(=O)[O-])cc5F)c5ccc2[nH]5)C=C4)C=C3)cc1
REMARK SMILES IDX 19 1 18 2 17 3 16 4 15 5 13 6 14 7 12 8 8 9 9 10 10 11 11 12
REMARK SMILES IDX 6 13 7 14 5 15 4 16 3 19 2 20 1 21 20 22 21 23 22 24 23 25
REMARK SMILES IDX 24 26 25 27 26 28 27 29 28 30 92 31 29 32 91 33 30 34 31 35
REMARK SMILES IDX 32 36 85 37 33 38 90 39 84 40 86 41 34 42 89 43 83 44 82 45
REMARK SMILES IDX 35 47 69 48 48 49 68 50 49 51 52 52 67 53 87 54 50 55 51 56
REMARK SMILES IDX 66 58 88 59 53 60 36 61 37 62 46 63 38 64 39 65 45 66 47 67
REMARK SMILES IDX 40 68 41 69 42 70 43 71 44 72 70 73 71 74 80 75 72 76 73 77
REMARK SMILES IDX 79 78 81 79 74 80 75 81 76 82 77 83 78 84 54 85 55 86 64 87
REMARK SMILES IDX 56 88 57 89 63 90 65 91 58 92 59 93 60 94 61 95 62 96
REMARK H PARENT 4 17 4 18 86 46 52 57
REMARK Flexibility Score: inf
ROOT
ATOM      1  C   UNL A   1      36.682  23.566  25.324  1.00  0.00     0.188 C 
ENDROOT
BRANCH   1   2
ATOM      2  O   UNL A   1      35.514  24.163  25.862  1.00  0.00    -0.376 OA
BRANCH   2   3
ATOM      3  C   UNL A   1      34.479  23.324  26.375  1.00  0.00     0.202 C 
BRANCH   3   4
ATOM      4  C   UNL A   1      33.004  23.749  26.250  1.00  0.00     0.261 C 
BRANCH   4   5
ATOM      5  O   UNL A   1      32.807  25.164  26.036  1.00  0.00    -0.462 OA
BRANCH   5   6
ATOM      6  C   UNL A   1      31.562  25.634  26.271  1.00  0.00     0.328 C 
ATOM      7  O   UNL A   1      30.602  24.909  26.523  1.00  0.00    -0.250 OA
BRANCH   6   8
ATOM      8  C   UNL A   1      31.423  27.168  26.226  1.00  0.00     0.195 C 
ATOM      9  N   UNL A   1      31.437  27.694  24.866  1.00  0.00    -0.324 N 
ATOM     10  C   UNL A   1      31.672  29.124  24.978  1.00  0.00     0.121 C 
ATOM     11  C   UNL A   1      32.812  29.177  25.959  1.00  0.00     0.024 C 
ATOM     12  C   UNL A   1      32.430  28.091  26.955  1.00  0.00     0.039 C 
BRANCH   9  13
ATOM     13  C   UNL A   1      30.541  27.177  23.933  1.00  0.00     0.278 C 
ATOM     14  O   UNL A   1      29.325  27.199  24.084  1.00  0.00    -0.268 OA
BRANCH  13  15
ATOM     15  C   UNL A   1      31.240  26.813  22.590  1.00  0.00     0.362 C 
BRANCH  15  16
ATOM     16  N   UNL A   1      31.365  25.327  22.401  1.00  0.00    -0.335 N 
ATOM     17  H   UNL A   1      30.768  24.842  23.072  1.00  0.00     0.347 HD
ATOM     18  H   UNL A   1      31.075  25.066  21.458  1.00  0.00     0.347 HD
BRANCH  16  19
ATOM     19  C   UNL A   1      32.755  24.954  22.620  1.00  0.00     0.289 C 
BRANCH  19  20
ATOM     20  C   UNL A   1      33.140  23.516  22.593  1.00  0.00     0.025 C 
ATOM     21  C   UNL A   1      33.265  22.876  21.417  1.00  0.00     0.010 C 
ENDBRANCH  19  20
ENDBRANCH  16  19
ENDBRANCH  15  16
ENDBRANCH  13  15
ENDBRANCH   9  13
ENDBRANCH   6   8
ENDBRANCH   5   6
ENDBRANCH   4   5
ENDBRANCH   3   4
ENDBRANCH   2   3
ENDBRANCH   1   2
BRANCH   1  22
ATOM     22  C   UNL A   1      37.976  23.682  26.125  1.00  0.00     0.188 C 
BRANCH  22  23
ATOM     23  O   UNL A   1      38.763  22.515  26.183  1.00  0.00    -0.376 OA
BRANCH  23  24
ATOM     24  C   UNL A   1      38.344  21.367  25.464  1.00  0.00     0.202 C 
BRANCH  24  25
ATOM     25  C   UNL A   1      39.116  20.042  25.600  1.00  0.00     0.261 C 
BRANCH  25  26
ATOM     26  O   UNL A   1      40.154  19.985  26.594  1.00  0.00    -0.460 OA
BRANCH  26  27
ATOM     27  C   UNL A   1      41.426  19.784  26.170  1.00  0.00     0.338 C 
ATOM     28  O   UNL A   1      41.822  18.865  25.470  1.00  0.00    -0.246 OA
BRANCH  27  29
ATOM     29  C   UNL A   1      42.185  21.032  26.452  1.00  0.00     0.060 A 
ATOM     30  C   UNL A   1      42.390  21.417  27.788  1.00  0.00     0.016 A 
ATOM     31  C   UNL A   1      42.759  21.772  25.417  1.00  0.00     0.016 A 
ATOM     32  C   UNL A   1      43.150  22.552  28.087  1.00  0.00     0.010 A 
ATOM     33  C   UNL A   1      43.495  22.923  25.717  1.00  0.00     0.010 A 
ATOM     34  C   UNL A   1      43.673  23.336  27.050  1.00  0.00    -0.014 A 
BRANCH  34  35
ATOM     35  C   UNL A   1      44.231  24.683  27.335  1.00  0.00     0.031 A 
ATOM     36  C   UNL A   1      43.274  25.780  27.718  1.00  0.00     0.074 A 
ATOM     37  C   UNL A   1      45.548  24.943  27.245  1.00  0.00     0.049 A 
ATOM     38  N   UNL A   1      43.499  27.052  27.916  1.00  0.00    -0.248 NA
ATOM     39  C   UNL A   1      41.868  25.381  27.895  1.00  0.00     0.031 C 
ATOM     40  C   UNL A   1      46.586  23.965  26.927  1.00  0.00     0.029 A 
ATOM     41  N   UNL A   1      46.234  26.124  27.398  1.00  0.00    -0.354 N 
ATOM     42  C   UNL A   1      42.264  27.609  28.226  1.00  0.00     0.074 A 
ATOM     43  C   UNL A   1      41.289  26.541  28.161  1.00  0.00     0.031 C 
ATOM     44  C   UNL A   1      47.775  24.590  26.887  1.00  0.00     0.029 A 
ATOM     45  C   UNL A   1      47.580  26.019  27.138  1.00  0.00     0.049 A 
ATOM     46  H   UNL A   1      45.802  26.966  27.670  1.00  0.00     0.167 HD
ATOM     47  C   UNL A   1      41.967  28.892  28.541  1.00  0.00     0.037 A 
ATOM     48  C   UNL A   1      48.536  26.969  27.074  1.00  0.00     0.037 A 
ATOM     49  C   UNL A   1      42.938  29.954  28.593  1.00  0.00     0.049 A 
ATOM     50  C   UNL A   1      48.174  28.408  27.351  1.00  0.00     0.074 A 
ATOM     51  C   UNL A   1      42.741  31.284  28.920  1.00  0.00     0.029 A 
ATOM     52  N   UNL A   1      44.287  29.812  28.297  1.00  0.00    -0.354 N 
ATOM     53  N   UNL A   1      47.007  28.921  27.664  1.00  0.00    -0.248 NA
ATOM     54  C   UNL A   1      49.259  29.397  27.265  1.00  0.00     0.031 C 
ATOM     55  C   UNL A   1      43.956  31.958  28.760  1.00  0.00     0.029 A 
ATOM     56  C   UNL A   1      44.926  31.037  28.401  1.00  0.00     0.049 A 
ATOM     57  H   UNL A   1      44.724  28.966  28.050  1.00  0.00     0.167 HD
ATOM     58  C   UNL A   1      47.223  30.286  27.839  1.00  0.00     0.074 A 
ATOM     59  C   UNL A   1      48.634  30.516  27.607  1.00  0.00     0.031 C 
ATOM     60  C   UNL A   1      46.334  31.258  28.166  1.00  0.00     0.037 A 
BRANCH  47  61
ATOM     61  C   UNL A   1      40.524  29.223  28.811  1.00  0.00     0.058 A 
ATOM     62  C   UNL A   1      39.601  29.432  27.773  1.00  0.00     0.135 A 
ATOM     63  C   UNL A   1      40.055  29.326  30.131  1.00  0.00     0.135 A 
ATOM     64  F   UNL A   1      39.996  29.365  26.492  1.00  0.00    -0.206 F 
ATOM     65  C   UNL A   1      38.277  29.771  28.034  1.00  0.00     0.059 A 
ATOM     66  C   UNL A   1      38.728  29.631  30.415  1.00  0.00     0.059 A 
ATOM     67  F   UNL A   1      40.894  29.139  31.163  1.00  0.00    -0.206 F 
ATOM     68  C   UNL A   1      37.851  29.872  29.359  1.00  0.00     0.060 A 
BRANCH  68  69
ATOM     69  S   UNL A   1      36.136  30.332  29.680  1.00  0.00     0.124 S 
ATOM     70  O   UNL A   1      35.969  29.888  31.061  1.00  0.00    -0.237 OA
ATOM     71  O   UNL A   1      36.157  31.778  29.478  1.00  0.00    -0.237 OA
ATOM     72  O   UNL A   1      35.386  29.573  28.683  1.00  0.00    -0.744 OA
ENDBRANCH  68  69
ENDBRANCH  47  61
BRANCH  48  73
ATOM     73  C   UNL A   1      49.931  26.591  26.718  1.00  0.00     0.058 A 
ATOM     74  C   UNL A   1      50.375  26.615  25.387  1.00  0.00     0.135 A 
ATOM     75  C   UNL A   1      50.855  26.211  27.705  1.00  0.00     0.135 A 
ATOM     76  F   UNL A   1      49.526  26.952  24.404  1.00  0.00    -0.206 F 
ATOM     77  C   UNL A   1      51.681  26.277  25.047  1.00  0.00     0.059 A 
ATOM     78  C   UNL A   1      52.174  25.894  27.393  1.00  0.00     0.059 A 
ATOM     79  F   UNL A   1      50.483  26.171  28.994  1.00  0.00    -0.206 F 
ATOM     80  C   UNL A   1      52.576  25.926  26.059  1.00  0.00     0.060 A 
BRANCH  80  81
ATOM     81  S   UNL A   1      54.288  25.559  25.612  1.00  0.00     0.124 S 
ATOM     82  O   UNL A   1      54.148  24.271  24.944  1.00  0.00    -0.237 OA
ATOM     83  O   UNL A   1      54.628  26.691  24.755  1.00  0.00    -0.237 OA
ATOM     84  O   UNL A   1      54.973  25.531  26.901  1.00  0.00    -0.744 OA
ENDBRANCH  80  81
ENDBRANCH  48  73
BRANCH  60  85
ATOM     85  C   UNL A   1      46.857  32.662  28.328  1.00  0.00     0.058 A 
ATOM     86  C   UNL A   1      47.429  33.108  29.531  1.00  0.00     0.135 A 
ATOM     87  C   UNL A   1      46.842  33.557  27.244  1.00  0.00     0.135 A 
ATOM     88  F   UNL A   1      47.468  32.298  30.601  1.00  0.00    -0.206 F 
ATOM     89  C   UNL A   1      47.941  34.396  29.660  1.00  0.00     0.059 A 
ATOM     90  C   UNL A   1      47.377  34.837  27.341  1.00  0.00     0.059 A 
ATOM     91  F   UNL A   1      46.320  33.180  26.065  1.00  0.00    -0.206 F 
ATOM     92  C   UNL A   1      47.914  35.253  28.559  1.00  0.00     0.060 A 
BRANCH  92  93
ATOM     93  S   UNL A   1      48.612  36.908  28.732  1.00  0.00     0.124 S 
ATOM     94  O   UNL A   1      48.410  37.167  30.154  1.00  0.00    -0.237 OA
ATOM     95  O   UNL A   1      49.996  36.709  28.314  1.00  0.00    -0.237 OA
ATOM     96  O   UNL A   1      47.801  37.718  27.827  1.00  0.00    -0.744 OA
ENDBRANCH  92  93
ENDBRANCH  60  85
ENDBRANCH  34  35
ENDBRANCH  27  29
ENDBRANCH  26  27
ENDBRANCH  25  26
ENDBRANCH  24  25
ENDBRANCH  23  24
ENDBRANCH  22  23
ENDBRANCH   1  22
TORSDOF 25
ENDMDL
MODEL 3
REMARK VINA RESULT:      -8.5      5.804      7.912
REMARK SMILES C=CC[NH2+]CC(=O)N1CCC[C@@H]1C(=O)OCCOCCOCCOC(=O)c1ccc(-c2c3nc(c(-c4c(F)cc(S(=O)(=O)[O-])cc4F)c4ccc([nH]4)c(-c4c(F)cc(S(=O)(=O)[O-])cc4F)c4nc(c(-c5c(F)cc(S(=O)(=O)[O-])cc5F)c5ccc2[nH]5)C=C4)C=C3)cc1
REMARK SMILES IDX 19 1 18 2 17 3 16 4 15 5 13 6 14 7 12 8 8 9 9 10 10 11 11 12
REMARK SMILES IDX 6 13 7 14 5 15 4 16 3 19 2 20 1 21 20 22 21 23 22 24 23 25
REMARK SMILES IDX 24 26 25 27 26 28 27 29 28 30 92 31 29 32 91 33 30 34 31 35
REMARK SMILES IDX 32 36 85 37 33 38 90 39 84 40 86 41 34 42 89 43 83 44 82 45
REMARK SMILES IDX 35 47 69 48 48 49 68 50 49 51 52 52 67 53 87 54 50 55 51 56
REMARK SMILES IDX 66 58 88 59 53 60 36 61 37 62 46 63 38 64 39 65 45 66 47 67
REMARK SMILES IDX 40 68 41 69 42 70 43 71 44 72 70 73 71 74 80 75 72 76 73 77
REMARK SMILES IDX 79 78 81 79 74 80 75 81 76 82 77 83 78 84 54 85 55 86 64 87
REMARK SMILES IDX 56 88 57 89 63 90 65 91 58 92 59 93 60 94 61 95 62 96
REMARK H PARENT 4 17 4 18 86 46 52 57
REMARK Flexibility Score: inf
ROOT
ATOM      1  C   UNL A   1      37.262  22.324  24.682  1.00  0.00     0.188 C 
ENDROOT
BRANCH   1   2
ATOM      2  O   UNL A   1      35.884  22.221  24.363  1.00  0.00    -0.376 OA
BRANCH   2   3
ATOM      3  C   UNL A   1      34.918  22.371  25.403  1.00  0.00     0.202 C 
BRANCH   3   4
ATOM      4  C   UNL A   1      34.298  23.751  25.692  1.00  0.00     0.261 C 
BRANCH   4   5
ATOM      5  O   UNL A   1      34.375  24.681  24.590  1.00  0.00    -0.462 OA
BRANCH   5   6
ATOM      6  C   UNL A   1      33.692  25.838  24.738  1.00  0.00     0.328 C 
ATOM      7  O   UNL A   1      33.654  26.470  25.791  1.00  0.00    -0.250 OA
BRANCH   6   8
ATOM      8  C   UNL A   1      32.969  26.337  23.471  1.00  0.00     0.195 C 
ATOM      9  N   UNL A   1      31.750  25.588  23.188  1.00  0.00    -0.324 N 
ATOM     10  C   UNL A   1      31.385  25.897  21.816  1.00  0.00     0.121 C 
ATOM     11  C   UNL A   1      32.701  25.748  21.102  1.00  0.00     0.024 C 
ATOM     12  C   UNL A   1      33.677  26.362  22.095  1.00  0.00     0.039 C 
BRANCH   9  13
ATOM     13  C   UNL A   1      30.786  25.466  24.186  1.00  0.00     0.278 C 
ATOM     14  O   UNL A   1      30.731  24.514  24.956  1.00  0.00    -0.268 OA
BRANCH  13  15
ATOM     15  C   UNL A   1      29.966  26.777  24.371  1.00  0.00     0.362 C 
BRANCH  15  16
ATOM     16  N   UNL A   1      30.836  27.941  24.755  1.00  0.00    -0.335 N 
ATOM     17  H   UNL A   1      30.686  28.175  25.736  1.00  0.00     0.347 HD
ATOM     18  H   UNL A   1      31.820  27.704  24.622  1.00  0.00     0.347 HD
BRANCH  16  19
ATOM     19  C   UNL A   1      30.476  29.076  23.917  1.00  0.00     0.289 C 
BRANCH  19  20
ATOM     20  C   UNL A   1      29.611  28.861  22.724  1.00  0.00     0.025 C 
ATOM     21  C   UNL A   1      28.388  29.419  22.672  1.00  0.00     0.010 C 
ENDBRANCH  19  20
ENDBRANCH  16  19
ENDBRANCH  15  16
ENDBRANCH  13  15
ENDBRANCH   9  13
ENDBRANCH   6   8
ENDBRANCH   5   6
ENDBRANCH   4   5
ENDBRANCH   3   4
ENDBRANCH   2   3
ENDBRANCH   1   2
BRANCH   1  22
ATOM     22  C   UNL A   1      37.636  22.883  26.052  1.00  0.00     0.188 C 
BRANCH  22  23
ATOM     23  O   UNL A   1      39.017  23.020  26.297  1.00  0.00    -0.376 OA
BRANCH  23  24
ATOM     24  C   UNL A   1      39.855  21.884  26.163  1.00  0.00     0.202 C 
BRANCH  24  25
ATOM     25  C   UNL A   1      41.386  22.043  26.176  1.00  0.00     0.261 C 
BRANCH  25  26
ATOM     26  O   UNL A   1      41.932  23.077  27.014  1.00  0.00    -0.460 OA
BRANCH  26  27
ATOM     27  C   UNL A   1      42.286  24.247  26.427  1.00  0.00     0.338 C 
ATOM     28  O   UNL A   1      42.590  24.409  25.255  1.00  0.00    -0.246 OA
BRANCH  27  29
ATOM     29  C   UNL A   1      41.948  25.337  27.381  1.00  0.00     0.060 A 
ATOM     30  C   UNL A   1      42.717  26.512  27.373  1.00  0.00     0.016 A 
ATOM     31  C   UNL A   1      40.836  25.237  28.219  1.00  0.00     0.016 A 
ATOM     32  C   UNL A   1      42.388  27.578  28.215  1.00  0.00     0.010 A 
ATOM     33  C   UNL A   1      40.525  26.294  29.082  1.00  0.00     0.010 A 
ATOM     34  C   UNL A   1      41.312  27.459  29.105  1.00  0.00    -0.014 A 
BRANCH  34  35
ATOM     35  C   UNL A   1      41.124  28.452  30.194  1.00  0.00     0.031 A 
ATOM     36  C   UNL A   1      42.003  28.342  31.412  1.00  0.00     0.074 A 
ATOM     37  C   UNL A   1      40.194  29.420  30.123  1.00  0.00     0.049 A 
ATOM     38  N   UNL A   1      41.967  29.019  32.529  1.00  0.00    -0.248 NA
ATOM     39  C   UNL A   1      43.062  27.322  31.358  1.00  0.00     0.031 C 
ATOM     40  C   UNL A   1      39.309  29.664  28.986  1.00  0.00     0.029 A 
ATOM     41  N   UNL A   1      39.828  30.372  31.045  1.00  0.00    -0.354 N 
ATOM     42  C   UNL A   1      42.987  28.499  33.317  1.00  0.00     0.074 A 
ATOM     43  C   UNL A   1      43.604  27.430  32.560  1.00  0.00     0.031 C 
ATOM     44  C   UNL A   1      38.486  30.685  29.286  1.00  0.00     0.029 A 
ATOM     45  C   UNL A   1      38.759  31.142  30.650  1.00  0.00     0.049 A 
ATOM     46  H   UNL A   1      40.288  30.491  31.907  1.00  0.00     0.167 HD
ATOM     47  C   UNL A   1      43.379  28.878  34.557  1.00  0.00     0.037 A 
ATOM     48  C   UNL A   1      38.061  32.081  31.322  1.00  0.00     0.037 A 
ATOM     49  C   UNL A   1      42.755  29.934  35.311  1.00  0.00     0.049 A 
ATOM     50  C   UNL A   1      38.461  32.437  32.733  1.00  0.00     0.074 A 
ATOM     51  C   UNL A   1      43.090  30.406  36.568  1.00  0.00     0.029 A 
ATOM     52  N   UNL A   1      41.659  30.673  34.886  1.00  0.00    -0.354 N 
ATOM     53  N   UNL A   1      39.440  31.954  33.461  1.00  0.00    -0.248 NA
ATOM     54  C   UNL A   1      37.661  33.466  33.413  1.00  0.00     0.031 C 
ATOM     55  C   UNL A   1      42.158  31.385  36.929  1.00  0.00     0.029 A 
ATOM     56  C   UNL A   1      41.285  31.573  35.870  1.00  0.00     0.049 A 
ATOM     57  H   UNL A   1      41.214  30.571  34.015  1.00  0.00     0.167 HD
ATOM     58  C   UNL A   1      39.390  32.638  34.673  1.00  0.00     0.074 A 
ATOM     59  C   UNL A   1      38.291  33.576  34.576  1.00  0.00     0.031 C 
ATOM     60  C   UNL A   1      40.185  32.504  35.765  1.00  0.00     0.037 A 
BRANCH  47  61
ATOM     61  C   UNL A   1      44.511  28.113  35.189  1.00  0.00     0.058 A 
ATOM     62  C   UNL A   1      44.290  26.965  35.968  1.00  0.00     0.135 A 
ATOM     63  C   UNL A   1      45.839  28.533  35.008  1.00  0.00     0.135 A 
ATOM     64  F   UNL A   1      43.040  26.528  36.191  1.00  0.00    -0.206 F 
ATOM     65  C   UNL A   1      45.341  26.286  36.577  1.00  0.00     0.059 A 
ATOM     66  C   UNL A   1      46.907  27.850  35.580  1.00  0.00     0.059 A 
ATOM     67  F   UNL A   1      46.108  29.626  34.275  1.00  0.00    -0.206 F 
ATOM     68  C   UNL A   1      46.645  26.739  36.380  1.00  0.00     0.060 A 
BRANCH  68  69
ATOM     69  S   UNL A   1      47.996  25.858  37.192  1.00  0.00     0.124 S 
ATOM     70  O   UNL A   1      47.314  24.659  37.671  1.00  0.00    -0.237 OA
ATOM     71  O   UNL A   1      48.939  25.655  36.096  1.00  0.00    -0.237 OA
ATOM     72  O   UNL A   1      48.434  26.787  38.229  1.00  0.00    -0.744 OA
ENDBRANCH  68  69
ENDBRANCH  47  61
BRANCH  48  73
ATOM     73  C   UNL A   1      36.897  32.743  30.672  1.00  0.00     0.058 A 
ATOM     74  C   UNL A   1      35.579  32.397  31.012  1.00  0.00     0.135 A 
ATOM     75  C   UNL A   1      37.078  33.745  29.706  1.00  0.00     0.135 A 
ATOM     76  F   UNL A   1      35.352  31.430  31.915  1.00  0.00    -0.206 F 
ATOM     77  C   UNL A   1      34.485  33.020  30.419  1.00  0.00     0.059 A 
ATOM     78  C   UNL A   1      36.000  34.402  29.118  1.00  0.00     0.059 A 
ATOM     79  F   UNL A   1      38.317  34.115  29.344  1.00  0.00    -0.206 F 
ATOM     80  C   UNL A   1      34.707  34.029  29.480  1.00  0.00     0.060 A 
BRANCH  80  81
ATOM     81  S   UNL A   1      33.279  34.880  28.771  1.00  0.00     0.124 S 
ATOM     82  O   UNL A   1      33.896  36.077  28.215  1.00  0.00    -0.237 OA
ATOM     83  O   UNL A   1      32.792  33.902  27.802  1.00  0.00    -0.237 OA
ATOM     84  O   UNL A   1      32.409  35.095  29.924  1.00  0.00    -0.744 OA
ENDBRANCH  80  81
ENDBRANCH  48  73
BRANCH  60  85
ATOM     85  C   UNL A   1      39.925  33.413  36.938  1.00  0.00     0.058 A 
ATOM     86  C   UNL A   1      38.988  33.094  37.934  1.00  0.00     0.135 A 
ATOM     87  C   UNL A   1      40.668  34.596  37.101  1.00  0.00     0.135 A 
ATOM     88  F   UNL A   1      38.247  31.979  37.830  1.00  0.00    -0.206 F 
ATOM     89  C   UNL A   1      38.779  33.924  39.032  1.00  0.00     0.059 A 
ATOM     90  C   UNL A   1      40.499  35.424  38.206  1.00  0.00     0.059 A 
ATOM     91  F   UNL A   1      41.588  34.945  36.187  1.00  0.00    -0.206 F 
ATOM     92  C   UNL A   1      39.542  35.085  39.161  1.00  0.00     0.060 A 
BRANCH  92  93
ATOM     93  S   UNL A   1      39.284  36.135  40.607  1.00  0.00     0.124 S 
ATOM     94  O   UNL A   1      38.687  37.323  40.007  1.00  0.00    -0.237 OA
ATOM     95  O   UNL A   1      38.393  35.322  41.427  1.00  0.00    -0.237 OA
ATOM     96  O   UNL A   1      40.631  36.314  41.144  1.00  0.00    -0.744 OA
ENDBRANCH  92  93
ENDBRANCH  60  85
ENDBRANCH  34  35
ENDBRANCH  27  29
ENDBRANCH  26  27
ENDBRANCH  25  26
ENDBRANCH  24  25
ENDBRANCH  23  24
ENDBRANCH  22  23
ENDBRANCH   1  22
TORSDOF 25
ENDMDL
