MODEL 1
REMARK VINA RESULT:      -8.9      0.000      0.000
REMARK SMILES NC(=O)c1c(F)cccc1O[C@@H](F)C(=O)OCCOCCOCCOC(=O)c1ccc(-c2c3nc(c(-c4c(F)cc(S(=O)(=O)[O-])cc4F)c4ccc([nH]4)c(-c4c(F)cc(S(=O)(=O)[O-])cc4F)c4nc(c(-c5c(F)cc(S(=O)(=O)[O-])cc5F)c5ccc2[nH]5)C=C4)C=C3)cc1
REMARK SMILES IDX 20 1 19 2 18 3 17 4 16 5 14 6 15 7 12 8 13 9 11 10 10 11
REMARK SMILES IDX 4 12 5 13 6 14 7 15 9 16 8 17 2 18 1 19 3 22 21 23 22 24
REMARK SMILES IDX 23 25 24 26 25 27 26 28 27 29 28 30 29 31 93 32 30 33 92 34
REMARK SMILES IDX 31 35 32 36 33 37 86 38 34 39 91 40 85 41 87 42 35 43 90 44
REMARK SMILES IDX 84 45 83 46 36 48 70 49 49 50 69 51 50 52 53 53 68 54 88 55
REMARK SMILES IDX 51 56 52 57 67 59 89 60 54 61 37 62 38 63 47 64 39 65 40 66
REMARK SMILES IDX 46 67 48 68 41 69 42 70 43 71 44 72 45 73 71 74 72 75 81 76
REMARK SMILES IDX 73 77 74 78 80 79 82 80 75 81 76 82 77 83 78 84 79 85 55 86
REMARK SMILES IDX 56 87 65 88 57 89 58 90 64 91 66 92 59 93 60 94 61 95 62 96
REMARK SMILES IDX 63 97
REMARK H PARENT 1 20 1 21 87 47 53 58
REMARK Flexibility Score: inf
ROOT
ATOM      1  C   UNL A   1      41.599  19.530  25.773  1.00  0.00     0.188 C 
ENDROOT
BRANCH   1   2
ATOM      2  O   UNL A   1      42.288  18.292  25.905  1.00  0.00    -0.376 OA
BRANCH   2   3
ATOM      3  C   UNL A   1      43.709  18.307  26.004  1.00  0.00     0.202 C 
BRANCH   3   4
ATOM      4  C   UNL A   1      44.514  18.959  24.869  1.00  0.00     0.261 C 
BRANCH   4   5
ATOM      5  O   UNL A   1      44.471  20.400  24.891  1.00  0.00    -0.458 OA
BRANCH   5   6
ATOM      6  C   UNL A   1      45.656  21.046  25.112  1.00  0.00     0.381 C 
ATOM      7  O   UNL A   1      46.750  20.534  24.905  1.00  0.00    -0.244 OA
BRANCH   6   8
ATOM      8  C   UNL A   1      45.451  22.545  25.510  1.00  0.00     0.461 C 
ATOM      9  F   UNL A   1      46.491  23.008  26.272  1.00  0.00    -0.189 F 
BRANCH   8  10
ATOM     10  O   UNL A   1      44.300  23.222  25.976  1.00  0.00    -0.450 OA
BRANCH  10  11
ATOM     11  C   UNL A   1      44.188  23.883  27.158  1.00  0.00     0.139 A 
ATOM     12  C   UNL A   1      44.562  25.183  27.504  1.00  0.00     0.117 A 
ATOM     13  C   UNL A   1      44.397  25.620  28.826  1.00  0.00     0.139 A 
ATOM     14  F   UNL A   1      44.765  26.857  29.191  1.00  0.00    -0.206 F 
ATOM     15  C   UNL A   1      43.831  24.801  29.801  1.00  0.00     0.040 A 
ATOM     16  C   UNL A   1      43.588  23.076  28.148  1.00  0.00     0.047 A 
ATOM     17  C   UNL A   1      43.411  23.525  29.458  1.00  0.00     0.007 A 
BRANCH  12  18
ATOM     18  C   UNL A   1      45.038  26.165  26.521  1.00  0.00     0.255 C 
ATOM     19  N   UNL A   1      44.449  26.148  25.289  1.00  0.00    -0.365 N 
ATOM     20  H   UNL A   1      44.735  26.787  24.597  1.00  0.00     0.159 HD
ATOM     21  H   UNL A   1      43.737  25.496  25.094  1.00  0.00     0.159 HD
ATOM     22  O   UNL A   1      45.882  26.998  26.811  1.00  0.00    -0.269 OA
ENDBRANCH  12  18
ENDBRANCH  10  11
ENDBRANCH   8  10
ENDBRANCH   6   8
ENDBRANCH   5   6
ENDBRANCH   4   5
ENDBRANCH   3   4
ENDBRANCH   2   3
ENDBRANCH   1   2
BRANCH   1  23
ATOM     23  C   UNL A   1      41.317  20.352  27.049  1.00  0.00     0.188 C 
BRANCH  23  24
ATOM     24  O   UNL A   1      40.093  21.057  27.017  1.00  0.00    -0.376 OA
BRANCH  24  25
ATOM     25  C   UNL A   1      40.138  22.450  27.284  1.00  0.00     0.202 C 
BRANCH  25  26
ATOM     26  C   UNL A   1      40.627  23.445  26.211  1.00  0.00     0.261 C 
BRANCH  26  27
ATOM     27  O   UNL A   1      40.104  24.781  26.253  1.00  0.00    -0.460 OA
BRANCH  27  28
ATOM     28  C   UNL A   1      40.976  25.805  26.107  1.00  0.00     0.338 C 
ATOM     29  O   UNL A   1      41.462  26.203  25.060  1.00  0.00    -0.246 OA
BRANCH  28  30
ATOM     30  C   UNL A   1      41.048  26.514  27.406  1.00  0.00     0.060 A 
ATOM     31  C   UNL A   1      40.438  25.945  28.535  1.00  0.00     0.016 A 
ATOM     32  C   UNL A   1      41.755  27.713  27.517  1.00  0.00     0.016 A 
ATOM     33  C   UNL A   1      40.518  26.588  29.775  1.00  0.00     0.010 A 
ATOM     34  C   UNL A   1      41.810  28.368  28.750  1.00  0.00     0.010 A 
ATOM     35  C   UNL A   1      41.169  27.823  29.878  1.00  0.00    -0.014 A 
BRANCH  35  36
ATOM     36  C   UNL A   1      40.997  28.665  31.088  1.00  0.00     0.031 A 
ATOM     37  C   UNL A   1      39.941  29.735  31.054  1.00  0.00     0.074 A 
ATOM     38  C   UNL A   1      41.753  28.499  32.186  1.00  0.00     0.049 A 
ATOM     39  N   UNL A   1      39.667  30.665  31.931  1.00  0.00    -0.248 NA
ATOM     40  C   UNL A   1      39.080  29.759  29.860  1.00  0.00     0.031 C 
ATOM     41  C   UNL A   1      42.762  27.459  32.372  1.00  0.00     0.029 A 
ATOM     42  N   UNL A   1      41.790  29.218  33.356  1.00  0.00    -0.354 N 
ATOM     43  C   UNL A   1      38.602  31.381  31.397  1.00  0.00     0.074 A 
ATOM     44  C   UNL A   1      38.313  30.810  30.100  1.00  0.00     0.031 C 
ATOM     45  C   UNL A   1      43.322  27.608  33.585  1.00  0.00     0.029 A 
ATOM     46  C   UNL A   1      42.742  28.779  34.245  1.00  0.00     0.049 A 
ATOM     47  H   UNL A   1      41.191  29.978  33.541  1.00  0.00     0.167 HD
ATOM     48  C   UNL A   1      37.915  32.413  31.943  1.00  0.00     0.037 A 
ATOM     49  C   UNL A   1      43.114  29.278  35.443  1.00  0.00     0.037 A 
ATOM     50  C   UNL A   1      38.226  32.994  33.223  1.00  0.00     0.049 A 
ATOM     51  C   UNL A   1      42.425  30.506  35.983  1.00  0.00     0.074 A 
ATOM     52  C   UNL A   1      37.614  34.061  33.853  1.00  0.00     0.029 A 
ATOM     53  N   UNL A   1      39.240  32.560  34.064  1.00  0.00    -0.354 N 
ATOM     54  N   UNL A   1      41.436  31.194  35.461  1.00  0.00    -0.248 NA
ATOM     55  C   UNL A   1      42.906  31.031  37.270  1.00  0.00     0.031 C 
ATOM     56  C   UNL A   1      38.292  34.307  35.051  1.00  0.00     0.029 A 
ATOM     57  C   UNL A   1      39.285  33.352  35.200  1.00  0.00     0.049 A 
ATOM     58  H   UNL A   1      39.841  31.801  33.881  1.00  0.00     0.167 HD
ATOM     59  C   UNL A   1      41.153  32.210  36.370  1.00  0.00     0.074 A 
ATOM     60  C   UNL A   1      42.078  32.049  37.473  1.00  0.00     0.031 C 
ATOM     61  C   UNL A   1      40.207  33.179  36.298  1.00  0.00     0.037 A 
BRANCH  48  62
ATOM     62  C   UNL A   1      36.781  32.986  31.139  1.00  0.00     0.058 A 
ATOM     63  C   UNL A   1      35.455  32.870  31.586  1.00  0.00     0.135 A 
ATOM     64  C   UNL A   1      37.005  33.660  29.926  1.00  0.00     0.135 A 
ATOM     65  F   UNL A   1      35.181  32.243  32.740  1.00  0.00    -0.206 F 
ATOM     66  C   UNL A   1      34.393  33.405  30.863  1.00  0.00     0.059 A 
ATOM     67  C   UNL A   1      35.962  34.232  29.204  1.00  0.00     0.059 A 
ATOM     68  F   UNL A   1      38.255  33.822  29.465  1.00  0.00    -0.206 F 
ATOM     69  C   UNL A   1      34.659  34.093  29.678  1.00  0.00     0.060 A 
BRANCH  69  70
ATOM     70  S   UNL A   1      33.279  34.860  28.801  1.00  0.00     0.124 S 
ATOM     71  O   UNL A   1      32.382  35.206  29.896  1.00  0.00    -0.237 OA
ATOM     72  O   UNL A   1      33.931  35.984  28.131  1.00  0.00    -0.237 OA
ATOM     73  O   UNL A   1      32.813  33.801  27.912  1.00  0.00    -0.744 OA
ENDBRANCH  69  70
ENDBRANCH  48  62
BRANCH  49  74
ATOM     74  C   UNL A   1      44.176  28.587  36.224  1.00  0.00     0.058 A 
ATOM     75  C   UNL A   1      45.526  28.962  36.121  1.00  0.00     0.135 A 
ATOM     76  C   UNL A   1      43.863  27.494  37.043  1.00  0.00     0.135 A 
ATOM     77  F   UNL A   1      45.879  30.004  35.353  1.00  0.00    -0.206 F 
ATOM     78  C   UNL A   1      46.530  28.247  36.765  1.00  0.00     0.059 A 
ATOM     79  C   UNL A   1      44.848  26.777  37.717  1.00  0.00     0.059 A 
ATOM     80  F   UNL A   1      42.585  27.113  37.191  1.00  0.00    -0.206 F 
ATOM     81  C   UNL A   1      46.182  27.147  37.551  1.00  0.00     0.060 A 
BRANCH  81  82
ATOM     82  S   UNL A   1      47.507  26.193  38.324  1.00  0.00     0.124 S 
ATOM     83  O   UNL A   1      47.825  27.020  39.482  1.00  0.00    -0.237 OA
ATOM     84  O   UNL A   1      46.842  24.927  38.610  1.00  0.00    -0.237 OA
ATOM     85  O   UNL A   1      48.534  26.140  37.288  1.00  0.00    -0.744 OA
ENDBRANCH  81  82
ENDBRANCH  49  74
BRANCH  61  86
ATOM     86  C   UNL A   1      40.081  34.139  37.452  1.00  0.00     0.058 A 
ATOM     87  C   UNL A   1      40.906  35.276  37.519  1.00  0.00     0.135 A 
ATOM     88  C   UNL A   1      39.239  33.880  38.544  1.00  0.00     0.135 A 
ATOM     89  F   UNL A   1      41.737  35.569  36.506  1.00  0.00    -0.206 F 
ATOM     90  C   UNL A   1      40.922  36.102  38.637  1.00  0.00     0.059 A 
ATOM     91  C   UNL A   1      39.218  34.710  39.663  1.00  0.00     0.059 A 
ATOM     92  F   UNL A   1      38.424  32.813  38.529  1.00  0.00    -0.206 F 
ATOM     93  C   UNL A   1      40.078  35.806  39.709  1.00  0.00     0.060 A 
BRANCH  93  94
ATOM     94  S   UNL A   1      40.128  36.879  41.161  1.00  0.00     0.124 S 
ATOM     95  O   UNL A   1      39.907  35.928  42.245  1.00  0.00    -0.237 OA
ATOM     96  O   UNL A   1      41.472  37.444  41.078  1.00  0.00    -0.237 OA
ATOM     97  O   UNL A   1      39.042  37.825  40.924  1.00  0.00    -0.744 OA
ENDBRANCH  93  94
ENDBRANCH  61  86
ENDBRANCH  35  36
ENDBRANCH  28  30
ENDBRANCH  27  28
ENDBRANCH  26  27
ENDBRANCH  25  26
ENDBRANCH  24  25
ENDBRANCH  23  24
ENDBRANCH   1  23
TORSDOF 23
ENDMDL
MODEL 2
REMARK VINA RESULT:      -8.6      3.686      5.455
REMARK SMILES NC(=O)c1c(F)cccc1O[C@@H](F)C(=O)OCCOCCOCCOC(=O)c1ccc(-c2c3nc(c(-c4c(F)cc(S(=O)(=O)[O-])cc4F)c4ccc([nH]4)c(-c4c(F)cc(S(=O)(=O)[O-])cc4F)c4nc(c(-c5c(F)cc(S(=O)(=O)[O-])cc5F)c5ccc2[nH]5)C=C4)C=C3)cc1
REMARK SMILES IDX 20 1 19 2 18 3 17 4 16 5 14 6 15 7 12 8 13 9 11 10 10 11
REMARK SMILES IDX 4 12 5 13 6 14 7 15 9 16 8 17 2 18 1 19 3 22 21 23 22 24
REMARK SMILES IDX 23 25 24 26 25 27 26 28 27 29 28 30 29 31 93 32 30 33 92 34
REMARK SMILES IDX 31 35 32 36 33 37 86 38 34 39 91 40 85 41 87 42 35 43 90 44
REMARK SMILES IDX 84 45 83 46 36 48 70 49 49 50 69 51 50 52 53 53 68 54 88 55
REMARK SMILES IDX 51 56 52 57 67 59 89 60 54 61 37 62 38 63 47 64 39 65 40 66
REMARK SMILES IDX 46 67 48 68 41 69 42 70 43 71 44 72 45 73 71 74 72 75 81 76
REMARK SMILES IDX 73 77 74 78 80 79 82 80 75 81 76 82 77 83 78 84 79 85 55 86
REMARK SMILES IDX 56 87 65 88 57 89 58 90 64 91 66 92 59 93 60 94 61 95 62 96
REMARK SMILES IDX 63 97
REMARK H PARENT 1 20 1 21 87 47 53 58
REMARK Flexibility Score: inf
ROOT
ATOM      1  C   UNL A   1      39.975  20.864  26.106  1.00  0.00     0.188 C 
ENDROOT
BRANCH   1   2
ATOM      2  O   UNL A   1      39.167  21.970  26.497  1.00  0.00    -0.376 OA
BRANCH   2   3
ATOM      3  C   UNL A   1      38.074  22.347  25.665  1.00  0.00     0.202 C 
BRANCH   3   4
ATOM      4  C   UNL A   1      37.009  21.290  25.333  1.00  0.00     0.261 C 
BRANCH   4   5
ATOM      5  O   UNL A   1      35.898  21.813  24.578  1.00  0.00    -0.458 OA
BRANCH   5   6
ATOM      6  C   UNL A   1      35.029  22.627  25.251  1.00  0.00     0.381 C 
ATOM      7  O   UNL A   1      34.705  22.446  26.420  1.00  0.00    -0.244 OA
BRANCH   6   8
ATOM      8  C   UNL A   1      34.621  23.884  24.413  1.00  0.00     0.461 C 
ATOM      9  F   UNL A   1      35.187  23.860  23.167  1.00  0.00    -0.189 F 
BRANCH   8  10
ATOM     10  O   UNL A   1      34.551  25.248  24.780  1.00  0.00    -0.450 OA
BRANCH  10  11
ATOM     11  C   UNL A   1      33.449  26.040  24.696  1.00  0.00     0.139 A 
ATOM     12  C   UNL A   1      32.720  26.456  23.580  1.00  0.00     0.117 A 
ATOM     13  C   UNL A   1      31.642  27.336  23.750  1.00  0.00     0.139 A 
ATOM     14  F   UNL A   1      30.935  27.767  22.694  1.00  0.00    -0.206 F 
ATOM     15  C   UNL A   1      31.252  27.780  25.012  1.00  0.00     0.040 A 
ATOM     16  C   UNL A   1      33.024  26.473  25.970  1.00  0.00     0.047 A 
ATOM     17  C   UNL A   1      31.938  27.335  26.132  1.00  0.00     0.007 A 
BRANCH  12  18
ATOM     18  C   UNL A   1      32.964  25.938  22.227  1.00  0.00     0.255 C 
ATOM     19  N   UNL A   1      32.174  24.908  21.804  1.00  0.00    -0.365 N 
ATOM     20  H   UNL A   1      32.301  24.528  20.904  1.00  0.00     0.159 HD
ATOM     21  H   UNL A   1      31.477  24.547  22.397  1.00  0.00     0.159 HD
ATOM     22  O   UNL A   1      33.798  26.445  21.494  1.00  0.00    -0.269 OA
ENDBRANCH  12  18
ENDBRANCH  10  11
ENDBRANCH   8  10
ENDBRANCH   6   8
ENDBRANCH   5   6
ENDBRANCH   4   5
ENDBRANCH   3   4
ENDBRANCH   2   3
ENDBRANCH   1   2
BRANCH   1  23
ATOM     23  C   UNL A   1      41.470  20.875  26.489  1.00  0.00     0.188 C 
BRANCH  23  24
ATOM     24  O   UNL A   1      42.257  21.743  25.699  1.00  0.00    -0.376 OA
BRANCH  24  25
ATOM     25  C   UNL A   1      42.153  23.133  25.961  1.00  0.00     0.202 C 
BRANCH  25  26
ATOM     26  C   UNL A   1      43.084  24.142  25.256  1.00  0.00     0.261 C 
BRANCH  26  27
ATOM     27  O   UNL A   1      43.420  25.345  25.964  1.00  0.00    -0.460 OA
BRANCH  27  28
ATOM     28  C   UNL A   1      42.579  26.398  25.853  1.00  0.00     0.338 C 
ATOM     29  O   UNL A   1      41.907  26.694  24.877  1.00  0.00    -0.246 OA
BRANCH  28  30
ATOM     30  C   UNL A   1      42.428  26.989  27.203  1.00  0.00     0.060 A 
ATOM     31  C   UNL A   1      41.577  26.371  28.133  1.00  0.00     0.016 A 
ATOM     32  C   UNL A   1      43.160  28.121  27.564  1.00  0.00     0.016 A 
ATOM     33  C   UNL A   1      41.443  26.899  29.421  1.00  0.00     0.010 A 
ATOM     34  C   UNL A   1      43.003  28.665  28.842  1.00  0.00     0.010 A 
ATOM     35  C   UNL A   1      42.124  28.073  29.766  1.00  0.00    -0.014 A 
BRANCH  35  36
ATOM     36  C   UNL A   1      41.759  28.820  30.996  1.00  0.00     0.031 A 
ATOM     37  C   UNL A   1      40.577  29.748  30.929  1.00  0.00     0.074 A 
ATOM     38  C   UNL A   1      42.452  28.693  32.141  1.00  0.00     0.049 A 
ATOM     39  N   UNL A   1      40.123  30.587  31.823  1.00  0.00    -0.248 NA
ATOM     40  C   UNL A   1      39.806  29.726  29.675  1.00  0.00     0.031 C 
ATOM     41  C   UNL A   1      43.572  27.780  32.357  1.00  0.00     0.029 A 
ATOM     42  N   UNL A   1      42.312  29.347  33.341  1.00  0.00    -0.354 N 
ATOM     43  C   UNL A   1      39.015  31.190  31.242  1.00  0.00     0.074 A 
ATOM     44  C   UNL A   1      38.894  30.657  29.902  1.00  0.00     0.031 C 
ATOM     45  C   UNL A   1      44.021  27.934  33.615  1.00  0.00     0.029 A 
ATOM     46  C   UNL A   1      43.248  28.985  34.280  1.00  0.00     0.049 A 
ATOM     47  H   UNL A   1      41.608  30.013  33.513  1.00  0.00     0.167 HD
ATOM     48  C   UNL A   1      38.162  32.095  31.779  1.00  0.00     0.037 A 
ATOM     49  C   UNL A   1      43.467  29.461  35.523  1.00  0.00     0.037 A 
ATOM     50  C   UNL A   1      38.304  32.640  33.103  1.00  0.00     0.049 A 
ATOM     51  C   UNL A   1      42.588  30.560  36.063  1.00  0.00     0.074 A 
ATOM     52  C   UNL A   1      37.515  33.587  33.731  1.00  0.00     0.029 A 
ATOM     53  N   UNL A   1      39.305  32.295  33.999  1.00  0.00    -0.354 N 
ATOM     54  N   UNL A   1      41.556  31.144  35.499  1.00  0.00    -0.248 NA
ATOM     55  C   UNL A   1      42.905  31.072  37.405  1.00  0.00     0.031 C 
ATOM     56  C   UNL A   1      38.069  33.851  34.988  1.00  0.00     0.029 A 
ATOM     57  C   UNL A   1      39.166  33.023  35.169  1.00  0.00     0.049 A 
ATOM     58  H   UNL A   1      40.010  31.629  33.830  1.00  0.00     0.167 HD
ATOM     59  C   UNL A   1      41.080  32.066  36.427  1.00  0.00     0.074 A 
ATOM     60  C   UNL A   1      41.939  31.965  37.590  1.00  0.00     0.031 C 
ATOM     61  C   UNL A   1      40.023  32.910  36.326  1.00  0.00     0.037 A 
BRANCH  48  62
ATOM     62  C   UNL A   1      37.022  32.562  30.917  1.00  0.00     0.058 A 
ATOM     63  C   UNL A   1      37.178  33.656  30.051  1.00  0.00     0.135 A 
ATOM     64  C   UNL A   1      35.771  31.921  30.941  1.00  0.00     0.135 A 
ATOM     65  F   UNL A   1      38.351  34.303  29.980  1.00  0.00    -0.206 F 
ATOM     66  C   UNL A   1      36.138  34.094  29.236  1.00  0.00     0.059 A 
ATOM     67  C   UNL A   1      34.728  32.321  30.111  1.00  0.00     0.059 A 
ATOM     68  F   UNL A   1      35.574  30.854  31.732  1.00  0.00    -0.206 F 
ATOM     69  C   UNL A   1      34.920  33.413  29.267  1.00  0.00     0.060 A 
BRANCH  69  70
ATOM     70  S   UNL A   1      33.613  33.937  28.136  1.00  0.00     0.124 S 
ATOM     71  O   UNL A   1      32.684  34.604  29.040  1.00  0.00    -0.237 OA
ATOM     72  O   UNL A   1      34.339  34.805  27.212  1.00  0.00    -0.237 OA
ATOM     73  O   UNL A   1      33.142  32.682  27.559  1.00  0.00    -0.744 OA
ENDBRANCH  69  70
ENDBRANCH  48  62
BRANCH  49  74
ATOM     74  C   UNL A   1      44.553  28.870  36.352  1.00  0.00     0.058 A 
ATOM     75  C   UNL A   1      44.328  27.751  37.170  1.00  0.00     0.135 A 
ATOM     76  C   UNL A   1      45.826  29.457  36.385  1.00  0.00     0.135 A 
ATOM     77  F   UNL A   1      43.128  27.150  37.172  1.00  0.00    -0.206 F 
ATOM     78  C   UNL A   1      45.311  27.265  38.025  1.00  0.00     0.059 A 
ATOM     79  C   UNL A   1      46.834  28.974  37.216  1.00  0.00     0.059 A 
ATOM     80  F   UNL A   1      46.096  30.513  35.604  1.00  0.00    -0.206 F 
ATOM     81  C   UNL A   1      46.557  27.893  38.051  1.00  0.00     0.060 A 
BRANCH  81  82
ATOM     82  S   UNL A   1      47.796  27.288  39.218  1.00  0.00     0.124 S 
ATOM     83  O   UNL A   1      48.883  26.911  38.321  1.00  0.00    -0.237 OA
ATOM     84  O   UNL A   1      48.035  28.466  40.045  1.00  0.00    -0.237 OA
ATOM     85  O   UNL A   1      47.120  26.180  39.886  1.00  0.00    -0.744 OA
ENDBRANCH  81  82
ENDBRANCH  49  74
BRANCH  61  86
ATOM     86  C   UNL A   1      39.693  33.782  37.509  1.00  0.00     0.058 A 
ATOM     87  C   UNL A   1      40.305  35.040  37.653  1.00  0.00     0.135 A 
ATOM     88  C   UNL A   1      38.870  33.335  38.554  1.00  0.00     0.135 A 
ATOM     89  F   UNL A   1      41.108  35.516  36.686  1.00  0.00    -0.206 F 
ATOM     90  C   UNL A   1      40.139  35.807  38.800  1.00  0.00     0.059 A 
ATOM     91  C   UNL A   1      38.666  34.099  39.701  1.00  0.00     0.059 A 
ATOM     92  F   UNL A   1      38.254  32.146  38.465  1.00  0.00    -0.206 F 
ATOM     93  C   UNL A   1      39.322  35.324  39.823  1.00  0.00     0.060 A 
BRANCH  93  94
ATOM     94  S   UNL A   1      39.134  36.324  41.315  1.00  0.00     0.124 S 
ATOM     95  O   UNL A   1      37.988  35.693  41.960  1.00  0.00    -0.237 OA
ATOM     96  O   UNL A   1      40.421  36.130  41.978  1.00  0.00    -0.237 OA
ATOM     97  O   UNL A   1      38.901  37.669  40.797  1.00  0.00    -0.744 OA
ENDBRANCH  93  94
ENDBRANCH  61  86
ENDBRANCH  35  36
ENDBRANCH  28  30
ENDBRANCH  27  28
ENDBRANCH  26  27
ENDBRANCH  25  26
ENDBRANCH  24  25
ENDBRANCH  23  24
ENDBRANCH   1  23
TORSDOF 23
ENDMDL
MODEL 3
REMARK VINA RESULT:      -8.4      3.628      5.587
REMARK SMILES NC(=O)c1c(F)cccc1O[C@@H](F)C(=O)OCCOCCOCCOC(=O)c1ccc(-c2c3nc(c(-c4c(F)cc(S(=O)(=O)[O-])cc4F)c4ccc([nH]4)c(-c4c(F)cc(S(=O)(=O)[O-])cc4F)c4nc(c(-c5c(F)cc(S(=O)(=O)[O-])cc5F)c5ccc2[nH]5)C=C4)C=C3)cc1
REMARK SMILES IDX 20 1 19 2 18 3 17 4 16 5 14 6 15 7 12 8 13 9 11 10 10 11
REMARK SMILES IDX 4 12 5 13 6 14 7 15 9 16 8 17 2 18 1 19 3 22 21 23 22 24
REMARK SMILES IDX 23 25 24 26 25 27 26 28 27 29 28 30 29 31 93 32 30 33 92 34
REMARK SMILES IDX 31 35 32 36 33 37 86 38 34 39 91 40 85 41 87 42 35 43 90 44
REMARK SMILES IDX 84 45 83 46 36 48 70 49 49 50 69 51 50 52 53 53 68 54 88 55
REMARK SMILES IDX 51 56 52 57 67 59 89 60 54 61 37 62 38 63 47 64 39 65 40 66
REMARK SMILES IDX 46 67 48 68 41 69 42 70 43 71 44 72 45 73 71 74 72 75 81 76
REMARK SMILES IDX 73 77 74 78 80 79 82 80 75 81 76 82 77 83 78 84 79 85 55 86
REMARK SMILES IDX 56 87 65 88 57 89 58 90 64 91 66 92 59 93 60 94 61 95 62 96
REMARK SMILES IDX 63 97
REMARK H PARENT 1 20 1 21 87 47 53 58
REMARK Flexibility Score: inf
ROOT
ATOM      1  C   UNL A   1      40.780  21.401  27.232  1.00  0.00     0.188 C 
ENDROOT
BRANCH   1   2
ATOM      2  O   UNL A   1      40.221  22.504  26.528  1.00  0.00    -0.376 OA
BRANCH   2   3
ATOM      3  C   UNL A   1      39.395  23.423  27.238  1.00  0.00     0.202 C 
BRANCH   3   4
ATOM      4  C   UNL A   1      38.268  24.135  26.475  1.00  0.00     0.261 C 
BRANCH   4   5
ATOM      5  O   UNL A   1      37.731  23.355  25.387  1.00  0.00    -0.458 OA
BRANCH   5   6
ATOM      6  C   UNL A   1      36.378  23.418  25.197  1.00  0.00     0.381 C 
ATOM      7  O   UNL A   1      35.732  24.455  25.296  1.00  0.00    -0.244 OA
BRANCH   6   8
ATOM      8  C   UNL A   1      35.784  22.058  24.699  1.00  0.00     0.461 C 
ATOM      9  F   UNL A   1      35.026  22.227  23.571  1.00  0.00    -0.189 F 
BRANCH   8  10
ATOM     10  O   UNL A   1      35.176  21.004  25.419  1.00  0.00    -0.450 OA
BRANCH  10  11
ATOM     11  C   UNL A   1      34.589  19.904  24.878  1.00  0.00     0.139 A 
ATOM     12  C   UNL A   1      33.282  19.709  24.426  1.00  0.00     0.117 A 
ATOM     13  C   UNL A   1      32.896  18.444  23.959  1.00  0.00     0.139 A 
ATOM     14  F   UNL A   1      31.641  18.223  23.537  1.00  0.00    -0.206 F 
ATOM     15  C   UNL A   1      33.794  17.381  23.897  1.00  0.00     0.040 A 
ATOM     16  C   UNL A   1      35.496  18.828  24.780  1.00  0.00     0.047 A 
ATOM     17  C   UNL A   1      35.107  17.577  24.297  1.00  0.00     0.007 A 
BRANCH  12  18
ATOM     18  C   UNL A   1      32.302  20.798  24.322  1.00  0.00     0.255 C 
ATOM     19  N   UNL A   1      31.811  21.305  25.491  1.00  0.00    -0.365 N 
ATOM     20  H   UNL A   1      31.151  22.036  25.472  1.00  0.00     0.159 HD
ATOM     21  H   UNL A   1      32.117  20.940  26.353  1.00  0.00     0.159 HD
ATOM     22  O   UNL A   1      31.985  21.267  23.241  1.00  0.00    -0.269 OA
ENDBRANCH  12  18
ENDBRANCH  10  11
ENDBRANCH   8  10
ENDBRANCH   6   8
ENDBRANCH   5   6
ENDBRANCH   4   5
ENDBRANCH   3   4
ENDBRANCH   2   3
ENDBRANCH   1   2
BRANCH   1  23
ATOM     23  C   UNL A   1      42.317  21.275  27.297  1.00  0.00     0.188 C 
BRANCH  23  24
ATOM     24  O   UNL A   1      42.991  21.921  26.236  1.00  0.00    -0.376 OA
BRANCH  24  25
ATOM     25  C   UNL A   1      44.218  22.564  26.541  1.00  0.00     0.202 C 
BRANCH  25  26
ATOM     26  C   UNL A   1      44.582  23.918  25.898  1.00  0.00     0.261 C 
BRANCH  26  27
ATOM     27  O   UNL A   1      44.117  25.111  26.548  1.00  0.00    -0.460 OA
BRANCH  27  28
ATOM     28  C   UNL A   1      42.860  25.529  26.275  1.00  0.00     0.338 C 
ATOM     29  O   UNL A   1      42.132  25.115  25.387  1.00  0.00    -0.246 OA
BRANCH  28  30
ATOM     30  C   UNL A   1      42.432  26.403  27.392  1.00  0.00     0.060 A 
ATOM     31  C   UNL A   1      43.040  27.657  27.557  1.00  0.00     0.016 A 
ATOM     32  C   UNL A   1      41.402  26.003  28.245  1.00  0.00     0.016 A 
ATOM     33  C   UNL A   1      42.629  28.506  28.590  1.00  0.00     0.010 A 
ATOM     34  C   UNL A   1      41.013  26.840  29.295  1.00  0.00     0.010 A 
ATOM     35  C   UNL A   1      41.643  28.083  29.489  1.00  0.00    -0.014 A 
BRANCH  35  36
ATOM     36  C   UNL A   1      41.419  28.816  30.759  1.00  0.00     0.031 A 
ATOM     37  C   UNL A   1      40.309  29.830  30.797  1.00  0.00     0.074 A 
ATOM     38  C   UNL A   1      42.173  28.602  31.850  1.00  0.00     0.049 A 
ATOM     39  N   UNL A   1      39.980  30.672  31.741  1.00  0.00    -0.248 NA
ATOM     40  C   UNL A   1      39.458  29.905  29.598  1.00  0.00     0.031 C 
ATOM     41  C   UNL A   1      43.232  27.602  31.966  1.00  0.00     0.029 A 
ATOM     42  N   UNL A   1      42.164  29.227  33.074  1.00  0.00    -0.354 N 
ATOM     43  C   UNL A   1      38.885  31.374  31.253  1.00  0.00     0.074 A 
ATOM     44  C   UNL A   1      38.636  30.894  29.911  1.00  0.00     0.031 C 
ATOM     45  C   UNL A   1      43.774  27.683  33.194  1.00  0.00     0.029 A 
ATOM     46  C   UNL A   1      43.129  28.767  33.937  1.00  0.00     0.049 A 
ATOM     47  H   UNL A   1      41.525  29.938  33.311  1.00  0.00     0.167 HD
ATOM     48  C   UNL A   1      38.141  32.323  31.870  1.00  0.00     0.037 A 
ATOM     49  C   UNL A   1      43.466  29.187  35.175  1.00  0.00     0.037 A 
ATOM     50  C   UNL A   1      38.411  32.815  33.195  1.00  0.00     0.049 A 
ATOM     51  C   UNL A   1      42.710  30.331  35.801  1.00  0.00     0.074 A 
ATOM     52  C   UNL A   1      37.740  33.797  33.900  1.00  0.00     0.029 A 
ATOM     53  N   UNL A   1      39.439  32.368  34.012  1.00  0.00    -0.354 N 
ATOM     54  N   UNL A   1      41.691  31.008  35.324  1.00  0.00    -0.248 NA
ATOM     55  C   UNL A   1      43.152  30.776  37.132  1.00  0.00     0.031 C 
ATOM     56  C   UNL A   1      38.394  33.980  35.123  1.00  0.00     0.029 A 
ATOM     57  C   UNL A   1      39.434  33.068  35.207  1.00  0.00     0.049 A 
ATOM     58  H   UNL A   1      40.080  31.657  33.777  1.00  0.00     0.167 HD
ATOM     59  C   UNL A   1      41.349  31.933  36.307  1.00  0.00     0.074 A 
ATOM     60  C   UNL A   1      42.272  31.732  37.405  1.00  0.00     0.031 C 
ATOM     61  C   UNL A   1      40.354  32.856  36.300  1.00  0.00     0.037 A 
BRANCH  48  62
ATOM     62  C   UNL A   1      36.985  32.900  31.100  1.00  0.00     0.058 A 
ATOM     63  C   UNL A   1      37.182  33.951  30.191  1.00  0.00     0.135 A 
ATOM     64  C   UNL A   1      35.679  32.406  31.256  1.00  0.00     0.135 A 
ATOM     65  F   UNL A   1      38.409  34.458  29.996  1.00  0.00    -0.206 F 
ATOM     66  C   UNL A   1      36.127  34.489  29.460  1.00  0.00     0.059 A 
ATOM     67  C   UNL A   1      34.615  32.907  30.511  1.00  0.00     0.059 A 
ATOM     68  F   UNL A   1      35.438  31.385  32.093  1.00  0.00    -0.206 F 
ATOM     69  C   UNL A   1      34.849  33.953  29.620  1.00  0.00     0.060 A 
BRANCH  69  70
ATOM     70  S   UNL A   1      33.510  34.600  28.597  1.00  0.00     0.124 S 
ATOM     71  O   UNL A   1      33.188  33.450  27.760  1.00  0.00    -0.237 OA
ATOM     72  O   UNL A   1      32.508  34.961  29.597  1.00  0.00    -0.237 OA
ATOM     73  O   UNL A   1      34.126  35.730  27.908  1.00  0.00    -0.744 OA
ENDBRANCH  69  70
ENDBRANCH  48  62
BRANCH  49  74
ATOM     74  C   UNL A   1      44.555  28.491  35.912  1.00  0.00     0.058 A 
ATOM     75  C   UNL A   1      44.301  27.360  36.704  1.00  0.00     0.135 A 
ATOM     76  C   UNL A   1      45.867  28.987  35.883  1.00  0.00     0.135 A 
ATOM     77  F   UNL A   1      43.064  26.844  36.764  1.00  0.00    -0.206 F 
ATOM     78  C   UNL A   1      45.298  26.776  37.478  1.00  0.00     0.059 A 
ATOM     79  C   UNL A   1      46.887  28.405  36.631  1.00  0.00     0.059 A 
ATOM     80  F   UNL A   1      46.163  30.051  35.122  1.00  0.00    -0.206 F 
ATOM     81  C   UNL A   1      46.585  27.314  37.445  1.00  0.00     0.060 A 
BRANCH  81  82
ATOM     82  S   UNL A   1      47.847  26.582  38.510  1.00  0.00     0.124 S 
ATOM     83  O   UNL A   1      48.835  26.141  37.531  1.00  0.00    -0.237 OA
ATOM     84  O   UNL A   1      48.239  27.715  39.341  1.00  0.00    -0.237 OA
ATOM     85  O   UNL A   1      47.130  25.516  39.202  1.00  0.00    -0.744 OA
ENDBRANCH  81  82
ENDBRANCH  49  74
BRANCH  61  86
ATOM     86  C   UNL A   1      40.170  33.713  37.525  1.00  0.00     0.058 A 
ATOM     87  C   UNL A   1      39.170  33.401  38.462  1.00  0.00     0.135 A 
ATOM     88  C   UNL A   1      40.895  34.900  37.715  1.00  0.00     0.135 A 
ATOM     89  F   UNL A   1      38.441  32.281  38.326  1.00  0.00    -0.206 F 
ATOM     90  C   UNL A   1      38.874  34.248  39.524  1.00  0.00     0.059 A 
ATOM     91  C   UNL A   1      40.635  35.750  38.788  1.00  0.00     0.059 A 
ATOM     92  F   UNL A   1      41.867  35.242  36.855  1.00  0.00    -0.206 F 
ATOM     93  C   UNL A   1      39.609  35.425  39.675  1.00  0.00     0.060 A 
BRANCH  93  94
ATOM     94  S   UNL A   1      39.195  36.523  41.048  1.00  0.00     0.124 S 
ATOM     95  O   UNL A   1      38.315  35.682  41.852  1.00  0.00    -0.237 OA
ATOM     96  O   UNL A   1      40.508  36.800  41.625  1.00  0.00    -0.237 OA
ATOM     97  O   UNL A   1      38.554  37.660  40.394  1.00  0.00    -0.744 OA
ENDBRANCH  93  94
ENDBRANCH  61  86
ENDBRANCH  35  36
ENDBRANCH  28  30
ENDBRANCH  27  28
ENDBRANCH  26  27
ENDBRANCH  25  26
ENDBRANCH  24  25
ENDBRANCH  23  24
ENDBRANCH   1  23
TORSDOF 23
ENDMDL
