MODEL 1
REMARK VINA RESULT:      -8.8      0.000      0.000
REMARK SMILES O=C(OCCOCCOCCOC(=O)[C@]1([NH2+]C2CC2)CC[C@@H](SCCCO)C1)c1ccc(-c2c3nc(c(-c4c(F)cc(S(=O)(=O)[O-])cc4F)c4ccc([nH]4)c(-c4c(F)cc(S(=O)(=O)[O-])cc4F)c4nc(c(-c5c(F)cc(S(=O)(=O)[O-])cc5F)c5ccc2[nH]5)C=C4)C=C3)cc1
REMARK SMILES IDX 8 1 7 2 6 3 5 4 4 5 3 6 2 7 1 8 29 9 30 10 94 11 31 12 93 13
REMARK SMILES IDX 32 14 33 15 34 16 87 17 35 18 92 19 86 20 88 21 36 22 91 23
REMARK SMILES IDX 85 24 84 25 37 27 71 28 50 29 70 30 51 31 54 32 69 33 89 34
REMARK SMILES IDX 52 35 53 36 68 38 90 39 55 40 38 41 39 42 48 43 40 44 41 45
REMARK SMILES IDX 47 46 49 47 42 48 43 49 44 50 45 51 46 52 72 53 73 54 82 55
REMARK SMILES IDX 74 56 75 57 81 58 83 59 76 60 77 61 78 62 79 63 80 64 56 65
REMARK SMILES IDX 57 66 66 67 58 68 59 69 65 70 67 71 60 72 61 73 62 74 63 75
REMARK SMILES IDX 64 76 9 77 10 78 11 79 12 80 13 81 14 82 15 83 20 84 28 85
REMARK SMILES IDX 21 86 22 87 16 88 17 91 18 92 19 93 23 94 24 95 25 96 26 97
REMARK SMILES IDX 27 98
REMARK H PARENT 88 26 54 37 16 89 16 90 27 99
REMARK Flexibility Score: inf
ROOT
ATOM      1  C   UNL A   1      35.374  23.602  24.736  1.00  0.00     0.188 C 
ENDROOT
BRANCH   1   2
ATOM      2  C   UNL A   1      36.855  23.508  25.123  1.00  0.00     0.188 C 
BRANCH   2   3
ATOM      3  O   UNL A   1      37.410  22.319  25.667  1.00  0.00    -0.376 OA
BRANCH   3   4
ATOM      4  C   UNL A   1      38.809  22.287  25.889  1.00  0.00     0.202 C 
BRANCH   4   5
ATOM      5  C   UNL A   1      39.347  23.239  26.963  1.00  0.00     0.261 C 
BRANCH   5   6
ATOM      6  O   UNL A   1      40.405  24.085  26.502  1.00  0.00    -0.460 OA
BRANCH   6   7
ATOM      7  C   UNL A   1      40.524  25.432  26.617  1.00  0.00     0.338 C 
ATOM      8  O   UNL A   1      40.859  26.052  25.607  1.00  0.00    -0.246 OA
BRANCH   7   9
ATOM      9  C   UNL A   1      40.409  26.202  27.909  1.00  0.00     0.060 A 
ATOM     10  C   UNL A   1      39.305  26.250  28.768  1.00  0.00     0.016 A 
ATOM     11  C   UNL A   1      41.556  26.920  28.303  1.00  0.00     0.016 A 
ATOM     12  C   UNL A   1      39.325  26.980  29.964  1.00  0.00     0.010 A 
ATOM     13  C   UNL A   1      41.586  27.648  29.500  1.00  0.00     0.010 A 
ATOM     14  C   UNL A   1      40.463  27.686  30.339  1.00  0.00    -0.014 A 
BRANCH  14  15
ATOM     15  C   UNL A   1      40.421  28.619  31.488  1.00  0.00     0.031 A 
ATOM     16  C   UNL A   1      39.570  29.837  31.329  1.00  0.00     0.074 A 
ATOM     17  C   UNL A   1      41.067  28.389  32.649  1.00  0.00     0.049 A 
ATOM     18  N   UNL A   1      39.378  30.811  32.171  1.00  0.00    -0.248 NA
ATOM     19  C   UNL A   1      38.775  29.933  30.091  1.00  0.00     0.031 C 
ATOM     20  C   UNL A   1      41.729  27.144  33.010  1.00  0.00     0.029 A 
ATOM     21  N   UNL A   1      41.312  29.195  33.732  1.00  0.00    -0.354 N 
ATOM     22  C   UNL A   1      38.396  31.599  31.596  1.00  0.00     0.074 A 
ATOM     23  C   UNL A   1      38.087  31.042  30.300  1.00  0.00     0.031 C 
ATOM     24  C   UNL A   1      42.449  27.316  34.132  1.00  0.00     0.029 A 
ATOM     25  C   UNL A   1      42.247  28.675  34.606  1.00  0.00     0.049 A 
ATOM     26  H   UNL A   1      40.864  30.062  33.872  1.00  0.00     0.167 HD
ATOM     27  C   UNL A   1      37.775  32.669  32.137  1.00  0.00     0.037 A 
ATOM     28  C   UNL A   1      42.868  29.247  35.656  1.00  0.00     0.037 A 
ATOM     29  C   UNL A   1      38.135  33.221  33.410  1.00  0.00     0.049 A 
ATOM     30  C   UNL A   1      42.362  30.588  36.100  1.00  0.00     0.074 A 
ATOM     31  C   UNL A   1      37.591  34.310  34.060  1.00  0.00     0.029 A 
ATOM     32  N   UNL A   1      39.165  32.742  34.211  1.00  0.00    -0.354 N 
ATOM     33  N   UNL A   1      41.395  31.303  35.575  1.00  0.00    -0.248 NA
ATOM     34  C   UNL A   1      42.962  31.166  37.306  1.00  0.00     0.031 C 
ATOM     35  C   UNL A   1      38.342  34.537  35.218  1.00  0.00     0.029 A 
ATOM     36  C   UNL A   1      39.313  33.550  35.322  1.00  0.00     0.049 A 
ATOM     37  H   UNL A   1      39.708  31.945  34.016  1.00  0.00     0.167 HD
ATOM     38  C   UNL A   1      41.220  32.382  36.426  1.00  0.00     0.074 A 
ATOM     39  C   UNL A   1      42.204  32.240  37.483  1.00  0.00     0.031 C 
ATOM     40  C   UNL A   1      40.304  33.378  36.357  1.00  0.00     0.037 A 
BRANCH  27  41
ATOM     41  C   UNL A   1      36.692  33.305  31.322  1.00  0.00     0.058 A 
ATOM     42  C   UNL A   1      36.984  34.116  30.213  1.00  0.00     0.135 A 
ATOM     43  C   UNL A   1      35.348  33.130  31.678  1.00  0.00     0.135 A 
ATOM     44  F   UNL A   1      38.257  34.348  29.857  1.00  0.00    -0.206 F 
ATOM     45  C   UNL A   1      35.976  34.747  29.494  1.00  0.00     0.059 A 
ATOM     46  C   UNL A   1      34.323  33.732  30.960  1.00  0.00     0.059 A 
ATOM     47  F   UNL A   1      35.025  32.387  32.748  1.00  0.00    -0.206 F 
ATOM     48  C   UNL A   1      34.647  34.548  29.875  1.00  0.00     0.060 A 
BRANCH  48  49
ATOM     49  S   UNL A   1      33.348  35.371  28.933  1.00  0.00     0.124 S 
ATOM     50  O   UNL A   1      34.126  36.082  27.923  1.00  0.00    -0.237 OA
ATOM     51  O   UNL A   1      32.561  34.240  28.444  1.00  0.00    -0.237 OA
ATOM     52  O   UNL A   1      32.686  36.209  29.923  1.00  0.00    -0.744 OA
ENDBRANCH  48  49
ENDBRANCH  27  41
BRANCH  28  53
ATOM     53  C   UNL A   1      44.013  28.593  36.351  1.00  0.00     0.058 A 
ATOM     54  C   UNL A   1      43.844  27.522  37.238  1.00  0.00     0.135 A 
ATOM     55  C   UNL A   1      45.314  29.093  36.191  1.00  0.00     0.135 A 
ATOM     56  F   UNL A   1      42.617  27.033  37.470  1.00  0.00    -0.206 F 
ATOM     57  C   UNL A   1      44.922  26.971  37.933  1.00  0.00     0.059 A 
ATOM     58  C   UNL A   1      46.414  28.537  36.840  1.00  0.00     0.059 A 
ATOM     59  F   UNL A   1      45.518  30.176  35.433  1.00  0.00    -0.206 F 
ATOM     60  C   UNL A   1      46.205  27.483  37.724  1.00  0.00     0.060 A 
BRANCH  60  61
ATOM     61  S   UNL A   1      47.596  26.754  38.621  1.00  0.00     0.124 S 
ATOM     62  O   UNL A   1      48.153  27.921  39.296  1.00  0.00    -0.237 OA
ATOM     63  O   UNL A   1      46.928  25.779  39.477  1.00  0.00    -0.237 OA
ATOM     64  O   UNL A   1      48.419  26.184  37.561  1.00  0.00    -0.744 OA
ENDBRANCH  60  61
ENDBRANCH  28  53
BRANCH  40  65
ATOM     65  C   UNL A   1      40.295  34.374  37.475  1.00  0.00     0.058 A 
ATOM     66  C   UNL A   1      40.983  35.590  37.378  1.00  0.00     0.135 A 
ATOM     67  C   UNL A   1      39.509  34.141  38.615  1.00  0.00     0.135 A 
ATOM     68  F   UNL A   1      41.761  35.846  36.314  1.00  0.00    -0.206 F 
ATOM     69  C   UNL A   1      40.892  36.549  38.378  1.00  0.00     0.059 A 
ATOM     70  C   UNL A   1      39.375  35.099  39.609  1.00  0.00     0.059 A 
ATOM     71  F   UNL A   1      38.830  32.990  38.746  1.00  0.00    -0.206 F 
ATOM     72  C   UNL A   1      40.073  36.300  39.483  1.00  0.00     0.060 A 
BRANCH  72  73
ATOM     73  S   UNL A   1      39.892  37.591  40.727  1.00  0.00     0.124 S 
ATOM     74  O   UNL A   1      39.204  36.875  41.796  1.00  0.00    -0.237 OA
ATOM     75  O   UNL A   1      41.280  37.956  40.998  1.00  0.00    -0.237 OA
ATOM     76  O   UNL A   1      39.103  38.612  40.046  1.00  0.00    -0.744 OA
ENDBRANCH  72  73
ENDBRANCH  40  65
ENDBRANCH  14  15
ENDBRANCH   7   9
ENDBRANCH   6   7
ENDBRANCH   5   6
ENDBRANCH   4   5
ENDBRANCH   3   4
ENDBRANCH   2   3
ENDBRANCH   1   2
BRANCH   1  77
ATOM     77  O   UNL A   1      34.608  22.495  24.291  1.00  0.00    -0.376 OA
BRANCH  77  78
ATOM     78  C   UNL A   1      33.266  22.666  23.891  1.00  0.00     0.202 C 
BRANCH  78  79
ATOM     79  C   UNL A   1      33.022  23.288  22.514  1.00  0.00     0.261 C 
BRANCH  79  80
ATOM     80  O   UNL A   1      32.142  24.421  22.473  1.00  0.00    -0.459 OA
BRANCH  80  81
ATOM     81  C   UNL A   1      32.683  25.604  22.054  1.00  0.00     0.368 C 
ATOM     82  O   UNL A   1      33.548  25.685  21.187  1.00  0.00    -0.245 OA
BRANCH  81  83
ATOM     83  C   UNL A   1      32.132  26.831  22.854  1.00  0.00     0.195 C 
ATOM     84  C   UNL A   1      32.936  28.116  22.693  1.00  0.00     0.082 C 
ATOM     85  C   UNL A   1      32.174  26.587  24.389  1.00  0.00     0.095 C 
ATOM     86  C   UNL A   1      33.916  28.213  23.847  1.00  0.00     0.022 C 
ATOM     87  C   UNL A   1      33.490  27.195  24.882  1.00  0.00     0.053 C 
BRANCH  83  88
ATOM     88  N   UNL A   1      30.723  27.032  22.419  1.00  0.00    -0.330 N 
ATOM     89  H   UNL A   1      30.222  26.155  22.561  1.00  0.00     0.347 HD
ATOM     90  H   UNL A   1      30.772  27.326  21.444  1.00  0.00     0.347 HD
BRANCH  88  91
ATOM     91  C   UNL A   1      29.983  28.094  23.122  1.00  0.00     0.183 C 
ATOM     92  C   UNL A   1      29.011  28.974  22.398  1.00  0.00     0.071 C 
ATOM     93  C   UNL A   1      28.510  27.898  23.318  1.00  0.00     0.071 C 
ENDBRANCH  88  91
ENDBRANCH  83  88
BRANCH  87  94
ATOM     94  S   UNL A   1      33.631  27.812  26.604  1.00  0.00    -0.158 SA
BRANCH  94  95
ATOM     95  C   UNL A   1      34.330  29.504  26.497  1.00  0.00     0.072 C 
BRANCH  95  96
ATOM     96  C   UNL A   1      35.547  29.840  27.363  1.00  0.00     0.039 C 
BRANCH  96  97
ATOM     97  C   UNL A   1      35.484  31.165  28.100  1.00  0.00     0.157 C 
BRANCH  97  98
ATOM     98  O   UNL A   1      34.323  31.250  28.911  1.00  0.00    -0.396 OA
ATOM     99  H   UNL A   1      34.235  32.152  29.255  1.00  0.00     0.210 HD
ENDBRANCH  97  98
ENDBRANCH  96  97
ENDBRANCH  95  96
ENDBRANCH  94  95
ENDBRANCH  87  94
ENDBRANCH  81  83
ENDBRANCH  80  81
ENDBRANCH  79  80
ENDBRANCH  78  79
ENDBRANCH  77  78
ENDBRANCH   1  77
TORSDOF 27
ENDMDL
MODEL 2
REMARK VINA RESULT:      -8.6      6.837      9.169
REMARK SMILES O=C(OCCOCCOCCOC(=O)[C@]1([NH2+]C2CC2)CC[C@@H](SCCCO)C1)c1ccc(-c2c3nc(c(-c4c(F)cc(S(=O)(=O)[O-])cc4F)c4ccc([nH]4)c(-c4c(F)cc(S(=O)(=O)[O-])cc4F)c4nc(c(-c5c(F)cc(S(=O)(=O)[O-])cc5F)c5ccc2[nH]5)C=C4)C=C3)cc1
REMARK SMILES IDX 8 1 7 2 6 3 5 4 4 5 3 6 2 7 1 8 29 9 30 10 94 11 31 12 93 13
REMARK SMILES IDX 32 14 33 15 34 16 87 17 35 18 92 19 86 20 88 21 36 22 91 23
REMARK SMILES IDX 85 24 84 25 37 27 71 28 50 29 70 30 51 31 54 32 69 33 89 34
REMARK SMILES IDX 52 35 53 36 68 38 90 39 55 40 38 41 39 42 48 43 40 44 41 45
REMARK SMILES IDX 47 46 49 47 42 48 43 49 44 50 45 51 46 52 72 53 73 54 82 55
REMARK SMILES IDX 74 56 75 57 81 58 83 59 76 60 77 61 78 62 79 63 80 64 56 65
REMARK SMILES IDX 57 66 66 67 58 68 59 69 65 70 67 71 60 72 61 73 62 74 63 75
REMARK SMILES IDX 64 76 9 77 10 78 11 79 12 80 13 81 14 82 15 83 20 84 28 85
REMARK SMILES IDX 21 86 22 87 16 88 17 91 18 92 19 93 23 94 24 95 25 96 26 97
REMARK SMILES IDX 27 98
REMARK H PARENT 88 26 54 37 16 89 16 90 27 99
REMARK Flexibility Score: inf
ROOT
ATOM      1  C   UNL A   1      36.481  23.316  24.777  1.00  0.00     0.188 C 
ENDROOT
BRANCH   1   2
ATOM      2  C   UNL A   1      37.105  21.970  25.169  1.00  0.00     0.188 C 
BRANCH   2   3
ATOM      3  O   UNL A   1      38.483  21.698  24.960  1.00  0.00    -0.376 OA
BRANCH   3   4
ATOM      4  C   UNL A   1      39.262  21.343  26.089  1.00  0.00     0.202 C 
BRANCH   4   5
ATOM      5  C   UNL A   1      39.690  19.874  26.183  1.00  0.00     0.261 C 
BRANCH   5   6
ATOM      6  O   UNL A   1      40.870  19.571  25.431  1.00  0.00    -0.460 OA
BRANCH   6   7
ATOM      7  C   UNL A   1      42.168  19.726  25.793  1.00  0.00     0.338 C 
ATOM      8  O   UNL A   1      42.858  18.708  25.856  1.00  0.00    -0.246 OA
BRANCH   7   9
ATOM      9  C   UNL A   1      42.787  21.024  26.251  1.00  0.00     0.060 A 
ATOM     10  C   UNL A   1      42.700  21.596  27.526  1.00  0.00     0.016 A 
ATOM     11  C   UNL A   1      43.561  21.709  25.295  1.00  0.00     0.016 A 
ATOM     12  C   UNL A   1      43.345  22.798  27.846  1.00  0.00     0.010 A 
ATOM     13  C   UNL A   1      44.214  22.909  25.608  1.00  0.00     0.010 A 
ATOM     14  C   UNL A   1      44.105  23.465  26.890  1.00  0.00    -0.014 A 
BRANCH  14  15
ATOM     15  C   UNL A   1      44.616  24.829  27.158  1.00  0.00     0.031 A 
ATOM     16  C   UNL A   1      43.592  25.887  27.415  1.00  0.00     0.074 A 
ATOM     17  C   UNL A   1      45.929  25.127  27.220  1.00  0.00     0.049 A 
ATOM     18  N   UNL A   1      43.773  27.154  27.655  1.00  0.00    -0.248 NA
ATOM     19  C   UNL A   1      42.187  25.446  27.484  1.00  0.00     0.031 C 
ATOM     20  C   UNL A   1      47.012  24.154  27.222  1.00  0.00     0.029 A 
ATOM     21  N   UNL A   1      46.592  26.328  27.259  1.00  0.00    -0.354 N 
ATOM     22  C   UNL A   1      42.517  27.647  27.966  1.00  0.00     0.074 A 
ATOM     23  C   UNL A   1      41.569  26.570  27.807  1.00  0.00     0.031 C 
ATOM     24  C   UNL A   1      48.192  24.781  27.079  1.00  0.00     0.029 A 
ATOM     25  C   UNL A   1      47.951  26.214  27.040  1.00  0.00     0.049 A 
ATOM     26  H   UNL A   1      46.141  27.188  27.425  1.00  0.00     0.167 HD
ATOM     27  C   UNL A   1      42.202  28.887  28.396  1.00  0.00     0.037 A 
ATOM     28  C   UNL A   1      48.879  27.166  26.822  1.00  0.00     0.037 A 
ATOM     29  C   UNL A   1      43.163  29.946  28.505  1.00  0.00     0.049 A 
ATOM     30  C   UNL A   1      48.456  28.590  27.029  1.00  0.00     0.074 A 
ATOM     31  C   UNL A   1      42.965  31.248  28.915  1.00  0.00     0.029 A 
ATOM     32  N   UNL A   1      44.504  29.826  28.161  1.00  0.00    -0.354 N 
ATOM     33  N   UNL A   1      47.273  29.043  27.372  1.00  0.00    -0.248 NA
ATOM     34  C   UNL A   1      49.488  29.624  26.897  1.00  0.00     0.031 C 
ATOM     35  C   UNL A   1      44.169  31.938  28.746  1.00  0.00     0.029 A 
ATOM     36  C   UNL A   1      45.135  31.049  28.292  1.00  0.00     0.049 A 
ATOM     37  H   UNL A   1      44.941  28.995  27.867  1.00  0.00     0.167 HD
ATOM     38  C   UNL A   1      47.432  30.404  27.570  1.00  0.00     0.074 A 
ATOM     39  C   UNL A   1      48.821  30.706  27.276  1.00  0.00     0.031 C 
ATOM     40  C   UNL A   1      46.521  31.314  27.991  1.00  0.00     0.037 A 
BRANCH  27  41
ATOM     41  C   UNL A   1      40.765  29.141  28.730  1.00  0.00     0.058 A 
ATOM     42  C   UNL A   1      39.805  29.367  27.729  1.00  0.00     0.135 A 
ATOM     43  C   UNL A   1      40.351  29.195  30.067  1.00  0.00     0.135 A 
ATOM     44  F   UNL A   1      40.160  29.368  26.435  1.00  0.00    -0.206 F 
ATOM     45  C   UNL A   1      38.483  29.657  28.047  1.00  0.00     0.059 A 
ATOM     46  C   UNL A   1      39.030  29.459  30.408  1.00  0.00     0.059 A 
ATOM     47  F   UNL A   1      41.239  29.013  31.056  1.00  0.00    -0.206 F 
ATOM     48  C   UNL A   1      38.105  29.700  29.391  1.00  0.00     0.060 A 
BRANCH  48  49
ATOM     49  S   UNL A   1      36.387  30.074  29.792  1.00  0.00     0.124 S 
ATOM     50  O   UNL A   1      36.232  29.391  31.074  1.00  0.00    -0.237 OA
ATOM     51  O   UNL A   1      36.397  31.535  29.851  1.00  0.00    -0.237 OA
ATOM     52  O   UNL A   1      35.643  29.499  28.679  1.00  0.00    -0.744 OA
ENDBRANCH  48  49
ENDBRANCH  27  41
BRANCH  28  53
ATOM     53  C   UNL A   1      50.267  26.835  26.389  1.00  0.00     0.058 A 
ATOM     54  C   UNL A   1      51.319  26.663  27.296  1.00  0.00     0.135 A 
ATOM     55  C   UNL A   1      50.580  26.761  25.023  1.00  0.00     0.135 A 
ATOM     56  F   UNL A   1      51.091  26.772  28.614  1.00  0.00    -0.206 F 
ATOM     57  C   UNL A   1      52.626  26.424  26.865  1.00  0.00     0.059 A 
ATOM     58  C   UNL A   1      51.866  26.484  24.565  1.00  0.00     0.059 A 
ATOM     59  F   UNL A   1      49.634  27.015  24.112  1.00  0.00    -0.206 F 
ATOM     60  C   UNL A   1      52.888  26.332  25.496  1.00  0.00     0.060 A 
BRANCH  60  61
ATOM     61  S   UNL A   1      54.581  26.011  24.949  1.00  0.00     0.124 S 
ATOM     62  O   UNL A   1      54.693  24.573  25.168  1.00  0.00    -0.237 OA
ATOM     63  O   UNL A   1      54.538  26.443  23.555  1.00  0.00    -0.237 OA
ATOM     64  O   UNL A   1      55.385  26.849  25.830  1.00  0.00    -0.744 OA
ENDBRANCH  60  61
ENDBRANCH  28  53
BRANCH  40  65
ATOM     65  C   UNL A   1      47.003  32.716  28.197  1.00  0.00     0.058 A 
ATOM     66  C   UNL A   1      47.636  33.105  29.385  1.00  0.00     0.135 A 
ATOM     67  C   UNL A   1      46.912  33.650  27.153  1.00  0.00     0.135 A 
ATOM     68  F   UNL A   1      47.729  32.250  30.416  1.00  0.00    -0.206 F 
ATOM     69  C   UNL A   1      48.167  34.380  29.532  1.00  0.00     0.059 A 
ATOM     70  C   UNL A   1      47.466  34.917  27.265  1.00  0.00     0.059 A 
ATOM     71  F   UNL A   1      46.317  33.317  25.996  1.00  0.00    -0.206 F 
ATOM     72  C   UNL A   1      48.090  35.274  28.460  1.00  0.00     0.060 A 
BRANCH  72  73
ATOM     73  S   UNL A   1      48.864  36.892  28.634  1.00  0.00     0.124 S 
ATOM     74  O   UNL A   1      50.249  36.593  28.290  1.00  0.00    -0.237 OA
ATOM     75  O   UNL A   1      48.126  37.693  27.661  1.00  0.00    -0.237 OA
ATOM     76  O   UNL A   1      48.623  37.236  30.031  1.00  0.00    -0.744 OA
ENDBRANCH  72  73
ENDBRANCH  40  65
ENDBRANCH  14  15
ENDBRANCH   7   9
ENDBRANCH   6   7
ENDBRANCH   5   6
ENDBRANCH   4   5
ENDBRANCH   3   4
ENDBRANCH   2   3
ENDBRANCH   1   2
BRANCH   1  77
ATOM     77  O   UNL A   1      35.593  23.480  23.685  1.00  0.00    -0.376 OA
BRANCH  77  78
ATOM     78  C   UNL A   1      34.202  23.583  23.901  1.00  0.00     0.202 C 
BRANCH  78  79
ATOM     79  C   UNL A   1      33.355  24.117  22.743  1.00  0.00     0.261 C 
BRANCH  79  80
ATOM     80  O   UNL A   1      32.067  24.648  23.087  1.00  0.00    -0.459 OA
BRANCH  80  81
ATOM     81  C   UNL A   1      31.691  25.803  22.459  1.00  0.00     0.368 C 
ATOM     82  O   UNL A   1      31.748  25.964  21.244  1.00  0.00    -0.245 OA
BRANCH  81  83
ATOM     83  C   UNL A   1      31.255  26.917  23.469  1.00  0.00     0.195 C 
ATOM     84  C   UNL A   1      30.244  26.469  24.519  1.00  0.00     0.082 C 
ATOM     85  C   UNL A   1      30.520  28.087  22.758  1.00  0.00     0.095 C 
ATOM     86  C   UNL A   1      28.855  26.825  24.024  1.00  0.00     0.022 C 
ATOM     87  C   UNL A   1      29.025  27.779  22.862  1.00  0.00     0.053 C 
BRANCH  83  88
ATOM     88  N   UNL A   1      32.496  27.424  24.114  1.00  0.00    -0.330 N 
ATOM     89  H   UNL A   1      32.991  28.001  23.434  1.00  0.00     0.347 HD
ATOM     90  H   UNL A   1      33.016  26.598  24.409  1.00  0.00     0.347 HD
BRANCH  88  91
ATOM     91  C   UNL A   1      32.299  28.229  25.332  1.00  0.00     0.183 C 
ATOM     92  C   UNL A   1      32.932  27.838  26.633  1.00  0.00     0.071 C 
ATOM     93  C   UNL A   1      33.477  28.999  25.851  1.00  0.00     0.071 C 
ENDBRANCH  88  91
ENDBRANCH  83  88
BRANCH  87  94
ATOM     94  S   UNL A   1      27.800  29.146  22.864  1.00  0.00    -0.158 SA
BRANCH  94  95
ATOM     95  C   UNL A   1      28.685  30.638  23.457  1.00  0.00     0.072 C 
BRANCH  95  96
ATOM     96  C   UNL A   1      28.046  32.007  23.205  1.00  0.00     0.039 C 
BRANCH  96  97
ATOM     97  C   UNL A   1      28.548  32.750  21.981  1.00  0.00     0.157 C 
BRANCH  97  98
ATOM     98  O   UNL A   1      28.872  31.855  20.930  1.00  0.00    -0.396 OA
ATOM     99  H   UNL A   1      29.835  31.817  20.823  1.00  0.00     0.210 HD
ENDBRANCH  97  98
ENDBRANCH  96  97
ENDBRANCH  95  96
ENDBRANCH  94  95
ENDBRANCH  87  94
ENDBRANCH  81  83
ENDBRANCH  80  81
ENDBRANCH  79  80
ENDBRANCH  78  79
ENDBRANCH  77  78
ENDBRANCH   1  77
TORSDOF 27
ENDMDL
MODEL 3
REMARK VINA RESULT:      -8.5      1.809      3.310
REMARK SMILES O=C(OCCOCCOCCOC(=O)[C@]1([NH2+]C2CC2)CC[C@@H](SCCCO)C1)c1ccc(-c2c3nc(c(-c4c(F)cc(S(=O)(=O)[O-])cc4F)c4ccc([nH]4)c(-c4c(F)cc(S(=O)(=O)[O-])cc4F)c4nc(c(-c5c(F)cc(S(=O)(=O)[O-])cc5F)c5ccc2[nH]5)C=C4)C=C3)cc1
REMARK SMILES IDX 8 1 7 2 6 3 5 4 4 5 3 6 2 7 1 8 29 9 30 10 94 11 31 12 93 13
REMARK SMILES IDX 32 14 33 15 34 16 87 17 35 18 92 19 86 20 88 21 36 22 91 23
REMARK SMILES IDX 85 24 84 25 37 27 71 28 50 29 70 30 51 31 54 32 69 33 89 34
REMARK SMILES IDX 52 35 53 36 68 38 90 39 55 40 38 41 39 42 48 43 40 44 41 45
REMARK SMILES IDX 47 46 49 47 42 48 43 49 44 50 45 51 46 52 72 53 73 54 82 55
REMARK SMILES IDX 74 56 75 57 81 58 83 59 76 60 77 61 78 62 79 63 80 64 56 65
REMARK SMILES IDX 57 66 66 67 58 68 59 69 65 70 67 71 60 72 61 73 62 74 63 75
REMARK SMILES IDX 64 76 9 77 10 78 11 79 12 80 13 81 14 82 15 83 20 84 28 85
REMARK SMILES IDX 21 86 22 87 16 88 17 91 18 92 19 93 23 94 24 95 25 96 26 97
REMARK SMILES IDX 27 98
REMARK H PARENT 88 26 54 37 16 89 16 90 27 99
REMARK Flexibility Score: inf
ROOT
ATOM      1  C   UNL A   1      40.527  20.540  25.756  1.00  0.00     0.188 C 
ENDROOT
BRANCH   1   2
ATOM      2  C   UNL A   1      41.735  20.003  26.535  1.00  0.00     0.188 C 
BRANCH   2   3
ATOM      3  O   UNL A   1      43.067  20.254  26.111  1.00  0.00    -0.376 OA
BRANCH   3   4
ATOM      4  C   UNL A   1      43.421  21.592  25.808  1.00  0.00     0.202 C 
BRANCH   4   5
ATOM      5  C   UNL A   1      43.079  22.642  26.871  1.00  0.00     0.261 C 
BRANCH   5   6
ATOM      6  O   UNL A   1      42.305  23.736  26.369  1.00  0.00    -0.460 OA
BRANCH   6   7
ATOM      7  C   UNL A   1      42.631  25.052  26.319  1.00  0.00     0.338 C 
ATOM      8  O   UNL A   1      43.258  25.437  25.332  1.00  0.00    -0.246 OA
BRANCH   7   9
ATOM      9  C   UNL A   1      42.405  26.040  27.437  1.00  0.00     0.060 A 
ATOM     10  C   UNL A   1      43.238  27.104  27.805  1.00  0.00     0.016 A 
ATOM     11  C   UNL A   1      41.207  25.887  28.162  1.00  0.00     0.016 A 
ATOM     12  C   UNL A   1      42.907  27.980  28.847  1.00  0.00     0.010 A 
ATOM     13  C   UNL A   1      40.866  26.762  29.202  1.00  0.00     0.010 A 
ATOM     14  C   UNL A   1      41.722  27.815  29.556  1.00  0.00    -0.014 A 
BRANCH  14  15
ATOM     15  C   UNL A   1      41.466  28.604  30.783  1.00  0.00     0.031 A 
ATOM     16  C   UNL A   1      40.428  29.674  30.685  1.00  0.00     0.074 A 
ATOM     17  C   UNL A   1      42.085  28.365  31.957  1.00  0.00     0.049 A 
ATOM     18  N   UNL A   1      40.032  30.510  31.600  1.00  0.00    -0.248 NA
ATOM     19  C   UNL A   1      39.689  29.765  29.412  1.00  0.00     0.031 C 
ATOM     20  C   UNL A   1      42.932  27.215  32.241  1.00  0.00     0.029 A 
ATOM     21  N   UNL A   1      42.135  29.083  33.125  1.00  0.00    -0.354 N 
ATOM     22  C   UNL A   1      38.958  31.180  31.039  1.00  0.00     0.074 A 
ATOM     23  C   UNL A   1      38.812  30.718  29.680  1.00  0.00     0.031 C 
ATOM     24  C   UNL A   1      43.557  27.386  33.419  1.00  0.00     0.029 A 
ATOM     25  C   UNL A   1      43.102  28.637  34.005  1.00  0.00     0.049 A 
ATOM     26  H   UNL A   1      41.540  29.845  33.316  1.00  0.00     0.167 HD
ATOM     27  C   UNL A   1      38.138  32.070  31.637  1.00  0.00     0.037 A 
ATOM     28  C   UNL A   1      43.565  29.191  35.142  1.00  0.00     0.037 A 
ATOM     29  C   UNL A   1      38.336  32.540  32.978  1.00  0.00     0.049 A 
ATOM     30  C   UNL A   1      42.816  30.376  35.677  1.00  0.00     0.074 A 
ATOM     31  C   UNL A   1      37.584  33.450  33.691  1.00  0.00     0.029 A 
ATOM     32  N   UNL A   1      39.393  32.156  33.795  1.00  0.00    -0.354 N 
ATOM     33  N   UNL A   1      41.768  30.973  35.160  1.00  0.00    -0.248 NA
ATOM     34  C   UNL A   1      43.250  30.918  36.969  1.00  0.00     0.031 C 
ATOM     35  C   UNL A   1      38.228  33.676  34.911  1.00  0.00     0.029 A 
ATOM     36  C   UNL A   1      39.347  32.858  34.985  1.00  0.00     0.049 A 
ATOM     37  H   UNL A   1      40.074  31.485  33.562  1.00  0.00     0.167 HD
ATOM     38  C   UNL A   1      41.370  31.913  36.096  1.00  0.00     0.074 A 
ATOM     39  C   UNL A   1      42.311  31.827  37.197  1.00  0.00     0.031 C 
ATOM     40  C   UNL A   1      40.302  32.746  36.061  1.00  0.00     0.037 A 
BRANCH  27  41
ATOM     41  C   UNL A   1      37.003  32.600  30.818  1.00  0.00     0.058 A 
ATOM     42  C   UNL A   1      35.743  31.978  30.815  1.00  0.00     0.135 A 
ATOM     43  C   UNL A   1      37.189  33.721  29.998  1.00  0.00     0.135 A 
ATOM     44  F   UNL A   1      35.528  30.876  31.551  1.00  0.00    -0.206 F 
ATOM     45  C   UNL A   1      34.709  32.443  30.010  1.00  0.00     0.059 A 
ATOM     46  C   UNL A   1      36.163  34.217  29.203  1.00  0.00     0.059 A 
ATOM     47  F   UNL A   1      38.384  34.329  29.948  1.00  0.00    -0.206 F 
ATOM     48  C   UNL A   1      34.929  33.564  29.208  1.00  0.00     0.060 A 
BRANCH  48  49
ATOM     49  S   UNL A   1      33.580  34.159  28.170  1.00  0.00     0.124 S 
ATOM     50  O   UNL A   1      32.748  34.859  29.146  1.00  0.00    -0.237 OA
ATOM     51  O   UNL A   1      34.282  35.013  27.212  1.00  0.00    -0.237 OA
ATOM     52  O   UNL A   1      33.009  32.939  27.617  1.00  0.00    -0.744 OA
ENDBRANCH  48  49
ENDBRANCH  27  41
BRANCH  28  53
ATOM     53  C   UNL A   1      44.770  28.667  35.846  1.00  0.00     0.058 A 
ATOM     54  C   UNL A   1      44.691  27.711  36.866  1.00  0.00     0.135 A 
ATOM     55  C   UNL A   1      46.040  29.185  35.551  1.00  0.00     0.135 A 
ATOM     56  F   UNL A   1      43.498  27.216  37.227  1.00  0.00    -0.206 F 
ATOM     57  C   UNL A   1      45.826  27.286  37.560  1.00  0.00     0.059 A 
ATOM     58  C   UNL A   1      47.194  28.751  36.198  1.00  0.00     0.059 A 
ATOM     59  F   UNL A   1      46.161  30.171  34.654  1.00  0.00    -0.206 F 
ATOM     60  C   UNL A   1      47.075  27.809  37.216  1.00  0.00     0.060 A 
BRANCH  60  61
ATOM     61  S   UNL A   1      48.538  27.244  38.114  1.00  0.00     0.124 S 
ATOM     62  O   UNL A   1      48.280  25.812  38.225  1.00  0.00    -0.237 OA
ATOM     63  O   UNL A   1      49.618  27.629  37.210  1.00  0.00    -0.237 OA
ATOM     64  O   UNL A   1      48.480  27.995  39.362  1.00  0.00    -0.744 OA
ENDBRANCH  60  61
ENDBRANCH  28  53
BRANCH  40  65
ATOM     65  C   UNL A   1      40.069  33.605  37.265  1.00  0.00     0.058 A 
ATOM     66  C   UNL A   1      40.628  34.885  37.372  1.00  0.00     0.135 A 
ATOM     67  C   UNL A   1      39.198  33.171  38.277  1.00  0.00     0.135 A 
ATOM     68  F   UNL A   1      41.480  35.332  36.435  1.00  0.00    -0.206 F 
ATOM     69  C   UNL A   1      40.330  35.713  38.445  1.00  0.00     0.059 A 
ATOM     70  C   UNL A   1      38.858  33.995  39.341  1.00  0.00     0.059 A 
ATOM     71  F   UNL A   1      38.637  31.953  38.213  1.00  0.00    -0.206 F 
ATOM     72  C   UNL A   1      39.431  35.264  39.418  1.00  0.00     0.060 A 
BRANCH  72  73
ATOM     73  S   UNL A   1      38.983  36.384  40.756  1.00  0.00     0.124 S 
ATOM     74  O   UNL A   1      38.733  37.624  40.030  1.00  0.00    -0.237 OA
ATOM     75  O   UNL A   1      37.807  35.732  41.325  1.00  0.00    -0.237 OA
ATOM     76  O   UNL A   1      40.167  36.384  41.610  1.00  0.00    -0.744 OA
ENDBRANCH  72  73
ENDBRANCH  40  65
ENDBRANCH  14  15
ENDBRANCH   7   9
ENDBRANCH   6   7
ENDBRANCH   5   6
ENDBRANCH   4   5
ENDBRANCH   3   4
ENDBRANCH   2   3
ENDBRANCH   1   2
BRANCH   1  77
ATOM     77  O   UNL A   1      39.347  21.022  26.375  1.00  0.00    -0.376 OA
BRANCH  77  78
ATOM     78  C   UNL A   1      38.660  22.134  25.842  1.00  0.00     0.202 C 
BRANCH  78  79
ATOM     79  C   UNL A   1      37.473  21.843  24.921  1.00  0.00     0.261 C 
BRANCH  79  80
ATOM     80  O   UNL A   1      36.474  22.869  24.825  1.00  0.00    -0.459 OA
BRANCH  80  81
ATOM     81  C   UNL A   1      35.815  22.975  23.631  1.00  0.00     0.368 C 
ATOM     82  O   UNL A   1      36.380  22.971  22.542  1.00  0.00    -0.245 OA
BRANCH  81  83
ATOM     83  C   UNL A   1      34.274  23.178  23.815  1.00  0.00     0.195 C 
ATOM     84  C   UNL A   1      33.453  23.050  22.536  1.00  0.00     0.082 C 
ATOM     85  C   UNL A   1      33.933  24.614  24.302  1.00  0.00     0.095 C 
ATOM     86  C   UNL A   1      33.242  24.439  21.965  1.00  0.00     0.022 C 
ATOM     87  C   UNL A   1      33.621  25.429  23.044  1.00  0.00     0.053 C 
BRANCH  83  88
ATOM     88  N   UNL A   1      33.827  22.187  24.831  1.00  0.00    -0.330 N 
ATOM     89  H   UNL A   1      33.163  22.649  25.451  1.00  0.00     0.347 HD
ATOM     90  H   UNL A   1      34.674  21.866  25.299  1.00  0.00     0.347 HD
BRANCH  88  91
ATOM     91  C   UNL A   1      33.181  20.975  24.298  1.00  0.00     0.183 C 
ATOM     92  C   UNL A   1      33.789  19.619  24.495  1.00  0.00     0.071 C 
ATOM     93  C   UNL A   1      32.577  20.022  25.286  1.00  0.00     0.071 C 
ENDBRANCH  88  91
ENDBRANCH  83  88
BRANCH  87  94
ATOM     94  S   UNL A   1      32.485  26.867  23.137  1.00  0.00    -0.158 SA
BRANCH  94  95
ATOM     95  C   UNL A   1      32.217  27.206  24.919  1.00  0.00     0.072 C 
BRANCH  95  96
ATOM     96  C   UNL A   1      31.331  28.395  25.304  1.00  0.00     0.039 C 
BRANCH  96  97
ATOM     97  C   UNL A   1      32.038  29.734  25.408  1.00  0.00     0.157 C 
BRANCH  97  98
ATOM     98  O   UNL A   1      31.185  30.799  25.020  1.00  0.00    -0.396 OA
ATOM     99  H   UNL A   1      31.696  31.623  24.978  1.00  0.00     0.210 HD
ENDBRANCH  97  98
ENDBRANCH  96  97
ENDBRANCH  95  96
ENDBRANCH  94  95
ENDBRANCH  87  94
ENDBRANCH  81  83
ENDBRANCH  80  81
ENDBRANCH  79  80
ENDBRANCH  78  79
ENDBRANCH  77  78
ENDBRANCH   1  77
TORSDOF 27
ENDMDL
