MODEL 1
REMARK VINA RESULT:      -9.2      0.000      0.000
REMARK SMILES CCN(C(=O)N[C@@H]1CCOC1)[C@H]1COC[C@H]1C(=O)OCCOCCOCCOC(=O)c1ccc(-c2c3nc(c(-c4c(F)cc(S(=O)(=O)[O-])cc4F)c4ccc([nH]4)c(-c4c(F)cc(S(=O)(=O)[O-])cc4F)c4nc(c(-c5c(F)cc(S(=O)(=O)[O-])cc5F)c5ccc2[nH]5)C=C4)C=C3)cc1
REMARK SMILES IDX 23 1 22 2 21 3 20 4 19 5 17 6 18 7 16 8 12 9 13 10 14 11
REMARK SMILES IDX 15 12 3 13 2 14 1 15 4 16 5 17 6 18 7 20 8 21 11 22 9 23
REMARK SMILES IDX 10 24 24 25 25 26 26 27 27 28 28 29 29 30 30 31 31 32 32 33
REMARK SMILES IDX 96 34 33 35 95 36 34 37 35 38 36 39 89 40 37 41 94 42 88 43
REMARK SMILES IDX 90 44 38 45 93 46 87 47 86 48 39 50 73 51 52 52 72 53 53 54
REMARK SMILES IDX 56 55 71 56 91 57 54 58 55 59 70 61 92 62 57 63 40 64 41 65
REMARK SMILES IDX 50 66 42 67 43 68 49 69 51 70 44 71 45 72 46 73 47 74 48 75
REMARK SMILES IDX 74 76 75 77 84 78 76 79 77 80 83 81 85 82 78 83 79 84 80 85
REMARK SMILES IDX 81 86 82 87 58 88 59 89 68 90 60 91 61 92 67 93 69 94 62 95
REMARK SMILES IDX 63 96 64 97 65 98 66 99
REMARK H PARENT 6 19 90 49 56 60
REMARK Flexibility Score: inf
ROOT
ATOM      1  C   UNL A   1      39.990  21.790  26.151  1.00  0.00     0.188 C 
ENDROOT
BRANCH   1   2
ATOM      2  O   UNL A   1      38.575  21.620  26.173  1.00  0.00    -0.376 OA
BRANCH   2   3
ATOM      3  C   UNL A   1      37.767  22.354  25.262  1.00  0.00     0.202 C 
BRANCH   3   4
ATOM      4  C   UNL A   1      37.094  23.628  25.787  1.00  0.00     0.261 C 
BRANCH   4   5
ATOM      5  O   UNL A   1      35.669  23.514  25.982  1.00  0.00    -0.463 OA
BRANCH   5   6
ATOM      6  C   UNL A   1      34.887  24.125  25.063  1.00  0.00     0.313 C 
ATOM      7  O   UNL A   1      34.772  25.346  24.981  1.00  0.00    -0.252 OA
BRANCH   6   8
ATOM      8  C   UNL A   1      34.260  23.220  24.026  1.00  0.00     0.150 C 
ATOM      9  C   UNL A   1      33.486  21.921  24.247  1.00  0.00     0.129 C 
ATOM     10  C   UNL A   1      32.643  21.857  22.965  1.00  0.00     0.186 C 
ATOM     11  O   UNL A   1      32.270  23.212  22.687  1.00  0.00    -0.378 OA
ATOM     12  C   UNL A   1      33.363  24.042  23.107  1.00  0.00     0.177 C 
BRANCH   9  13
ATOM     13  N   UNL A   1      32.685  21.675  25.487  1.00  0.00    -0.319 N 
BRANCH  13  14
ATOM     14  C   UNL A   1      31.243  21.926  25.442  1.00  0.00     0.118 C 
ATOM     15  C   UNL A   1      30.814  23.234  26.076  1.00  0.00     0.027 C 
ENDBRANCH  13  14
BRANCH  13  16
ATOM     16  C   UNL A   1      33.214  20.737  26.340  1.00  0.00     0.318 C 
ATOM     17  O   UNL A   1      33.759  21.068  27.402  1.00  0.00    -0.249 OA
ATOM     18  N   UNL A   1      33.228  19.415  26.147  1.00  0.00    -0.333 N 
ATOM     19  H   UNL A   1      33.984  19.045  26.657  1.00  0.00     0.165 HD
BRANCH  18  20
ATOM     20  C   UNL A   1      32.551  18.293  25.465  1.00  0.00     0.112 C 
ATOM     21  C   UNL A   1      33.476  17.086  25.602  1.00  0.00     0.056 C 
ATOM     22  C   UNL A   1      32.363  18.247  23.959  1.00  0.00     0.185 C 
ATOM     23  C   UNL A   1      34.435  17.337  24.453  1.00  0.00     0.162 C 
ATOM     24  O   UNL A   1      33.626  17.858  23.382  1.00  0.00    -0.379 OA
ENDBRANCH  18  20
ENDBRANCH  13  16
ENDBRANCH   9  13
ENDBRANCH   6   8
ENDBRANCH   5   6
ENDBRANCH   4   5
ENDBRANCH   3   4
ENDBRANCH   2   3
ENDBRANCH   1   2
BRANCH   1  25
ATOM     25  C   UNL A   1      40.797  21.595  27.442  1.00  0.00     0.188 C 
BRANCH  25  26
ATOM     26  O   UNL A   1      42.028  20.917  27.260  1.00  0.00    -0.376 OA
BRANCH  26  27
ATOM     27  C   UNL A   1      41.964  19.505  27.325  1.00  0.00     0.202 C 
BRANCH  27  28
ATOM     28  C   UNL A   1      42.686  18.828  26.157  1.00  0.00     0.261 C 
BRANCH  28  29
ATOM     29  O   UNL A   1      43.033  19.708  25.074  1.00  0.00    -0.460 OA
BRANCH  29  30
ATOM     30  C   UNL A   1      44.347  19.781  24.745  1.00  0.00     0.338 C 
ATOM     31  O   UNL A   1      45.008  18.927  24.191  1.00  0.00    -0.246 OA
BRANCH  30  32
ATOM     32  C   UNL A   1      44.794  21.167  25.025  1.00  0.00     0.060 A 
ATOM     33  C   UNL A   1      45.317  21.494  26.283  1.00  0.00     0.016 A 
ATOM     34  C   UNL A   1      44.699  22.138  24.026  1.00  0.00     0.016 A 
ATOM     35  C   UNL A   1      45.711  22.810  26.556  1.00  0.00     0.010 A 
ATOM     36  C   UNL A   1      45.080  23.452  24.305  1.00  0.00     0.010 A 
ATOM     37  C   UNL A   1      45.556  23.805  25.581  1.00  0.00    -0.014 A 
BRANCH  37  38
ATOM     38  C   UNL A   1      45.715  25.244  25.919  1.00  0.00     0.031 A 
ATOM     39  C   UNL A   1      47.098  25.842  25.863  1.00  0.00     0.074 A 
ATOM     40  C   UNL A   1      44.670  25.998  26.304  1.00  0.00     0.049 A 
ATOM     41  N   UNL A   1      47.505  27.032  26.221  1.00  0.00    -0.248 NA
ATOM     42  C   UNL A   1      48.167  24.971  25.348  1.00  0.00     0.031 C 
ATOM     43  C   UNL A   1      43.282  25.546  26.380  1.00  0.00     0.029 A 
ATOM     44  N   UNL A   1      44.621  27.305  26.728  1.00  0.00    -0.354 N 
ATOM     45  C   UNL A   1      48.877  27.048  25.987  1.00  0.00     0.074 A 
ATOM     46  C   UNL A   1      49.236  25.739  25.488  1.00  0.00     0.031 C 
ATOM     47  C   UNL A   1      42.520  26.554  26.842  1.00  0.00     0.029 A 
ATOM     48  C   UNL A   1      43.370  27.709  27.130  1.00  0.00     0.049 A 
ATOM     49  H   UNL A   1      45.408  27.896  26.743  1.00  0.00     0.167 HD
ATOM     50  C   UNL A   1      49.755  28.064  26.168  1.00  0.00     0.037 A 
ATOM     51  C   UNL A   1      42.963  28.866  27.692  1.00  0.00     0.037 A 
ATOM     52  C   UNL A   1      49.390  29.365  26.665  1.00  0.00     0.049 A 
ATOM     53  C   UNL A   1      43.968  29.966  27.934  1.00  0.00     0.074 A 
ATOM     54  C   UNL A   1      50.201  30.472  26.853  1.00  0.00     0.029 A 
ATOM     55  N   UNL A   1      48.113  29.735  27.061  1.00  0.00    -0.354 N 
ATOM     56  N   UNL A   1      45.256  29.980  27.678  1.00  0.00    -0.248 NA
ATOM     57  C   UNL A   1      43.466  31.208  28.538  1.00  0.00     0.031 C 
ATOM     58  C   UNL A   1      49.426  31.490  27.419  1.00  0.00     0.029 A 
ATOM     59  C   UNL A   1      48.119  31.043  27.519  1.00  0.00     0.049 A 
ATOM     60  H   UNL A   1      47.319  29.154  27.023  1.00  0.00     0.167 HD
ATOM     61  C   UNL A   1      45.707  31.243  28.058  1.00  0.00     0.074 A 
ATOM     62  C   UNL A   1      44.553  31.965  28.551  1.00  0.00     0.031 C 
ATOM     63  C   UNL A   1      46.961  31.756  28.000  1.00  0.00     0.037 A 
BRANCH  50  64
ATOM     64  C   UNL A   1      51.204  27.803  25.851  1.00  0.00     0.058 A 
ATOM     65  C   UNL A   1      52.106  27.345  26.825  1.00  0.00     0.135 A 
ATOM     66  C   UNL A   1      51.686  27.971  24.542  1.00  0.00     0.135 A 
ATOM     67  F   UNL A   1      51.705  27.184  28.096  1.00  0.00    -0.206 F 
ATOM     68  C   UNL A   1      53.439  27.088  26.518  1.00  0.00     0.059 A 
ATOM     69  C   UNL A   1      53.007  27.690  24.207  1.00  0.00     0.059 A 
ATOM     70  F   UNL A   1      50.869  28.409  23.571  1.00  0.00    -0.206 F 
ATOM     71  C   UNL A   1      53.880  27.260  25.205  1.00  0.00     0.060 A 
BRANCH  71  72
ATOM     72  S   UNL A   1      55.608  26.908  24.822  1.00  0.00     0.124 S 
ATOM     73  O   UNL A   1      55.574  25.462  24.621  1.00  0.00    -0.237 OA
ATOM     74  O   UNL A   1      55.829  27.708  23.623  1.00  0.00    -0.237 OA
ATOM     75  O   UNL A   1      56.321  27.358  26.013  1.00  0.00    -0.744 OA
ENDBRANCH  71  72
ENDBRANCH  50  64
BRANCH  51  76
ATOM     76  C   UNL A   1      41.535  29.047  28.080  1.00  0.00     0.058 A 
ATOM     77  C   UNL A   1      41.143  29.042  29.427  1.00  0.00     0.135 A 
ATOM     78  C   UNL A   1      40.533  29.219  27.112  1.00  0.00     0.135 A 
ATOM     79  F   UNL A   1      42.059  28.866  30.392  1.00  0.00    -0.206 F 
ATOM     80  C   UNL A   1      39.809  29.185  29.800  1.00  0.00     0.059 A 
ATOM     81  C   UNL A   1      39.197  29.394  27.461  1.00  0.00     0.059 A 
ATOM     82  F   UNL A   1      40.853  29.238  25.808  1.00  0.00    -0.206 F 
ATOM     83  C   UNL A   1      38.844  29.364  28.808  1.00  0.00     0.060 A 
BRANCH  83  84
ATOM     84  S   UNL A   1      37.123  29.594  29.308  1.00  0.00     0.124 S 
ATOM     85  O   UNL A   1      37.041  31.046  29.422  1.00  0.00    -0.237 OA
ATOM     86  O   UNL A   1      36.399  29.000  28.190  1.00  0.00    -0.237 OA
ATOM     87  O   UNL A   1      37.037  28.856  30.565  1.00  0.00    -0.744 OA
ENDBRANCH  83  84
ENDBRANCH  51  76
BRANCH  63  88
ATOM     88  C   UNL A   1      47.153  33.186  28.437  1.00  0.00     0.058 A 
ATOM     89  C   UNL A   1      47.494  33.524  29.756  1.00  0.00     0.135 A 
ATOM     90  C   UNL A   1      47.044  34.231  27.503  1.00  0.00     0.135 A 
ATOM     91  F   UNL A   1      47.608  32.567  30.690  1.00  0.00    -0.206 F 
ATOM     92  C   UNL A   1      47.690  34.847  30.141  1.00  0.00     0.059 A 
ATOM     93  C   UNL A   1      47.268  35.558  27.858  1.00  0.00     0.059 A 
ATOM     94  F   UNL A   1      46.733  33.966  26.224  1.00  0.00    -0.206 F 
ATOM     95  C   UNL A   1      47.578  35.858  29.184  1.00  0.00     0.060 A 
BRANCH  95  96
ATOM     96  S   UNL A   1      47.860  37.567  29.692  1.00  0.00     0.124 S 
ATOM     97  O   UNL A   1      46.583  38.188  29.357  1.00  0.00    -0.237 OA
ATOM     98  O   UNL A   1      48.144  37.427  31.116  1.00  0.00    -0.237 OA
ATOM     99  O   UNL A   1      48.993  37.984  28.871  1.00  0.00    -0.744 OA
ENDBRANCH  95  96
ENDBRANCH  63  88
ENDBRANCH  37  38
ENDBRANCH  30  32
ENDBRANCH  29  30
ENDBRANCH  28  29
ENDBRANCH  27  28
ENDBRANCH  26  27
ENDBRANCH  25  26
ENDBRANCH   1  25
TORSDOF 24
ENDMDL
MODEL 2
REMARK VINA RESULT:      -8.1      6.502     11.179
REMARK SMILES CCN(C(=O)N[C@@H]1CCOC1)[C@H]1COC[C@H]1C(=O)OCCOCCOCCOC(=O)c1ccc(-c2c3nc(c(-c4c(F)cc(S(=O)(=O)[O-])cc4F)c4ccc([nH]4)c(-c4c(F)cc(S(=O)(=O)[O-])cc4F)c4nc(c(-c5c(F)cc(S(=O)(=O)[O-])cc5F)c5ccc2[nH]5)C=C4)C=C3)cc1
REMARK SMILES IDX 23 1 22 2 21 3 20 4 19 5 17 6 18 7 16 8 12 9 13 10 14 11
REMARK SMILES IDX 15 12 3 13 2 14 1 15 4 16 5 17 6 18 7 20 8 21 11 22 9 23
REMARK SMILES IDX 10 24 24 25 25 26 26 27 27 28 28 29 29 30 30 31 31 32 32 33
REMARK SMILES IDX 96 34 33 35 95 36 34 37 35 38 36 39 89 40 37 41 94 42 88 43
REMARK SMILES IDX 90 44 38 45 93 46 87 47 86 48 39 50 73 51 52 52 72 53 53 54
REMARK SMILES IDX 56 55 71 56 91 57 54 58 55 59 70 61 92 62 57 63 40 64 41 65
REMARK SMILES IDX 50 66 42 67 43 68 49 69 51 70 44 71 45 72 46 73 47 74 48 75
REMARK SMILES IDX 74 76 75 77 84 78 76 79 77 80 83 81 85 82 78 83 79 84 80 85
REMARK SMILES IDX 81 86 82 87 58 88 59 89 68 90 60 91 61 92 67 93 69 94 62 95
REMARK SMILES IDX 63 96 64 97 65 98 66 99
REMARK H PARENT 6 19 90 49 56 60
REMARK Flexibility Score: inf
ROOT
ATOM      1  C   UNL A   1      40.062  26.230  27.396  1.00  0.00     0.188 C 
ENDROOT
BRANCH   1   2
ATOM      2  O   UNL A   1      39.035  25.296  27.719  1.00  0.00    -0.376 OA
BRANCH   2   3
ATOM      3  C   UNL A   1      38.933  24.083  26.986  1.00  0.00     0.202 C 
BRANCH   3   4
ATOM      4  C   UNL A   1      37.626  23.828  26.225  1.00  0.00     0.261 C 
BRANCH   4   5
ATOM      5  O   UNL A   1      37.786  23.677  24.799  1.00  0.00    -0.463 OA
BRANCH   5   6
ATOM      6  C   UNL A   1      36.710  23.219  24.121  1.00  0.00     0.313 C 
ATOM      7  O   UNL A   1      36.673  23.129  22.896  1.00  0.00    -0.252 OA
BRANCH   6   8
ATOM      8  C   UNL A   1      35.580  22.674  24.967  1.00  0.00     0.150 C 
ATOM      9  C   UNL A   1      34.111  23.096  24.969  1.00  0.00     0.129 C 
ATOM     10  C   UNL A   1      33.441  21.832  25.528  1.00  0.00     0.186 C 
ATOM     11  O   UNL A   1      34.170  20.734  24.962  1.00  0.00    -0.378 OA
ATOM     12  C   UNL A   1      35.537  21.155  24.846  1.00  0.00     0.177 C 
BRANCH   9  13
ATOM     13  N   UNL A   1      33.435  23.623  23.743  1.00  0.00    -0.319 N 
BRANCH  13  14
ATOM     14  C   UNL A   1      32.188  22.989  23.311  1.00  0.00     0.118 C 
ATOM     15  C   UNL A   1      30.944  23.818  23.558  1.00  0.00     0.027 C 
ENDBRANCH  13  14
BRANCH  13  16
ATOM     16  C   UNL A   1      33.689  24.944  23.466  1.00  0.00     0.318 C 
ATOM     17  O   UNL A   1      33.874  25.334  22.304  1.00  0.00    -0.249 OA
ATOM     18  N   UNL A   1      33.784  25.933  24.359  1.00  0.00    -0.333 N 
ATOM     19  H   UNL A   1      34.351  26.636  23.970  1.00  0.00     0.165 HD
BRANCH  18  20
ATOM     20  C   UNL A   1      33.369  26.381  25.705  1.00  0.00     0.112 C 
ATOM     21  C   UNL A   1      31.887  26.734  25.601  1.00  0.00     0.056 C 
ATOM     22  C   UNL A   1      33.855  27.682  26.318  1.00  0.00     0.185 C 
ATOM     23  C   UNL A   1      31.974  28.145  25.049  1.00  0.00     0.162 C 
ATOM     24  O   UNL A   1      33.100  28.749  25.711  1.00  0.00    -0.379 OA
ENDBRANCH  18  20
ENDBRANCH  13  16
ENDBRANCH   9  13
ENDBRANCH   6   8
ENDBRANCH   5   6
ENDBRANCH   4   5
ENDBRANCH   3   4
ENDBRANCH   2   3
ENDBRANCH   1   2
BRANCH   1  25
ATOM     25  C   UNL A   1      40.809  26.105  26.061  1.00  0.00     0.188 C 
BRANCH  25  26
ATOM     26  O   UNL A   1      42.199  26.362  26.147  1.00  0.00    -0.376 OA
BRANCH  26  27
ATOM     27  C   UNL A   1      42.973  25.914  25.050  1.00  0.00     0.202 C 
BRANCH  27  28
ATOM     28  C   UNL A   1      44.280  25.245  25.485  1.00  0.00     0.261 C 
BRANCH  28  29
ATOM     29  O   UNL A   1      44.293  24.780  26.846  1.00  0.00    -0.460 OA
BRANCH  29  30
ATOM     30  C   UNL A   1      45.265  25.274  27.652  1.00  0.00     0.338 C 
ATOM     31  O   UNL A   1      46.459  25.076  27.559  1.00  0.00    -0.246 OA
BRANCH  30  32
ATOM     32  C   UNL A   1      44.624  26.248  28.568  1.00  0.00     0.060 A 
ATOM     33  C   UNL A   1      44.949  27.609  28.482  1.00  0.00     0.016 A 
ATOM     34  C   UNL A   1      43.691  25.803  29.506  1.00  0.00     0.016 A 
ATOM     35  C   UNL A   1      44.365  28.524  29.368  1.00  0.00     0.010 A 
ATOM     36  C   UNL A   1      43.120  26.714  30.395  1.00  0.00     0.010 A 
ATOM     37  C   UNL A   1      43.478  28.074  30.357  1.00  0.00    -0.014 A 
BRANCH  37  38
ATOM     38  C   UNL A   1      43.048  28.965  31.466  1.00  0.00     0.031 A 
ATOM     39  C   UNL A   1      41.775  29.755  31.296  1.00  0.00     0.074 A 
ATOM     40  C   UNL A   1      43.785  29.107  32.583  1.00  0.00     0.049 A 
ATOM     41  N   UNL A   1      41.258  30.676  32.066  1.00  0.00    -0.248 NA
ATOM     42  C   UNL A   1      40.989  29.473  30.084  1.00  0.00     0.031 C 
ATOM     43  C   UNL A   1      45.022  28.388  32.878  1.00  0.00     0.029 A 
ATOM     44  N   UNL A   1      43.605  29.926  33.672  1.00  0.00    -0.354 N 
ATOM     45  C   UNL A   1      40.095  31.095  31.427  1.00  0.00     0.074 A 
ATOM     46  C   UNL A   1      40.001  30.349  30.191  1.00  0.00     0.031 C 
ATOM     47  C   UNL A   1      45.501  28.812  34.061  1.00  0.00     0.029 A 
ATOM     48  C   UNL A   1      44.626  29.858  34.590  1.00  0.00     0.049 A 
ATOM     49  H   UNL A   1      42.819  30.508  33.784  1.00  0.00     0.167 HD
ATOM     50  C   UNL A   1      39.187  32.013  31.835  1.00  0.00     0.037 A 
ATOM     51  C   UNL A   1      44.845  30.576  35.711  1.00  0.00     0.037 A 
ATOM     52  C   UNL A   1      39.287  32.751  33.068  1.00  0.00     0.049 A 
ATOM     53  C   UNL A   1      43.847  31.632  36.121  1.00  0.00     0.074 A 
ATOM     54  C   UNL A   1      38.402  33.681  33.587  1.00  0.00     0.029 A 
ATOM     55  N   UNL A   1      40.337  32.653  33.970  1.00  0.00    -0.354 N 
ATOM     56  N   UNL A   1      42.735  31.994  35.524  1.00  0.00    -0.248 NA
ATOM     57  C   UNL A   1      44.131  32.375  37.357  1.00  0.00     0.031 C 
ATOM     58  C   UNL A   1      38.945  34.188  34.772  1.00  0.00     0.029 A 
ATOM     59  C   UNL A   1      40.135  33.526  35.027  1.00  0.00     0.049 A 
ATOM     60  H   UNL A   1      41.110  32.053  33.872  1.00  0.00     0.167 HD
ATOM     61  C   UNL A   1      42.172  32.981  36.331  1.00  0.00     0.074 A 
ATOM     62  C   UNL A   1      43.061  33.150  37.462  1.00  0.00     0.031 C 
ATOM     63  C   UNL A   1      41.023  33.680  36.154  1.00  0.00     0.037 A 
BRANCH  50  64
ATOM     64  C   UNL A   1      38.016  32.292  30.930  1.00  0.00     0.058 A 
ATOM     65  C   UNL A   1      38.133  33.111  29.796  1.00  0.00     0.135 A 
ATOM     66  C   UNL A   1      36.769  31.694  31.178  1.00  0.00     0.135 A 
ATOM     67  F   UNL A   1      39.296  33.723  29.520  1.00  0.00    -0.206 F 
ATOM     68  C   UNL A   1      37.050  33.348  28.955  1.00  0.00     0.059 A 
ATOM     69  C   UNL A   1      35.681  31.893  30.333  1.00  0.00     0.059 A 
ATOM     70  F   UNL A   1      36.598  30.904  32.250  1.00  0.00    -0.206 F 
ATOM     71  C   UNL A   1      35.828  32.731  29.229  1.00  0.00     0.060 A 
BRANCH  71  72
ATOM     72  S   UNL A   1      34.439  33.037  28.119  1.00  0.00     0.124 S 
ATOM     73  O   UNL A   1      34.949  34.140  27.309  1.00  0.00    -0.237 OA
ATOM     74  O   UNL A   1      34.304  31.757  27.431  1.00  0.00    -0.237 OA
ATOM     75  O   UNL A   1      33.347  33.378  29.024  1.00  0.00    -0.744 OA
ENDBRANCH  71  72
ENDBRANCH  50  64
BRANCH  51  76
ATOM     76  C   UNL A   1      46.068  30.334  36.528  1.00  0.00     0.058 A 
ATOM     77  C   UNL A   1      47.262  31.024  36.269  1.00  0.00     0.135 A 
ATOM     78  C   UNL A   1      46.071  29.400  37.577  1.00  0.00     0.135 A 
ATOM     79  F   UNL A   1      47.317  31.916  35.269  1.00  0.00    -0.206 F 
ATOM     80  C   UNL A   1      48.417  30.788  37.009  1.00  0.00     0.059 A 
ATOM     81  C   UNL A   1      47.205  29.168  38.349  1.00  0.00     0.059 A 
ATOM     82  F   UNL A   1      44.954  28.715  37.871  1.00  0.00    -0.206 F 
ATOM     83  C   UNL A   1      48.377  29.859  38.051  1.00  0.00     0.060 A 
BRANCH  83  84
ATOM     84  S   UNL A   1      49.870  29.596  39.032  1.00  0.00     0.124 S 
ATOM     85  O   UNL A   1      50.513  30.902  38.947  1.00  0.00    -0.237 OA
ATOM     86  O   UNL A   1      49.319  29.239  40.335  1.00  0.00    -0.237 OA
ATOM     87  O   UNL A   1      50.548  28.511  38.328  1.00  0.00    -0.744 OA
ENDBRANCH  83  84
ENDBRANCH  51  76
BRANCH  63  88
ATOM     88  C   UNL A   1      40.628  34.662  37.226  1.00  0.00     0.058 A 
ATOM     89  C   UNL A   1      41.039  36.003  37.197  1.00  0.00     0.135 A 
ATOM     90  C   UNL A   1      39.779  34.263  38.273  1.00  0.00     0.135 A 
ATOM     91  F   UNL A   1      41.853  36.439  36.222  1.00  0.00    -0.206 F 
ATOM     92  C   UNL A   1      40.649  36.907  38.182  1.00  0.00     0.059 A 
ATOM     93  C   UNL A   1      39.349  35.156  39.250  1.00  0.00     0.059 A 
ATOM     94  F   UNL A   1      39.343  32.995  38.344  1.00  0.00    -0.206 F 
ATOM     95  C   UNL A   1      39.801  36.474  39.203  1.00  0.00     0.060 A 
BRANCH  95  96
ATOM     96  S   UNL A   1      39.282  37.662  40.460  1.00  0.00     0.124 S 
ATOM     97  O   UNL A   1      38.307  38.461  39.724  1.00  0.00    -0.237 OA
ATOM     98  O   UNL A   1      38.736  36.797  41.500  1.00  0.00    -0.237 OA
ATOM     99  O   UNL A   1      40.520  38.351  40.811  1.00  0.00    -0.744 OA
ENDBRANCH  95  96
ENDBRANCH  63  88
ENDBRANCH  37  38
ENDBRANCH  30  32
ENDBRANCH  29  30
ENDBRANCH  28  29
ENDBRANCH  27  28
ENDBRANCH  26  27
ENDBRANCH  25  26
ENDBRANCH   1  25
TORSDOF 24
ENDMDL
MODEL 3
REMARK VINA RESULT:      -8.0      2.100      2.631
REMARK SMILES CCN(C(=O)N[C@@H]1CCOC1)[C@H]1COC[C@H]1C(=O)OCCOCCOCCOC(=O)c1ccc(-c2c3nc(c(-c4c(F)cc(S(=O)(=O)[O-])cc4F)c4ccc([nH]4)c(-c4c(F)cc(S(=O)(=O)[O-])cc4F)c4nc(c(-c5c(F)cc(S(=O)(=O)[O-])cc5F)c5ccc2[nH]5)C=C4)C=C3)cc1
REMARK SMILES IDX 23 1 22 2 21 3 20 4 19 5 17 6 18 7 16 8 12 9 13 10 14 11
REMARK SMILES IDX 15 12 3 13 2 14 1 15 4 16 5 17 6 18 7 20 8 21 11 22 9 23
REMARK SMILES IDX 10 24 24 25 25 26 26 27 27 28 28 29 29 30 30 31 31 32 32 33
REMARK SMILES IDX 96 34 33 35 95 36 34 37 35 38 36 39 89 40 37 41 94 42 88 43
REMARK SMILES IDX 90 44 38 45 93 46 87 47 86 48 39 50 73 51 52 52 72 53 53 54
REMARK SMILES IDX 56 55 71 56 91 57 54 58 55 59 70 61 92 62 57 63 40 64 41 65
REMARK SMILES IDX 50 66 42 67 43 68 49 69 51 70 44 71 45 72 46 73 47 74 48 75
REMARK SMILES IDX 74 76 75 77 84 78 76 79 77 80 83 81 85 82 78 83 79 84 80 85
REMARK SMILES IDX 81 86 82 87 58 88 59 89 68 90 60 91 61 92 67 93 69 94 62 95
REMARK SMILES IDX 63 96 64 97 65 98 66 99
REMARK H PARENT 6 19 90 49 56 60
REMARK Flexibility Score: inf
ROOT
ATOM      1  C   UNL A   1      39.815  22.140  26.248  1.00  0.00     0.188 C 
ENDROOT
BRANCH   1   2
ATOM      2  O   UNL A   1      38.479  21.687  26.048  1.00  0.00    -0.376 OA
BRANCH   2   3
ATOM      3  C   UNL A   1      37.541  22.532  25.395  1.00  0.00     0.202 C 
BRANCH   3   4
ATOM      4  C   UNL A   1      36.176  22.721  26.068  1.00  0.00     0.261 C 
BRANCH   4   5
ATOM      5  O   UNL A   1      35.069  22.841  25.148  1.00  0.00    -0.463 OA
BRANCH   5   6
ATOM      6  C   UNL A   1      34.709  24.098  24.806  1.00  0.00     0.313 C 
ATOM      7  O   UNL A   1      34.823  25.062  25.560  1.00  0.00    -0.252 OA
BRANCH   6   8
ATOM      8  C   UNL A   1      34.282  24.293  23.367  1.00  0.00     0.150 C 
ATOM      9  C   UNL A   1      33.372  23.401  22.522  1.00  0.00     0.129 C 
ATOM     10  C   UNL A   1      32.867  24.404  21.474  1.00  0.00     0.186 C 
ATOM     11  O   UNL A   1      32.686  25.636  22.184  1.00  0.00    -0.378 OA
ATOM     12  C   UNL A   1      33.708  25.694  23.190  1.00  0.00     0.177 C 
BRANCH   9  13
ATOM     13  N   UNL A   1      32.275  22.584  23.128  1.00  0.00    -0.319 N 
BRANCH  13  14
ATOM     14  C   UNL A   1      31.063  23.273  23.573  1.00  0.00     0.118 C 
ATOM     15  C   UNL A   1      30.977  23.489  25.071  1.00  0.00     0.027 C 
ENDBRANCH  13  14
BRANCH  13  16
ATOM     16  C   UNL A   1      32.234  21.275  22.714  1.00  0.00     0.318 C 
ATOM     17  O   UNL A   1      31.793  20.967  21.599  1.00  0.00    -0.249 OA
ATOM     18  N   UNL A   1      32.626  20.212  23.422  1.00  0.00    -0.333 N 
ATOM     19  H   UNL A   1      32.130  19.430  23.089  1.00  0.00     0.165 HD
BRANCH  18  20
ATOM     20  C   UNL A   1      33.514  19.754  24.510  1.00  0.00     0.112 C 
ATOM     21  C   UNL A   1      33.896  18.314  24.175  1.00  0.00     0.056 C 
ATOM     22  C   UNL A   1      33.016  19.517  25.925  1.00  0.00     0.185 C 
ATOM     23  C   UNL A   1      32.687  17.572  24.713  1.00  0.00     0.162 C 
ATOM     24  O   UNL A   1      32.328  18.251  25.930  1.00  0.00    -0.379 OA
ENDBRANCH  18  20
ENDBRANCH  13  16
ENDBRANCH   9  13
ENDBRANCH   6   8
ENDBRANCH   5   6
ENDBRANCH   4   5
ENDBRANCH   3   4
ENDBRANCH   2   3
ENDBRANCH   1   2
BRANCH   1  25
ATOM     25  C   UNL A   1      40.489  21.938  27.611  1.00  0.00     0.188 C 
BRANCH  25  26
ATOM     26  O   UNL A   1      41.810  21.431  27.537  1.00  0.00    -0.376 OA
BRANCH  26  27
ATOM     27  C   UNL A   1      41.921  20.058  27.214  1.00  0.00     0.202 C 
BRANCH  27  28
ATOM     28  C   UNL A   1      42.760  19.814  25.958  1.00  0.00     0.261 C 
BRANCH  28  29
ATOM     29  O   UNL A   1      42.961  20.975  25.134  1.00  0.00    -0.460 OA
BRANCH  29  30
ATOM     30  C   UNL A   1      44.219  21.188  24.675  1.00  0.00     0.338 C 
ATOM     31  O   UNL A   1      44.788  20.574  23.796  1.00  0.00    -0.246 OA
BRANCH  30  32
ATOM     32  C   UNL A   1      44.719  22.427  25.320  1.00  0.00     0.060 A 
ATOM     33  C   UNL A   1      45.283  22.370  26.601  1.00  0.00     0.016 A 
ATOM     34  C   UNL A   1      44.631  23.643  24.639  1.00  0.00     0.016 A 
ATOM     35  C   UNL A   1      45.727  23.545  27.221  1.00  0.00     0.010 A 
ATOM     36  C   UNL A   1      45.063  24.814  25.265  1.00  0.00     0.010 A 
ATOM     37  C   UNL A   1      45.581  24.780  26.572  1.00  0.00    -0.014 A 
BRANCH  37  38
ATOM     38  C   UNL A   1      45.797  26.059  27.297  1.00  0.00     0.031 A 
ATOM     39  C   UNL A   1      47.189  26.637  27.329  1.00  0.00     0.074 A 
ATOM     40  C   UNL A   1      44.795  26.679  27.947  1.00  0.00     0.049 A 
ATOM     41  N   UNL A   1      47.647  27.671  27.986  1.00  0.00    -0.248 NA
ATOM     42  C   UNL A   1      48.204  25.942  26.520  1.00  0.00     0.031 C 
ATOM     43  C   UNL A   1      43.403  26.236  27.977  1.00  0.00     0.029 A 
ATOM     44  N   UNL A   1      44.804  27.810  28.729  1.00  0.00    -0.354 N 
ATOM     45  C   UNL A   1      49.003  27.742  27.682  1.00  0.00     0.074 A 
ATOM     46  C   UNL A   1      49.299  26.629  26.807  1.00  0.00     0.031 C 
ATOM     47  C   UNL A   1      42.695  27.074  28.754  1.00  0.00     0.029 A 
ATOM     48  C   UNL A   1      43.589  28.092  29.307  1.00  0.00     0.049 A 
ATOM     49  H   UNL A   1      45.606  28.365  28.863  1.00  0.00     0.167 HD
ATOM     50  C   UNL A   1      49.915  28.656  28.090  1.00  0.00     0.037 A 
ATOM     51  C   UNL A   1      43.245  29.042  30.201  1.00  0.00     0.037 A 
ATOM     52  C   UNL A   1      49.613  29.763  28.960  1.00  0.00     0.049 A 
ATOM     53  C   UNL A   1      44.291  30.018  30.685  1.00  0.00     0.074 A 
ATOM     54  C   UNL A   1      50.461  30.762  29.407  1.00  0.00     0.029 A 
ATOM     55  N   UNL A   1      48.371  30.013  29.525  1.00  0.00    -0.354 N 
ATOM     56  N   UNL A   1      45.561  30.094  30.363  1.00  0.00    -0.248 NA
ATOM     57  C   UNL A   1      43.856  31.038  31.649  1.00  0.00     0.031 C 
ATOM     58  C   UNL A   1      49.747  31.581  30.287  1.00  0.00     0.029 A 
ATOM     59  C   UNL A   1      48.437  31.134  30.337  1.00  0.00     0.049 A 
ATOM     60  H   UNL A   1      47.562  29.474  29.371  1.00  0.00     0.167 HD
ATOM     61  C   UNL A   1      46.066  31.191  31.059  1.00  0.00     0.074 A 
ATOM     62  C   UNL A   1      44.962  31.751  31.810  1.00  0.00     0.031 C 
ATOM     63  C   UNL A   1      47.328  31.689  31.073  1.00  0.00     0.037 A 
BRANCH  50  64
ATOM     64  C   UNL A   1      51.336  28.485  27.622  1.00  0.00     0.058 A 
ATOM     65  C   UNL A   1      52.258  27.688  28.320  1.00  0.00     0.135 A 
ATOM     66  C   UNL A   1      51.770  29.094  26.432  1.00  0.00     0.135 A 
ATOM     67  F   UNL A   1      51.904  27.096  29.472  1.00  0.00    -0.206 F 
ATOM     68  C   UNL A   1      53.563  27.520  27.869  1.00  0.00     0.059 A 
ATOM     69  C   UNL A   1      53.062  28.915  25.946  1.00  0.00     0.059 A 
ATOM     70  F   UNL A   1      50.933  29.870  25.725  1.00  0.00    -0.206 F 
ATOM     71  C   UNL A   1      53.956  28.135  26.679  1.00  0.00     0.060 A 
BRANCH  71  72
ATOM     72  S   UNL A   1      55.648  27.894  26.101  1.00  0.00     0.124 S 
ATOM     73  O   UNL A   1      56.224  27.121  27.198  1.00  0.00    -0.237 OA
ATOM     74  O   UNL A   1      55.449  27.168  24.851  1.00  0.00    -0.237 OA
ATOM     75  O   UNL A   1      56.158  29.255  25.959  1.00  0.00    -0.744 OA
ENDBRANCH  71  72
ENDBRANCH  50  64
BRANCH  51  76
ATOM     76  C   UNL A   1      41.847  29.115  30.714  1.00  0.00     0.058 A 
ATOM     77  C   UNL A   1      41.452  28.396  31.851  1.00  0.00     0.135 A 
ATOM     78  C   UNL A   1      40.876  29.898  30.069  1.00  0.00     0.135 A 
ATOM     79  F   UNL A   1      42.338  27.621  32.495  1.00  0.00    -0.206 F 
ATOM     80  C   UNL A   1      40.143  28.437  32.324  1.00  0.00     0.059 A 
ATOM     81  C   UNL A   1      39.568  29.979  30.540  1.00  0.00     0.059 A 
ATOM     82  F   UNL A   1      41.200  30.611  28.979  1.00  0.00    -0.206 F 
ATOM     83  C   UNL A   1      39.209  29.236  31.662  1.00  0.00     0.060 A 
BRANCH  83  84
ATOM     84  S   UNL A   1      37.526  29.317  32.313  1.00  0.00     0.124 S 
ATOM     85  O   UNL A   1      37.502  30.649  32.904  1.00  0.00    -0.237 OA
ATOM     86  O   UNL A   1      36.724  29.139  31.107  1.00  0.00    -0.237 OA
ATOM     87  O   UNL A   1      37.478  28.205  33.258  1.00  0.00    -0.744 OA
ENDBRANCH  83  84
ENDBRANCH  51  76
BRANCH  63  88
ATOM     88  C   UNL A   1      47.581  32.931  31.887  1.00  0.00     0.058 A 
ATOM     89  C   UNL A   1      48.009  32.874  33.223  1.00  0.00     0.135 A 
ATOM     90  C   UNL A   1      47.441  34.202  31.302  1.00  0.00     0.135 A 
ATOM     91  F   UNL A   1      48.156  31.688  33.834  1.00  0.00    -0.206 F 
ATOM     92  C   UNL A   1      48.261  34.029  33.958  1.00  0.00     0.059 A 
ATOM     93  C   UNL A   1      47.720  35.369  32.007  1.00  0.00     0.059 A 
ATOM     94  F   UNL A   1      47.047  34.318  30.024  1.00  0.00    -0.206 F 
ATOM     95  C   UNL A   1      48.116  35.273  33.340  1.00  0.00     0.060 A 
BRANCH  95  96
ATOM     96  S   UNL A   1      48.471  36.762  34.297  1.00  0.00     0.124 S 
ATOM     97  O   UNL A   1      49.928  36.817  34.225  1.00  0.00    -0.237 OA
ATOM     98  O   UNL A   1      47.760  37.792  33.547  1.00  0.00    -0.237 OA
ATOM     99  O   UNL A   1      47.920  36.461  35.614  1.00  0.00    -0.744 OA
ENDBRANCH  95  96
ENDBRANCH  63  88
ENDBRANCH  37  38
ENDBRANCH  30  32
ENDBRANCH  29  30
ENDBRANCH  28  29
ENDBRANCH  27  28
ENDBRANCH  26  27
ENDBRANCH  25  26
ENDBRANCH   1  25
TORSDOF 24
ENDMDL
