MODEL 1
REMARK VINA RESULT:     -10.2      0.000      0.000
REMARK SMILES CCSc1cccc(-c2ccc([C@@H](C)C(=O)OCCOCCOCCOC(=O)c3ccc(-c4c5nc(c(-c6c(F)cc(S(=O)(=O)[O-])cc6F)c6ccc([nH]6)c(-c6c(F)cc(S(=O)(=O)[O-])cc6F)c6nc(c(-c7c(F)cc(S(=O)(=O)[O-])cc7F)c7ccc4[nH]7)C=C6)C=C5)cc3)cc2)c1
REMARK SMILES IDX 21 1 20 2 19 3 18 4 17 5 15 6 16 7 13 8 14 9 12 10 9 11
REMARK SMILES IDX 10 12 96 13 11 14 95 15 8 16 4 17 5 18 97 19 6 20 7 21 3 22
REMARK SMILES IDX 2 23 1 24 22 25 23 26 24 27 25 28 26 29 27 30 28 31 29 32
REMARK SMILES IDX 30 33 94 34 31 35 93 36 32 37 33 38 34 39 87 40 35 41 92 42
REMARK SMILES IDX 86 43 88 44 36 45 91 46 85 47 84 48 37 50 71 51 50 52 70 53
REMARK SMILES IDX 51 54 54 55 69 56 89 57 52 58 53 59 68 61 90 62 55 63 38 64
REMARK SMILES IDX 39 65 48 66 40 67 41 68 47 69 49 70 42 71 43 72 44 73 45 74
REMARK SMILES IDX 46 75 72 76 73 77 82 78 74 79 75 80 81 81 83 82 76 83 77 84
REMARK SMILES IDX 78 85 79 86 80 87 56 88 57 89 66 90 58 91 59 92 65 93 67 94
REMARK SMILES IDX 60 95 61 96 62 97 63 98 64 99
REMARK H PARENT 88 49 54 60
REMARK Flexibility Score: inf
ROOT
ATOM      1  C   UNL A   1      34.502  33.275  28.354  1.00  0.00     0.188 C 
ENDROOT
BRANCH   1   2
ATOM      2  O   UNL A   1      33.966  31.959  28.415  1.00  0.00    -0.376 OA
BRANCH   2   3
ATOM      3  C   UNL A   1      34.708  30.878  27.865  1.00  0.00     0.202 C 
BRANCH   3   4
ATOM      4  C   UNL A   1      34.092  30.088  26.701  1.00  0.00     0.261 C 
BRANCH   4   5
ATOM      5  O   UNL A   1      32.651  30.153  26.597  1.00  0.00    -0.463 OA
BRANCH   5   6
ATOM      6  C   UNL A   1      32.069  29.275  25.741  1.00  0.00     0.313 C 
ATOM      7  O   UNL A   1      31.919  29.507  24.543  1.00  0.00    -0.252 OA
BRANCH   6   8
ATOM      8  C   UNL A   1      31.603  27.942  26.339  1.00  0.00     0.126 C 
ATOM      9  C   UNL A   1      31.440  28.123  27.848  1.00  0.00     0.025 C 
BRANCH   8  10
ATOM     10  C   UNL A   1      32.332  26.632  26.044  1.00  0.00    -0.034 A 
ATOM     11  C   UNL A   1      33.602  24.111  25.550  1.00  0.00    -0.018 A 
ATOM     12  C   UNL A   1      34.287  25.328  25.387  1.00  0.00     0.009 A 
ATOM     13  C   UNL A   1      32.267  24.176  25.967  1.00  0.00     0.009 A 
ATOM     14  C   UNL A   1      33.671  26.568  25.640  1.00  0.00     0.005 A 
ATOM     15  C   UNL A   1      31.647  25.411  26.217  1.00  0.00     0.005 A 
BRANCH  11  16
ATOM     16  C   UNL A   1      34.282  22.812  25.360  1.00  0.00    -0.017 A 
ATOM     17  C   UNL A   1      34.246  20.389  25.000  1.00  0.00     0.008 A 
ATOM     18  C   UNL A   1      35.643  20.364  25.038  1.00  0.00     0.015 A 
ATOM     19  C   UNL A   1      33.572  21.613  25.150  1.00  0.00     0.023 A 
ATOM     20  C   UNL A   1      36.363  21.538  25.245  1.00  0.00     0.002 A 
ATOM     21  C   UNL A   1      35.687  22.747  25.406  1.00  0.00     0.009 A 
BRANCH  17  22
ATOM     22  S   UNL A   1      33.406  18.841  24.697  1.00  0.00    -0.126 SA
BRANCH  22  23
ATOM     23  C   UNL A   1      34.791  17.732  24.262  1.00  0.00     0.071 C 
ATOM     24  C   UNL A   1      34.691  16.371  24.929  1.00  0.00     0.016 C 
ENDBRANCH  22  23
ENDBRANCH  17  22
ENDBRANCH  11  16
ENDBRANCH   8  10
ENDBRANCH   6   8
ENDBRANCH   5   6
ENDBRANCH   4   5
ENDBRANCH   3   4
ENDBRANCH   2   3
ENDBRANCH   1   2
BRANCH   1  25
ATOM     25  C   UNL A   1      34.586  34.115  29.636  1.00  0.00     0.188 C 
BRANCH  25  26
ATOM     26  O   UNL A   1      33.826  33.616  30.719  1.00  0.00    -0.376 OA
BRANCH  26  27
ATOM     27  C   UNL A   1      34.549  32.948  31.733  1.00  0.00     0.202 C 
BRANCH  27  28
ATOM     28  C   UNL A   1      36.053  32.828  31.450  1.00  0.00     0.261 C 
BRANCH  28  29
ATOM     29  O   UNL A   1      36.452  31.672  30.689  1.00  0.00    -0.460 OA
BRANCH  29  30
ATOM     30  C   UNL A   1      36.996  30.644  31.378  1.00  0.00     0.338 C 
ATOM     31  O   UNL A   1      36.404  29.870  32.121  1.00  0.00    -0.246 OA
BRANCH  30  32
ATOM     32  C   UNL A   1      38.390  30.451  30.921  1.00  0.00     0.060 A 
ATOM     33  C   UNL A   1      38.676  30.581  29.555  1.00  0.00     0.016 A 
ATOM     34  C   UNL A   1      39.407  30.130  31.823  1.00  0.00     0.016 A 
ATOM     35  C   UNL A   1      39.967  30.340  29.082  1.00  0.00     0.010 A 
ATOM     36  C   UNL A   1      40.698  29.873  31.344  1.00  0.00     0.010 A 
ATOM     37  C   UNL A   1      40.976  29.937  29.967  1.00  0.00    -0.014 A 
BRANCH  37  38
ATOM     38  C   UNL A   1      42.258  29.408  29.428  1.00  0.00     0.031 A 
ATOM     39  C   UNL A   1      43.455  30.324  29.380  1.00  0.00     0.074 A 
ATOM     40  C   UNL A   1      42.379  28.129  29.027  1.00  0.00     0.049 A 
ATOM     41  N   UNL A   1      44.671  30.083  28.960  1.00  0.00    -0.248 NA
ATOM     42  C   UNL A   1      43.251  31.695  29.874  1.00  0.00     0.031 C 
ATOM     43  C   UNL A   1      41.310  27.131  29.047  1.00  0.00     0.029 A 
ATOM     44  N   UNL A   1      43.461  27.450  28.521  1.00  0.00    -0.354 N 
ATOM     45  C   UNL A   1      45.374  31.271  29.134  1.00  0.00     0.074 A 
ATOM     46  C   UNL A   1      44.439  32.241  29.664  1.00  0.00     0.031 C 
ATOM     47  C   UNL A   1      41.790  25.969  28.569  1.00  0.00     0.029 A 
ATOM     48  C   UNL A   1      43.189  26.145  28.184  1.00  0.00     0.049 A 
ATOM     49  H   UNL A   1      44.349  27.860  28.410  1.00  0.00     0.167 HD
ATOM     50  C   UNL A   1      46.681  31.529  28.888  1.00  0.00     0.037 A 
ATOM     51  C   UNL A   1      43.974  25.206  27.615  1.00  0.00     0.037 A 
ATOM     52  C   UNL A   1      47.610  30.566  28.356  1.00  0.00     0.049 A 
ATOM     53  C   UNL A   1      45.411  25.534  27.294  1.00  0.00     0.074 A 
ATOM     54  C   UNL A   1      48.959  30.730  28.088  1.00  0.00     0.029 A 
ATOM     55  N   UNL A   1      47.289  29.265  28.000  1.00  0.00    -0.354 N 
ATOM     56  N   UNL A   1      46.070  26.653  27.493  1.00  0.00    -0.248 NA
ATOM     57  C   UNL A   1      46.216  24.468  26.682  1.00  0.00     0.031 C 
ATOM     58  C   UNL A   1      49.440  29.544  27.518  1.00  0.00     0.029 A 
ATOM     59  C   UNL A   1      48.407  28.622  27.491  1.00  0.00     0.049 A 
ATOM     60  H   UNL A   1      46.398  28.857  28.095  1.00  0.00     0.167 HD
ATOM     61  C   UNL A   1      47.371  26.413  27.057  1.00  0.00     0.074 A 
ATOM     62  C   UNL A   1      47.410  25.039  26.602  1.00  0.00     0.031 C 
ATOM     63  C   UNL A   1      48.438  27.252  27.039  1.00  0.00     0.037 A 
BRANCH  50  64
ATOM     64  C   UNL A   1      47.180  32.923  29.167  1.00  0.00     0.058 A 
ATOM     65  C   UNL A   1      47.127  33.938  28.197  1.00  0.00     0.135 A 
ATOM     66  C   UNL A   1      47.686  33.257  30.434  1.00  0.00     0.135 A 
ATOM     67  F   UNL A   1      46.672  33.672  26.962  1.00  0.00    -0.206 F 
ATOM     68  C   UNL A   1      47.584  35.225  28.465  1.00  0.00     0.059 A 
ATOM     69  C   UNL A   1      48.120  34.545  30.733  1.00  0.00     0.059 A 
ATOM     70  F   UNL A   1      47.762  32.325  31.398  1.00  0.00    -0.206 F 
ATOM     71  C   UNL A   1      48.077  35.519  29.737  1.00  0.00     0.060 A 
BRANCH  71  72
ATOM     72  S   UNL A   1      48.659  37.195  30.069  1.00  0.00     0.124 S 
ATOM     73  O   UNL A   1      48.574  37.800  28.744  1.00  0.00    -0.237 OA
ATOM     74  O   UNL A   1      47.687  37.672  31.048  1.00  0.00    -0.237 OA
ATOM     75  O   UNL A   1      50.011  36.991  30.580  1.00  0.00    -0.744 OA
ENDBRANCH  71  72
ENDBRANCH  50  64
BRANCH  51  76
ATOM     76  C   UNL A   1      43.421  23.858  27.306  1.00  0.00     0.058 A 
ATOM     77  C   UNL A   1      42.963  23.536  26.020  1.00  0.00     0.135 A 
ATOM     78  C   UNL A   1      43.329  22.867  28.297  1.00  0.00     0.135 A 
ATOM     79  F   UNL A   1      43.014  24.452  25.040  1.00  0.00    -0.206 F 
ATOM     80  C   UNL A   1      42.419  22.288  25.729  1.00  0.00     0.059 A 
ATOM     81  C   UNL A   1      42.817  21.603  28.024  1.00  0.00     0.059 A 
ATOM     82  F   UNL A   1      43.759  23.121  29.543  1.00  0.00    -0.206 F 
ATOM     83  C   UNL A   1      42.355  21.326  26.739  1.00  0.00     0.060 A 
BRANCH  83  84
ATOM     84  S   UNL A   1      41.693  19.694  26.337  1.00  0.00     0.124 S 
ATOM     85  O   UNL A   1      42.466  19.347  25.150  1.00  0.00    -0.237 OA
ATOM     86  O   UNL A   1      42.000  18.933  27.544  1.00  0.00    -0.237 OA
ATOM     87  O   UNL A   1      40.274  19.954  26.111  1.00  0.00    -0.744 OA
ENDBRANCH  83  84
ENDBRANCH  51  76
BRANCH  63  88
ATOM     88  C   UNL A   1      49.751  26.697  26.547  1.00  0.00     0.058 A 
ATOM     89  C   UNL A   1      50.166  26.838  25.213  1.00  0.00     0.135 A 
ATOM     90  C   UNL A   1      50.615  26.031  27.431  1.00  0.00     0.135 A 
ATOM     91  F   UNL A   1      49.380  27.467  24.324  1.00  0.00    -0.206 F 
ATOM     92  C   UNL A   1      51.367  26.297  24.763  1.00  0.00     0.059 A 
ATOM     93  C   UNL A   1      51.837  25.513  27.011  1.00  0.00     0.059 A 
ATOM     94  F   UNL A   1      50.280  25.882  28.723  1.00  0.00    -0.206 F 
ATOM     95  C   UNL A   1      52.195  25.632  25.669  1.00  0.00     0.060 A 
BRANCH  95  96
ATOM     96  S   UNL A   1      53.747  24.930  25.073  1.00  0.00     0.124 S 
ATOM     97  O   UNL A   1      53.871  25.562  23.763  1.00  0.00    -0.237 OA
ATOM     98  O   UNL A   1      54.701  25.374  26.083  1.00  0.00    -0.237 OA
ATOM     99  O   UNL A   1      53.486  23.493  25.054  1.00  0.00    -0.744 OA
ENDBRANCH  95  96
ENDBRANCH  63  88
ENDBRANCH  37  38
ENDBRANCH  30  32
ENDBRANCH  29  30
ENDBRANCH  28  29
ENDBRANCH  27  28
ENDBRANCH  26  27
ENDBRANCH  25  26
ENDBRANCH   1  25
TORSDOF 24
ENDMDL
MODEL 2
REMARK VINA RESULT:     -10.2      6.064     12.199
REMARK SMILES CCSc1cccc(-c2ccc([C@@H](C)C(=O)OCCOCCOCCOC(=O)c3ccc(-c4c5nc(c(-c6c(F)cc(S(=O)(=O)[O-])cc6F)c6ccc([nH]6)c(-c6c(F)cc(S(=O)(=O)[O-])cc6F)c6nc(c(-c7c(F)cc(S(=O)(=O)[O-])cc7F)c7ccc4[nH]7)C=C6)C=C5)cc3)cc2)c1
REMARK SMILES IDX 21 1 20 2 19 3 18 4 17 5 15 6 16 7 13 8 14 9 12 10 9 11
REMARK SMILES IDX 10 12 96 13 11 14 95 15 8 16 4 17 5 18 97 19 6 20 7 21 3 22
REMARK SMILES IDX 2 23 1 24 22 25 23 26 24 27 25 28 26 29 27 30 28 31 29 32
REMARK SMILES IDX 30 33 94 34 31 35 93 36 32 37 33 38 34 39 87 40 35 41 92 42
REMARK SMILES IDX 86 43 88 44 36 45 91 46 85 47 84 48 37 50 71 51 50 52 70 53
REMARK SMILES IDX 51 54 54 55 69 56 89 57 52 58 53 59 68 61 90 62 55 63 38 64
REMARK SMILES IDX 39 65 48 66 40 67 41 68 47 69 49 70 42 71 43 72 44 73 45 74
REMARK SMILES IDX 46 75 72 76 73 77 82 78 74 79 75 80 81 81 83 82 76 83 77 84
REMARK SMILES IDX 78 85 79 86 80 87 56 88 57 89 66 90 58 91 59 92 65 93 67 94
REMARK SMILES IDX 60 95 61 96 62 97 63 98 64 99
REMARK H PARENT 88 49 54 60
REMARK Flexibility Score: inf
ROOT
ATOM      1  C   UNL A   1      39.681  22.249  26.476  1.00  0.00     0.188 C 
ENDROOT
BRANCH   1   2
ATOM      2  O   UNL A   1      38.345  22.263  25.986  1.00  0.00    -0.376 OA
BRANCH   2   3
ATOM      3  C   UNL A   1      37.868  21.155  25.234  1.00  0.00     0.202 C 
BRANCH   3   4
ATOM      4  C   UNL A   1      36.450  21.227  24.648  1.00  0.00     0.261 C 
BRANCH   4   5
ATOM      5  O   UNL A   1      35.405  20.667  25.477  1.00  0.00    -0.463 OA
BRANCH   5   6
ATOM      6  C   UNL A   1      34.656  19.683  24.917  1.00  0.00     0.313 C 
ATOM      7  O   UNL A   1      35.132  18.615  24.537  1.00  0.00    -0.252 OA
BRANCH   6   8
ATOM      8  C   UNL A   1      33.154  19.957  24.784  1.00  0.00     0.126 C 
ATOM      9  C   UNL A   1      32.607  19.098  23.644  1.00  0.00     0.025 C 
BRANCH   8  10
ATOM     10  C   UNL A   1      32.605  21.380  24.677  1.00  0.00    -0.034 A 
ATOM     11  C   UNL A   1      31.615  24.050  24.354  1.00  0.00    -0.018 A 
ATOM     12  C   UNL A   1      31.759  23.464  25.624  1.00  0.00     0.009 A 
ATOM     13  C   UNL A   1      31.977  23.276  23.245  1.00  0.00     0.009 A 
ATOM     14  C   UNL A   1      32.256  22.158  25.789  1.00  0.00     0.005 A 
ATOM     15  C   UNL A   1      32.470  21.971  23.404  1.00  0.00     0.005 A 
BRANCH  11  16
ATOM     16  C   UNL A   1      31.169  25.451  24.198  1.00  0.00    -0.017 A 
ATOM     17  C   UNL A   1      31.546  27.866  24.360  1.00  0.00     0.008 A 
ATOM     18  C   UNL A   1      30.242  28.098  23.910  1.00  0.00     0.015 A 
ATOM     19  C   UNL A   1      32.007  26.546  24.492  1.00  0.00     0.023 A 
ATOM     20  C   UNL A   1      29.399  27.030  23.616  1.00  0.00     0.002 A 
ATOM     21  C   UNL A   1      29.859  25.722  23.762  1.00  0.00     0.009 A 
BRANCH  17  22
ATOM     22  S   UNL A   1      32.568  29.296  24.683  1.00  0.00    -0.126 SA
BRANCH  22  23
ATOM     23  C   UNL A   1      31.820  29.966  26.209  1.00  0.00     0.071 C 
ATOM     24  C   UNL A   1      31.763  28.948  27.336  1.00  0.00     0.016 C 
ENDBRANCH  22  23
ENDBRANCH  17  22
ENDBRANCH  11  16
ENDBRANCH   8  10
ENDBRANCH   6   8
ENDBRANCH   5   6
ENDBRANCH   4   5
ENDBRANCH   3   4
ENDBRANCH   2   3
ENDBRANCH   1   2
BRANCH   1  25
ATOM     25  C   UNL A   1      40.371  20.905  26.745  1.00  0.00     0.188 C 
BRANCH  25  26
ATOM     26  O   UNL A   1      41.701  21.008  27.213  1.00  0.00    -0.376 OA
BRANCH  26  27
ATOM     27  C   UNL A   1      42.693  21.228  26.229  1.00  0.00     0.202 C 
BRANCH  27  28
ATOM     28  C   UNL A   1      43.614  22.418  26.529  1.00  0.00     0.261 C 
BRANCH  28  29
ATOM     29  O   UNL A   1      43.002  23.517  27.232  1.00  0.00    -0.460 OA
BRANCH  29  30
ATOM     30  C   UNL A   1      42.745  24.633  26.514  1.00  0.00     0.338 C 
ATOM     31  O   UNL A   1      42.753  24.733  25.292  1.00  0.00    -0.246 OA
BRANCH  30  32
ATOM     32  C   UNL A   1      42.223  25.674  27.426  1.00  0.00     0.060 A 
ATOM     33  C   UNL A   1      42.899  26.900  27.509  1.00  0.00     0.016 A 
ATOM     34  C   UNL A   1      41.085  25.447  28.205  1.00  0.00     0.016 A 
ATOM     35  C   UNL A   1      42.471  27.878  28.408  1.00  0.00     0.010 A 
ATOM     36  C   UNL A   1      40.667  26.423  29.117  1.00  0.00     0.010 A 
ATOM     37  C   UNL A   1      41.381  27.628  29.253  1.00  0.00    -0.014 A 
BRANCH  37  38
ATOM     38  C   UNL A   1      41.111  28.544  30.394  1.00  0.00     0.031 A 
ATOM     39  C   UNL A   1      41.966  28.429  31.631  1.00  0.00     0.074 A 
ATOM     40  C   UNL A   1      40.157  29.491  30.327  1.00  0.00     0.049 A 
ATOM     41  N   UNL A   1      41.920  29.120  32.742  1.00  0.00    -0.248 NA
ATOM     42  C   UNL A   1      43.013  27.395  31.610  1.00  0.00     0.031 C 
ATOM     43  C   UNL A   1      39.280  29.728  29.181  1.00  0.00     0.029 A 
ATOM     44  N   UNL A   1      39.765  30.431  31.249  1.00  0.00    -0.354 N 
ATOM     45  C   UNL A   1      42.926  28.603  33.551  1.00  0.00     0.074 A 
ATOM     46  C   UNL A   1      43.541  27.517  32.819  1.00  0.00     0.031 C 
ATOM     47  C   UNL A   1      38.449  30.746  29.471  1.00  0.00     0.029 A 
ATOM     48  C   UNL A   1      38.715  31.214  30.831  1.00  0.00     0.049 A 
ATOM     49  H   UNL A   1      40.197  30.535  32.128  1.00  0.00     0.167 HD
ATOM     50  C   UNL A   1      43.312  29.002  34.787  1.00  0.00     0.037 A 
ATOM     51  C   UNL A   1      38.036  32.186  31.476  1.00  0.00     0.037 A 
ATOM     52  C   UNL A   1      42.697  30.080  35.519  1.00  0.00     0.049 A 
ATOM     53  C   UNL A   1      38.446  32.574  32.875  1.00  0.00     0.074 A 
ATOM     54  C   UNL A   1      43.030  30.569  36.771  1.00  0.00     0.029 A 
ATOM     55  N   UNL A   1      41.618  30.828  35.073  1.00  0.00    -0.354 N 
ATOM     56  N   UNL A   1      39.419  32.096  33.617  1.00  0.00    -0.248 NA
ATOM     57  C   UNL A   1      37.671  33.642  33.522  1.00  0.00     0.031 C 
ATOM     58  C   UNL A   1      42.117  31.576  37.105  1.00  0.00     0.029 A 
ATOM     59  C   UNL A   1      41.256  31.759  36.035  1.00  0.00     0.049 A 
ATOM     60  H   UNL A   1      41.175  30.716  34.202  1.00  0.00     0.167 HD
ATOM     61  C   UNL A   1      39.390  32.826  34.802  1.00  0.00     0.074 A 
ATOM     62  C   UNL A   1      38.316  33.789  34.672  1.00  0.00     0.031 C 
ATOM     63  C   UNL A   1      40.183  32.714  35.898  1.00  0.00     0.037 A 
BRANCH  50  64
ATOM     64  C   UNL A   1      44.441  28.249  35.441  1.00  0.00     0.058 A 
ATOM     65  C   UNL A   1      45.771  28.698  35.371  1.00  0.00     0.135 A 
ATOM     66  C   UNL A   1      44.185  27.080  36.176  1.00  0.00     0.135 A 
ATOM     67  F   UNL A   1      46.078  29.799  34.665  1.00  0.00    -0.206 F 
ATOM     68  C   UNL A   1      46.807  28.000  35.983  1.00  0.00     0.059 A 
ATOM     69  C   UNL A   1      45.202  26.383  36.822  1.00  0.00     0.059 A 
ATOM     70  F   UNL A   1      42.933  26.604  36.273  1.00  0.00    -0.206 F 
ATOM     71  C   UNL A   1      46.513  26.845  36.708  1.00  0.00     0.060 A 
BRANCH  71  72
ATOM     72  S   UNL A   1      47.868  25.956  37.502  1.00  0.00     0.124 S 
ATOM     73  O   UNL A   1      47.418  24.573  37.383  1.00  0.00    -0.237 OA
ATOM     74  O   UNL A   1      49.010  26.324  36.671  1.00  0.00    -0.237 OA
ATOM     75  O   UNL A   1      47.883  26.496  38.858  1.00  0.00    -0.744 OA
ENDBRANCH  71  72
ENDBRANCH  50  64
BRANCH  51  76
ATOM     76  C   UNL A   1      36.891  32.865  30.810  1.00  0.00     0.058 A 
ATOM     77  C   UNL A   1      35.566  32.597  31.187  1.00  0.00     0.135 A 
ATOM     78  C   UNL A   1      37.098  33.788  29.772  1.00  0.00     0.135 A 
ATOM     79  F   UNL A   1      35.311  31.712  32.163  1.00  0.00    -0.206 F 
ATOM     80  C   UNL A   1      34.488  33.206  30.551  1.00  0.00     0.059 A 
ATOM     81  C   UNL A   1      36.039  34.432  29.142  1.00  0.00     0.059 A 
ATOM     82  F   UNL A   1      38.346  34.084  29.376  1.00  0.00    -0.206 F 
ATOM     83  C   UNL A   1      34.736  34.127  29.530  1.00  0.00     0.060 A 
BRANCH  83  84
ATOM     84  S   UNL A   1      33.331  34.948  28.747  1.00  0.00     0.124 S 
ATOM     85  O   UNL A   1      33.933  36.198  28.298  1.00  0.00    -0.237 OA
ATOM     86  O   UNL A   1      32.969  34.000  27.698  1.00  0.00    -0.237 OA
ATOM     87  O   UNL A   1      32.364  35.069  29.835  1.00  0.00    -0.744 OA
ENDBRANCH  83  84
ENDBRANCH  51  76
BRANCH  63  88
ATOM     88  C   UNL A   1      39.947  33.681  37.030  1.00  0.00     0.058 A 
ATOM     89  C   UNL A   1      40.591  34.928  37.092  1.00  0.00     0.135 A 
ATOM     90  C   UNL A   1      39.046  33.362  38.059  1.00  0.00     0.135 A 
ATOM     91  F   UNL A   1      41.463  35.286  36.135  1.00  0.00    -0.206 F 
ATOM     92  C   UNL A   1      40.388  35.801  38.157  1.00  0.00     0.059 A 
ATOM     93  C   UNL A   1      38.800  34.236  39.115  1.00  0.00     0.059 A 
ATOM     94  F   UNL A   1      38.387  32.193  38.044  1.00  0.00    -0.206 F 
ATOM     95  C   UNL A   1      39.492  35.444  39.167  1.00  0.00     0.060 A 
BRANCH  95  96
ATOM     96  S   UNL A   1      39.241  36.582  40.545  1.00  0.00     0.124 S 
ATOM     97  O   UNL A   1      38.771  37.779  39.856  1.00  0.00    -0.237 OA
ATOM     98  O   UNL A   1      38.246  35.883  41.352  1.00  0.00    -0.237 OA
ATOM     99  O   UNL A   1      40.567  36.685  41.148  1.00  0.00    -0.744 OA
ENDBRANCH  95  96
ENDBRANCH  63  88
ENDBRANCH  37  38
ENDBRANCH  30  32
ENDBRANCH  29  30
ENDBRANCH  28  29
ENDBRANCH  27  28
ENDBRANCH  26  27
ENDBRANCH  25  26
ENDBRANCH   1  25
TORSDOF 24
ENDMDL
MODEL 3
REMARK VINA RESULT:     -10.1      1.371      2.185
REMARK SMILES CCSc1cccc(-c2ccc([C@@H](C)C(=O)OCCOCCOCCOC(=O)c3ccc(-c4c5nc(c(-c6c(F)cc(S(=O)(=O)[O-])cc6F)c6ccc([nH]6)c(-c6c(F)cc(S(=O)(=O)[O-])cc6F)c6nc(c(-c7c(F)cc(S(=O)(=O)[O-])cc7F)c7ccc4[nH]7)C=C6)C=C5)cc3)cc2)c1
REMARK SMILES IDX 21 1 20 2 19 3 18 4 17 5 15 6 16 7 13 8 14 9 12 10 9 11
REMARK SMILES IDX 10 12 96 13 11 14 95 15 8 16 4 17 5 18 97 19 6 20 7 21 3 22
REMARK SMILES IDX 2 23 1 24 22 25 23 26 24 27 25 28 26 29 27 30 28 31 29 32
REMARK SMILES IDX 30 33 94 34 31 35 93 36 32 37 33 38 34 39 87 40 35 41 92 42
REMARK SMILES IDX 86 43 88 44 36 45 91 46 85 47 84 48 37 50 71 51 50 52 70 53
REMARK SMILES IDX 51 54 54 55 69 56 89 57 52 58 53 59 68 61 90 62 55 63 38 64
REMARK SMILES IDX 39 65 48 66 40 67 41 68 47 69 49 70 42 71 43 72 44 73 45 74
REMARK SMILES IDX 46 75 72 76 73 77 82 78 74 79 75 80 81 81 83 82 76 83 77 84
REMARK SMILES IDX 78 85 79 86 80 87 56 88 57 89 66 90 58 91 59 92 65 93 67 94
REMARK SMILES IDX 60 95 61 96 62 97 63 98 64 99
REMARK H PARENT 88 49 54 60
REMARK Flexibility Score: inf
ROOT
ATOM      1  C   UNL A   1      34.177  29.818  27.122  1.00  0.00     0.188 C 
ENDROOT
BRANCH   1   2
ATOM      2  O   UNL A   1      32.789  29.756  27.427  1.00  0.00    -0.376 OA
BRANCH   2   3
ATOM      3  C   UNL A   1      31.846  30.254  26.487  1.00  0.00     0.202 C 
BRANCH   3   4
ATOM      4  C   UNL A   1      31.898  29.719  25.048  1.00  0.00     0.261 C 
BRANCH   4   5
ATOM      5  O   UNL A   1      30.673  29.126  24.559  1.00  0.00    -0.463 OA
BRANCH   5   6
ATOM      6  C   UNL A   1      30.667  28.745  23.256  1.00  0.00     0.313 C 
ATOM      7  O   UNL A   1      31.018  29.488  22.341  1.00  0.00    -0.252 OA
BRANCH   6   8
ATOM      8  C   UNL A   1      30.205  27.313  22.963  1.00  0.00     0.126 C 
ATOM      9  C   UNL A   1      28.837  27.107  23.613  1.00  0.00     0.025 C 
BRANCH   8  10
ATOM     10  C   UNL A   1      31.103  26.108  23.239  1.00  0.00    -0.034 A 
ATOM     11  C   UNL A   1      32.690  23.795  23.824  1.00  0.00    -0.018 A 
ATOM     12  C   UNL A   1      33.262  24.971  23.307  1.00  0.00     0.009 A 
ATOM     13  C   UNL A   1      31.308  23.796  24.046  1.00  0.00     0.009 A 
ATOM     14  C   UNL A   1      32.488  26.113  23.030  1.00  0.00     0.005 A 
ATOM     15  C   UNL A   1      30.532  24.932  23.767  1.00  0.00     0.005 A 
BRANCH  11  16
ATOM     16  C   UNL A   1      33.524  22.629  24.188  1.00  0.00    -0.017 A 
ATOM     17  C   UNL A   1      33.796  20.253  24.720  1.00  0.00     0.008 A 
ATOM     18  C   UNL A   1      35.166  20.456  24.917  1.00  0.00     0.015 A 
ATOM     19  C   UNL A   1      32.983  21.337  24.347  1.00  0.00     0.023 A 
ATOM     20  C   UNL A   1      35.718  21.725  24.766  1.00  0.00     0.002 A 
ATOM     21  C   UNL A   1      34.903  22.798  24.408  1.00  0.00     0.009 A 
BRANCH  17  22
ATOM     22  S   UNL A   1      33.179  18.586  24.903  1.00  0.00    -0.126 SA
BRANCH  22  23
ATOM     23  C   UNL A   1      34.571  17.590  24.263  1.00  0.00     0.071 C 
ATOM     24  C   UNL A   1      34.117  16.435  23.387  1.00  0.00     0.016 C 
ENDBRANCH  22  23
ENDBRANCH  17  22
ENDBRANCH  11  16
ENDBRANCH   8  10
ENDBRANCH   6   8
ENDBRANCH   5   6
ENDBRANCH   4   5
ENDBRANCH   3   4
ENDBRANCH   2   3
ENDBRANCH   1   2
BRANCH   1  25
ATOM     25  C   UNL A   1      35.006  31.010  27.624  1.00  0.00     0.188 C 
BRANCH  25  26
ATOM     26  O   UNL A   1      34.251  32.037  28.235  1.00  0.00    -0.376 OA
BRANCH  26  27
ATOM     27  C   UNL A   1      34.987  33.006  28.955  1.00  0.00     0.202 C 
BRANCH  27  28
ATOM     28  C   UNL A   1      35.017  32.768  30.471  1.00  0.00     0.261 C 
BRANCH  28  29
ATOM     29  O   UNL A   1      35.491  31.472  30.887  1.00  0.00    -0.460 OA
BRANCH  29  30
ATOM     30  C   UNL A   1      36.517  31.451  31.767  1.00  0.00     0.338 C 
ATOM     31  O   UNL A   1      36.469  31.767  32.950  1.00  0.00    -0.246 OA
BRANCH  30  32
ATOM     32  C   UNL A   1      37.667  30.764  31.139  1.00  0.00     0.060 A 
ATOM     33  C   UNL A   1      38.664  30.226  31.965  1.00  0.00     0.016 A 
ATOM     34  C   UNL A   1      37.774  30.659  29.750  1.00  0.00     0.016 A 
ATOM     35  C   UNL A   1      39.795  29.630  31.402  1.00  0.00     0.010 A 
ATOM     36  C   UNL A   1      38.916  30.075  29.188  1.00  0.00     0.010 A 
ATOM     37  C   UNL A   1      39.951  29.594  30.010  1.00  0.00    -0.014 A 
BRANCH  37  38
ATOM     38  C   UNL A   1      41.271  29.225  29.429  1.00  0.00     0.031 A 
ATOM     39  C   UNL A   1      42.348  30.277  29.355  1.00  0.00     0.074 A 
ATOM     40  C   UNL A   1      41.530  27.972  29.012  1.00  0.00     0.049 A 
ATOM     41  N   UNL A   1      43.571  30.186  28.897  1.00  0.00    -0.248 NA
ATOM     42  C   UNL A   1      41.996  31.612  29.868  1.00  0.00     0.031 C 
ATOM     43  C   UNL A   1      40.589  26.853  29.053  1.00  0.00     0.029 A 
ATOM     44  N   UNL A   1      42.670  27.430  28.468  1.00  0.00    -0.354 N 
ATOM     45  C   UNL A   1      44.132  31.448  29.062  1.00  0.00     0.074 A 
ATOM     46  C   UNL A   1      43.104  32.296  29.628  1.00  0.00     0.031 C 
ATOM     47  C   UNL A   1      41.189  25.760  28.551  1.00  0.00     0.029 A 
ATOM     48  C   UNL A   1      42.546  26.104  28.127  1.00  0.00     0.049 A 
ATOM     49  H   UNL A   1      43.499  27.944  28.335  1.00  0.00     0.167 HD
ATOM     50  C   UNL A   1      45.390  31.862  28.780  1.00  0.00     0.037 A 
ATOM     51  C   UNL A   1      43.419  25.268  27.527  1.00  0.00     0.037 A 
ATOM     52  C   UNL A   1      46.411  31.020  28.212  1.00  0.00     0.049 A 
ATOM     53  C   UNL A   1      44.797  25.768  27.167  1.00  0.00     0.074 A 
ATOM     54  C   UNL A   1      47.722  31.345  27.906  1.00  0.00     0.029 A 
ATOM     55  N   UNL A   1      46.237  29.692  27.853  1.00  0.00    -0.354 N 
ATOM     56  N   UNL A   1      45.324  26.956  27.357  1.00  0.00    -0.248 NA
ATOM     57  C   UNL A   1      45.704  24.809  26.521  1.00  0.00     0.031 C 
ATOM     58  C   UNL A   1      48.324  30.229  27.312  1.00  0.00     0.029 A 
ATOM     59  C   UNL A   1      47.408  29.190  27.306  1.00  0.00     0.049 A 
ATOM     60  H   UNL A   1      45.404  29.181  27.970  1.00  0.00     0.167 HD
ATOM     61  C   UNL A   1      46.630  26.876  26.881  1.00  0.00     0.074 A 
ATOM     62  C   UNL A   1      46.819  25.519  26.412  1.00  0.00     0.031 C 
ATOM     63  C   UNL A   1      47.588  27.836  26.840  1.00  0.00     0.037 A 
BRANCH  50  64
ATOM     64  C   UNL A   1      45.728  33.304  29.058  1.00  0.00     0.058 A 
ATOM     65  C   UNL A   1      46.356  33.702  30.250  1.00  0.00     0.135 A 
ATOM     66  C   UNL A   1      45.449  34.296  28.104  1.00  0.00     0.135 A 
ATOM     67  F   UNL A   1      46.628  32.800  31.206  1.00  0.00    -0.206 F 
ATOM     68  C   UNL A   1      46.670  35.035  30.496  1.00  0.00     0.059 A 
ATOM     69  C   UNL A   1      45.783  35.631  28.317  1.00  0.00     0.059 A 
ATOM     70  F   UNL A   1      44.848  33.972  26.948  1.00  0.00    -0.206 F 
ATOM     71  C   UNL A   1      46.381  35.992  29.523  1.00  0.00     0.060 A 
BRANCH  71  72
ATOM     72  S   UNL A   1      46.802  37.715  29.856  1.00  0.00     0.124 S 
ATOM     73  O   UNL A   1      46.757  37.748  31.314  1.00  0.00    -0.237 OA
ATOM     74  O   UNL A   1      48.129  37.831  29.260  1.00  0.00    -0.237 OA
ATOM     75  O   UNL A   1      45.746  38.461  29.179  1.00  0.00    -0.744 OA
ENDBRANCH  71  72
ENDBRANCH  50  64
BRANCH  51  76
ATOM     76  C   UNL A   1      43.022  23.867  27.221  1.00  0.00     0.058 A 
ATOM     77  C   UNL A   1      43.026  22.875  28.213  1.00  0.00     0.135 A 
ATOM     78  C   UNL A   1      42.642  23.488  25.923  1.00  0.00     0.135 A 
ATOM     79  F   UNL A   1      43.396  23.180  29.466  1.00  0.00    -0.206 F 
ATOM     80  C   UNL A   1      42.684  21.556  27.929  1.00  0.00     0.059 A 
ATOM     81  C   UNL A   1      42.266  22.182  25.621  1.00  0.00     0.059 A 
ATOM     82  F   UNL A   1      42.615  24.398  24.937  1.00  0.00    -0.206 F 
ATOM     83  C   UNL A   1      42.300  21.221  26.629  1.00  0.00     0.060 A 
BRANCH  83  84
ATOM     84  S   UNL A   1      41.809  19.517  26.285  1.00  0.00     0.124 S 
ATOM     85  O   UNL A   1      42.601  19.217  25.098  1.00  0.00    -0.237 OA
ATOM     86  O   UNL A   1      42.209  18.830  27.510  1.00  0.00    -0.237 OA
ATOM     87  O   UNL A   1      40.368  19.619  26.073  1.00  0.00    -0.744 OA
ENDBRANCH  83  84
ENDBRANCH  51  76
BRANCH  63  88
ATOM     88  C   UNL A   1      48.942  27.446  26.305  1.00  0.00     0.058 A 
ATOM     89  C   UNL A   1      49.226  27.436  24.930  1.00  0.00     0.135 A 
ATOM     90  C   UNL A   1      49.979  27.094  27.186  1.00  0.00     0.135 A 
ATOM     91  F   UNL A   1      48.273  27.765  24.041  1.00  0.00    -0.206 F 
ATOM     92  C   UNL A   1      50.471  27.046  24.445  1.00  0.00     0.059 A 
ATOM     93  C   UNL A   1      51.242  26.734  26.724  1.00  0.00     0.059 A 
ATOM     94  F   UNL A   1      49.772  27.101  28.512  1.00  0.00    -0.206 F 
ATOM     95  C   UNL A   1      51.472  26.692  25.351  1.00  0.00     0.060 A 
BRANCH  95  96
ATOM     96  S   UNL A   1      53.081  26.182  24.710  1.00  0.00     0.124 S 
ATOM     97  O   UNL A   1      52.995  26.618  23.320  1.00  0.00    -0.237 OA
ATOM     98  O   UNL A   1      54.006  26.932  25.553  1.00  0.00    -0.237 OA
ATOM     99  O   UNL A   1      53.087  24.737  24.915  1.00  0.00    -0.744 OA
ENDBRANCH  95  96
ENDBRANCH  63  88
ENDBRANCH  37  38
ENDBRANCH  30  32
ENDBRANCH  29  30
ENDBRANCH  28  29
ENDBRANCH  27  28
ENDBRANCH  26  27
ENDBRANCH  25  26
ENDBRANCH   1  25
TORSDOF 24
ENDMDL
