MODEL 1
REMARK VINA RESULT:      -8.4      0.000      0.000
REMARK SMILES CCc1ccc(-c2nc(-c3cccc(C(=O)OCCOCCOCCOC(=O)c4ccc(-c5c6nc(c(-c7c(F)cc(S(=O)(=O)[O-])cc7F)c7ccc([nH]7)c(-c7c(F)cc(S(=O)(=O)[O-])cc7F)c7nc(c(-c8c(F)cc(S(=O)(=O)[O-])cc8F)c8ccc5[nH]8)C=C7)C=C6)cc4)c3)no2)o1
REMARK SMILES IDX 21 1 20 2 19 3 18 4 17 5 15 6 16 7 14 8 10 9 11 10 95 11
REMARK SMILES IDX 12 12 13 13 9 14 7 15 8 16 97 17 96 18 6 19 3 20 4 21 98 22
REMARK SMILES IDX 5 23 2 24 1 25 22 26 23 27 24 28 25 29 26 30 27 31 28 32
REMARK SMILES IDX 29 33 30 34 94 35 31 36 93 37 32 38 33 39 34 40 87 41 35 42
REMARK SMILES IDX 92 43 86 44 88 45 36 46 91 47 85 48 84 49 37 51 71 52 50 53
REMARK SMILES IDX 70 54 51 55 54 56 69 57 89 58 52 59 53 60 68 62 90 63 55 64
REMARK SMILES IDX 38 65 39 66 48 67 40 68 41 69 47 70 49 71 42 72 43 73 44 74
REMARK SMILES IDX 45 75 46 76 72 77 73 78 82 79 74 80 75 81 81 82 83 83 76 84
REMARK SMILES IDX 77 85 78 86 79 87 80 88 56 89 57 90 66 91 58 92 59 93 65 94
REMARK SMILES IDX 67 95 60 96 61 97 62 98 63 99 64 100
REMARK H PARENT 88 50 54 61
REMARK Flexibility Score: inf
ROOT
ATOM      1  C   UNL A   1      51.165  21.392  34.255  1.00  0.00     0.188 C 
ENDROOT
BRANCH   1   2
ATOM      2  O   UNL A   1      50.256  20.891  33.292  1.00  0.00    -0.376 OA
BRANCH   2   3
ATOM      3  C   UNL A   1      49.195  20.037  33.686  1.00  0.00     0.202 C 
BRANCH   3   4
ATOM      4  C   UNL A   1      48.286  20.321  34.895  1.00  0.00     0.261 C 
BRANCH   4   5
ATOM      5  O   UNL A   1      47.423  21.459  34.777  1.00  0.00    -0.460 OA
BRANCH   5   6
ATOM      6  C   UNL A   1      46.217  21.348  35.392  1.00  0.00     0.338 C 
ATOM      7  O   UNL A   1      45.931  20.617  36.328  1.00  0.00    -0.246 OA
BRANCH   6   8
ATOM      8  C   UNL A   1      45.322  22.412  34.893  1.00  0.00     0.060 A 
ATOM      9  C   UNL A   1      44.475  23.816  33.110  1.00  0.00     0.024 A 
ATOM     10  C   UNL A   1      43.742  24.555  34.048  1.00  0.00     0.012 A 
ATOM     11  C   UNL A   1      45.279  22.748  33.538  1.00  0.00     0.027 A 
ATOM     12  C   UNL A   1      43.779  24.208  35.401  1.00  0.00     0.002 A 
ATOM     13  C   UNL A   1      44.557  23.129  35.822  1.00  0.00     0.016 A 
BRANCH   9  14
ATOM     14  C   UNL A   1      44.379  24.103  31.692  1.00  0.00     0.202 A 
ATOM     15  C   UNL A   1      44.031  23.747  29.648  1.00  0.00     0.293 A 
ATOM     16  N   UNL A   1      43.962  23.137  30.811  1.00  0.00    -0.184 NA
ATOM     17  O   UNL A   1      44.473  25.038  29.759  1.00  0.00    -0.330 OA
ATOM     18  N   UNL A   1      44.666  25.283  31.124  1.00  0.00    -0.057 NA
BRANCH  15  19
ATOM     19  C   UNL A   1      43.663  23.117  28.421  1.00  0.00     0.192 A 
ATOM     20  C   UNL A   1      42.402  22.168  26.879  1.00  0.00     0.104 A 
ATOM     21  C   UNL A   1      43.637  22.354  26.300  1.00  0.00     0.046 A 
ATOM     22  O   UNL A   1      42.423  22.585  28.177  1.00  0.00    -0.456 OA
ATOM     23  C   UNL A   1      44.439  22.977  27.282  1.00  0.00     0.056 A 
BRANCH  20  24
ATOM     24  C   UNL A   1      41.110  21.648  26.367  1.00  0.00     0.072 C 
ATOM     25  C   UNL A   1      39.948  22.531  26.798  1.00  0.00     0.012 C 
ENDBRANCH  20  24
ENDBRANCH  15  19
ENDBRANCH   9  14
ENDBRANCH   6   8
ENDBRANCH   5   6
ENDBRANCH   4   5
ENDBRANCH   3   4
ENDBRANCH   2   3
ENDBRANCH   1   2
BRANCH   1  26
ATOM     26  C   UNL A   1      51.123  22.883  34.647  1.00  0.00     0.188 C 
BRANCH  26  27
ATOM     27  O   UNL A   1      49.933  23.590  34.394  1.00  0.00    -0.376 OA
BRANCH  27  28
ATOM     28  C   UNL A   1      49.140  24.071  35.466  1.00  0.00     0.202 C 
BRANCH  28  29
ATOM     29  C   UNL A   1      48.868  25.548  35.820  1.00  0.00     0.261 C 
BRANCH  29  30
ATOM     30  O   UNL A   1      48.060  25.845  36.959  1.00  0.00    -0.460 OA
BRANCH  30  31
ATOM     31  C   UNL A   1      48.133  27.121  37.410  1.00  0.00     0.338 C 
ATOM     32  O   UNL A   1      49.058  27.639  38.014  1.00  0.00    -0.246 OA
BRANCH  31  33
ATOM     33  C   UNL A   1      46.967  27.869  36.907  1.00  0.00     0.060 A 
ATOM     34  C   UNL A   1      45.715  27.239  36.888  1.00  0.00     0.016 A 
ATOM     35  C   UNL A   1      47.116  29.170  36.425  1.00  0.00     0.016 A 
ATOM     36  C   UNL A   1      44.607  27.906  36.366  1.00  0.00     0.010 A 
ATOM     37  C   UNL A   1      46.008  29.827  35.883  1.00  0.00     0.010 A 
ATOM     38  C   UNL A   1      44.755  29.190  35.826  1.00  0.00    -0.014 A 
BRANCH  38  39
ATOM     39  C   UNL A   1      43.647  29.804  35.054  1.00  0.00     0.031 A 
ATOM     40  C   UNL A   1      42.709  30.742  35.764  1.00  0.00     0.074 A 
ATOM     41  C   UNL A   1      43.477  29.536  33.747  1.00  0.00     0.049 A 
ATOM     42  N   UNL A   1      41.631  31.334  35.319  1.00  0.00    -0.248 NA
ATOM     43  C   UNL A   1      43.029  31.049  37.169  1.00  0.00     0.031 C 
ATOM     44  C   UNL A   1      44.340  28.677  32.940  1.00  0.00     0.029 A 
ATOM     45  N   UNL A   1      42.504  29.953  32.872  1.00  0.00    -0.354 N 
ATOM     46  C   UNL A   1      41.138  32.073  36.388  1.00  0.00     0.074 A 
ATOM     47  C   UNL A   1      42.018  31.833  37.510  1.00  0.00     0.031 C 
ATOM     48  C   UNL A   1      43.848  28.614  31.690  1.00  0.00     0.029 A 
ATOM     49  C   UNL A   1      42.616  29.399  31.618  1.00  0.00     0.049 A 
ATOM     50  H   UNL A   1      41.793  30.588  33.118  1.00  0.00     0.167 HD
ATOM     51  C   UNL A   1      40.052  32.882  36.427  1.00  0.00     0.037 A 
ATOM     52  C   UNL A   1      41.802  29.493  30.547  1.00  0.00     0.037 A 
ATOM     53  C   UNL A   1      39.179  33.113  35.306  1.00  0.00     0.049 A 
ATOM     54  C   UNL A   1      40.559  30.342  30.635  1.00  0.00     0.074 A 
ATOM     55  C   UNL A   1      38.064  33.930  35.238  1.00  0.00     0.029 A 
ATOM     56  N   UNL A   1      39.314  32.518  34.058  1.00  0.00    -0.354 N 
ATOM     57  N   UNL A   1      40.115  31.057  31.643  1.00  0.00    -0.248 NA
ATOM     58  C   UNL A   1      39.706  30.403  29.439  1.00  0.00     0.031 C 
ATOM     59  C   UNL A   1      37.491  33.784  33.972  1.00  0.00     0.029 A 
ATOM     60  C   UNL A   1      38.286  32.929  33.225  1.00  0.00     0.049 A 
ATOM     61  H   UNL A   1      40.033  31.897  33.804  1.00  0.00     0.167 HD
ATOM     62  C   UNL A   1      38.953  31.675  31.192  1.00  0.00     0.074 A 
ATOM     63  C   UNL A   1      38.766  31.259  29.817  1.00  0.00     0.031 C 
ATOM     64  C   UNL A   1      38.117  32.516  31.853  1.00  0.00     0.037 A 
BRANCH  51  65
ATOM     65  C   UNL A   1      39.731  33.555  37.734  1.00  0.00     0.058 A 
ATOM     66  C   UNL A   1      40.344  34.757  38.121  1.00  0.00     0.135 A 
ATOM     67  C   UNL A   1      38.767  33.006  38.596  1.00  0.00     0.135 A 
ATOM     68  F   UNL A   1      41.286  35.317  37.345  1.00  0.00    -0.206 F 
ATOM     69  C   UNL A   1      40.035  35.375  39.329  1.00  0.00     0.059 A 
ATOM     70  C   UNL A   1      38.420  33.623  39.794  1.00  0.00     0.059 A 
ATOM     71  F   UNL A   1      38.151  31.857  38.277  1.00  0.00    -0.206 F 
ATOM     72  C   UNL A   1      39.070  34.801  40.158  1.00  0.00     0.060 A 
BRANCH  72  73
ATOM     73  S   UNL A   1      38.675  35.621  41.716  1.00  0.00     0.124 S 
ATOM     74  O   UNL A   1      38.867  37.025  41.364  1.00  0.00    -0.237 OA
ATOM     75  O   UNL A   1      37.294  35.209  41.944  1.00  0.00    -0.237 OA
ATOM     76  O   UNL A   1      39.652  35.070  42.649  1.00  0.00    -0.744 OA
ENDBRANCH  72  73
ENDBRANCH  51  65
BRANCH  52  77
ATOM     77  C   UNL A   1      42.125  28.749  29.299  1.00  0.00     0.058 A 
ATOM     78  C   UNL A   1      41.609  27.467  29.063  1.00  0.00     0.135 A 
ATOM     79  C   UNL A   1      42.962  29.304  28.317  1.00  0.00     0.135 A 
ATOM     80  F   UNL A   1      40.816  26.885  29.976  1.00  0.00    -0.206 F 
ATOM     81  C   UNL A   1      41.921  26.754  27.909  1.00  0.00     0.059 A 
ATOM     82  C   UNL A   1      43.265  28.624  27.141  1.00  0.00     0.059 A 
ATOM     83  F   UNL A   1      43.477  30.532  28.488  1.00  0.00    -0.206 F 
ATOM     84  C   UNL A   1      42.747  27.344  26.951  1.00  0.00     0.060 A 
BRANCH  84  85
ATOM     85  S   UNL A   1      43.106  26.429  25.437  1.00  0.00     0.124 S 
ATOM     86  O   UNL A   1      42.887  27.448  24.418  1.00  0.00    -0.237 OA
ATOM     87  O   UNL A   1      44.492  26.022  25.646  1.00  0.00    -0.237 OA
ATOM     88  O   UNL A   1      42.131  25.342  25.462  1.00  0.00    -0.744 OA
ENDBRANCH  84  85
ENDBRANCH  52  77
BRANCH  64  89
ATOM     89  C   UNL A   1      36.949  33.087  31.092  1.00  0.00     0.058 A 
ATOM     90  C   UNL A   1      35.621  32.766  31.414  1.00  0.00     0.135 A 
ATOM     91  C   UNL A   1      37.164  34.019  30.062  1.00  0.00     0.135 A 
ATOM     92  F   UNL A   1      35.358  31.879  32.387  1.00  0.00    -0.206 F 
ATOM     93  C   UNL A   1      34.550  33.329  30.728  1.00  0.00     0.059 A 
ATOM     94  C   UNL A   1      36.107  34.619  29.384  1.00  0.00     0.059 A 
ATOM     95  F   UNL A   1      38.413  34.372  29.719  1.00  0.00    -0.206 F 
ATOM     96  C   UNL A   1      34.803  34.258  29.716  1.00  0.00     0.060 A 
BRANCH  96  97
ATOM     97  S   UNL A   1      33.401  35.008  28.858  1.00  0.00     0.124 S 
ATOM     98  O   UNL A   1      32.319  34.786  29.813  1.00  0.00    -0.237 OA
ATOM     99  O   UNL A   1      33.836  36.392  28.701  1.00  0.00    -0.237 OA
ATOM    100  O   UNL A   1      33.311  34.240  27.619  1.00  0.00    -0.744 OA
ENDBRANCH  96  97
ENDBRANCH  64  89
ENDBRANCH  38  39
ENDBRANCH  31  33
ENDBRANCH  30  31
ENDBRANCH  29  30
ENDBRANCH  28  29
ENDBRANCH  27  28
ENDBRANCH  26  27
ENDBRANCH   1  26
TORSDOF 23
ENDMDL
MODEL 2
REMARK VINA RESULT:      -8.2      2.085      9.133
REMARK SMILES CCc1ccc(-c2nc(-c3cccc(C(=O)OCCOCCOCCOC(=O)c4ccc(-c5c6nc(c(-c7c(F)cc(S(=O)(=O)[O-])cc7F)c7ccc([nH]7)c(-c7c(F)cc(S(=O)(=O)[O-])cc7F)c7nc(c(-c8c(F)cc(S(=O)(=O)[O-])cc8F)c8ccc5[nH]8)C=C7)C=C6)cc4)c3)no2)o1
REMARK SMILES IDX 21 1 20 2 19 3 18 4 17 5 15 6 16 7 14 8 10 9 11 10 95 11
REMARK SMILES IDX 12 12 13 13 9 14 7 15 8 16 97 17 96 18 6 19 3 20 4 21 98 22
REMARK SMILES IDX 5 23 2 24 1 25 22 26 23 27 24 28 25 29 26 30 27 31 28 32
REMARK SMILES IDX 29 33 30 34 94 35 31 36 93 37 32 38 33 39 34 40 87 41 35 42
REMARK SMILES IDX 92 43 86 44 88 45 36 46 91 47 85 48 84 49 37 51 71 52 50 53
REMARK SMILES IDX 70 54 51 55 54 56 69 57 89 58 52 59 53 60 68 62 90 63 55 64
REMARK SMILES IDX 38 65 39 66 48 67 40 68 41 69 47 70 49 71 42 72 43 73 44 74
REMARK SMILES IDX 45 75 46 76 72 77 73 78 82 79 74 80 75 81 81 82 83 83 76 84
REMARK SMILES IDX 77 85 78 86 79 87 80 88 56 89 57 90 66 91 58 92 59 93 65 94
REMARK SMILES IDX 67 95 60 96 61 97 62 98 63 99 64 100
REMARK H PARENT 88 50 54 61
REMARK Flexibility Score: inf
ROOT
ATOM      1  C   UNL A   1      51.722  24.417  34.909  1.00  0.00     0.188 C 
ENDROOT
BRANCH   1   2
ATOM      2  O   UNL A   1      50.967  25.213  34.014  1.00  0.00    -0.376 OA
BRANCH   2   3
ATOM      3  C   UNL A   1      50.003  24.614  33.162  1.00  0.00     0.202 C 
BRANCH   3   4
ATOM      4  C   UNL A   1      48.935  25.418  32.399  1.00  0.00     0.261 C 
BRANCH   4   5
ATOM      5  O   UNL A   1      47.747  25.739  33.133  1.00  0.00    -0.460 OA
BRANCH   5   6
ATOM      6  C   UNL A   1      46.582  25.627  32.443  1.00  0.00     0.338 C 
ATOM      7  O   UNL A   1      46.332  26.087  31.340  1.00  0.00    -0.246 OA
BRANCH   6   8
ATOM      8  C   UNL A   1      45.698  24.672  33.142  1.00  0.00     0.060 A 
ATOM      9  C   UNL A   1      45.200  23.210  35.008  1.00  0.00     0.024 A 
ATOM     10  C   UNL A   1      44.072  22.734  34.325  1.00  0.00     0.012 A 
ATOM     11  C   UNL A   1      46.023  24.174  34.406  1.00  0.00     0.027 A 
ATOM     12  C   UNL A   1      43.744  23.244  33.067  1.00  0.00     0.002 A 
ATOM     13  C   UNL A   1      44.548  24.222  32.481  1.00  0.00     0.016 A 
BRANCH   9  14
ATOM     14  C   UNL A   1      45.505  22.760  36.352  1.00  0.00     0.202 A 
ATOM     15  C   UNL A   1      46.121  21.449  37.878  1.00  0.00     0.293 A 
ATOM     16  N   UNL A   1      46.003  21.499  36.569  1.00  0.00    -0.184 NA
ATOM     17  O   UNL A   1      45.718  22.608  38.485  1.00  0.00    -0.330 OA
ATOM     18  N   UNL A   1      45.346  23.491  37.464  1.00  0.00    -0.057 NA
BRANCH  15  19
ATOM     19  C   UNL A   1      46.632  20.307  38.565  1.00  0.00     0.192 A 
ATOM     20  C   UNL A   1      46.663  18.452  39.760  1.00  0.00     0.104 A 
ATOM     21  C   UNL A   1      47.948  18.629  39.298  1.00  0.00     0.046 A 
ATOM     22  O   UNL A   1      45.872  19.487  39.359  1.00  0.00    -0.456 OA
ATOM     23  C   UNL A   1      47.925  19.808  38.519  1.00  0.00     0.056 A 
BRANCH  20  24
ATOM     24  C   UNL A   1      46.010  17.381  40.552  1.00  0.00     0.072 C 
ATOM     25  C   UNL A   1      45.775  17.821  41.989  1.00  0.00     0.012 C 
ENDBRANCH  20  24
ENDBRANCH  15  19
ENDBRANCH   9  14
ENDBRANCH   6   8
ENDBRANCH   5   6
ENDBRANCH   4   5
ENDBRANCH   3   4
ENDBRANCH   2   3
ENDBRANCH   1   2
BRANCH   1  26
ATOM     26  C   UNL A   1      52.204  25.015  36.247  1.00  0.00     0.188 C 
BRANCH  26  27
ATOM     27  O   UNL A   1      52.058  26.402  36.431  1.00  0.00    -0.376 OA
BRANCH  27  28
ATOM     28  C   UNL A   1      51.503  26.914  37.630  1.00  0.00     0.202 C 
BRANCH  28  29
ATOM     29  C   UNL A   1      50.008  27.169  37.918  1.00  0.00     0.261 C 
BRANCH  29  30
ATOM     30  O   UNL A   1      49.134  27.449  36.824  1.00  0.00    -0.460 OA
BRANCH  30  31
ATOM     31  C   UNL A   1      48.087  26.600  36.681  1.00  0.00     0.338 C 
ATOM     32  O   UNL A   1      48.063  25.407  36.934  1.00  0.00    -0.246 OA
BRANCH  31  33
ATOM     33  C   UNL A   1      46.890  27.381  36.321  1.00  0.00     0.060 A 
ATOM     34  C   UNL A   1      45.625  26.862  36.629  1.00  0.00     0.016 A 
ATOM     35  C   UNL A   1      47.016  28.600  35.653  1.00  0.00     0.016 A 
ATOM     36  C   UNL A   1      44.476  27.556  36.250  1.00  0.00     0.010 A 
ATOM     37  C   UNL A   1      45.863  29.282  35.256  1.00  0.00     0.010 A 
ATOM     38  C   UNL A   1      44.589  28.752  35.528  1.00  0.00    -0.014 A 
BRANCH  38  39
ATOM     39  C   UNL A   1      43.385  29.365  34.913  1.00  0.00     0.031 A 
ATOM     40  C   UNL A   1      42.994  28.943  33.523  1.00  0.00     0.074 A 
ATOM     41  C   UNL A   1      42.652  30.277  35.577  1.00  0.00     0.049 A 
ATOM     42  N   UNL A   1      42.034  29.393  32.758  1.00  0.00    -0.248 NA
ATOM     43  C   UNL A   1      43.800  27.872  32.913  1.00  0.00     0.031 C 
ATOM     44  C   UNL A   1      42.906  30.737  36.940  1.00  0.00     0.029 A 
ATOM     45  N   UNL A   1      41.548  30.991  35.181  1.00  0.00    -0.354 N 
ATOM     46  C   UNL A   1      42.125  28.671  31.573  1.00  0.00     0.074 A 
ATOM     47  C   UNL A   1      43.251  27.774  31.711  1.00  0.00     0.031 C 
ATOM     48  C   UNL A   1      41.994  31.671  37.262  1.00  0.00     0.029 A 
ATOM     49  C   UNL A   1      41.115  31.901  36.115  1.00  0.00     0.049 A 
ATOM     50  H   UNL A   1      41.107  30.864  34.309  1.00  0.00     0.167 HD
ATOM     51  C   UNL A   1      41.338  28.747  30.474  1.00  0.00     0.037 A 
ATOM     52  C   UNL A   1      40.142  32.832  36.042  1.00  0.00     0.037 A 
ATOM     53  C   UNL A   1      40.220  29.645  30.343  1.00  0.00     0.049 A 
ATOM     54  C   UNL A   1      39.323  32.948  34.780  1.00  0.00     0.074 A 
ATOM     55  C   UNL A   1      39.349  29.785  29.278  1.00  0.00     0.029 A 
ATOM     56  N   UNL A   1      39.826  30.567  31.304  1.00  0.00    -0.354 N 
ATOM     57  N   UNL A   1      39.402  32.243  33.675  1.00  0.00    -0.248 NA
ATOM     58  C   UNL A   1      38.280  33.983  34.755  1.00  0.00     0.031 C 
ATOM     59  C   UNL A   1      38.466  30.829  29.568  1.00  0.00     0.029 A 
ATOM     60  C   UNL A   1      38.742  31.297  30.843  1.00  0.00     0.049 A 
ATOM     61  H   UNL A   1      40.254  30.684  32.183  1.00  0.00     0.167 HD
ATOM     62  C   UNL A   1      38.400  32.727  32.840  1.00  0.00     0.074 A 
ATOM     63  C   UNL A   1      37.721  33.778  33.569  1.00  0.00     0.031 C 
ATOM     64  C   UNL A   1      38.067  32.334  31.584  1.00  0.00     0.037 A 
BRANCH  51  65
ATOM     65  C   UNL A   1      41.676  27.852  29.312  1.00  0.00     0.058 A 
ATOM     66  C   UNL A   1      42.806  28.072  28.509  1.00  0.00     0.135 A 
ATOM     67  C   UNL A   1      40.873  26.737  29.019  1.00  0.00     0.135 A 
ATOM     68  F   UNL A   1      43.599  29.133  28.733  1.00  0.00    -0.206 F 
ATOM     69  C   UNL A   1      43.114  27.235  27.441  1.00  0.00     0.059 A 
ATOM     70  C   UNL A   1      41.179  25.870  27.975  1.00  0.00     0.059 A 
ATOM     71  F   UNL A   1      39.778  26.481  29.752  1.00  0.00    -0.206 F 
ATOM     72  C   UNL A   1      42.294  26.135  27.183  1.00  0.00     0.060 A 
BRANCH  72  73
ATOM     73  S   UNL A   1      42.713  25.055  25.799  1.00  0.00     0.124 S 
ATOM     74  O   UNL A   1      42.366  25.896  24.657  1.00  0.00    -0.237 OA
ATOM     75  O   UNL A   1      44.139  24.824  26.005  1.00  0.00    -0.237 OA
ATOM     76  O   UNL A   1      41.856  23.891  26.003  1.00  0.00    -0.744 OA
ENDBRANCH  72  73
ENDBRANCH  51  65
BRANCH  52  77
ATOM     77  C   UNL A   1      39.893  33.743  37.193  1.00  0.00     0.058 A 
ATOM     78  C   UNL A   1      40.634  34.922  37.359  1.00  0.00     0.135 A 
ATOM     79  C   UNL A   1      38.912  33.450  38.155  1.00  0.00     0.135 A 
ATOM     80  F   UNL A   1      41.593  35.240  36.475  1.00  0.00    -0.206 F 
ATOM     81  C   UNL A   1      40.425  35.770  38.442  1.00  0.00     0.059 A 
ATOM     82  C   UNL A   1      38.664  34.296  39.230  1.00  0.00     0.059 A 
ATOM     83  F   UNL A   1      38.170  32.337  38.041  1.00  0.00    -0.206 F 
ATOM     84  C   UNL A   1      39.433  35.450  39.371  1.00  0.00     0.060 A 
BRANCH  84  85
ATOM     85  S   UNL A   1      39.139  36.583  40.746  1.00  0.00     0.124 S 
ATOM     86  O   UNL A   1      38.708  37.788  40.047  1.00  0.00    -0.237 OA
ATOM     87  O   UNL A   1      38.107  35.882  41.504  1.00  0.00    -0.237 OA
ATOM     88  O   UNL A   1      40.442  36.665  41.400  1.00  0.00    -0.744 OA
ENDBRANCH  84  85
ENDBRANCH  52  77
BRANCH  64  89
ATOM     89  C   UNL A   1      36.888  33.004  30.929  1.00  0.00     0.058 A 
ATOM     90  C   UNL A   1      37.041  33.914  29.871  1.00  0.00     0.135 A 
ATOM     91  C   UNL A   1      35.579  32.681  31.328  1.00  0.00     0.135 A 
ATOM     92  F   UNL A   1      38.268  34.262  29.452  1.00  0.00    -0.206 F 
ATOM     93  C   UNL A   1      35.942  34.498  29.249  1.00  0.00     0.059 A 
ATOM     94  C   UNL A   1      34.465  33.228  30.698  1.00  0.00     0.059 A 
ATOM     95  F   UNL A   1      35.373  31.807  32.326  1.00  0.00    -0.206 F 
ATOM     96  C   UNL A   1      34.656  34.145  29.667  1.00  0.00     0.060 A 
BRANCH  96  97
ATOM     97  S   UNL A   1      33.239  34.883  28.826  1.00  0.00     0.124 S 
ATOM     98  O   UNL A   1      32.857  33.819  27.904  1.00  0.00    -0.237 OA
ATOM     99  O   UNL A   1      32.316  35.130  29.929  1.00  0.00    -0.237 OA
ATOM    100  O   UNL A   1      33.798  36.081  28.205  1.00  0.00    -0.744 OA
ENDBRANCH  96  97
ENDBRANCH  64  89
ENDBRANCH  38  39
ENDBRANCH  31  33
ENDBRANCH  30  31
ENDBRANCH  29  30
ENDBRANCH  28  29
ENDBRANCH  27  28
ENDBRANCH  26  27
ENDBRANCH   1  26
TORSDOF 23
ENDMDL
MODEL 3
REMARK VINA RESULT:      -8.1      1.458      2.372
REMARK SMILES CCc1ccc(-c2nc(-c3cccc(C(=O)OCCOCCOCCOC(=O)c4ccc(-c5c6nc(c(-c7c(F)cc(S(=O)(=O)[O-])cc7F)c7ccc([nH]7)c(-c7c(F)cc(S(=O)(=O)[O-])cc7F)c7nc(c(-c8c(F)cc(S(=O)(=O)[O-])cc8F)c8ccc5[nH]8)C=C7)C=C6)cc4)c3)no2)o1
REMARK SMILES IDX 21 1 20 2 19 3 18 4 17 5 15 6 16 7 14 8 10 9 11 10 95 11
REMARK SMILES IDX 12 12 13 13 9 14 7 15 8 16 97 17 96 18 6 19 3 20 4 21 98 22
REMARK SMILES IDX 5 23 2 24 1 25 22 26 23 27 24 28 25 29 26 30 27 31 28 32
REMARK SMILES IDX 29 33 30 34 94 35 31 36 93 37 32 38 33 39 34 40 87 41 35 42
REMARK SMILES IDX 92 43 86 44 88 45 36 46 91 47 85 48 84 49 37 51 71 52 50 53
REMARK SMILES IDX 70 54 51 55 54 56 69 57 89 58 52 59 53 60 68 62 90 63 55 64
REMARK SMILES IDX 38 65 39 66 48 67 40 68 41 69 47 70 49 71 42 72 43 73 44 74
REMARK SMILES IDX 45 75 46 76 72 77 73 78 82 79 74 80 75 81 81 82 83 83 76 84
REMARK SMILES IDX 77 85 78 86 79 87 80 88 56 89 57 90 66 91 58 92 59 93 65 94
REMARK SMILES IDX 67 95 60 96 61 97 62 98 63 99 64 100
REMARK H PARENT 88 50 54 61
REMARK Flexibility Score: inf
ROOT
ATOM      1  C   UNL A   1      51.049  21.279  34.228  1.00  0.00     0.188 C 
ENDROOT
BRANCH   1   2
ATOM      2  O   UNL A   1      50.137  20.763  33.276  1.00  0.00    -0.376 OA
BRANCH   2   3
ATOM      3  C   UNL A   1      49.054  19.946  33.691  1.00  0.00     0.202 C 
BRANCH   3   4
ATOM      4  C   UNL A   1      48.101  20.324  34.838  1.00  0.00     0.261 C 
BRANCH   4   5
ATOM      5  O   UNL A   1      47.203  21.409  34.575  1.00  0.00    -0.460 OA
BRANCH   5   6
ATOM      6  C   UNL A   1      45.951  21.273  35.085  1.00  0.00     0.338 C 
ATOM      7  O   UNL A   1      45.583  20.473  35.931  1.00  0.00    -0.246 OA
BRANCH   6   8
ATOM      8  C   UNL A   1      45.113  22.393  34.609  1.00  0.00     0.060 A 
ATOM      9  C   UNL A   1      44.539  24.065  32.954  1.00  0.00     0.024 A 
ATOM     10  C   UNL A   1      43.614  24.623  33.848  1.00  0.00     0.012 A 
ATOM     11  C   UNL A   1      45.301  22.953  33.344  1.00  0.00     0.027 A 
ATOM     12  C   UNL A   1      43.421  24.052  35.108  1.00  0.00     0.002 A 
ATOM     13  C   UNL A   1      44.160  22.929  35.484  1.00  0.00     0.016 A 
BRANCH   9  14
ATOM     14  C   UNL A   1      44.687  24.588  31.609  1.00  0.00     0.202 A 
ATOM     15  C   UNL A   1      45.561  25.638  30.010  1.00  0.00     0.293 A 
ATOM     16  N   UNL A   1      45.794  25.323  31.265  1.00  0.00    -0.184 NA
ATOM     17  O   UNL A   1      44.367  25.143  29.559  1.00  0.00    -0.330 OA
ATOM     18  N   UNL A   1      43.807  24.413  30.614  1.00  0.00    -0.057 NA
BRANCH  15  19
ATOM     19  C   UNL A   1      46.476  26.398  29.220  1.00  0.00     0.192 A 
ATOM     20  C   UNL A   1      48.306  26.924  28.106  1.00  0.00     0.104 A 
ATOM     21  C   UNL A   1      47.400  27.927  27.846  1.00  0.00     0.046 A 
ATOM     22  O   UNL A   1      47.771  26.019  28.973  1.00  0.00    -0.456 OA
ATOM     23  C   UNL A   1      46.223  27.582  28.546  1.00  0.00     0.056 A 
BRANCH  20  24
ATOM     24  C   UNL A   1      49.680  26.647  27.619  1.00  0.00     0.072 C 
ATOM     25  C   UNL A   1      49.835  25.194  27.195  1.00  0.00     0.012 C 
ENDBRANCH  20  24
ENDBRANCH  15  19
ENDBRANCH   9  14
ENDBRANCH   6   8
ENDBRANCH   5   6
ENDBRANCH   4   5
ENDBRANCH   3   4
ENDBRANCH   2   3
ENDBRANCH   1   2
BRANCH   1  26
ATOM     26  C   UNL A   1      50.987  22.769  34.621  1.00  0.00     0.188 C 
BRANCH  26  27
ATOM     27  O   UNL A   1      49.794  23.464  34.353  1.00  0.00    -0.376 OA
BRANCH  27  28
ATOM     28  C   UNL A   1      48.945  23.871  35.413  1.00  0.00     0.202 C 
BRANCH  28  29
ATOM     29  C   UNL A   1      48.627  25.322  35.833  1.00  0.00     0.261 C 
BRANCH  29  30
ATOM     30  O   UNL A   1      47.769  25.542  36.953  1.00  0.00    -0.460 OA
BRANCH  30  31
ATOM     31  C   UNL A   1      47.799  26.793  37.474  1.00  0.00     0.338 C 
ATOM     32  O   UNL A   1      48.679  27.287  38.160  1.00  0.00    -0.246 OA
BRANCH  31  33
ATOM     33  C   UNL A   1      46.657  27.557  36.941  1.00  0.00     0.060 A 
ATOM     34  C   UNL A   1      45.387  26.962  36.937  1.00  0.00     0.016 A 
ATOM     35  C   UNL A   1      46.845  28.835  36.415  1.00  0.00     0.016 A 
ATOM     36  C   UNL A   1      44.301  27.642  36.387  1.00  0.00     0.010 A 
ATOM     37  C   UNL A   1      45.759  29.505  35.846  1.00  0.00     0.010 A 
ATOM     38  C   UNL A   1      44.488  28.903  35.805  1.00  0.00    -0.014 A 
BRANCH  38  39
ATOM     39  C   UNL A   1      43.401  29.521  35.007  1.00  0.00     0.031 A 
ATOM     40  C   UNL A   1      42.577  30.611  35.638  1.00  0.00     0.074 A 
ATOM     41  C   UNL A   1      43.150  29.126  33.746  1.00  0.00     0.049 A 
ATOM     42  N   UNL A   1      41.533  31.241  35.166  1.00  0.00    -0.248 NA
ATOM     43  C   UNL A   1      42.984  31.043  36.985  1.00  0.00     0.031 C 
ATOM     44  C   UNL A   1      43.903  28.110  33.013  1.00  0.00     0.029 A 
ATOM     45  N   UNL A   1      42.178  29.526  32.864  1.00  0.00    -0.354 N 
ATOM     46  C   UNL A   1      41.150  32.135  36.160  1.00  0.00     0.074 A 
ATOM     47  C   UNL A   1      42.057  31.945  37.271  1.00  0.00     0.031 C 
ATOM     48  C   UNL A   1      43.351  27.952  31.797  1.00  0.00     0.029 A 
ATOM     49  C   UNL A   1      42.187  28.829  31.679  1.00  0.00     0.049 A 
ATOM     50  H   UNL A   1      41.533  30.244  33.060  1.00  0.00     0.167 HD
ATOM     51  C   UNL A   1      40.139  33.035  36.144  1.00  0.00     0.037 A 
ATOM     52  C   UNL A   1      41.336  28.873  30.634  1.00  0.00     0.037 A 
ATOM     53  C   UNL A   1      39.238  33.216  35.035  1.00  0.00     0.049 A 
ATOM     54  C   UNL A   1      40.172  29.833  30.667  1.00  0.00     0.074 A 
ATOM     55  C   UNL A   1      38.192  34.114  34.914  1.00  0.00     0.029 A 
ATOM     56  N   UNL A   1      39.267  32.476  33.860  1.00  0.00    -0.354 N 
ATOM     57  N   UNL A   1      39.835  30.691  31.602  1.00  0.00    -0.248 NA
ATOM     58  C   UNL A   1      39.275  29.834  29.503  1.00  0.00     0.031 C 
ATOM     59  C   UNL A   1      37.553  33.879  33.694  1.00  0.00     0.029 A 
ATOM     60  C   UNL A   1      38.240  32.880  33.022  1.00  0.00     0.049 A 
ATOM     61  H   UNL A   1      39.920  31.770  33.654  1.00  0.00     0.167 HD
ATOM     62  C   UNL A   1      38.709  31.354  31.124  1.00  0.00     0.074 A 
ATOM     63  C   UNL A   1      38.427  30.806  29.813  1.00  0.00     0.031 C 
ATOM     64  C   UNL A   1      37.976  32.333  31.713  1.00  0.00     0.037 A 
BRANCH  51  65
ATOM     65  C   UNL A   1      39.933  33.875  37.376  1.00  0.00     0.058 A 
ATOM     66  C   UNL A   1      39.054  33.488  38.400  1.00  0.00     0.135 A 
ATOM     67  C   UNL A   1      40.654  35.067  37.550  1.00  0.00     0.135 A 
ATOM     68  F   UNL A   1      38.326  32.367  38.279  1.00  0.00    -0.206 F 
ATOM     69  C   UNL A   1      38.876  34.269  39.539  1.00  0.00     0.059 A 
ATOM     70  C   UNL A   1      40.515  35.847  38.693  1.00  0.00     0.059 A 
ATOM     71  F   UNL A   1      41.507  35.486  36.600  1.00  0.00    -0.206 F 
ATOM     72  C   UNL A   1      39.613  35.446  39.676  1.00  0.00     0.060 A 
BRANCH  72  73
ATOM     73  S   UNL A   1      39.377  36.440  41.164  1.00  0.00     0.124 S 
ATOM     74  O   UNL A   1      38.805  35.460  42.083  1.00  0.00    -0.237 OA
ATOM     75  O   UNL A   1      40.736  36.876  41.467  1.00  0.00    -0.237 OA
ATOM     76  O   UNL A   1      38.467  37.495  40.728  1.00  0.00    -0.744 OA
ENDBRANCH  72  73
ENDBRANCH  51  65
BRANCH  52  77
ATOM     77  C   UNL A   1      41.539  27.970  29.468  1.00  0.00     0.058 A 
ATOM     78  C   UNL A   1      40.712  26.858  29.257  1.00  0.00     0.135 A 
ATOM     79  C   UNL A   1      42.571  28.198  28.542  1.00  0.00     0.135 A 
ATOM     80  F   UNL A   1      39.720  26.588  30.121  1.00  0.00    -0.206 F 
ATOM     81  C   UNL A   1      40.906  25.995  28.183  1.00  0.00     0.059 A 
ATOM     82  C   UNL A   1      42.768  27.367  27.444  1.00  0.00     0.059 A 
ATOM     83  F   UNL A   1      43.388  29.252  28.692  1.00  0.00    -0.206 F 
ATOM     84  C   UNL A   1      41.935  26.262  27.278  1.00  0.00     0.060 A 
BRANCH  84  85
ATOM     85  S   UNL A   1      42.147  25.162  25.861  1.00  0.00     0.124 S 
ATOM     86  O   UNL A   1      42.278  26.115  24.766  1.00  0.00    -0.237 OA
ATOM     87  O   UNL A   1      43.359  24.431  26.220  1.00  0.00    -0.237 OA
ATOM     88  O   UNL A   1      40.921  24.369  25.865  1.00  0.00    -0.744 OA
ENDBRANCH  84  85
ENDBRANCH  52  77
BRANCH  64  89
ATOM     89  C   UNL A   1      36.826  32.916  30.933  1.00  0.00     0.058 A 
ATOM     90  C   UNL A   1      35.490  32.607  31.233  1.00  0.00     0.135 A 
ATOM     91  C   UNL A   1      37.067  33.847  29.908  1.00  0.00     0.135 A 
ATOM     92  F   UNL A   1      35.203  31.720  32.200  1.00  0.00    -0.206 F 
ATOM     93  C   UNL A   1      34.436  33.180  30.529  1.00  0.00     0.059 A 
ATOM     94  C   UNL A   1      36.027  34.457  29.214  1.00  0.00     0.059 A 
ATOM     95  F   UNL A   1      38.325  34.189  29.587  1.00  0.00    -0.206 F 
ATOM     96  C   UNL A   1      34.714  34.109  29.524  1.00  0.00     0.060 A 
BRANCH  96  97
ATOM     97  S   UNL A   1      33.334  34.872  28.643  1.00  0.00     0.124 S 
ATOM     98  O   UNL A   1      32.371  35.070  29.722  1.00  0.00    -0.237 OA
ATOM     99  O   UNL A   1      33.941  36.083  28.103  1.00  0.00    -0.237 OA
ATOM    100  O   UNL A   1      32.965  33.866  27.650  1.00  0.00    -0.744 OA
ENDBRANCH  96  97
ENDBRANCH  64  89
ENDBRANCH  38  39
ENDBRANCH  31  33
ENDBRANCH  30  31
ENDBRANCH  29  30
ENDBRANCH  28  29
ENDBRANCH  27  28
ENDBRANCH  26  27
ENDBRANCH   1  26
TORSDOF 23
ENDMDL
