MODEL 1
REMARK VINA RESULT:     -11.5      0.000      0.000
REMARK SMILES O=C(OCCOCCOCCOC(=O)[C@H]1CC=CC[C@H]1C(=O)Nc1ccc(S(=O)(=O)N2CCCC2)cc1)c1ccc(-c2c3nc(c(-c4c(F)cc(S(=O)(=O)[O-])cc4F)c4ccc([nH]4)c(-c4c(F)cc(S(=O)(=O)[O-])cc4F)c4nc(c(-c5c(F)cc(S(=O)(=O)[O-])cc5F)c5ccc2[nH]5)C=C4)C=C3)cc1
REMARK SMILES IDX 8 1 7 2 6 3 5 4 4 5 3 6 2 7 1 8 38 9 39 10 103 11 40 12
REMARK SMILES IDX 102 13 41 14 42 15 43 16 96 17 44 18 101 19 95 20 97 21
REMARK SMILES IDX 45 22 100 23 94 24 93 25 46 27 80 28 59 29 79 30 60 31 63 32
REMARK SMILES IDX 78 33 98 34 61 35 62 36 77 38 99 39 64 40 47 41 48 42 57 43
REMARK SMILES IDX 49 44 50 45 56 46 58 47 51 48 52 49 53 50 54 51 55 52 81 53
REMARK SMILES IDX 82 54 91 55 83 56 84 57 90 58 92 59 85 60 86 61 87 62 88 63
REMARK SMILES IDX 89 64 65 65 66 66 75 67 67 68 68 69 74 70 76 71 69 72 70 73
REMARK SMILES IDX 71 74 72 75 73 76 9 77 10 78 11 79 12 80 13 81 14 82 15 83
REMARK SMILES IDX 16 84 20 85 17 86 19 87 18 88 21 89 22 90 23 91 24 93 25 94
REMARK SMILES IDX 37 95 26 96 36 97 27 98 28 99 29 100 30 101 31 102 32 103
REMARK SMILES IDX 35 104 33 105 34 106
REMARK H PARENT 97 26 63 37 23 92
REMARK Flexibility Score: inf
ROOT
ATOM      1  C   UNL A   1      33.803  32.045  27.622  1.00  0.00     0.188 C 
ENDROOT
BRANCH   1   2
ATOM      2  C   UNL A   1      34.982  32.880  28.261  1.00  0.00     0.188 C 
BRANCH   2   3
ATOM      3  O   UNL A   1      35.807  32.269  29.251  1.00  0.00    -0.376 OA
BRANCH   3   4
ATOM      4  C   UNL A   1      35.545  32.699  30.594  1.00  0.00     0.202 C 
BRANCH   4   5
ATOM      5  C   UNL A   1      35.596  31.600  31.666  1.00  0.00     0.261 C 
BRANCH   5   6
ATOM      6  O   UNL A   1      36.660  30.655  31.480  1.00  0.00    -0.460 OA
BRANCH   6   7
ATOM      7  C   UNL A   1      37.709  30.780  32.330  1.00  0.00     0.338 C 
ATOM      8  O   UNL A   1      37.632  31.086  33.506  1.00  0.00    -0.246 OA
BRANCH   7   9
ATOM      9  C   UNL A   1      38.963  30.521  31.570  1.00  0.00     0.060 A 
ATOM     10  C   UNL A   1      38.928  30.466  30.166  1.00  0.00     0.016 A 
ATOM     11  C   UNL A   1      40.182  30.407  32.241  1.00  0.00     0.016 A 
ATOM     12  C   UNL A   1      40.092  30.386  29.422  1.00  0.00     0.010 A 
ATOM     13  C   UNL A   1      41.348  30.189  31.497  1.00  0.00     0.010 A 
ATOM     14  C   UNL A   1      41.307  30.201  30.084  1.00  0.00    -0.014 A 
BRANCH  14  15
ATOM     15  C   UNL A   1      42.382  29.589  29.275  1.00  0.00     0.031 A 
ATOM     16  C   UNL A   1      43.515  30.545  29.041  1.00  0.00     0.074 A 
ATOM     17  C   UNL A   1      42.472  28.289  28.928  1.00  0.00     0.049 A 
ATOM     18  N   UNL A   1      44.756  30.285  28.754  1.00  0.00    -0.248 NA
ATOM     19  C   UNL A   1      43.241  31.972  29.320  1.00  0.00     0.031 C 
ATOM     20  C   UNL A   1      41.522  27.226  29.233  1.00  0.00     0.029 A 
ATOM     21  N   UNL A   1      43.453  27.630  28.229  1.00  0.00    -0.354 N 
ATOM     22  C   UNL A   1      45.417  31.490  28.930  1.00  0.00     0.074 A 
ATOM     23  C   UNL A   1      44.457  32.482  29.335  1.00  0.00     0.031 C 
ATOM     24  C   UNL A   1      41.899  26.079  28.645  1.00  0.00     0.029 A 
ATOM     25  C   UNL A   1      43.171  26.303  27.983  1.00  0.00     0.049 A 
ATOM     26  H   UNL A   1      44.284  28.066  27.931  1.00  0.00     0.167 HD
ATOM     27  C   UNL A   1      46.724  31.751  28.742  1.00  0.00     0.037 A 
ATOM     28  C   UNL A   1      43.883  25.370  27.325  1.00  0.00     0.037 A 
ATOM     29  C   UNL A   1      47.600  30.811  28.119  1.00  0.00     0.049 A 
ATOM     30  C   UNL A   1      45.265  25.762  26.879  1.00  0.00     0.074 A 
ATOM     31  C   UNL A   1      48.898  30.996  27.694  1.00  0.00     0.029 A 
ATOM     32  N   UNL A   1      47.222  29.526  27.750  1.00  0.00    -0.354 N 
ATOM     33  N   UNL A   1      45.902  26.893  27.084  1.00  0.00    -0.248 NA
ATOM     34  C   UNL A   1      46.041  24.753  26.153  1.00  0.00     0.031 C 
ATOM     35  C   UNL A   1      49.276  29.849  26.988  1.00  0.00     0.029 A 
ATOM     36  C   UNL A   1      48.246  28.918  27.056  1.00  0.00     0.049 A 
ATOM     37  H   UNL A   1      46.353  29.111  27.954  1.00  0.00     0.167 HD
ATOM     38  C   UNL A   1      47.174  26.714  26.559  1.00  0.00     0.074 A 
ATOM     39  C   UNL A   1      47.208  25.366  26.022  1.00  0.00     0.031 C 
ATOM     40  C   UNL A   1      48.224  27.572  26.538  1.00  0.00     0.037 A 
BRANCH  27  41
ATOM     41  C   UNL A   1      47.165  33.142  29.065  1.00  0.00     0.058 A 
ATOM     42  C   UNL A   1      47.088  34.178  28.118  1.00  0.00     0.135 A 
ATOM     43  C   UNL A   1      47.799  33.409  30.287  1.00  0.00     0.135 A 
ATOM     44  F   UNL A   1      46.555  33.952  26.907  1.00  0.00    -0.206 F 
ATOM     45  C   UNL A   1      47.638  35.430  28.370  1.00  0.00     0.059 A 
ATOM     46  C   UNL A   1      48.337  34.658  30.567  1.00  0.00     0.059 A 
ATOM     47  F   UNL A   1      47.947  32.434  31.198  1.00  0.00    -0.206 F 
ATOM     48  C   UNL A   1      48.262  35.659  29.599  1.00  0.00     0.060 A 
BRANCH  48  49
ATOM     49  S   UNL A   1      48.983  37.282  29.911  1.00  0.00     0.124 S 
ATOM     50  O   UNL A   1      49.744  37.034  31.132  1.00  0.00    -0.237 OA
ATOM     51  O   UNL A   1      49.775  37.506  28.706  1.00  0.00    -0.237 OA
ATOM     52  O   UNL A   1      47.818  38.148  30.062  1.00  0.00    -0.744 OA
ENDBRANCH  48  49
ENDBRANCH  27  41
BRANCH  28  53
ATOM     53  C   UNL A   1      43.337  24.002  27.086  1.00  0.00     0.058 A 
ATOM     54  C   UNL A   1      42.785  23.630  25.850  1.00  0.00     0.135 A 
ATOM     55  C   UNL A   1      43.332  23.038  28.108  1.00  0.00     0.135 A 
ATOM     56  F   UNL A   1      42.760  24.508  24.836  1.00  0.00    -0.206 F 
ATOM     57  C   UNL A   1      42.228  22.368  25.644  1.00  0.00     0.059 A 
ATOM     58  C   UNL A   1      42.801  21.763  27.921  1.00  0.00     0.059 A 
ATOM     59  F   UNL A   1      43.855  23.328  29.310  1.00  0.00    -0.206 F 
ATOM     60  C   UNL A   1      42.238  21.441  26.687  1.00  0.00     0.060 A 
BRANCH  60  61
ATOM     61  S   UNL A   1      41.533  19.801  26.400  1.00  0.00     0.124 S 
ATOM     62  O   UNL A   1      42.315  19.337  25.259  1.00  0.00    -0.237 OA
ATOM     63  O   UNL A   1      41.795  19.131  27.669  1.00  0.00    -0.237 OA
ATOM     64  O   UNL A   1      40.127  20.082  26.127  1.00  0.00    -0.744 OA
ENDBRANCH  60  61
ENDBRANCH  28  53
BRANCH  40  65
ATOM     65  C   UNL A   1      49.507  27.062  25.960  1.00  0.00     0.058 A 
ATOM     66  C   UNL A   1      49.817  27.203  24.601  1.00  0.00     0.135 A 
ATOM     67  C   UNL A   1      50.471  26.495  26.809  1.00  0.00     0.135 A 
ATOM     68  F   UNL A   1      48.925  27.739  23.752  1.00  0.00    -0.206 F 
ATOM     69  C   UNL A   1      51.035  26.770  24.094  1.00  0.00     0.059 A 
ATOM     70  C   UNL A   1      51.709  26.092  26.332  1.00  0.00     0.059 A 
ATOM     71  F   UNL A   1      50.223  26.358  28.122  1.00  0.00    -0.206 F 
ATOM     72  C   UNL A   1      51.976  26.220  24.969  1.00  0.00     0.060 A 
BRANCH  72  73
ATOM     73  S   UNL A   1      53.567  25.697  24.307  1.00  0.00     0.124 S 
ATOM     74  O   UNL A   1      53.630  24.312  24.763  1.00  0.00    -0.237 OA
ATOM     75  O   UNL A   1      53.384  25.884  22.871  1.00  0.00    -0.237 OA
ATOM     76  O   UNL A   1      54.515  26.610  24.937  1.00  0.00    -0.744 OA
ENDBRANCH  72  73
ENDBRANCH  40  65
ENDBRANCH  14  15
ENDBRANCH   7   9
ENDBRANCH   6   7
ENDBRANCH   5   6
ENDBRANCH   4   5
ENDBRANCH   3   4
ENDBRANCH   2   3
ENDBRANCH   1   2
BRANCH   1  77
ATOM     77  O   UNL A   1      33.637  30.497  27.620  1.00  0.00    -0.376 OA
BRANCH  77  78
ATOM     78  C   UNL A   1      33.137  28.820  26.646  1.00  0.00     0.202 C 
BRANCH  78  79
ATOM     79  C   UNL A   1      31.920  27.695  26.747  1.00  0.00     0.261 C 
BRANCH  79  80
ATOM     80  O   UNL A   1      30.824  27.685  25.830  1.00  0.00    -0.463 OA
BRANCH  80  81
ATOM     81  C   UNL A   1      30.450  26.440  25.441  1.00  0.00     0.310 C 
ATOM     82  O   UNL A   1      30.332  25.493  26.212  1.00  0.00    -0.252 OA
BRANCH  81  83
ATOM     83  C   UNL A   1      30.091  26.382  23.961  1.00  0.00     0.116 C 
ATOM     84  C   UNL A   1      28.545  26.432  23.818  1.00  0.00     0.043 C 
ATOM     85  C   UNL A   1      30.757  27.350  22.937  1.00  0.00     0.097 C 
ATOM     86  C   UNL A   1      27.965  27.810  23.642  1.00  0.00    -0.030 C 
ATOM     87  C   UNL A   1      29.937  28.520  22.330  1.00  0.00     0.041 C 
ATOM     88  C   UNL A   1      28.593  28.755  22.935  1.00  0.00    -0.030 C 
BRANCH  85  89
ATOM     89  C   UNL A   1      32.219  27.801  22.955  1.00  0.00     0.228 C 
ATOM     90  O   UNL A   1      32.321  29.025  22.843  1.00  0.00    -0.274 OA
ATOM     91  N   UNL A   1      33.386  27.158  23.211  1.00  0.00    -0.326 N 
ATOM     92  H   UNL A   1      34.191  27.716  23.114  1.00  0.00     0.169 HD
BRANCH  91  93
ATOM     93  C   UNL A   1      33.634  25.843  23.587  1.00  0.00     0.041 A 
ATOM     94  C   UNL A   1      33.351  24.383  22.516  1.00  0.00     0.027 A 
ATOM     95  C   UNL A   1      34.355  25.596  25.216  1.00  0.00     0.027 A 
ATOM     96  C   UNL A   1      33.746  22.721  23.181  1.00  0.00     0.024 A 
ATOM     97  C   UNL A   1      34.707  24.006  25.835  1.00  0.00     0.024 A 
ATOM     98  C   UNL A   1      34.439  22.569  24.847  1.00  0.00     0.082 A 
BRANCH  98  99
ATOM     99  S   UNL A   1      34.743  21.052  25.696  1.00  0.00     0.243 S 
ATOM    100  O   UNL A   1      36.180  20.845  25.649  1.00  0.00    -0.207 OA
ATOM    101  O   UNL A   1      34.021  21.110  26.943  1.00  0.00    -0.207 OA
BRANCH  99 102
ATOM    102  N   UNL A   1      34.037  19.833  24.738  1.00  0.00    -0.198 NA
ATOM    103  C   UNL A   1      32.579  19.665  24.671  1.00  0.00     0.102 C 
ATOM    104  C   UNL A   1      34.707  18.545  24.449  1.00  0.00     0.102 C 
ATOM    105  C   UNL A   1      32.333  18.180  24.883  1.00  0.00     0.018 C 
ATOM    106  C   UNL A   1      33.603  17.481  24.436  1.00  0.00     0.018 C 
ENDBRANCH  99 102
ENDBRANCH  98  99
ENDBRANCH  91  93
ENDBRANCH  85  89
ENDBRANCH  81  83
ENDBRANCH  80  81
ENDBRANCH  79  80
ENDBRANCH  78  79
ENDBRANCH  77  78
ENDBRANCH   1  77
TORSDOF 24
ENDMDL
MODEL 2
REMARK VINA RESULT:      -9.9      6.007     11.156
REMARK SMILES O=C(OCCOCCOCCOC(=O)[C@H]1CC=CC[C@H]1C(=O)Nc1ccc(S(=O)(=O)N2CCCC2)cc1)c1ccc(-c2c3nc(c(-c4c(F)cc(S(=O)(=O)[O-])cc4F)c4ccc([nH]4)c(-c4c(F)cc(S(=O)(=O)[O-])cc4F)c4nc(c(-c5c(F)cc(S(=O)(=O)[O-])cc5F)c5ccc2[nH]5)C=C4)C=C3)cc1
REMARK SMILES IDX 8 1 7 2 6 3 5 4 4 5 3 6 2 7 1 8 38 9 39 10 103 11 40 12
REMARK SMILES IDX 102 13 41 14 42 15 43 16 96 17 44 18 101 19 95 20 97 21
REMARK SMILES IDX 45 22 100 23 94 24 93 25 46 27 80 28 59 29 79 30 60 31 63 32
REMARK SMILES IDX 78 33 98 34 61 35 62 36 77 38 99 39 64 40 47 41 48 42 57 43
REMARK SMILES IDX 49 44 50 45 56 46 58 47 51 48 52 49 53 50 54 51 55 52 81 53
REMARK SMILES IDX 82 54 91 55 83 56 84 57 90 58 92 59 85 60 86 61 87 62 88 63
REMARK SMILES IDX 89 64 65 65 66 66 75 67 67 68 68 69 74 70 76 71 69 72 70 73
REMARK SMILES IDX 71 74 72 75 73 76 9 77 10 78 11 79 12 80 13 81 14 82 15 83
REMARK SMILES IDX 16 84 20 85 17 86 19 87 18 88 21 89 22 90 23 91 24 93 25 94
REMARK SMILES IDX 37 95 26 96 36 97 27 98 28 99 29 100 30 101 31 102 32 103
REMARK SMILES IDX 35 104 33 105 34 106
REMARK H PARENT 97 26 63 37 23 92
REMARK Flexibility Score: inf
ROOT
ATOM      1  C   UNL A   1      31.409  29.291  25.069  1.00  0.00     0.188 C 
ENDROOT
BRANCH   1   2
ATOM      2  C   UNL A   1      32.070  30.189  26.189  1.00  0.00     0.188 C 
BRANCH   2   3
ATOM      3  O   UNL A   1      33.209  29.695  26.892  1.00  0.00    -0.376 OA
BRANCH   3   4
ATOM      4  C   UNL A   1      34.085  30.712  27.396  1.00  0.00     0.202 C 
BRANCH   4   5
ATOM      5  C   UNL A   1      33.447  32.091  27.616  1.00  0.00     0.261 C 
BRANCH   5   6
ATOM      6  O   UNL A   1      34.342  33.065  28.171  1.00  0.00    -0.460 OA
BRANCH   6   7
ATOM      7  C   UNL A   1      33.859  33.774  29.221  1.00  0.00     0.338 C 
ATOM      8  O   UNL A   1      32.885  34.505  29.190  1.00  0.00    -0.246 OA
BRANCH   7   9
ATOM      9  C   UNL A   1      34.744  33.539  30.395  1.00  0.00     0.060 A 
ATOM     10  C   UNL A   1      35.490  34.604  30.929  1.00  0.00     0.016 A 
ATOM     11  C   UNL A   1      34.780  32.287  31.010  1.00  0.00     0.016 A 
ATOM     12  C   UNL A   1      36.198  34.464  32.109  1.00  0.00     0.010 A 
ATOM     13  C   UNL A   1      35.604  32.104  32.128  1.00  0.00     0.010 A 
ATOM     14  C   UNL A   1      36.297  33.199  32.692  1.00  0.00    -0.014 A 
BRANCH  14  15
ATOM     15  C   UNL A   1      37.460  33.002  33.582  1.00  0.00     0.031 A 
ATOM     16  C   UNL A   1      38.729  32.802  32.805  1.00  0.00     0.074 A 
ATOM     17  C   UNL A   1      37.471  33.161  34.921  1.00  0.00     0.049 A 
ATOM     18  N   UNL A   1      39.957  33.000  33.182  1.00  0.00    -0.248 NA
ATOM     19  C   UNL A   1      38.578  32.486  31.368  1.00  0.00     0.031 C 
ATOM     20  C   UNL A   1      36.345  33.515  35.777  1.00  0.00     0.029 A 
ATOM     21  N   UNL A   1      38.509  33.051  35.813  1.00  0.00    -0.354 N 
ATOM     22  C   UNL A   1      40.697  32.942  32.012  1.00  0.00     0.074 A 
ATOM     23  C   UNL A   1      39.800  32.684  30.917  1.00  0.00     0.031 C 
ATOM     24  C   UNL A   1      36.713  33.491  37.068  1.00  0.00     0.029 A 
ATOM     25  C   UNL A   1      38.133  33.198  37.132  1.00  0.00     0.049 A 
ATOM     26  H   UNL A   1      39.438  32.881  35.536  1.00  0.00     0.167 HD
ATOM     27  C   UNL A   1      42.029  33.072  31.869  1.00  0.00     0.037 A 
ATOM     28  C   UNL A   1      38.868  33.138  38.257  1.00  0.00     0.037 A 
ATOM     29  C   UNL A   1      42.911  33.093  32.993  1.00  0.00     0.049 A 
ATOM     30  C   UNL A   1      40.358  33.014  38.088  1.00  0.00     0.074 A 
ATOM     31  C   UNL A   1      44.288  33.033  33.007  1.00  0.00     0.029 A 
ATOM     32  N   UNL A   1      42.481  33.090  34.315  1.00  0.00    -0.354 N 
ATOM     33  N   UNL A   1      41.057  33.000  36.977  1.00  0.00    -0.248 NA
ATOM     34  C   UNL A   1      41.161  32.938  39.311  1.00  0.00     0.031 C 
ATOM     35  C   UNL A   1      44.688  32.904  34.342  1.00  0.00     0.029 A 
ATOM     36  C   UNL A   1      43.566  32.979  35.159  1.00  0.00     0.049 A 
ATOM     37  H   UNL A   1      41.544  33.157  34.606  1.00  0.00     0.167 HD
ATOM     38  C   UNL A   1      42.389  32.968  37.365  1.00  0.00     0.074 A 
ATOM     39  C   UNL A   1      42.391  32.957  38.816  1.00  0.00     0.031 C 
ATOM     40  C   UNL A   1      43.509  32.967  36.599  1.00  0.00     0.037 A 
BRANCH  27  41
ATOM     41  C   UNL A   1      42.544  33.017  30.467  1.00  0.00     0.058 A 
ATOM     42  C   UNL A   1      42.973  31.811  29.886  1.00  0.00     0.135 A 
ATOM     43  C   UNL A   1      42.742  34.204  29.748  1.00  0.00     0.135 A 
ATOM     44  F   UNL A   1      42.871  30.657  30.565  1.00  0.00    -0.206 F 
ATOM     45  C   UNL A   1      43.590  31.788  28.641  1.00  0.00     0.059 A 
ATOM     46  C   UNL A   1      43.339  34.202  28.495  1.00  0.00     0.059 A 
ATOM     47  F   UNL A   1      42.402  35.385  30.288  1.00  0.00    -0.206 F 
ATOM     48  C   UNL A   1      43.770  32.991  27.954  1.00  0.00     0.060 A 
BRANCH  48  49
ATOM     49  S   UNL A   1      44.585  32.952  26.345  1.00  0.00     0.124 S 
ATOM     50  O   UNL A   1      45.964  33.266  26.708  1.00  0.00    -0.237 OA
ATOM     51  O   UNL A   1      44.341  31.582  25.908  1.00  0.00    -0.237 OA
ATOM     52  O   UNL A   1      43.885  33.983  25.585  1.00  0.00    -0.744 OA
ENDBRANCH  48  49
ENDBRANCH  27  41
BRANCH  28  53
ATOM     53  C   UNL A   1      38.233  33.229  39.604  1.00  0.00     0.058 A 
ATOM     54  C   UNL A   1      38.332  34.385  40.395  1.00  0.00     0.135 A 
ATOM     55  C   UNL A   1      37.528  32.139  40.145  1.00  0.00     0.135 A 
ATOM     56  F   UNL A   1      38.993  35.457  39.933  1.00  0.00    -0.206 F 
ATOM     57  C   UNL A   1      37.781  34.449  41.674  1.00  0.00     0.059 A 
ATOM     58  C   UNL A   1      36.951  32.186  41.412  1.00  0.00     0.059 A 
ATOM     59  F   UNL A   1      37.388  31.009  39.434  1.00  0.00    -0.206 F 
ATOM     60  C   UNL A   1      37.094  33.344  42.177  1.00  0.00     0.060 A 
BRANCH  60  61
ATOM     61  S   UNL A   1      36.366  33.448  43.829  1.00  0.00     0.124 S 
ATOM     62  O   UNL A   1      35.626  34.702  43.748  1.00  0.00    -0.237 OA
ATOM     63  O   UNL A   1      35.560  32.233  43.883  1.00  0.00    -0.237 OA
ATOM     64  O   UNL A   1      37.530  33.459  44.710  1.00  0.00    -0.744 OA
ENDBRANCH  60  61
ENDBRANCH  28  53
BRANCH  40  65
ATOM     65  C   UNL A   1      44.822  33.003  37.317  1.00  0.00     0.058 A 
ATOM     66  C   UNL A   1      45.522  31.833  37.644  1.00  0.00     0.135 A 
ATOM     67  C   UNL A   1      45.420  34.240  37.604  1.00  0.00     0.135 A 
ATOM     68  F   UNL A   1      44.988  30.628  37.388  1.00  0.00    -0.206 F 
ATOM     69  C   UNL A   1      46.764  31.889  38.262  1.00  0.00     0.059 A 
ATOM     70  C   UNL A   1      46.677  34.320  38.185  1.00  0.00     0.059 A 
ATOM     71  F   UNL A   1      44.793  35.386  37.291  1.00  0.00    -0.206 F 
ATOM     72  C   UNL A   1      47.334  33.138  38.524  1.00  0.00     0.060 A 
BRANCH  72  73
ATOM     73  S   UNL A   1      48.962  33.198  39.292  1.00  0.00     0.124 S 
ATOM     74  O   UNL A   1      49.836  33.059  38.132  1.00  0.00    -0.237 OA
ATOM     75  O   UNL A   1      48.957  34.511  39.930  1.00  0.00    -0.237 OA
ATOM     76  O   UNL A   1      48.948  32.062  40.208  1.00  0.00    -0.744 OA
ENDBRANCH  72  73
ENDBRANCH  40  65
ENDBRANCH  14  15
ENDBRANCH   7   9
ENDBRANCH   6   7
ENDBRANCH   5   6
ENDBRANCH   4   5
ENDBRANCH   3   4
ENDBRANCH   2   3
ENDBRANCH   1   2
BRANCH   1  77
ATOM     77  O   UNL A   1      32.108  28.209  24.195  1.00  0.00    -0.376 OA
BRANCH  77  78
ATOM     78  C   UNL A   1      32.343  27.321  22.415  1.00  0.00     0.202 C 
BRANCH  78  79
ATOM     79  C   UNL A   1      33.288  26.102  21.801  1.00  0.00     0.261 C 
BRANCH  79  80
ATOM     80  O   UNL A   1      33.919  25.137  22.646  1.00  0.00    -0.463 OA
BRANCH  80  81
ATOM     81  C   UNL A   1      33.059  24.499  23.480  1.00  0.00     0.310 C 
ATOM     82  O   UNL A   1      32.039  23.931  23.103  1.00  0.00    -0.252 OA
BRANCH  81  83
ATOM     83  C   UNL A   1      33.562  24.474  24.918  1.00  0.00     0.116 C 
ATOM     84  C   UNL A   1      32.582  25.288  25.807  1.00  0.00     0.043 C 
ATOM     85  C   UNL A   1      33.930  23.130  25.615  1.00  0.00     0.097 C 
ATOM     86  C   UNL A   1      31.484  24.482  26.448  1.00  0.00    -0.030 C 
ATOM     87  C   UNL A   1      32.999  22.547  26.713  1.00  0.00     0.041 C 
ATOM     88  C   UNL A   1      31.687  23.236  26.888  1.00  0.00    -0.030 C 
BRANCH  85  89
ATOM     89  C   UNL A   1      34.623  21.939  24.950  1.00  0.00     0.228 C 
ATOM     90  O   UNL A   1      33.857  21.319  24.210  1.00  0.00    -0.274 OA
ATOM     91  N   UNL A   1      35.916  21.527  24.899  1.00  0.00    -0.326 N 
ATOM     92  H   UNL A   1      36.058  20.686  24.408  1.00  0.00     0.169 HD
BRANCH  91  93
ATOM     93  C   UNL A   1      37.070  22.095  25.424  1.00  0.00     0.041 A 
ATOM     94  C   UNL A   1      37.208  23.828  26.005  1.00  0.00     0.027 A 
ATOM     95  C   UNL A   1      38.490  21.006  25.603  1.00  0.00     0.027 A 
ATOM     96  C   UNL A   1      38.814  24.400  26.678  1.00  0.00     0.024 A 
ATOM     97  C   UNL A   1      40.013  21.575  26.229  1.00  0.00     0.024 A 
ATOM     98  C   UNL A   1      40.198  23.238  26.790  1.00  0.00     0.082 A 
BRANCH  98  99
ATOM     99  S   UNL A   1      41.845  23.650  27.274  1.00  0.00     0.243 S 
ATOM    100  O   UNL A   1      41.944  23.321  28.686  1.00  0.00    -0.207 OA
ATOM    101  O   UNL A   1      42.733  23.076  26.293  1.00  0.00    -0.207 OA
BRANCH  99 102
ATOM    102  N   UNL A   1      41.956  25.345  27.152  1.00  0.00    -0.198 NA
ATOM    103  C   UNL A   1      41.549  26.218  28.261  1.00  0.00     0.102 C 
ATOM    104  C   UNL A   1      41.831  26.070  25.868  1.00  0.00     0.102 C 
ATOM    105  C   UNL A   1      40.662  27.281  27.635  1.00  0.00     0.018 C 
ATOM    106  C   UNL A   1      41.088  27.374  26.183  1.00  0.00     0.018 C 
ENDBRANCH  99 102
ENDBRANCH  98  99
ENDBRANCH  91  93
ENDBRANCH  85  89
ENDBRANCH  81  83
ENDBRANCH  80  81
ENDBRANCH  79  80
ENDBRANCH  78  79
ENDBRANCH  77  78
ENDBRANCH   1  77
TORSDOF 24
ENDMDL
MODEL 3
REMARK VINA RESULT:      -9.9      1.878      2.708
REMARK SMILES O=C(OCCOCCOCCOC(=O)[C@H]1CC=CC[C@H]1C(=O)Nc1ccc(S(=O)(=O)N2CCCC2)cc1)c1ccc(-c2c3nc(c(-c4c(F)cc(S(=O)(=O)[O-])cc4F)c4ccc([nH]4)c(-c4c(F)cc(S(=O)(=O)[O-])cc4F)c4nc(c(-c5c(F)cc(S(=O)(=O)[O-])cc5F)c5ccc2[nH]5)C=C4)C=C3)cc1
REMARK SMILES IDX 8 1 7 2 6 3 5 4 4 5 3 6 2 7 1 8 38 9 39 10 103 11 40 12
REMARK SMILES IDX 102 13 41 14 42 15 43 16 96 17 44 18 101 19 95 20 97 21
REMARK SMILES IDX 45 22 100 23 94 24 93 25 46 27 80 28 59 29 79 30 60 31 63 32
REMARK SMILES IDX 78 33 98 34 61 35 62 36 77 38 99 39 64 40 47 41 48 42 57 43
REMARK SMILES IDX 49 44 50 45 56 46 58 47 51 48 52 49 53 50 54 51 55 52 81 53
REMARK SMILES IDX 82 54 91 55 83 56 84 57 90 58 92 59 85 60 86 61 87 62 88 63
REMARK SMILES IDX 89 64 65 65 66 66 75 67 67 68 68 69 74 70 76 71 69 72 70 73
REMARK SMILES IDX 71 74 72 75 73 76 9 77 10 78 11 79 12 80 13 81 14 82 15 83
REMARK SMILES IDX 16 84 20 85 17 86 19 87 18 88 21 89 22 90 23 91 24 93 25 94
REMARK SMILES IDX 37 95 26 96 36 97 27 98 28 99 29 100 30 101 31 102 32 103
REMARK SMILES IDX 35 104 33 105 34 106
REMARK H PARENT 97 26 63 37 23 92
REMARK Flexibility Score: inf
ROOT
ATOM      1  C   UNL A   1      33.734  31.823  27.621  1.00  0.00     0.188 C 
ENDROOT
BRANCH   1   2
ATOM      2  C   UNL A   1      34.726  32.827  28.333  1.00  0.00     0.188 C 
BRANCH   2   3
ATOM      3  O   UNL A   1      35.269  32.479  29.605  1.00  0.00    -0.376 OA
BRANCH   3   4
ATOM      4  C   UNL A   1      34.899  33.363  30.672  1.00  0.00     0.202 C 
BRANCH   4   5
ATOM      5  C   UNL A   1      34.727  32.706  32.050  1.00  0.00     0.261 C 
BRANCH   5   6
ATOM      6  O   UNL A   1      35.721  31.717  32.352  1.00  0.00    -0.460 OA
BRANCH   6   7
ATOM      7  C   UNL A   1      36.622  32.063  33.305  1.00  0.00     0.338 C 
ATOM      8  O   UNL A   1      36.350  32.528  34.397  1.00  0.00    -0.246 OA
BRANCH   7   9
ATOM      9  C   UNL A   1      37.989  31.819  32.770  1.00  0.00     0.060 A 
ATOM     10  C   UNL A   1      38.273  32.106  31.424  1.00  0.00     0.016 A 
ATOM     11  C   UNL A   1      39.007  31.377  33.617  1.00  0.00     0.016 A 
ATOM     12  C   UNL A   1      39.565  32.043  30.934  1.00  0.00     0.010 A 
ATOM     13  C   UNL A   1      40.290  31.180  33.090  1.00  0.00     0.010 A 
ATOM     14  C   UNL A   1      40.575  31.535  31.752  1.00  0.00    -0.014 A 
BRANCH  14  15
ATOM     15  C   UNL A   1      41.751  30.988  31.042  1.00  0.00     0.031 A 
ATOM     16  C   UNL A   1      42.915  31.935  31.082  1.00  0.00     0.074 A 
ATOM     17  C   UNL A   1      41.879  29.733  30.568  1.00  0.00     0.049 A 
ATOM     18  N   UNL A   1      44.182  31.677  30.949  1.00  0.00    -0.248 NA
ATOM     19  C   UNL A   1      42.617  33.329  31.478  1.00  0.00     0.031 C 
ATOM     20  C   UNL A   1      40.884  28.667  30.613  1.00  0.00     0.029 A 
ATOM     21  N   UNL A   1      42.945  29.129  29.948  1.00  0.00    -0.354 N 
ATOM     22  C   UNL A   1      44.821  32.838  31.352  1.00  0.00     0.074 A 
ATOM     23  C   UNL A   1      43.821  33.804  31.724  1.00  0.00     0.031 C 
ATOM     24  C   UNL A   1      41.332  27.582  29.960  1.00  0.00     0.029 A 
ATOM     25  C   UNL A   1      42.689  27.845  29.516  1.00  0.00     0.049 A 
ATOM     26  H   UNL A   1      43.814  29.574  29.823  1.00  0.00     0.167 HD
ATOM     27  C   UNL A   1      46.144  33.085  31.384  1.00  0.00     0.037 A 
ATOM     28  C   UNL A   1      43.481  26.972  28.867  1.00  0.00     0.037 A 
ATOM     29  C   UNL A   1      47.093  32.197  30.791  1.00  0.00     0.049 A 
ATOM     30  C   UNL A   1      44.916  27.375  28.671  1.00  0.00     0.074 A 
ATOM     31  C   UNL A   1      48.441  32.394  30.580  1.00  0.00     0.029 A 
ATOM     32  N   UNL A   1      46.760  30.969  30.231  1.00  0.00    -0.354 N 
ATOM     33  N   UNL A   1      45.527  28.460  29.090  1.00  0.00    -0.248 NA
ATOM     34  C   UNL A   1      45.780  26.432  27.955  1.00  0.00     0.031 C 
ATOM     35  C   UNL A   1      48.906  31.322  29.812  1.00  0.00     0.029 A 
ATOM     36  C   UNL A   1      47.869  30.415  29.627  1.00  0.00     0.049 A 
ATOM     37  H   UNL A   1      45.868  30.557  30.260  1.00  0.00     0.167 HD
ATOM     38  C   UNL A   1      46.860  28.308  28.737  1.00  0.00     0.074 A 
ATOM     39  C   UNL A   1      46.960  27.026  28.062  1.00  0.00     0.031 C 
ATOM     40  C   UNL A   1      47.910  29.136  28.963  1.00  0.00     0.037 A 
BRANCH  27  41
ATOM     41  C   UNL A   1      46.546  34.420  31.921  1.00  0.00     0.058 A 
ATOM     42  C   UNL A   1      46.745  34.632  33.297  1.00  0.00     0.135 A 
ATOM     43  C   UNL A   1      46.598  35.531  31.068  1.00  0.00     0.135 A 
ATOM     44  F   UNL A   1      46.635  33.612  34.163  1.00  0.00    -0.206 F 
ATOM     45  C   UNL A   1      46.970  35.905  33.807  1.00  0.00     0.059 A 
ATOM     46  C   UNL A   1      46.840  36.809  31.553  1.00  0.00     0.059 A 
ATOM     47  F   UNL A   1      46.356  35.385  29.755  1.00  0.00    -0.206 F 
ATOM     48  C   UNL A   1      47.014  36.988  32.926  1.00  0.00     0.060 A 
BRANCH  48  49
ATOM     49  S   UNL A   1      47.293  38.638  33.599  1.00  0.00     0.124 S 
ATOM     50  O   UNL A   1      47.880  38.328  34.900  1.00  0.00    -0.237 OA
ATOM     51  O   UNL A   1      48.199  39.223  32.617  1.00  0.00    -0.237 OA
ATOM     52  O   UNL A   1      45.955  39.219  33.638  1.00  0.00    -0.744 OA
ENDBRANCH  48  49
ENDBRANCH  27  41
BRANCH  28  53
ATOM     53  C   UNL A   1      42.962  25.653  28.400  1.00  0.00     0.058 A 
ATOM     54  C   UNL A   1      43.112  24.485  29.164  1.00  0.00     0.135 A 
ATOM     55  C   UNL A   1      42.321  25.529  27.155  1.00  0.00     0.135 A 
ATOM     56  F   UNL A   1      43.716  24.540  30.360  1.00  0.00    -0.206 F 
ATOM     57  C   UNL A   1      42.672  23.244  28.703  1.00  0.00     0.059 A 
ATOM     58  C   UNL A   1      41.854  24.304  26.682  1.00  0.00     0.059 A 
ATOM     59  F   UNL A   1      42.137  26.611  26.382  1.00  0.00    -0.206 F 
ATOM     60  C   UNL A   1      42.046  23.162  27.459  1.00  0.00     0.060 A 
BRANCH  60  61
ATOM     61  S   UNL A   1      41.461  21.551  26.883  1.00  0.00     0.124 S 
ATOM     62  O   UNL A   1      42.337  20.640  27.610  1.00  0.00    -0.237 OA
ATOM     63  O   UNL A   1      40.064  21.567  27.304  1.00  0.00    -0.237 OA
ATOM     64  O   UNL A   1      41.674  21.612  25.439  1.00  0.00    -0.744 OA
ENDBRANCH  60  61
ENDBRANCH  28  53
BRANCH  40  65
ATOM     65  C   UNL A   1      49.259  28.659  28.521  1.00  0.00     0.058 A 
ATOM     66  C   UNL A   1      50.079  27.882  29.350  1.00  0.00     0.135 A 
ATOM     67  C   UNL A   1      49.691  28.923  27.212  1.00  0.00     0.135 A 
ATOM     68  F   UNL A   1      49.705  27.606  30.610  1.00  0.00    -0.206 F 
ATOM     69  C   UNL A   1      51.304  27.405  28.903  1.00  0.00     0.059 A 
ATOM     70  C   UNL A   1      50.892  28.423  26.732  1.00  0.00     0.059 A 
ATOM     71  F   UNL A   1      48.928  29.648  26.378  1.00  0.00    -0.206 F 
ATOM     72  C   UNL A   1      51.699  27.678  27.590  1.00  0.00     0.060 A 
BRANCH  72  73
ATOM     73  S   UNL A   1      53.273  27.022  27.009  1.00  0.00     0.124 S 
ATOM     74  O   UNL A   1      53.151  25.613  27.368  1.00  0.00    -0.237 OA
ATOM     75  O   UNL A   1      53.226  27.320  25.582  1.00  0.00    -0.237 OA
ATOM     76  O   UNL A   1      54.259  27.782  27.771  1.00  0.00    -0.744 OA
ENDBRANCH  72  73
ENDBRANCH  40  65
ENDBRANCH  14  15
ENDBRANCH   7   9
ENDBRANCH   6   7
ENDBRANCH   5   6
ENDBRANCH   4   5
ENDBRANCH   3   4
ENDBRANCH   2   3
ENDBRANCH   1   2
BRANCH   1  77
ATOM     77  O   UNL A   1      33.788  30.267  27.648  1.00  0.00    -0.376 OA
BRANCH  77  78
ATOM     78  C   UNL A   1      33.273  28.512  26.833  1.00  0.00     0.202 C 
BRANCH  78  79
ATOM     79  C   UNL A   1      31.917  27.554  26.812  1.00  0.00     0.261 C 
BRANCH  79  80
ATOM     80  O   UNL A   1      30.967  27.612  25.746  1.00  0.00    -0.463 OA
BRANCH  80  81
ATOM     81  C   UNL A   1      30.483  26.398  25.381  1.00  0.00     0.310 C 
ATOM     82  O   UNL A   1      30.294  25.476  26.168  1.00  0.00    -0.252 OA
BRANCH  81  83
ATOM     83  C   UNL A   1      30.098  26.351  23.907  1.00  0.00     0.116 C 
ATOM     84  C   UNL A   1      28.550  26.423  23.789  1.00  0.00     0.043 C 
ATOM     85  C   UNL A   1      30.761  27.312  22.875  1.00  0.00     0.097 C 
ATOM     86  C   UNL A   1      27.988  27.810  23.628  1.00  0.00    -0.030 C 
ATOM     87  C   UNL A   1      29.947  28.496  22.286  1.00  0.00     0.041 C 
ATOM     88  C   UNL A   1      28.617  28.748  22.913  1.00  0.00    -0.030 C 
BRANCH  85  89
ATOM     89  C   UNL A   1      32.229  27.743  22.870  1.00  0.00     0.228 C 
ATOM     90  O   UNL A   1      32.348  28.960  22.716  1.00  0.00    -0.274 OA
ATOM     91  N   UNL A   1      33.388  27.091  23.142  1.00  0.00    -0.326 N 
ATOM     92  H   UNL A   1      34.201  27.634  23.022  1.00  0.00     0.169 HD
BRANCH  91  93
ATOM     93  C   UNL A   1      33.620  25.787  23.560  1.00  0.00     0.041 A 
ATOM     94  C   UNL A   1      33.242  24.292  22.569  1.00  0.00     0.027 A 
ATOM     95  C   UNL A   1      34.416  25.587  25.160  1.00  0.00     0.027 A 
ATOM     96  C   UNL A   1      33.625  22.648  23.284  1.00  0.00     0.024 A 
ATOM     97  C   UNL A   1      34.756  24.014  25.829  1.00  0.00     0.024 A 
ATOM     98  C   UNL A   1      34.399  22.546  24.918  1.00  0.00     0.082 A 
BRANCH  98  99
ATOM     99  S   UNL A   1      34.705  21.056  25.815  1.00  0.00     0.243 S 
ATOM    100  O   UNL A   1      36.129  20.799  25.695  1.00  0.00    -0.207 OA
ATOM    101  O   UNL A   1      34.060  21.192  27.098  1.00  0.00    -0.207 OA
BRANCH  99 102
ATOM    102  N   UNL A   1      33.905  19.823  24.955  1.00  0.00    -0.198 NA
ATOM    103  C   UNL A   1      32.515  19.459  25.259  1.00  0.00     0.102 C 
ATOM    104  C   UNL A   1      34.611  18.664  24.364  1.00  0.00     0.102 C 
ATOM    105  C   UNL A   1      32.508  17.943  25.370  1.00  0.00     0.018 C 
ATOM    106  C   UNL A   1      33.676  17.460  24.531  1.00  0.00     0.018 C 
ENDBRANCH  99 102
ENDBRANCH  98  99
ENDBRANCH  91  93
ENDBRANCH  85  89
ENDBRANCH  81  83
ENDBRANCH  80  81
ENDBRANCH  79  80
ENDBRANCH  78  79
ENDBRANCH  77  78
ENDBRANCH   1  77
TORSDOF 24
ENDMDL
