MODEL 1
REMARK VINA RESULT:      -9.4      0.000      0.000
REMARK SMILES O=C(CSc1nnc(-c2ccncc2)s1)Nc1cccc(C(=O)OCCOCCOCCOC(=O)c2ccc(-c3c4nc(c(-c5c(F)cc(S(=O)(=O)[O-])cc5F)c5ccc([nH]5)c(-c5c(F)cc(S(=O)(=O)[O-])cc5F)c5nc(c(-c6c(F)cc(S(=O)(=O)[O-])cc6F)c6ccc3[nH]6)C=C5)C=C4)cc2)c1
REMARK SMILES IDX 28 1 27 2 26 3 25 4 24 5 22 6 23 7 21 8 17 9 18 10 102 11
REMARK SMILES IDX 19 12 20 13 16 14 1 15 2 16 3 18 4 19 5 20 6 21 15 22 7 23
REMARK SMILES IDX 8 24 9 25 10 26 14 27 11 28 13 29 12 30 29 31 30 32 31 33
REMARK SMILES IDX 32 34 33 35 34 36 35 37 36 38 37 39 101 40 38 41 100 42
REMARK SMILES IDX 39 43 40 44 41 45 94 46 42 47 99 48 93 49 95 50 43 51 98 52
REMARK SMILES IDX 92 53 91 54 44 56 78 57 57 58 77 59 58 60 61 61 76 62 96 63
REMARK SMILES IDX 59 64 60 65 75 67 97 68 62 69 45 70 46 71 55 72 47 73 48 74
REMARK SMILES IDX 54 75 56 76 49 77 50 78 51 79 52 80 53 81 79 82 80 83 89 84
REMARK SMILES IDX 81 85 82 86 88 87 90 88 83 89 84 90 85 91 86 92 87 93 63 94
REMARK SMILES IDX 64 95 73 96 65 97 66 98 72 99 74 100 67 101 68 102 69 103
REMARK SMILES IDX 70 104 71 105
REMARK H PARENT 16 17 95 55 61 66
REMARK Flexibility Score: inf
ROOT
ATOM      1  C   UNL A   1      33.363  36.729  29.880  1.00  0.00     0.188 C 
ENDROOT
BRANCH   1   2
ATOM      2  O   UNL A   1      32.358  36.539  30.865  1.00  0.00    -0.376 OA
BRANCH   2   3
ATOM      3  C   UNL A   1      32.711  36.467  32.240  1.00  0.00     0.202 C 
BRANCH   3   4
ATOM      4  C   UNL A   1      32.903  35.119  32.954  1.00  0.00     0.261 C 
BRANCH   4   5
ATOM      5  O   UNL A   1      34.261  34.752  33.224  1.00  0.00    -0.460 OA
BRANCH   5   6
ATOM      6  C   UNL A   1      34.613  33.485  32.885  1.00  0.00     0.338 C 
ATOM      7  O   UNL A   1      34.149  32.809  31.982  1.00  0.00    -0.246 OA
BRANCH   6   8
ATOM      8  C   UNL A   1      35.811  33.102  33.659  1.00  0.00     0.062 A 
ATOM      9  C   UNL A   1      37.746  31.685  33.988  1.00  0.00     0.042 A 
ATOM     10  C   UNL A   1      37.965  32.308  35.226  1.00  0.00     0.026 A 
ATOM     11  C   UNL A   1      36.642  32.065  33.224  1.00  0.00     0.041 A 
ATOM     12  C   UNL A   1      37.134  33.344  35.662  1.00  0.00     0.003 A 
ATOM     13  C   UNL A   1      36.068  33.758  34.867  1.00  0.00     0.016 A 
BRANCH   9  14
ATOM     14  N   UNL A   1      38.684  30.719  33.570  1.00  0.00    -0.325 N 
ATOM     15  O   UNL A   1      37.354  28.810  33.431  1.00  0.00    -0.274 OA
ATOM     16  C   UNL A   1      38.428  29.389  33.276  1.00  0.00     0.234 C 
ATOM     17  H   UNL A   1      39.616  31.020  33.477  1.00  0.00     0.169 HD
BRANCH  16  18
ATOM     18  C   UNL A   1      39.641  28.598  32.814  1.00  0.00     0.177 C 
BRANCH  18  19
ATOM     19  S   UNL A   1      41.225  29.284  33.371  1.00  0.00    -0.084 SA
BRANCH  19  20
ATOM     20  C   UNL A   1      42.291  27.905  33.219  1.00  0.00     0.175 A 
ATOM     21  N   UNL A   1      43.038  27.678  32.164  1.00  0.00    -0.131 NA
ATOM     22  S   UNL A   1      42.448  26.737  34.462  1.00  0.00    -0.086 S 
ATOM     23  N   UNL A   1      43.832  26.555  32.322  1.00  0.00    -0.137 NA
ATOM     24  C   UNL A   1      43.621  25.954  33.476  1.00  0.00     0.148 A 
BRANCH  24  25
ATOM     25  C   UNL A   1      44.319  24.764  33.958  1.00  0.00     0.015 A 
ATOM     26  C   UNL A   1      45.704  24.630  33.821  1.00  0.00     0.031 A 
ATOM     27  C   UNL A   1      43.601  23.735  34.569  1.00  0.00     0.031 A 
ATOM     28  C   UNL A   1      46.303  23.471  34.284  1.00  0.00     0.111 A 
ATOM     29  C   UNL A   1      44.291  22.610  34.990  1.00  0.00     0.111 A 
ATOM     30  N   UNL A   1      45.626  22.457  34.860  1.00  0.00    -0.265 NA
ENDBRANCH  24  25
ENDBRANCH  19  20
ENDBRANCH  18  19
ENDBRANCH  16  18
ENDBRANCH   9  14
ENDBRANCH   6   8
ENDBRANCH   5   6
ENDBRANCH   4   5
ENDBRANCH   3   4
ENDBRANCH   2   3
ENDBRANCH   1   2
BRANCH   1  31
ATOM     31  C   UNL A   1      33.304  35.940  28.555  1.00  0.00     0.188 C 
BRANCH  31  32
ATOM     32  O   UNL A   1      34.553  35.525  28.057  1.00  0.00    -0.376 OA
BRANCH  32  33
ATOM     33  C   UNL A   1      34.908  34.154  28.081  1.00  0.00     0.202 C 
BRANCH  33  34
ATOM     34  C   UNL A   1      33.929  32.969  28.238  1.00  0.00     0.261 C 
BRANCH  34  35
ATOM     35  O   UNL A   1      34.368  31.796  28.926  1.00  0.00    -0.460 OA
BRANCH  35  36
ATOM     36  C   UNL A   1      34.436  30.663  28.187  1.00  0.00     0.338 C 
ATOM     37  O   UNL A   1      33.603  30.252  27.398  1.00  0.00    -0.246 OA
BRANCH  36  38
ATOM     38  C   UNL A   1      35.783  30.076  28.338  1.00  0.00     0.060 A 
ATOM     39  C   UNL A   1      36.163  29.607  29.600  1.00  0.00     0.016 A 
ATOM     40  C   UNL A   1      36.679  30.035  27.266  1.00  0.00     0.016 A 
ATOM     41  C   UNL A   1      37.463  29.146  29.811  1.00  0.00     0.010 A 
ATOM     42  C   UNL A   1      37.987  29.586  27.483  1.00  0.00     0.010 A 
ATOM     43  C   UNL A   1      38.398  29.184  28.767  1.00  0.00    -0.014 A 
BRANCH  43  44
ATOM     44  C   UNL A   1      39.837  29.012  29.090  1.00  0.00     0.031 A 
ATOM     45  C   UNL A   1      40.492  27.694  28.763  1.00  0.00     0.074 A 
ATOM     46  C   UNL A   1      40.570  30.022  29.593  1.00  0.00     0.049 A 
ATOM     47  N   UNL A   1      41.738  27.325  28.905  1.00  0.00    -0.248 NA
ATOM     48  C   UNL A   1      39.620  26.652  28.193  1.00  0.00     0.031 C 
ATOM     49  C   UNL A   1      40.065  31.354  29.919  1.00  0.00     0.029 A 
ATOM     50  N   UNL A   1      41.904  30.082  29.908  1.00  0.00    -0.354 N 
ATOM     51  C   UNL A   1      41.801  26.015  28.443  1.00  0.00     0.074 A 
ATOM     52  C   UNL A   1      40.459  25.637  28.057  1.00  0.00     0.031 C 
ATOM     53  C   UNL A   1      41.079  32.102  30.389  1.00  0.00     0.029 A 
ATOM     54  C   UNL A   1      42.299  31.296  30.418  1.00  0.00     0.049 A 
ATOM     55  H   UNL A   1      42.522  29.324  29.782  1.00  0.00     0.167 HD
ATOM     56  C   UNL A   1      42.879  25.201  28.335  1.00  0.00     0.037 A 
ATOM     57  C   UNL A   1      43.505  31.706  30.862  1.00  0.00     0.037 A 
ATOM     58  C   UNL A   1      44.214  25.575  28.728  1.00  0.00     0.049 A 
ATOM     59  C   UNL A   1      44.680  30.762  30.788  1.00  0.00     0.074 A 
ATOM     60  C   UNL A   1      45.374  24.824  28.659  1.00  0.00     0.029 A 
ATOM     61  N   UNL A   1      44.565  26.804  29.269  1.00  0.00    -0.354 N 
ATOM     62  N   UNL A   1      44.729  29.533  30.331  1.00  0.00    -0.248 NA
ATOM     63  C   UNL A   1      45.970  31.271  31.275  1.00  0.00     0.031 C 
ATOM     64  C   UNL A   1      46.418  25.580  29.205  1.00  0.00     0.029 A 
ATOM     65  C   UNL A   1      45.921  26.826  29.553  1.00  0.00     0.049 A 
ATOM     66  H   UNL A   1      43.943  27.549  29.428  1.00  0.00     0.167 HD
ATOM     67  C   UNL A   1      46.060  29.138  30.436  1.00  0.00     0.074 A 
ATOM     68  C   UNL A   1      46.783  30.262  30.993  1.00  0.00     0.031 C 
ATOM     69  C   UNL A   1      46.634  27.956  30.096  1.00  0.00     0.037 A 
BRANCH  56  70
ATOM     70  C   UNL A   1      42.652  23.817  27.791  1.00  0.00     0.058 A 
ATOM     71  C   UNL A   1      42.533  22.700  28.634  1.00  0.00     0.135 A 
ATOM     72  C   UNL A   1      42.534  23.606  26.407  1.00  0.00     0.135 A 
ATOM     73  F   UNL A   1      42.657  22.840  29.964  1.00  0.00    -0.206 F 
ATOM     74  C   UNL A   1      42.336  21.420  28.125  1.00  0.00     0.059 A 
ATOM     75  C   UNL A   1      42.307  22.338  25.877  1.00  0.00     0.059 A 
ATOM     76  F   UNL A   1      42.644  24.636  25.554  1.00  0.00    -0.206 F 
ATOM     77  C   UNL A   1      42.225  21.250  26.744  1.00  0.00     0.060 A 
BRANCH  77  78
ATOM     78  S   UNL A   1      41.972  19.583  26.098  1.00  0.00     0.124 S 
ATOM     79  O   UNL A   1      42.400  18.765  27.228  1.00  0.00    -0.237 OA
ATOM     80  O   UNL A   1      40.540  19.573  25.815  1.00  0.00    -0.237 OA
ATOM     81  O   UNL A   1      42.840  19.536  24.925  1.00  0.00    -0.744 OA
ENDBRANCH  77  78
ENDBRANCH  56  70
BRANCH  57  82
ATOM     82  C   UNL A   1      43.672  33.081  31.407  1.00  0.00     0.058 A 
ATOM     83  C   UNL A   1      43.429  33.360  32.761  1.00  0.00     0.135 A 
ATOM     84  C   UNL A   1      44.064  34.146  30.582  1.00  0.00     0.135 A 
ATOM     85  F   UNL A   1      43.042  32.378  33.589  1.00  0.00    -0.206 F 
ATOM     86  C   UNL A   1      43.547  34.648  33.273  1.00  0.00     0.059 A 
ATOM     87  C   UNL A   1      44.217  35.438  31.077  1.00  0.00     0.059 A 
ATOM     88  F   UNL A   1      44.316  33.933  29.282  1.00  0.00    -0.206 F 
ATOM     89  C   UNL A   1      43.945  35.681  32.423  1.00  0.00     0.060 A 
BRANCH  89  90
ATOM     90  S   UNL A   1      44.137  37.340  33.109  1.00  0.00     0.124 S 
ATOM     91  O   UNL A   1      43.926  38.172  31.929  1.00  0.00    -0.237 OA
ATOM     92  O   UNL A   1      43.081  37.378  34.115  1.00  0.00    -0.237 OA
ATOM     93  O   UNL A   1      45.498  37.330  33.637  1.00  0.00    -0.744 OA
ENDBRANCH  89  90
ENDBRANCH  57  82
BRANCH  69  94
ATOM     94  C   UNL A   1      48.129  27.839  30.250  1.00  0.00     0.058 A 
ATOM     95  C   UNL A   1      49.021  28.266  29.254  1.00  0.00     0.135 A 
ATOM     96  C   UNL A   1      48.677  27.307  31.430  1.00  0.00     0.135 A 
ATOM     97  F   UNL A   1      48.555  28.785  28.106  1.00  0.00    -0.206 F 
ATOM     98  C   UNL A   1      50.399  28.123  29.400  1.00  0.00     0.059 A 
ATOM     99  C   UNL A   1      50.050  27.187  31.613  1.00  0.00     0.059 A 
ATOM    100  F   UNL A   1      47.873  26.899  32.425  1.00  0.00    -0.206 F 
ATOM    101  C   UNL A   1      50.903  27.577  30.581  1.00  0.00     0.060 A 
BRANCH 101 102
ATOM    102  S   UNL A   1      52.690  27.386  30.758  1.00  0.00     0.124 S 
ATOM    103  O   UNL A   1      53.093  27.124  29.381  1.00  0.00    -0.237 OA
ATOM    104  O   UNL A   1      53.090  28.681  31.301  1.00  0.00    -0.237 OA
ATOM    105  O   UNL A   1      52.823  26.260  31.677  1.00  0.00    -0.744 OA
ENDBRANCH 101 102
ENDBRANCH  69  94
ENDBRANCH  43  44
ENDBRANCH  36  38
ENDBRANCH  35  36
ENDBRANCH  34  35
ENDBRANCH  33  34
ENDBRANCH  32  33
ENDBRANCH  31  32
ENDBRANCH   1  31
TORSDOF 25
ENDMDL
MODEL 2
REMARK VINA RESULT:      -8.2      1.670      2.245
REMARK SMILES O=C(CSc1nnc(-c2ccncc2)s1)Nc1cccc(C(=O)OCCOCCOCCOC(=O)c2ccc(-c3c4nc(c(-c5c(F)cc(S(=O)(=O)[O-])cc5F)c5ccc([nH]5)c(-c5c(F)cc(S(=O)(=O)[O-])cc5F)c5nc(c(-c6c(F)cc(S(=O)(=O)[O-])cc6F)c6ccc3[nH]6)C=C5)C=C4)cc2)c1
REMARK SMILES IDX 28 1 27 2 26 3 25 4 24 5 22 6 23 7 21 8 17 9 18 10 102 11
REMARK SMILES IDX 19 12 20 13 16 14 1 15 2 16 3 18 4 19 5 20 6 21 15 22 7 23
REMARK SMILES IDX 8 24 9 25 10 26 14 27 11 28 13 29 12 30 29 31 30 32 31 33
REMARK SMILES IDX 32 34 33 35 34 36 35 37 36 38 37 39 101 40 38 41 100 42
REMARK SMILES IDX 39 43 40 44 41 45 94 46 42 47 99 48 93 49 95 50 43 51 98 52
REMARK SMILES IDX 92 53 91 54 44 56 78 57 57 58 77 59 58 60 61 61 76 62 96 63
REMARK SMILES IDX 59 64 60 65 75 67 97 68 62 69 45 70 46 71 55 72 47 73 48 74
REMARK SMILES IDX 54 75 56 76 49 77 50 78 51 79 52 80 53 81 79 82 80 83 89 84
REMARK SMILES IDX 81 85 82 86 88 87 90 88 83 89 84 90 85 91 86 92 87 93 63 94
REMARK SMILES IDX 64 95 73 96 65 97 66 98 72 99 74 100 67 101 68 102 69 103
REMARK SMILES IDX 70 104 71 105
REMARK H PARENT 16 17 95 55 61 66
REMARK Flexibility Score: inf
ROOT
ATOM      1  C   UNL A   1      33.087  36.001  30.538  1.00  0.00     0.188 C 
ENDROOT
BRANCH   1   2
ATOM      2  O   UNL A   1      32.645  35.196  31.620  1.00  0.00    -0.376 OA
BRANCH   2   3
ATOM      3  C   UNL A   1      33.590  34.622  32.514  1.00  0.00     0.202 C 
BRANCH   3   4
ATOM      4  C   UNL A   1      34.436  35.491  33.460  1.00  0.00     0.261 C 
BRANCH   4   5
ATOM      5  O   UNL A   1      35.826  35.151  33.530  1.00  0.00    -0.460 OA
BRANCH   5   6
ATOM      6  C   UNL A   1      36.145  34.122  34.356  1.00  0.00     0.338 C 
ATOM      7  O   UNL A   1      35.668  33.882  35.452  1.00  0.00    -0.246 OA
BRANCH   6   8
ATOM      8  C   UNL A   1      37.035  33.191  33.632  1.00  0.00     0.062 A 
ATOM      9  C   UNL A   1      38.663  31.400  33.632  1.00  0.00     0.042 A 
ATOM     10  C   UNL A   1      38.815  31.567  32.247  1.00  0.00     0.026 A 
ATOM     11  C   UNL A   1      37.794  32.243  34.325  1.00  0.00     0.041 A 
ATOM     12  C   UNL A   1      38.058  32.515  31.554  1.00  0.00     0.003 A 
ATOM     13  C   UNL A   1      37.149  33.314  32.244  1.00  0.00     0.016 A 
BRANCH   9  14
ATOM     14  N   UNL A   1      39.386  30.356  34.245  1.00  0.00    -0.325 N 
ATOM     15  O   UNL A   1      41.536  31.254  34.306  1.00  0.00    -0.274 OA
ATOM     16  C   UNL A   1      40.730  30.366  34.581  1.00  0.00     0.234 C 
ATOM     17  H   UNL A   1      38.884  29.536  34.456  1.00  0.00     0.169 HD
BRANCH  16  18
ATOM     18  C   UNL A   1      41.220  29.102  35.268  1.00  0.00     0.177 C 
BRANCH  18  19
ATOM     19  S   UNL A   1      41.367  27.671  34.162  1.00  0.00    -0.084 SA
BRANCH  19  20
ATOM     20  C   UNL A   1      42.657  26.761  34.917  1.00  0.00     0.175 A 
ATOM     21  N   UNL A   1      43.839  26.591  34.374  1.00  0.00    -0.131 NA
ATOM     22  S   UNL A   1      42.470  26.022  36.451  1.00  0.00    -0.086 S 
ATOM     23  N   UNL A   1      44.695  25.884  35.201  1.00  0.00    -0.137 NA
ATOM     24  C   UNL A   1      44.109  25.512  36.322  1.00  0.00     0.148 A 
BRANCH  24  25
ATOM     25  C   UNL A   1      44.746  24.781  37.415  1.00  0.00     0.015 A 
ATOM     26  C   UNL A   1      45.379  23.554  37.196  1.00  0.00     0.031 A 
ATOM     27  C   UNL A   1      44.730  25.308  38.708  1.00  0.00     0.031 A 
ATOM     28  C   UNL A   1      45.949  22.904  38.278  1.00  0.00     0.111 A 
ATOM     29  C   UNL A   1      45.320  24.577  39.725  1.00  0.00     0.111 A 
ATOM     30  N   UNL A   1      45.929  23.387  39.536  1.00  0.00    -0.265 NA
ENDBRANCH  24  25
ENDBRANCH  19  20
ENDBRANCH  18  19
ENDBRANCH  16  18
ENDBRANCH   9  14
ENDBRANCH   6   8
ENDBRANCH   5   6
ENDBRANCH   4   5
ENDBRANCH   3   4
ENDBRANCH   2   3
ENDBRANCH   1   2
BRANCH   1  31
ATOM     31  C   UNL A   1      33.104  35.426  29.105  1.00  0.00     0.188 C 
BRANCH  31  32
ATOM     32  O   UNL A   1      34.383  35.304  28.531  1.00  0.00    -0.376 OA
BRANCH  32  33
ATOM     33  C   UNL A   1      35.013  34.036  28.463  1.00  0.00     0.202 C 
BRANCH  33  34
ATOM     34  C   UNL A   1      34.391  32.693  28.903  1.00  0.00     0.261 C 
BRANCH  34  35
ATOM     35  O   UNL A   1      35.257  31.621  29.283  1.00  0.00    -0.460 OA
BRANCH  35  36
ATOM     36  C   UNL A   1      35.253  30.537  28.471  1.00  0.00     0.338 C 
ATOM     37  O   UNL A   1      34.362  30.189  27.717  1.00  0.00    -0.246 OA
BRANCH  36  38
ATOM     38  C   UNL A   1      36.596  29.922  28.493  1.00  0.00     0.060 A 
ATOM     39  C   UNL A   1      37.042  29.348  29.689  1.00  0.00     0.016 A 
ATOM     40  C   UNL A   1      37.425  29.955  27.369  1.00  0.00     0.016 A 
ATOM     41  C   UNL A   1      38.343  28.854  29.783  1.00  0.00     0.010 A 
ATOM     42  C   UNL A   1      38.736  29.472  27.471  1.00  0.00     0.010 A 
ATOM     43  C   UNL A   1      39.214  28.963  28.691  1.00  0.00    -0.014 A 
BRANCH  43  44
ATOM     44  C   UNL A   1      40.667  28.746  28.911  1.00  0.00     0.031 A 
ATOM     45  C   UNL A   1      41.253  27.402  28.557  1.00  0.00     0.074 A 
ATOM     46  C   UNL A   1      41.468  29.737  29.344  1.00  0.00     0.049 A 
ATOM     47  N   UNL A   1      42.493  26.993  28.614  1.00  0.00    -0.248 NA
ATOM     48  C   UNL A   1      40.307  26.384  28.068  1.00  0.00     0.031 C 
ATOM     49  C   UNL A   1      41.032  31.089  29.686  1.00  0.00     0.029 A 
ATOM     50  N   UNL A   1      42.823  29.755  29.561  1.00  0.00    -0.354 N 
ATOM     51  C   UNL A   1      42.479  25.676  28.169  1.00  0.00     0.074 A 
ATOM     52  C   UNL A   1      41.101  25.339  27.886  1.00  0.00     0.031 C 
ATOM     53  C   UNL A   1      42.102  31.808  30.070  1.00  0.00     0.029 A 
ATOM     54  C   UNL A   1      43.294  30.961  30.022  1.00  0.00     0.049 A 
ATOM     55  H   UNL A   1      43.405  28.976  29.402  1.00  0.00     0.167 HD
ATOM     56  C   UNL A   1      43.519  24.825  27.994  1.00  0.00     0.037 A 
ATOM     57  C   UNL A   1      44.542  31.336  30.372  1.00  0.00     0.037 A 
ATOM     58  C   UNL A   1      44.890  25.158  28.284  1.00  0.00     0.049 A 
ATOM     59  C   UNL A   1      45.676  30.352  30.227  1.00  0.00     0.074 A 
ATOM     60  C   UNL A   1      46.017  24.367  28.143  1.00  0.00     0.029 A 
ATOM     61  N   UNL A   1      45.321  26.381  28.780  1.00  0.00    -0.354 N 
ATOM     62  N   UNL A   1      45.651  29.116  29.786  1.00  0.00    -0.248 NA
ATOM     63  C   UNL A   1      47.015  30.823  30.611  1.00  0.00     0.031 C 
ATOM     64  C   UNL A   1      47.122  25.094  28.600  1.00  0.00     0.029 A 
ATOM     65  C   UNL A   1      46.694  26.360  28.964  1.00  0.00     0.049 A 
ATOM     66  H   UNL A   1      44.736  27.149  28.972  1.00  0.00     0.167 HD
ATOM     67  C   UNL A   1      46.973  28.677  29.800  1.00  0.00     0.074 A 
ATOM     68  C   UNL A   1      47.771  29.783  30.286  1.00  0.00     0.031 C 
ATOM     69  C   UNL A   1      47.481  27.472  29.437  1.00  0.00     0.037 A 
BRANCH  56  70
ATOM     70  C   UNL A   1      43.206  23.443  27.489  1.00  0.00     0.058 A 
ATOM     71  C   UNL A   1      43.383  23.089  26.141  1.00  0.00     0.135 A 
ATOM     72  C   UNL A   1      42.739  22.452  28.368  1.00  0.00     0.135 A 
ATOM     73  F   UNL A   1      43.808  24.001  25.252  1.00  0.00    -0.206 F 
ATOM     74  C   UNL A   1      43.079  21.813  25.677  1.00  0.00     0.059 A 
ATOM     75  C   UNL A   1      42.457  21.160  27.931  1.00  0.00     0.059 A 
ATOM     76  F   UNL A   1      42.548  22.735  29.666  1.00  0.00    -0.206 F 
ATOM     77  C   UNL A   1      42.616  20.855  26.581  1.00  0.00     0.060 A 
BRANCH  77  78
ATOM     78  S   UNL A   1      42.224  19.205  25.963  1.00  0.00     0.124 S 
ATOM     79  O   UNL A   1      42.667  18.366  27.072  1.00  0.00    -0.237 OA
ATOM     80  O   UNL A   1      40.779  19.281  25.766  1.00  0.00    -0.237 OA
ATOM     81  O   UNL A   1      43.016  19.100  24.742  1.00  0.00    -0.744 OA
ENDBRANCH  77  78
ENDBRANCH  56  70
BRANCH  57  82
ATOM     82  C   UNL A   1      44.794  32.711  30.883  1.00  0.00     0.058 A 
ATOM     83  C   UNL A   1      44.619  33.026  32.239  1.00  0.00     0.135 A 
ATOM     84  C   UNL A   1      45.199  33.742  30.022  1.00  0.00     0.135 A 
ATOM     85  F   UNL A   1      44.223  32.077  33.102  1.00  0.00    -0.206 F 
ATOM     86  C   UNL A   1      44.817  34.316  32.721  1.00  0.00     0.059 A 
ATOM     87  C   UNL A   1      45.431  35.034  30.484  1.00  0.00     0.059 A 
ATOM     88  F   UNL A   1      45.387  33.494  28.716  1.00  0.00    -0.206 F 
ATOM     89  C   UNL A   1      45.226  35.313  31.835  1.00  0.00     0.060 A 
BRANCH  89  90
ATOM     90  S   UNL A   1      45.521  36.974  32.480  1.00  0.00     0.124 S 
ATOM     91  O   UNL A   1      46.315  37.568  31.409  1.00  0.00    -0.237 OA
ATOM     92  O   UNL A   1      44.165  37.488  32.630  1.00  0.00    -0.237 OA
ATOM     93  O   UNL A   1      46.233  36.728  33.730  1.00  0.00    -0.744 OA
ENDBRANCH  89  90
ENDBRANCH  57  82
BRANCH  69  94
ATOM     94  C   UNL A   1      48.978  27.306  29.484  1.00  0.00     0.058 A 
ATOM     95  C   UNL A   1      49.643  26.811  30.617  1.00  0.00     0.135 A 
ATOM     96  C   UNL A   1      49.759  27.633  28.362  1.00  0.00     0.135 A 
ATOM     97  F   UNL A   1      48.948  26.480  31.717  1.00  0.00    -0.206 F 
ATOM     98  C   UNL A   1      51.030  26.692  30.654  1.00  0.00     0.059 A 
ATOM     99  C   UNL A   1      51.142  27.490  28.363  1.00  0.00     0.059 A 
ATOM    100  F   UNL A   1      49.177  28.094  27.243  1.00  0.00    -0.206 F 
ATOM    101  C   UNL A   1      51.771  27.039  29.523  1.00  0.00     0.060 A 
BRANCH 101 102
ATOM    102  S   UNL A   1      53.570  26.893  29.584  1.00  0.00     0.124 S 
ATOM    103  O   UNL A   1      53.753  26.004  30.726  1.00  0.00    -0.237 OA
ATOM    104  O   UNL A   1      53.881  26.319  28.278  1.00  0.00    -0.237 OA
ATOM    105  O   UNL A   1      54.017  28.268  29.780  1.00  0.00    -0.744 OA
ENDBRANCH 101 102
ENDBRANCH  69  94
ENDBRANCH  43  44
ENDBRANCH  36  38
ENDBRANCH  35  36
ENDBRANCH  34  35
ENDBRANCH  33  34
ENDBRANCH  32  33
ENDBRANCH  31  32
ENDBRANCH   1  31
TORSDOF 25
ENDMDL
MODEL 3
REMARK VINA RESULT:      -8.0      1.888      2.867
REMARK SMILES O=C(CSc1nnc(-c2ccncc2)s1)Nc1cccc(C(=O)OCCOCCOCCOC(=O)c2ccc(-c3c4nc(c(-c5c(F)cc(S(=O)(=O)[O-])cc5F)c5ccc([nH]5)c(-c5c(F)cc(S(=O)(=O)[O-])cc5F)c5nc(c(-c6c(F)cc(S(=O)(=O)[O-])cc6F)c6ccc3[nH]6)C=C5)C=C4)cc2)c1
REMARK SMILES IDX 28 1 27 2 26 3 25 4 24 5 22 6 23 7 21 8 17 9 18 10 102 11
REMARK SMILES IDX 19 12 20 13 16 14 1 15 2 16 3 18 4 19 5 20 6 21 15 22 7 23
REMARK SMILES IDX 8 24 9 25 10 26 14 27 11 28 13 29 12 30 29 31 30 32 31 33
REMARK SMILES IDX 32 34 33 35 34 36 35 37 36 38 37 39 101 40 38 41 100 42
REMARK SMILES IDX 39 43 40 44 41 45 94 46 42 47 99 48 93 49 95 50 43 51 98 52
REMARK SMILES IDX 92 53 91 54 44 56 78 57 57 58 77 59 58 60 61 61 76 62 96 63
REMARK SMILES IDX 59 64 60 65 75 67 97 68 62 69 45 70 46 71 55 72 47 73 48 74
REMARK SMILES IDX 54 75 56 76 49 77 50 78 51 79 52 80 53 81 79 82 80 83 89 84
REMARK SMILES IDX 81 85 82 86 88 87 90 88 83 89 84 90 85 91 86 92 87 93 63 94
REMARK SMILES IDX 64 95 73 96 65 97 66 98 72 99 74 100 67 101 68 102 69 103
REMARK SMILES IDX 70 104 71 105
REMARK H PARENT 16 17 95 55 61 66
REMARK Flexibility Score: inf
ROOT
ATOM      1  C   UNL A   1      33.257  36.009  30.578  1.00  0.00     0.188 C 
ENDROOT
BRANCH   1   2
ATOM      2  O   UNL A   1      32.810  35.278  31.710  1.00  0.00    -0.376 OA
BRANCH   2   3
ATOM      3  C   UNL A   1      33.736  34.533  32.489  1.00  0.00     0.202 C 
BRANCH   3   4
ATOM      4  C   UNL A   1      34.965  35.196  33.134  1.00  0.00     0.261 C 
BRANCH   4   5
ATOM      5  O   UNL A   1      36.189  34.459  33.028  1.00  0.00    -0.460 OA
BRANCH   5   6
ATOM      6  C   UNL A   1      36.338  33.426  33.896  1.00  0.00     0.338 C 
ATOM      7  O   UNL A   1      35.580  33.105  34.796  1.00  0.00    -0.246 OA
BRANCH   6   8
ATOM      8  C   UNL A   1      37.480  32.598  33.458  1.00  0.00     0.062 A 
ATOM      9  C   UNL A   1      39.180  30.936  33.915  1.00  0.00     0.042 A 
ATOM     10  C   UNL A   1      39.725  31.176  32.645  1.00  0.00     0.026 A 
ATOM     11  C   UNL A   1      38.074  31.680  34.329  1.00  0.00     0.041 A 
ATOM     12  C   UNL A   1      39.133  32.094  31.774  1.00  0.00     0.003 A 
ATOM     13  C   UNL A   1      37.994  32.790  32.171  1.00  0.00     0.016 A 
BRANCH   9  14
ATOM     14  N   UNL A   1      39.771  29.924  34.698  1.00  0.00    -0.325 N 
ATOM     15  O   UNL A   1      41.887  30.819  35.093  1.00  0.00    -0.274 OA
ATOM     16  C   UNL A   1      41.036  29.949  35.265  1.00  0.00     0.234 C 
ATOM     17  H   UNL A   1      39.231  29.117  34.857  1.00  0.00     0.169 HD
BRANCH  16  18
ATOM     18  C   UNL A   1      41.383  28.720  36.090  1.00  0.00     0.177 C 
BRANCH  18  19
ATOM     19  S   UNL A   1      41.767  27.250  35.098  1.00  0.00    -0.084 SA
BRANCH  19  20
ATOM     20  C   UNL A   1      43.261  27.719  34.318  1.00  0.00     0.175 A 
ATOM     21  N   UNL A   1      43.452  27.662  33.021  1.00  0.00    -0.131 NA
ATOM     22  S   UNL A   1      44.602  28.309  35.204  1.00  0.00    -0.086 S 
ATOM     23  N   UNL A   1      44.696  28.146  32.656  1.00  0.00    -0.137 NA
ATOM     24  C   UNL A   1      45.413  28.512  33.700  1.00  0.00     0.148 A 
BRANCH  24  25
ATOM     25  C   UNL A   1      46.754  29.091  33.652  1.00  0.00     0.015 A 
ATOM     26  C   UNL A   1      47.825  28.399  33.081  1.00  0.00     0.031 A 
ATOM     27  C   UNL A   1      46.982  30.362  34.184  1.00  0.00     0.031 A 
ATOM     28  C   UNL A   1      49.073  28.997  33.082  1.00  0.00     0.111 A 
ATOM     29  C   UNL A   1      48.270  30.871  34.146  1.00  0.00     0.111 A 
ATOM     30  N   UNL A   1      49.319  30.214  33.606  1.00  0.00    -0.265 NA
ENDBRANCH  24  25
ENDBRANCH  19  20
ENDBRANCH  18  19
ENDBRANCH  16  18
ENDBRANCH   9  14
ENDBRANCH   6   8
ENDBRANCH   5   6
ENDBRANCH   4   5
ENDBRANCH   3   4
ENDBRANCH   2   3
ENDBRANCH   1   2
BRANCH   1  31
ATOM     31  C   UNL A   1      33.256  35.347  29.183  1.00  0.00     0.188 C 
BRANCH  31  32
ATOM     32  O   UNL A   1      34.513  35.290  28.554  1.00  0.00    -0.376 OA
BRANCH  32  33
ATOM     33  C   UNL A   1      35.257  34.084  28.563  1.00  0.00     0.202 C 
BRANCH  33  34
ATOM     34  C   UNL A   1      34.754  32.715  29.070  1.00  0.00     0.261 C 
BRANCH  34  35
ATOM     35  O   UNL A   1      35.712  31.714  29.423  1.00  0.00    -0.460 OA
BRANCH  35  36
ATOM     36  C   UNL A   1      35.617  30.539  28.758  1.00  0.00     0.338 C 
ATOM     37  O   UNL A   1      34.646  30.114  28.156  1.00  0.00    -0.246 OA
BRANCH  36  38
ATOM     38  C   UNL A   1      36.953  29.911  28.707  1.00  0.00     0.060 A 
ATOM     39  C   UNL A   1      37.476  29.371  29.888  1.00  0.00     0.016 A 
ATOM     40  C   UNL A   1      37.702  29.899  27.528  1.00  0.00     0.016 A 
ATOM     41  C   UNL A   1      38.777  28.868  29.908  1.00  0.00     0.010 A 
ATOM     42  C   UNL A   1      39.013  29.406  27.554  1.00  0.00     0.010 A 
ATOM     43  C   UNL A   1      39.571  28.933  28.754  1.00  0.00    -0.014 A 
BRANCH  43  44
ATOM     44  C   UNL A   1      41.034  28.708  28.881  1.00  0.00     0.031 A 
ATOM     45  C   UNL A   1      41.587  27.358  28.500  1.00  0.00     0.074 A 
ATOM     46  C   UNL A   1      41.867  29.697  29.252  1.00  0.00     0.049 A 
ATOM     47  N   UNL A   1      42.826  26.941  28.479  1.00  0.00    -0.248 NA
ATOM     48  C   UNL A   1      40.605  26.342  28.082  1.00  0.00     0.031 C 
ATOM     49  C   UNL A   1      41.462  31.055  29.610  1.00  0.00     0.029 A 
ATOM     50  N   UNL A   1      43.234  29.708  29.379  1.00  0.00    -0.354 N 
ATOM     51  C   UNL A   1      42.775  25.621  28.047  1.00  0.00     0.074 A 
ATOM     52  C   UNL A   1      41.379  25.290  27.858  1.00  0.00     0.031 C 
ATOM     53  C   UNL A   1      42.559  31.770  29.917  1.00  0.00     0.029 A 
ATOM     54  C   UNL A   1      43.741  30.915  29.798  1.00  0.00     0.049 A 
ATOM     55  H   UNL A   1      43.799  28.924  29.188  1.00  0.00     0.167 HD
ATOM     56  C   UNL A   1      43.796  24.762  27.812  1.00  0.00     0.037 A 
ATOM     57  C   UNL A   1      45.011  31.285  30.062  1.00  0.00     0.037 A 
ATOM     58  C   UNL A   1      45.185  25.088  28.008  1.00  0.00     0.049 A 
ATOM     59  C   UNL A   1      46.128  30.293  29.851  1.00  0.00     0.074 A 
ATOM     60  C   UNL A   1      46.296  24.289  27.800  1.00  0.00     0.029 A 
ATOM     61  N   UNL A   1      45.655  26.313  28.464  1.00  0.00    -0.354 N 
ATOM     62  N   UNL A   1      46.067  29.053  29.423  1.00  0.00    -0.248 NA
ATOM     63  C   UNL A   1      47.492  30.758  30.143  1.00  0.00     0.031 C 
ATOM     64  C   UNL A   1      47.433  25.012  28.177  1.00  0.00     0.029 A 
ATOM     65  C   UNL A   1      47.037  26.284  28.557  1.00  0.00     0.049 A 
ATOM     66  H   UNL A   1      45.089  27.086  28.688  1.00  0.00     0.167 HD
ATOM     67  C   UNL A   1      47.384  28.606  29.354  1.00  0.00     0.074 A 
ATOM     68  C   UNL A   1      48.219  29.711  29.777  1.00  0.00     0.031 C 
ATOM     69  C   UNL A   1      47.860  27.395  28.969  1.00  0.00     0.037 A 
BRANCH  56  70
ATOM     70  C   UNL A   1      43.443  23.378  27.340  1.00  0.00     0.058 A 
ATOM     71  C   UNL A   1      43.630  22.979  26.005  1.00  0.00     0.135 A 
ATOM     72  C   UNL A   1      42.926  22.429  28.237  1.00  0.00     0.135 A 
ATOM     73  F   UNL A   1      44.103  23.850  25.099  1.00  0.00    -0.206 F 
ATOM     74  C   UNL A   1      43.289  21.702  25.571  1.00  0.00     0.059 A 
ATOM     75  C   UNL A   1      42.606  21.136  27.831  1.00  0.00     0.059 A 
ATOM     76  F   UNL A   1      42.722  22.756  29.522  1.00  0.00    -0.206 F 
ATOM     77  C   UNL A   1      42.776  20.787  26.493  1.00  0.00     0.060 A 
BRANCH  77  78
ATOM     78  S   UNL A   1      42.336  19.135  25.915  1.00  0.00     0.124 S 
ATOM     79  O   UNL A   1      42.762  18.310  27.041  1.00  0.00    -0.237 OA
ATOM     80  O   UNL A   1      40.893  19.247  25.723  1.00  0.00    -0.237 OA
ATOM     81  O   UNL A   1      43.119  18.981  24.693  1.00  0.00    -0.744 OA
ENDBRANCH  77  78
ENDBRANCH  56  70
BRANCH  57  82
ATOM     82  C   UNL A   1      45.304  32.662  30.543  1.00  0.00     0.058 A 
ATOM     83  C   UNL A   1      45.685  33.678  29.653  1.00  0.00     0.135 A 
ATOM     84  C   UNL A   1      45.225  32.987  31.906  1.00  0.00     0.135 A 
ATOM     85  F   UNL A   1      45.786  33.416  28.341  1.00  0.00    -0.206 F 
ATOM     86  C   UNL A   1      45.997  34.959  30.097  1.00  0.00     0.059 A 
ATOM     87  C   UNL A   1      45.503  34.269  32.372  1.00  0.00     0.059 A 
ATOM     88  F   UNL A   1      44.859  32.055  32.800  1.00  0.00    -0.206 F 
ATOM     89  C   UNL A   1      45.900  35.245  31.459  1.00  0.00     0.060 A 
BRANCH  89  90
ATOM     90  S   UNL A   1      46.264  36.923  32.018  1.00  0.00     0.124 S 
ATOM     91  O   UNL A   1      47.661  36.802  32.421  1.00  0.00    -0.237 OA
ATOM     92  O   UNL A   1      46.012  37.707  30.814  1.00  0.00    -0.237 OA
ATOM     93  O   UNL A   1      45.311  37.131  33.104  1.00  0.00    -0.744 OA
ENDBRANCH  89  90
ENDBRANCH  57  82
BRANCH  69  94
ATOM     94  C   UNL A   1      49.356  27.220  28.918  1.00  0.00     0.058 A 
ATOM     95  C   UNL A   1      50.121  27.621  27.812  1.00  0.00     0.135 A 
ATOM     96  C   UNL A   1      50.037  26.657  30.011  1.00  0.00     0.135 A 
ATOM     97  F   UNL A   1      49.525  28.167  26.740  1.00  0.00    -0.206 F 
ATOM     98  C   UNL A   1      51.500  27.425  27.770  1.00  0.00     0.059 A 
ATOM     99  C   UNL A   1      51.417  26.484  30.006  1.00  0.00     0.059 A 
ATOM    100  F   UNL A   1      49.360  26.272  31.105  1.00  0.00    -0.206 F 
ATOM    101  C   UNL A   1      52.137  26.850  28.870  1.00  0.00     0.060 A 
BRANCH 101 102
ATOM    102  S   UNL A   1      53.923  26.590  28.803  1.00  0.00     0.124 S 
ATOM    103  O   UNL A   1      54.158  25.850  30.037  1.00  0.00    -0.237 OA
ATOM    104  O   UNL A   1      54.081  25.829  27.566  1.00  0.00    -0.237 OA
ATOM    105  O   UNL A   1      54.464  27.946  28.770  1.00  0.00    -0.744 OA
ENDBRANCH 101 102
ENDBRANCH  69  94
ENDBRANCH  43  44
ENDBRANCH  36  38
ENDBRANCH  35  36
ENDBRANCH  34  35
ENDBRANCH  33  34
ENDBRANCH  32  33
ENDBRANCH  31  32
ENDBRANCH   1  31
TORSDOF 25
ENDMDL
