MODEL 1
REMARK VINA RESULT:      -9.7      0.000      0.000
REMARK SMILES CC(C)CC1(CNc2ccnc(C(=O)OCCOCCOCCOC(=O)c3ccc(-c4c5nc(c(-c6c(F)cc(S(=O)(=O)[O-])cc6F)c6ccc([nH]6)c(-c6c(F)cc(S(=O)(=O)[O-])cc6F)c6nc(c(-c7c(F)cc(S(=O)(=O)[O-])cc7F)c7ccc4[nH]7)C=C6)C=C5)cc3)c2)CCCC1
REMARK SMILES IDX 19 1 18 2 17 3 16 4 15 5 13 6 14 7 12 8 8 9 9 10 93 11 10 12
REMARK SMILES IDX 11 13 7 14 6 16 5 17 94 18 97 19 95 20 96 21 4 22 2 23 1 24
REMARK SMILES IDX 3 25 20 26 21 27 22 28 23 29 24 30 25 31 26 32 27 33 28 34
REMARK SMILES IDX 92 35 29 36 91 37 30 38 31 39 32 40 85 41 33 42 90 43 84 44
REMARK SMILES IDX 86 45 34 46 89 47 83 48 82 49 35 51 69 52 48 53 68 54 49 55
REMARK SMILES IDX 52 56 67 57 87 58 50 59 51 60 66 62 88 63 53 64 36 65 37 66
REMARK SMILES IDX 46 67 38 68 39 69 45 70 47 71 40 72 41 73 42 74 43 75 44 76
REMARK SMILES IDX 70 77 71 78 80 79 72 80 73 81 79 82 81 83 74 84 75 85 76 86
REMARK SMILES IDX 77 87 78 88 54 89 55 90 64 91 56 92 57 93 63 94 65 95 58 96
REMARK SMILES IDX 59 97 60 98 61 99 62 100
REMARK H PARENT 7 15 86 50 52 61
REMARK Flexibility Score: inf
ROOT
ATOM      1  C   UNL A   1      33.989  30.005  26.569  1.00  0.00     0.188 C 
ENDROOT
BRANCH   1   2
ATOM      2  O   UNL A   1      33.576  28.669  26.294  1.00  0.00    -0.376 OA
BRANCH   2   3
ATOM      3  C   UNL A   1      32.194  28.350  26.278  1.00  0.00     0.202 C 
BRANCH   3   4
ATOM      4  C   UNL A   1      31.415  28.409  24.952  1.00  0.00     0.261 C 
BRANCH   4   5
ATOM      5  O   UNL A   1      30.520  27.309  24.715  1.00  0.00    -0.459 OA
BRANCH   5   6
ATOM      6  C   UNL A   1      31.097  26.162  24.255  1.00  0.00     0.357 C 
ATOM      7  O   UNL A   1      31.841  26.065  23.294  1.00  0.00    -0.244 OA
BRANCH   6   8
ATOM      8  C   UNL A   1      30.773  25.036  25.179  1.00  0.00     0.150 A 
ATOM      9  C   UNL A   1      30.993  22.742  25.883  1.00  0.00     0.038 A 
ATOM     10  C   UNL A   1      30.055  23.027  26.875  1.00  0.00     0.046 A 
ATOM     11  C   UNL A   1      31.346  23.780  25.010  1.00  0.00     0.061 A 
ATOM     12  C   UNL A   1      29.536  24.311  26.976  1.00  0.00     0.114 A 
ATOM     13  N   UNL A   1      29.869  25.320  26.149  1.00  0.00    -0.249 NA
BRANCH   9  14
ATOM     14  N   UNL A   1      31.526  21.483  25.676  1.00  0.00    -0.384 N 
ATOM     15  H   UNL A   1      30.917  20.782  25.348  1.00  0.00     0.160 HD
BRANCH  14  16
ATOM     16  C   UNL A   1      32.913  21.109  25.906  1.00  0.00     0.119 C 
BRANCH  16  17
ATOM     17  C   UNL A   1      33.596  20.581  24.602  1.00  0.00    -0.012 C 
ATOM     18  C   UNL A   1      35.114  20.401  24.877  1.00  0.00     0.009 C 
ATOM     19  C   UNL A   1      33.649  21.635  23.487  1.00  0.00     0.009 C 
ATOM     20  C   UNL A   1      35.746  21.780  24.709  1.00  0.00     0.001 C 
ATOM     21  C   UNL A   1      34.768  22.597  23.873  1.00  0.00     0.001 C 
BRANCH  17  22
ATOM     22  C   UNL A   1      32.999  19.208  24.171  1.00  0.00     0.012 C 
BRANCH  22  23
ATOM     23  C   UNL A   1      33.638  17.903  24.706  1.00  0.00    -0.017 C 
ATOM     24  C   UNL A   1      32.668  17.019  25.491  1.00  0.00     0.007 C 
ATOM     25  C   UNL A   1      34.180  17.098  23.521  1.00  0.00     0.007 C 
ENDBRANCH  22  23
ENDBRANCH  17  22
ENDBRANCH  16  17
ENDBRANCH  14  16
ENDBRANCH   9  14
ENDBRANCH   6   8
ENDBRANCH   5   6
ENDBRANCH   4   5
ENDBRANCH   3   4
ENDBRANCH   2   3
ENDBRANCH   1   2
BRANCH   1  26
ATOM     26  C   UNL A   1      33.152  30.884  27.522  1.00  0.00     0.188 C 
BRANCH  26  27
ATOM     27  O   UNL A   1      33.634  32.210  27.658  1.00  0.00    -0.376 OA
BRANCH  27  28
ATOM     28  C   UNL A   1      34.215  32.552  28.907  1.00  0.00     0.202 C 
BRANCH  28  29
ATOM     29  C   UNL A   1      35.691  32.186  29.130  1.00  0.00     0.261 C 
BRANCH  29  30
ATOM     30  O   UNL A   1      35.976  30.799  29.373  1.00  0.00    -0.460 OA
BRANCH  30  31
ATOM     31  C   UNL A   1      36.733  30.500  30.451  1.00  0.00     0.338 C 
ATOM     32  O   UNL A   1      36.371  30.502  31.621  1.00  0.00    -0.246 OA
BRANCH  31  33
ATOM     33  C   UNL A   1      38.034  29.991  29.971  1.00  0.00     0.060 A 
ATOM     34  C   UNL A   1      39.010  29.623  30.906  1.00  0.00     0.016 A 
ATOM     35  C   UNL A   1      38.291  29.875  28.603  1.00  0.00     0.016 A 
ATOM     36  C   UNL A   1      40.256  29.162  30.472  1.00  0.00     0.010 A 
ATOM     37  C   UNL A   1      39.545  29.427  28.170  1.00  0.00     0.010 A 
ATOM     38  C   UNL A   1      40.546  29.096  29.102  1.00  0.00    -0.014 A 
BRANCH  38  39
ATOM     39  C   UNL A   1      41.936  28.824  28.650  1.00  0.00     0.031 A 
ATOM     40  C   UNL A   1      42.298  27.428  28.215  1.00  0.00     0.074 A 
ATOM     41  C   UNL A   1      42.857  29.806  28.598  1.00  0.00     0.049 A 
ATOM     42  N   UNL A   1      43.447  26.956  27.805  1.00  0.00    -0.248 NA
ATOM     43  C   UNL A   1      41.216  26.430  28.247  1.00  0.00     0.031 C 
ATOM     44  C   UNL A   1      42.627  31.203  28.960  1.00  0.00     0.029 A 
ATOM     45  N   UNL A   1      44.179  29.771  28.221  1.00  0.00    -0.354 N 
ATOM     46  C   UNL A   1      43.229  25.610  27.532  1.00  0.00     0.074 A 
ATOM     47  C   UNL A   1      41.847  25.332  27.857  1.00  0.00     0.031 C 
ATOM     48  C   UNL A   1      43.771  31.891  28.797  1.00  0.00     0.029 A 
ATOM     49  C   UNL A   1      44.822  30.980  28.348  1.00  0.00     0.049 A 
ATOM     50  H   UNL A   1      44.624  28.957  27.892  1.00  0.00     0.167 HD
ATOM     51  C   UNL A   1      44.097  24.693  27.041  1.00  0.00     0.037 A 
ATOM     52  C   UNL A   1      46.114  31.308  28.144  1.00  0.00     0.037 A 
ATOM     53  C   UNL A   1      45.473  24.972  26.722  1.00  0.00     0.049 A 
ATOM     54  C   UNL A   1      47.079  30.249  27.667  1.00  0.00     0.074 A 
ATOM     55  C   UNL A   1      46.428  24.112  26.208  1.00  0.00     0.029 A 
ATOM     56  N   UNL A   1      46.095  26.201  26.891  1.00  0.00    -0.354 N 
ATOM     57  N   UNL A   1      46.852  28.988  27.385  1.00  0.00    -0.248 NA
ATOM     58  C   UNL A   1      48.478  30.661  27.475  1.00  0.00     0.031 C 
ATOM     59  C   UNL A   1      47.639  24.804  26.118  1.00  0.00     0.029 A 
ATOM     60  C   UNL A   1      47.426  26.114  26.516  1.00  0.00     0.049 A 
ATOM     61  H   UNL A   1      45.655  27.014  27.229  1.00  0.00     0.167 HD
ATOM     62  C   UNL A   1      48.069  28.468  26.951  1.00  0.00     0.074 A 
ATOM     63  C   UNL A   1      49.024  29.553  26.993  1.00  0.00     0.031 C 
ATOM     64  C   UNL A   1      48.367  27.206  26.552  1.00  0.00     0.037 A 
BRANCH  51  65
ATOM     65  C   UNL A   1      43.589  23.290  26.834  1.00  0.00     0.058 A 
ATOM     66  C   UNL A   1      43.352  22.773  25.550  1.00  0.00     0.135 A 
ATOM     67  C   UNL A   1      43.390  22.435  27.929  1.00  0.00     0.135 A 
ATOM     68  F   UNL A   1      43.509  23.551  24.467  1.00  0.00    -0.206 F 
ATOM     69  C   UNL A   1      42.917  21.465  25.363  1.00  0.00     0.059 A 
ATOM     70  C   UNL A   1      42.983  21.115  27.763  1.00  0.00     0.059 A 
ATOM     71  F   UNL A   1      43.598  22.879  29.179  1.00  0.00    -0.206 F 
ATOM     72  C   UNL A   1      42.739  20.642  26.476  1.00  0.00     0.060 A 
BRANCH  72  73
ATOM     73  S   UNL A   1      42.197  18.940  26.210  1.00  0.00     0.124 S 
ATOM     74  O   UNL A   1      42.363  18.368  27.542  1.00  0.00    -0.237 OA
ATOM     75  O   UNL A   1      40.818  19.120  25.765  1.00  0.00    -0.237 OA
ATOM     76  O   UNL A   1      43.121  18.443  25.196  1.00  0.00    -0.744 OA
ENDBRANCH  72  73
ENDBRANCH  51  65
BRANCH  52  77
ATOM     77  C   UNL A   1      46.588  32.698  28.397  1.00  0.00     0.058 A 
ATOM     78  C   UNL A   1      46.512  33.686  27.404  1.00  0.00     0.135 A 
ATOM     79  C   UNL A   1      47.158  33.058  29.629  1.00  0.00     0.135 A 
ATOM     80  F   UNL A   1      45.989  33.391  26.204  1.00  0.00    -0.206 F 
ATOM     81  C   UNL A   1      47.007  34.970  27.610  1.00  0.00     0.059 A 
ATOM     82  C   UNL A   1      47.632  34.344  29.871  1.00  0.00     0.059 A 
ATOM     83  F   UNL A   1      47.252  32.154  30.617  1.00  0.00    -0.206 F 
ATOM     84  C   UNL A   1      47.567  35.289  28.849  1.00  0.00     0.060 A 
BRANCH  84  85
ATOM     85  S   UNL A   1      48.192  36.964  29.112  1.00  0.00     0.124 S 
ATOM     86  O   UNL A   1      47.542  37.692  28.028  1.00  0.00    -0.237 OA
ATOM     87  O   UNL A   1      47.712  37.262  30.458  1.00  0.00    -0.237 OA
ATOM     88  O   UNL A   1      49.638  36.807  28.989  1.00  0.00    -0.744 OA
ENDBRANCH  84  85
ENDBRANCH  52  77
BRANCH  64  89
ATOM     89  C   UNL A   1      49.775  26.936  26.083  1.00  0.00     0.058 A 
ATOM     90  C   UNL A   1      50.792  26.545  26.967  1.00  0.00     0.135 A 
ATOM     91  C   UNL A   1      50.099  27.036  24.719  1.00  0.00     0.135 A 
ATOM     92  F   UNL A   1      50.540  26.437  28.282  1.00  0.00    -0.206 F 
ATOM     93  C   UNL A   1      52.087  26.299  26.523  1.00  0.00     0.059 A 
ATOM     94  C   UNL A   1      51.379  26.761  24.248  1.00  0.00     0.059 A 
ATOM     95  F   UNL A   1      49.163  27.392  23.825  1.00  0.00    -0.206 F 
ATOM     96  C   UNL A   1      52.372  26.410  25.162  1.00  0.00     0.060 A 
BRANCH  96  97
ATOM     97  S   UNL A   1      54.053  26.071  24.597  1.00  0.00     0.124 S 
ATOM     98  O   UNL A   1      54.837  26.936  25.472  1.00  0.00    -0.237 OA
ATOM     99  O   UNL A   1      54.182  24.638  24.841  1.00  0.00    -0.237 OA
ATOM    100  O   UNL A   1      54.025  26.462  23.190  1.00  0.00    -0.744 OA
ENDBRANCH  96  97
ENDBRANCH  64  89
ENDBRANCH  38  39
ENDBRANCH  31  33
ENDBRANCH  30  31
ENDBRANCH  29  30
ENDBRANCH  28  29
ENDBRANCH  27  28
ENDBRANCH  26  27
ENDBRANCH   1  26
TORSDOF 25
ENDMDL
MODEL 2
REMARK VINA RESULT:      -9.7      1.122      2.068
REMARK SMILES CC(C)CC1(CNc2ccnc(C(=O)OCCOCCOCCOC(=O)c3ccc(-c4c5nc(c(-c6c(F)cc(S(=O)(=O)[O-])cc6F)c6ccc([nH]6)c(-c6c(F)cc(S(=O)(=O)[O-])cc6F)c6nc(c(-c7c(F)cc(S(=O)(=O)[O-])cc7F)c7ccc4[nH]7)C=C6)C=C5)cc3)c2)CCCC1
REMARK SMILES IDX 19 1 18 2 17 3 16 4 15 5 13 6 14 7 12 8 8 9 9 10 93 11 10 12
REMARK SMILES IDX 11 13 7 14 6 16 5 17 94 18 97 19 95 20 96 21 4 22 2 23 1 24
REMARK SMILES IDX 3 25 20 26 21 27 22 28 23 29 24 30 25 31 26 32 27 33 28 34
REMARK SMILES IDX 92 35 29 36 91 37 30 38 31 39 32 40 85 41 33 42 90 43 84 44
REMARK SMILES IDX 86 45 34 46 89 47 83 48 82 49 35 51 69 52 48 53 68 54 49 55
REMARK SMILES IDX 52 56 67 57 87 58 50 59 51 60 66 62 88 63 53 64 36 65 37 66
REMARK SMILES IDX 46 67 38 68 39 69 45 70 47 71 40 72 41 73 42 74 43 75 44 76
REMARK SMILES IDX 70 77 71 78 80 79 72 80 73 81 79 82 81 83 74 84 75 85 76 86
REMARK SMILES IDX 77 87 78 88 54 89 55 90 64 91 56 92 57 93 63 94 65 95 58 96
REMARK SMILES IDX 59 97 60 98 61 99 62 100
REMARK H PARENT 7 15 86 50 52 61
REMARK Flexibility Score: inf
ROOT
ATOM      1  C   UNL A   1      34.225  30.746  27.500  1.00  0.00     0.188 C 
ENDROOT
BRANCH   1   2
ATOM      2  O   UNL A   1      33.462  29.546  27.430  1.00  0.00    -0.376 OA
BRANCH   2   3
ATOM      3  C   UNL A   1      32.164  29.570  26.858  1.00  0.00     0.202 C 
BRANCH   3   4
ATOM      4  C   UNL A   1      31.978  30.061  25.411  1.00  0.00     0.261 C 
BRANCH   4   5
ATOM      5  O   UNL A   1      31.587  29.051  24.465  1.00  0.00    -0.459 OA
BRANCH   5   6
ATOM      6  C   UNL A   1      32.548  28.140  24.137  1.00  0.00     0.357 C 
ATOM      7  O   UNL A   1      33.749  28.347  24.087  1.00  0.00    -0.244 OA
BRANCH   6   8
ATOM      8  C   UNL A   1      31.921  26.799  23.951  1.00  0.00     0.150 A 
ATOM      9  C   UNL A   1      32.037  24.473  23.337  1.00  0.00     0.038 A 
ATOM     10  C   UNL A   1      30.664  24.411  23.570  1.00  0.00     0.046 A 
ATOM     11  C   UNL A   1      32.671  25.708  23.526  1.00  0.00     0.061 A 
ATOM     12  C   UNL A   1      29.992  25.549  23.998  1.00  0.00     0.114 A 
ATOM     13  N   UNL A   1      30.587  26.741  24.190  1.00  0.00    -0.249 NA
BRANCH   9  14
ATOM     14  N   UNL A   1      32.778  23.405  22.863  1.00  0.00    -0.384 N 
ATOM     15  H   UNL A   1      32.412  22.905  22.097  1.00  0.00     0.160 HD
BRANCH  14  16
ATOM     16  C   UNL A   1      34.054  22.961  23.403  1.00  0.00     0.119 C 
BRANCH  16  17
ATOM     17  C   UNL A   1      33.879  21.775  24.407  1.00  0.00    -0.012 C 
ATOM     18  C   UNL A   1      33.366  22.344  25.758  1.00  0.00     0.009 C 
ATOM     19  C   UNL A   1      35.216  21.173  24.860  1.00  0.00     0.009 C 
ATOM     20  C   UNL A   1      34.596  22.856  26.502  1.00  0.00     0.001 C 
ATOM     21  C   UNL A   1      35.794  22.154  25.874  1.00  0.00     0.001 C 
BRANCH  17  22
ATOM     22  C   UNL A   1      32.845  20.738  23.876  1.00  0.00     0.012 C 
BRANCH  22  23
ATOM     23  C   UNL A   1      33.122  19.226  24.070  1.00  0.00    -0.017 C 
ATOM     24  C   UNL A   1      32.544  18.656  25.367  1.00  0.00     0.007 C 
ATOM     25  C   UNL A   1      32.518  18.459  22.890  1.00  0.00     0.007 C 
ENDBRANCH  22  23
ENDBRANCH  17  22
ENDBRANCH  16  17
ENDBRANCH  14  16
ENDBRANCH   9  14
ENDBRANCH   6   8
ENDBRANCH   5   6
ENDBRANCH   4   5
ENDBRANCH   3   4
ENDBRANCH   2   3
ENDBRANCH   1   2
BRANCH   1  26
ATOM     26  C   UNL A   1      33.560  32.048  27.995  1.00  0.00     0.188 C 
BRANCH  26  27
ATOM     27  O   UNL A   1      34.472  33.107  28.236  1.00  0.00    -0.376 OA
BRANCH  27  28
ATOM     28  C   UNL A   1      34.503  33.633  29.553  1.00  0.00     0.202 C 
BRANCH  28  29
ATOM     29  C   UNL A   1      35.412  32.936  30.577  1.00  0.00     0.261 C 
BRANCH  29  30
ATOM     30  O   UNL A   1      36.282  31.912  30.068  1.00  0.00    -0.460 OA
BRANCH  30  31
ATOM     31  C   UNL A   1      36.774  31.017  30.952  1.00  0.00     0.338 C 
ATOM     32  O   UNL A   1      36.211  30.595  31.953  1.00  0.00    -0.246 OA
BRANCH  31  33
ATOM     33  C   UNL A   1      38.044  30.490  30.412  1.00  0.00     0.060 A 
ATOM     34  C   UNL A   1      39.063  30.123  31.299  1.00  0.00     0.016 A 
ATOM     35  C   UNL A   1      38.229  30.356  29.034  1.00  0.00     0.016 A 
ATOM     36  C   UNL A   1      40.281  29.646  30.808  1.00  0.00     0.010 A 
ATOM     37  C   UNL A   1      39.455  29.891  28.543  1.00  0.00     0.010 A 
ATOM     38  C   UNL A   1      40.500  29.561  29.426  1.00  0.00    -0.014 A 
BRANCH  38  39
ATOM     39  C   UNL A   1      41.863  29.271  28.906  1.00  0.00     0.031 A 
ATOM     40  C   UNL A   1      42.187  27.868  28.463  1.00  0.00     0.074 A 
ATOM     41  C   UNL A   1      42.791  30.241  28.802  1.00  0.00     0.049 A 
ATOM     42  N   UNL A   1      43.308  27.380  27.998  1.00  0.00    -0.248 NA
ATOM     43  C   UNL A   1      41.096  26.882  28.555  1.00  0.00     0.031 C 
ATOM     44  C   UNL A   1      42.595  31.643  29.166  1.00  0.00     0.029 A 
ATOM     45  N   UNL A   1      44.091  30.189  28.360  1.00  0.00    -0.354 N 
ATOM     46  C   UNL A   1      43.061  26.035  27.745  1.00  0.00     0.074 A 
ATOM     47  C   UNL A   1      41.694  25.775  28.141  1.00  0.00     0.031 C 
ATOM     48  C   UNL A   1      43.736  32.317  28.941  1.00  0.00     0.029 A 
ATOM     49  C   UNL A   1      44.754  31.391  28.446  1.00  0.00     0.049 A 
ATOM     50  H   UNL A   1      44.510  29.367  28.013  1.00  0.00     0.167 HD
ATOM     51  C   UNL A   1      43.893  25.105  27.217  1.00  0.00     0.037 A 
ATOM     52  C   UNL A   1      46.038  31.703  28.175  1.00  0.00     0.037 A 
ATOM     53  C   UNL A   1      45.254  25.366  26.827  1.00  0.00     0.049 A 
ATOM     54  C   UNL A   1      46.966  30.630  27.657  1.00  0.00     0.074 A 
ATOM     55  C   UNL A   1      46.173  24.493  26.271  1.00  0.00     0.029 A 
ATOM     56  N   UNL A   1      45.898  26.589  26.958  1.00  0.00    -0.354 N 
ATOM     57  N   UNL A   1      46.710  29.370  27.395  1.00  0.00    -0.248 NA
ATOM     58  C   UNL A   1      48.357  31.025  27.393  1.00  0.00     0.031 C 
ATOM     59  C   UNL A   1      47.386  25.170  26.117  1.00  0.00     0.029 A 
ATOM     60  C   UNL A   1      47.207  26.485  26.517  1.00  0.00     0.049 A 
ATOM     61  H   UNL A   1      45.485  27.409  27.312  1.00  0.00     0.167 HD
ATOM     62  C   UNL A   1      47.898  28.833  26.904  1.00  0.00     0.074 A 
ATOM     63  C   UNL A   1      48.866  29.908  26.891  1.00  0.00     0.031 C 
ATOM     64  C   UNL A   1      48.161  27.566  26.498  1.00  0.00     0.037 A 
BRANCH  51  65
ATOM     65  C   UNL A   1      43.360  23.707  27.044  1.00  0.00     0.058 A 
ATOM     66  C   UNL A   1      43.211  22.834  28.134  1.00  0.00     0.135 A 
ATOM     67  C   UNL A   1      42.942  23.254  25.783  1.00  0.00     0.135 A 
ATOM     68  F   UNL A   1      43.611  23.207  29.360  1.00  0.00    -0.206 F 
ATOM     69  C   UNL A   1      42.686  21.556  27.974  1.00  0.00     0.059 A 
ATOM     70  C   UNL A   1      42.387  21.991  25.605  1.00  0.00     0.059 A 
ATOM     71  F   UNL A   1      43.066  24.047  24.705  1.00  0.00    -0.206 F 
ATOM     72  C   UNL A   1      42.272  21.145  26.705  1.00  0.00     0.060 A 
BRANCH  72  73
ATOM     73  S   UNL A   1      41.571  19.491  26.523  1.00  0.00     0.124 S 
ATOM     74  O   UNL A   1      41.913  18.885  27.806  1.00  0.00    -0.237 OA
ATOM     75  O   UNL A   1      40.155  19.775  26.314  1.00  0.00    -0.237 OA
ATOM     76  O   UNL A   1      42.276  18.947  25.366  1.00  0.00    -0.744 OA
ENDBRANCH  72  73
ENDBRANCH  51  65
BRANCH  52  77
ATOM     77  C   UNL A   1      46.539  33.088  28.396  1.00  0.00     0.058 A 
ATOM     78  C   UNL A   1      47.028  33.495  29.647  1.00  0.00     0.135 A 
ATOM     79  C   UNL A   1      46.507  34.046  27.369  1.00  0.00     0.135 A 
ATOM     80  F   UNL A   1      47.067  32.624  30.667  1.00  0.00    -0.206 F 
ATOM     81  C   UNL A   1      47.441  34.803  29.880  1.00  0.00     0.059 A 
ATOM     82  C   UNL A   1      46.944  35.352  27.568  1.00  0.00     0.059 A 
ATOM     83  F   UNL A   1      46.053  33.710  26.151  1.00  0.00    -0.206 F 
ATOM     84  C   UNL A   1      47.394  35.726  28.833  1.00  0.00     0.060 A 
BRANCH  84  85
ATOM     85  S   UNL A   1      47.949  37.417  29.143  1.00  0.00     0.124 S 
ATOM     86  O   UNL A   1      49.305  37.384  28.607  1.00  0.00    -0.237 OA
ATOM     87  O   UNL A   1      46.982  38.201  28.381  1.00  0.00    -0.237 OA
ATOM     88  O   UNL A   1      47.846  37.545  30.593  1.00  0.00    -0.744 OA
ENDBRANCH  84  85
ENDBRANCH  52  77
BRANCH  64  89
ATOM     89  C   UNL A   1      49.541  27.278  25.961  1.00  0.00     0.058 A 
ATOM     90  C   UNL A   1      49.825  27.308  24.587  1.00  0.00     0.135 A 
ATOM     91  C   UNL A   1      50.601  27.003  26.841  1.00  0.00     0.135 A 
ATOM     92  F   UNL A   1      48.850  27.562  23.700  1.00  0.00    -0.206 F 
ATOM     93  C   UNL A   1      51.102  27.041  24.103  1.00  0.00     0.059 A 
ATOM     94  C   UNL A   1      51.893  26.767  26.381  1.00  0.00     0.059 A 
ATOM     95  F   UNL A   1      50.391  26.975  28.167  1.00  0.00    -0.206 F 
ATOM     96  C   UNL A   1      52.130  26.771  25.007  1.00  0.00     0.060 A 
BRANCH  96  97
ATOM     97  S   UNL A   1      53.786  26.443  24.366  1.00  0.00     0.124 S 
ATOM     98  O   UNL A   1      53.766  24.990  24.230  1.00  0.00    -0.237 OA
ATOM     99  O   UNL A   1      53.792  27.197  23.116  1.00  0.00    -0.237 OA
ATOM    100  O   UNL A   1      54.665  26.963  25.410  1.00  0.00    -0.744 OA
ENDBRANCH  96  97
ENDBRANCH  64  89
ENDBRANCH  38  39
ENDBRANCH  31  33
ENDBRANCH  30  31
ENDBRANCH  29  30
ENDBRANCH  28  29
ENDBRANCH  27  28
ENDBRANCH  26  27
ENDBRANCH   1  26
TORSDOF 25
ENDMDL
MODEL 3
REMARK VINA RESULT:      -9.0      5.579     10.133
REMARK SMILES CC(C)CC1(CNc2ccnc(C(=O)OCCOCCOCCOC(=O)c3ccc(-c4c5nc(c(-c6c(F)cc(S(=O)(=O)[O-])cc6F)c6ccc([nH]6)c(-c6c(F)cc(S(=O)(=O)[O-])cc6F)c6nc(c(-c7c(F)cc(S(=O)(=O)[O-])cc7F)c7ccc4[nH]7)C=C6)C=C5)cc3)c2)CCCC1
REMARK SMILES IDX 19 1 18 2 17 3 16 4 15 5 13 6 14 7 12 8 8 9 9 10 93 11 10 12
REMARK SMILES IDX 11 13 7 14 6 16 5 17 94 18 97 19 95 20 96 21 4 22 2 23 1 24
REMARK SMILES IDX 3 25 20 26 21 27 22 28 23 29 24 30 25 31 26 32 27 33 28 34
REMARK SMILES IDX 92 35 29 36 91 37 30 38 31 39 32 40 85 41 33 42 90 43 84 44
REMARK SMILES IDX 86 45 34 46 89 47 83 48 82 49 35 51 69 52 48 53 68 54 49 55
REMARK SMILES IDX 52 56 67 57 87 58 50 59 51 60 66 62 88 63 53 64 36 65 37 66
REMARK SMILES IDX 46 67 38 68 39 69 45 70 47 71 40 72 41 73 42 74 43 75 44 76
REMARK SMILES IDX 70 77 71 78 80 79 72 80 73 81 79 82 81 83 74 84 75 85 76 86
REMARK SMILES IDX 77 87 78 88 54 89 55 90 64 91 56 92 57 93 63 94 65 95 58 96
REMARK SMILES IDX 59 97 60 98 61 99 62 100
REMARK H PARENT 7 15 86 50 52 61
REMARK Flexibility Score: inf
ROOT
ATOM      1  C   UNL A   1      32.390  28.001  25.093  1.00  0.00     0.188 C 
ENDROOT
BRANCH   1   2
ATOM      2  O   UNL A   1      32.333  27.814  23.683  1.00  0.00    -0.376 OA
BRANCH   2   3
ATOM      3  C   UNL A   1      33.432  27.221  23.007  1.00  0.00     0.202 C 
BRANCH   3   4
ATOM      4  C   UNL A   1      33.305  25.789  22.459  1.00  0.00     0.261 C 
BRANCH   4   5
ATOM      5  O   UNL A   1      34.359  24.889  22.842  1.00  0.00    -0.459 OA
BRANCH   5   6
ATOM      6  C   UNL A   1      34.037  23.563  22.843  1.00  0.00     0.357 C 
ATOM      7  O   UNL A   1      33.242  23.015  22.098  1.00  0.00    -0.244 OA
BRANCH   6   8
ATOM      8  C   UNL A   1      34.893  22.843  23.830  1.00  0.00     0.150 A 
ATOM      9  C   UNL A   1      36.899  22.647  25.149  1.00  0.00     0.038 A 
ATOM     10  C   UNL A   1      36.415  21.412  25.579  1.00  0.00     0.046 A 
ATOM     11  C   UNL A   1      36.112  23.369  24.242  1.00  0.00     0.061 A 
ATOM     12  C   UNL A   1      35.184  20.963  25.121  1.00  0.00     0.114 A 
ATOM     13  N   UNL A   1      34.414  21.647  24.254  1.00  0.00    -0.249 NA
BRANCH   9  14
ATOM     14  N   UNL A   1      38.135  23.151  25.514  1.00  0.00    -0.384 N 
ATOM     15  H   UNL A   1      38.930  22.733  25.111  1.00  0.00     0.160 HD
BRANCH  14  16
ATOM     16  C   UNL A   1      38.354  24.248  26.444  1.00  0.00     0.119 C 
BRANCH  16  17
ATOM     17  C   UNL A   1      39.800  24.225  27.038  1.00  0.00    -0.012 C 
ATOM     18  C   UNL A   1      39.822  25.101  28.320  1.00  0.00     0.009 C 
ATOM     19  C   UNL A   1      40.813  24.989  26.174  1.00  0.00     0.009 C 
ATOM     20  C   UNL A   1      39.985  26.544  27.850  1.00  0.00     0.001 C 
ATOM     21  C   UNL A   1      40.558  26.468  26.439  1.00  0.00     0.001 C 
BRANCH  17  22
ATOM     22  C   UNL A   1      40.230  22.775  27.415  1.00  0.00     0.012 C 
BRANCH  22  23
ATOM     23  C   UNL A   1      41.289  22.050  26.548  1.00  0.00    -0.017 C 
ATOM     24  C   UNL A   1      42.686  22.031  27.170  1.00  0.00     0.007 C 
ATOM     25  C   UNL A   1      40.835  20.603  26.325  1.00  0.00     0.007 C 
ENDBRANCH  22  23
ENDBRANCH  17  22
ENDBRANCH  16  17
ENDBRANCH  14  16
ENDBRANCH   9  14
ENDBRANCH   6   8
ENDBRANCH   5   6
ENDBRANCH   4   5
ENDBRANCH   3   4
ENDBRANCH   2   3
ENDBRANCH   1   2
BRANCH   1  26
ATOM     26  C   UNL A   1      32.813  29.370  25.667  1.00  0.00     0.188 C 
BRANCH  26  27
ATOM     27  O   UNL A   1      33.512  29.289  26.898  1.00  0.00    -0.376 OA
BRANCH  27  28
ATOM     28  C   UNL A   1      34.206  30.455  27.314  1.00  0.00     0.202 C 
BRANCH  28  29
ATOM     29  C   UNL A   1      33.376  31.720  27.582  1.00  0.00     0.261 C 
BRANCH  29  30
ATOM     30  O   UNL A   1      34.109  32.945  27.741  1.00  0.00    -0.460 OA
BRANCH  30  31
ATOM     31  C   UNL A   1      34.322  33.384  29.000  1.00  0.00     0.338 C 
ATOM     32  O   UNL A   1      33.512  33.952  29.723  1.00  0.00    -0.246 OA
BRANCH  31  33
ATOM     33  C   UNL A   1      35.650  32.904  29.435  1.00  0.00     0.060 A 
ATOM     34  C   UNL A   1      35.729  31.809  30.303  1.00  0.00     0.016 A 
ATOM     35  C   UNL A   1      36.814  33.532  28.986  1.00  0.00     0.016 A 
ATOM     36  C   UNL A   1      36.975  31.356  30.746  1.00  0.00     0.010 A 
ATOM     37  C   UNL A   1      38.061  33.086  29.442  1.00  0.00     0.010 A 
ATOM     38  C   UNL A   1      38.147  32.013  30.349  1.00  0.00    -0.014 A 
BRANCH  38  39
ATOM     39  C   UNL A   1      39.444  31.675  30.994  1.00  0.00     0.031 A 
ATOM     40  C   UNL A   1      39.775  32.295  32.327  1.00  0.00     0.074 A 
ATOM     41  C   UNL A   1      40.302  30.809  30.423  1.00  0.00     0.049 A 
ATOM     42  N   UNL A   1      40.848  32.163  33.062  1.00  0.00    -0.248 NA
ATOM     43  C   UNL A   1      38.754  33.183  32.908  1.00  0.00     0.031 C 
ATOM     44  C   UNL A   1      40.087  30.117  29.153  1.00  0.00     0.029 A 
ATOM     45  N   UNL A   1      41.535  30.367  30.840  1.00  0.00    -0.354 N 
ATOM     46  C   UNL A   1      40.636  32.950  34.189  1.00  0.00     0.074 A 
ATOM     47  C   UNL A   1      39.347  33.584  34.024  1.00  0.00     0.031 C 
ATOM     48  C   UNL A   1      41.156  29.345  28.889  1.00  0.00     0.029 A 
ATOM     49  C   UNL A   1      42.144  29.509  29.955  1.00  0.00     0.049 A 
ATOM     50  H   UNL A   1      41.945  30.640  31.693  1.00  0.00     0.167 HD
ATOM     51  C   UNL A   1      41.437  33.117  35.269  1.00  0.00     0.037 A 
ATOM     52  C   UNL A   1      43.366  28.938  29.990  1.00  0.00     0.037 A 
ATOM     53  C   UNL A   1      42.722  32.488  35.428  1.00  0.00     0.049 A 
ATOM     54  C   UNL A   1      44.269  29.199  31.172  1.00  0.00     0.074 A 
ATOM     55  C   UNL A   1      43.602  32.585  36.492  1.00  0.00     0.029 A 
ATOM     56  N   UNL A   1      43.317  31.649  34.497  1.00  0.00    -0.354 N 
ATOM     57  N   UNL A   1      44.043  29.923  32.244  1.00  0.00    -0.248 NA
ATOM     58  C   UNL A   1      45.594  28.562  31.150  1.00  0.00     0.031 C 
ATOM     59  C   UNL A   1      44.750  31.852  36.182  1.00  0.00     0.029 A 
ATOM     60  C   UNL A   1      44.562  31.244  34.951  1.00  0.00     0.049 A 
ATOM     61  H   UNL A   1      42.914  31.382  33.639  1.00  0.00     0.167 HD
ATOM     62  C   UNL A   1      45.182  29.797  33.036  1.00  0.00     0.074 A 
ATOM     63  C   UNL A   1      46.087  28.919  32.328  1.00  0.00     0.031 C 
ATOM     64  C   UNL A   1      45.452  30.358  34.242  1.00  0.00     0.037 A 
BRANCH  51  65
ATOM     65  C   UNL A   1      40.954  34.034  36.362  1.00  0.00     0.058 A 
ATOM     66  C   UNL A   1      40.113  33.579  37.390  1.00  0.00     0.135 A 
ATOM     67  C   UNL A   1      41.382  35.371  36.411  1.00  0.00     0.135 A 
ATOM     68  F   UNL A   1      39.658  32.316  37.384  1.00  0.00    -0.206 F 
ATOM     69  C   UNL A   1      39.699  34.422  38.416  1.00  0.00     0.059 A 
ATOM     70  C   UNL A   1      41.003  36.223  37.444  1.00  0.00     0.059 A 
ATOM     71  F   UNL A   1      42.183  35.859  35.452  1.00  0.00    -0.206 F 
ATOM     72  C   UNL A   1      40.153  35.742  38.437  1.00  0.00     0.060 A 
BRANCH  72  73
ATOM     73  S   UNL A   1      39.622  36.813  39.791  1.00  0.00     0.124 S 
ATOM     74  O   UNL A   1      38.957  35.860  40.674  1.00  0.00    -0.237 OA
ATOM     75  O   UNL A   1      40.890  37.349  40.277  1.00  0.00    -0.237 OA
ATOM     76  O   UNL A   1      38.745  37.779  39.137  1.00  0.00    -0.744 OA
ENDBRANCH  72  73
ENDBRANCH  51  65
BRANCH  52  77
ATOM     77  C   UNL A   1      43.824  28.068  28.871  1.00  0.00     0.058 A 
ATOM     78  C   UNL A   1      43.565  26.689  28.868  1.00  0.00     0.135 A 
ATOM     79  C   UNL A   1      44.560  28.593  27.797  1.00  0.00     0.135 A 
ATOM     80  F   UNL A   1      42.878  26.133  29.878  1.00  0.00    -0.206 F 
ATOM     81  C   UNL A   1      44.041  25.857  27.859  1.00  0.00     0.059 A 
ATOM     82  C   UNL A   1      45.020  27.788  26.759  1.00  0.00     0.059 A 
ATOM     83  F   UNL A   1      44.832  29.906  27.746  1.00  0.00    -0.206 F 
ATOM     84  C   UNL A   1      44.770  26.418  26.808  1.00  0.00     0.060 A 
BRANCH  84  85
ATOM     85  S   UNL A   1      45.369  25.332  25.493  1.00  0.00     0.124 S 
ATOM     86  O   UNL A   1      44.118  24.871  24.902  1.00  0.00    -0.237 OA
ATOM     87  O   UNL A   1      46.161  26.247  24.677  1.00  0.00    -0.237 OA
ATOM     88  O   UNL A   1      46.136  24.321  26.215  1.00  0.00    -0.744 OA
ENDBRANCH  84  85
ENDBRANCH  52  77
BRANCH  64  89
ATOM     89  C   UNL A   1      46.762  30.004  34.898  1.00  0.00     0.058 A 
ATOM     90  C   UNL A   1      47.922  30.771  34.708  1.00  0.00     0.135 A 
ATOM     91  C   UNL A   1      46.846  28.898  35.762  1.00  0.00     0.135 A 
ATOM     92  F   UNL A   1      47.900  31.836  33.890  1.00  0.00    -0.206 F 
ATOM     93  C   UNL A   1      49.125  30.434  35.319  1.00  0.00     0.059 A 
ATOM     94  C   UNL A   1      48.030  28.564  36.412  1.00  0.00     0.059 A 
ATOM     95  F   UNL A   1      45.765  28.137  35.994  1.00  0.00    -0.206 F 
ATOM     96  C   UNL A   1      49.171  29.329  36.170  1.00  0.00     0.060 A 
BRANCH  96  97
ATOM     97  S   UNL A   1      50.735  28.913  36.970  1.00  0.00     0.124 S 
ATOM     98  O   UNL A   1      50.412  27.637  37.601  1.00  0.00    -0.237 OA
ATOM     99  O   UNL A   1      51.655  28.847  35.840  1.00  0.00    -0.237 OA
ATOM    100  O   UNL A   1      50.955  30.029  37.887  1.00  0.00    -0.744 OA
ENDBRANCH  96  97
ENDBRANCH  64  89
ENDBRANCH  38  39
ENDBRANCH  31  33
ENDBRANCH  30  31
ENDBRANCH  29  30
ENDBRANCH  28  29
ENDBRANCH  27  28
ENDBRANCH  26  27
ENDBRANCH   1  26
TORSDOF 25
ENDMDL
