MODEL 1
REMARK VINA RESULT:     -11.4      0.000      0.000
REMARK SMILES COC(=O)c1c(NC(=O)[C@@H]2C[C@@H]2C(=O)OCCOCCOCCOC(=O)c2ccc(-c3c4nc(c(-c5c(F)cc(S(=O)(=O)[O-])cc5F)c5ccc([nH]5)c(-c5c(F)cc(S(=O)(=O)[O-])cc5F)c5nc(c(-c6c(F)cc(S(=O)(=O)[O-])cc6F)c6ccc3[nH]6)C=C5)C=C4)cc2)sc2c1CC[N@@H+](Cc1ccccc1)C2
REMARK SMILES IDX 19 1 18 2 17 3 16 4 15 5 13 6 14 7 12 8 10 9 11 10 8 11 7 12
REMARK SMILES IDX 9 14 6 15 5 16 95 17 93 18 94 19 96 20 106 21 97 22 98 23
REMARK SMILES IDX 3 25 4 26 2 27 1 28 99 29 100 30 101 31 105 32 102 33 104 34
REMARK SMILES IDX 103 35 20 36 21 37 22 38 23 39 24 40 25 41 26 42 27 43 28 44
REMARK SMILES IDX 92 45 29 46 91 47 30 48 31 49 32 50 85 51 33 52 90 53 84 54
REMARK SMILES IDX 86 55 34 56 89 57 83 58 82 59 35 61 69 62 48 63 68 64 49 65
REMARK SMILES IDX 52 66 67 67 87 68 50 69 51 70 66 72 88 73 53 74 36 75 37 76
REMARK SMILES IDX 46 77 38 78 39 79 45 80 47 81 40 82 41 83 42 84 43 85 44 86
REMARK SMILES IDX 70 87 71 88 80 89 72 90 73 91 79 92 81 93 74 94 75 95 76 96
REMARK SMILES IDX 77 97 78 98 54 99 55 100 64 101 56 102 57 103 63 104 65 105
REMARK SMILES IDX 58 106 59 107 60 108 61 109 62 110
REMARK H PARENT 7 13 98 24 86 60 52 71
REMARK Flexibility Score: inf
ROOT
ATOM      1  C   UNL A   1      34.629  34.939  27.984  1.00  0.00     0.188 C 
ENDROOT
BRANCH   1   2
ATOM      2  O   UNL A   1      35.010  33.603  27.641  1.00  0.00    -0.376 OA
BRANCH   2   3
ATOM      3  C   UNL A   1      34.425  32.538  28.394  1.00  0.00     0.202 C 
BRANCH   3   4
ATOM      4  C   UNL A   1      34.717  31.111  27.899  1.00  0.00     0.261 C 
BRANCH   4   5
ATOM      5  O   UNL A   1      33.849  30.701  26.828  1.00  0.00    -0.463 OA
BRANCH   5   6
ATOM      6  C   UNL A   1      33.555  29.383  26.777  1.00  0.00     0.309 C 
ATOM      7  O   UNL A   1      34.290  28.484  27.158  1.00  0.00    -0.252 OA
BRANCH   6   8
ATOM      8  C   UNL A   1      32.176  29.065  26.294  1.00  0.00     0.112 C 
ATOM      9  C   UNL A   1      31.981  28.239  25.034  1.00  0.00     0.094 C 
ATOM     10  C   UNL A   1      31.456  29.642  25.110  1.00  0.00     0.030 C 
BRANCH   9  11
ATOM     11  C   UNL A   1      33.137  27.935  24.191  1.00  0.00     0.229 C 
ATOM     12  N   UNL A   1      33.838  26.792  24.389  1.00  0.00    -0.317 N 
ATOM     13  H   UNL A   1      34.662  26.752  23.851  1.00  0.00     0.170 HD
ATOM     14  O   UNL A   1      33.478  28.716  23.307  1.00  0.00    -0.274 OA
BRANCH  12  15
ATOM     15  C   UNL A   1      33.657  25.675  25.169  1.00  0.00     0.110 A 
ATOM     16  C   UNL A   1      32.680  24.902  25.793  1.00  0.00     0.098 A 
ATOM     17  C   UNL A   1      33.302  23.739  26.406  1.00  0.00    -0.006 A 
ATOM     18  S   UNL A   1      35.246  25.055  25.432  1.00  0.00    -0.116 S 
ATOM     19  C   UNL A   1      34.640  23.642  26.104  1.00  0.00     0.065 A 
ATOM     20  C   UNL A   1      32.584  22.593  27.066  1.00  0.00     0.099 C 
ATOM     21  C   UNL A   1      35.457  22.406  26.258  1.00  0.00     0.310 C 
ATOM     22  C   UNL A   1      33.493  21.350  27.219  1.00  0.00     0.267 C 
ATOM     23  N   UNL A   1      34.603  21.204  26.257  1.00  0.00    -0.326 N 
ATOM     24  H   UNL A   1      35.174  20.433  26.602  1.00  0.00     0.348 HD
BRANCH  16  25
ATOM     25  C   UNL A   1      31.222  25.035  25.870  1.00  0.00     0.341 C 
ATOM     26  O   UNL A   1      30.592  24.855  26.908  1.00  0.00    -0.246 OA
BRANCH  25  27
ATOM     27  O   UNL A   1      30.613  25.221  24.665  1.00  0.00    -0.465 OA
ATOM     28  C   UNL A   1      29.335  25.870  24.720  1.00  0.00     0.282 C 
ENDBRANCH  25  27
ENDBRANCH  16  25
BRANCH  23  29
ATOM     29  C   UNL A   1      34.238  20.695  24.922  1.00  0.00     0.299 C 
BRANCH  29  30
ATOM     30  C   UNL A   1      33.910  19.224  24.737  1.00  0.00     0.006 A 
ATOM     31  C   UNL A   1      34.915  18.306  24.391  1.00  0.00     0.009 A 
ATOM     32  C   UNL A   1      32.604  18.739  24.915  1.00  0.00     0.009 A 
ATOM     33  C   UNL A   1      34.637  16.939  24.299  1.00  0.00     0.001 A 
ATOM     34  C   UNL A   1      32.329  17.370  24.842  1.00  0.00     0.001 A 
ATOM     35  C   UNL A   1      33.347  16.472  24.538  1.00  0.00     0.000 A 
ENDBRANCH  29  30
ENDBRANCH  23  29
ENDBRANCH  12  15
ENDBRANCH   9  11
ENDBRANCH   6   8
ENDBRANCH   5   6
ENDBRANCH   4   5
ENDBRANCH   3   4
ENDBRANCH   2   3
ENDBRANCH   1   2
BRANCH   1  36
ATOM     36  C   UNL A   1      33.337  35.063  28.805  1.00  0.00     0.188 C 
BRANCH  36  37
ATOM     37  O   UNL A   1      33.224  36.358  29.358  1.00  0.00    -0.376 OA
BRANCH  37  38
ATOM     38  C   UNL A   1      32.937  36.671  30.708  1.00  0.00     0.202 C 
BRANCH  38  39
ATOM     39  C   UNL A   1      32.780  35.641  31.817  1.00  0.00     0.261 C 
BRANCH  39  40
ATOM     40  O   UNL A   1      33.742  34.615  31.859  1.00  0.00    -0.460 OA
BRANCH  40  41
ATOM     41  C   UNL A   1      34.968  34.907  32.326  1.00  0.00     0.338 C 
ATOM     42  O   UNL A   1      35.282  35.800  33.094  1.00  0.00    -0.246 OA
BRANCH  41  43
ATOM     43  C   UNL A   1      35.868  33.926  31.697  1.00  0.00     0.060 A 
ATOM     44  C   UNL A   1      35.600  32.580  31.910  1.00  0.00     0.016 A 
ATOM     45  C   UNL A   1      37.053  34.355  31.063  1.00  0.00     0.016 A 
ATOM     46  C   UNL A   1      36.629  31.685  31.711  1.00  0.00     0.010 A 
ATOM     47  C   UNL A   1      38.080  33.465  30.875  1.00  0.00     0.010 A 
ATOM     48  C   UNL A   1      37.884  32.159  31.293  1.00  0.00    -0.014 A 
BRANCH  48  49
ATOM     49  C   UNL A   1      38.968  31.207  31.212  1.00  0.00     0.031 A 
ATOM     50  C   UNL A   1      39.631  31.006  32.512  1.00  0.00     0.074 A 
ATOM     51  C   UNL A   1      39.309  30.559  30.083  1.00  0.00     0.049 A 
ATOM     52  N   UNL A   1      40.777  31.478  32.867  1.00  0.00    -0.248 NA
ATOM     53  C   UNL A   1      38.856  30.405  33.608  1.00  0.00     0.031 C 
ATOM     54  C   UNL A   1      38.582  30.496  28.815  1.00  0.00     0.029 A 
ATOM     55  N   UNL A   1      40.373  29.739  29.863  1.00  0.00    -0.354 N 
ATOM     56  C   UNL A   1      40.990  30.983  34.144  1.00  0.00     0.074 A 
ATOM     57  C   UNL A   1      39.710  30.533  34.625  1.00  0.00     0.031 C 
ATOM     58  C   UNL A   1      39.106  29.511  28.050  1.00  0.00     0.029 A 
ATOM     59  C   UNL A   1      40.276  28.959  28.715  1.00  0.00     0.049 A 
ATOM     60  H   UNL A   1      41.149  29.701  30.467  1.00  0.00     0.167 HD
ATOM     61  C   UNL A   1      42.253  30.698  34.558  1.00  0.00     0.037 A 
ATOM     62  C   UNL A   1      41.066  27.903  28.385  1.00  0.00     0.037 A 
ATOM     63  C   UNL A   1      43.238  31.399  33.767  1.00  0.00     0.049 A 
ATOM     64  C   UNL A   1      42.341  28.060  29.139  1.00  0.00     0.074 A 
ATOM     65  C   UNL A   1      43.422  32.726  33.418  1.00  0.00     0.029 A 
ATOM     66  N   UNL A   1      43.986  30.676  32.868  1.00  0.00    -0.354 N 
ATOM     67  N   UNL A   1      43.207  29.009  28.904  1.00  0.00    -0.248 NA
ATOM     68  C   UNL A   1      42.422  27.463  30.464  1.00  0.00     0.031 C 
ATOM     69  C   UNL A   1      43.838  32.696  32.055  1.00  0.00     0.029 A 
ATOM     70  C   UNL A   1      43.970  31.360  31.678  1.00  0.00     0.049 A 
ATOM     71  H   UNL A   1      44.447  29.825  33.045  1.00  0.00     0.167 HD
ATOM     72  C   UNL A   1      43.614  29.434  30.160  1.00  0.00     0.074 A 
ATOM     73  C   UNL A   1      43.160  28.390  31.079  1.00  0.00     0.031 C 
ATOM     74  C   UNL A   1      44.019  30.720  30.382  1.00  0.00     0.037 A 
BRANCH  61  75
ATOM     75  C   UNL A   1      42.574  29.482  35.386  1.00  0.00     0.058 A 
ATOM     76  C   UNL A   1      43.463  29.601  36.469  1.00  0.00     0.135 A 
ATOM     77  C   UNL A   1      42.256  28.160  34.994  1.00  0.00     0.135 A 
ATOM     78  F   UNL A   1      43.859  30.811  36.897  1.00  0.00    -0.206 F 
ATOM     79  C   UNL A   1      44.033  28.488  37.087  1.00  0.00     0.059 A 
ATOM     80  C   UNL A   1      42.763  27.040  35.635  1.00  0.00     0.059 A 
ATOM     81  F   UNL A   1      41.523  27.886  33.910  1.00  0.00    -0.206 F 
ATOM     82  C   UNL A   1      43.678  27.212  36.658  1.00  0.00     0.060 A 
BRANCH  82  83
ATOM     83  S   UNL A   1      44.451  25.775  37.413  1.00  0.00     0.124 S 
ATOM     84  O   UNL A   1      44.063  25.940  38.809  1.00  0.00    -0.237 OA
ATOM     85  O   UNL A   1      43.811  24.678  36.693  1.00  0.00    -0.237 OA
ATOM     86  O   UNL A   1      45.868  25.965  37.121  1.00  0.00    -0.744 OA
ENDBRANCH  82  83
ENDBRANCH  61  75
BRANCH  62  87
ATOM     87  C   UNL A   1      40.661  26.612  27.756  1.00  0.00     0.058 A 
ATOM     88  C   UNL A   1      41.330  26.110  26.622  1.00  0.00     0.135 A 
ATOM     89  C   UNL A   1      39.805  25.703  28.412  1.00  0.00     0.135 A 
ATOM     90  F   UNL A   1      42.179  26.892  25.937  1.00  0.00    -0.206 F 
ATOM     91  C   UNL A   1      41.210  24.777  26.206  1.00  0.00     0.059 A 
ATOM     92  C   UNL A   1      39.658  24.376  28.007  1.00  0.00     0.059 A 
ATOM     93  F   UNL A   1      39.149  26.043  29.529  1.00  0.00    -0.206 F 
ATOM     94  C   UNL A   1      40.387  23.909  26.922  1.00  0.00     0.060 A 
BRANCH  94  95
ATOM     95  S   UNL A   1      40.369  22.146  26.516  1.00  0.00     0.124 S 
ATOM     96  O   UNL A   1      39.122  22.019  25.771  1.00  0.00    -0.237 OA
ATOM     97  O   UNL A   1      41.595  21.994  25.741  1.00  0.00    -0.237 OA
ATOM     98  O   UNL A   1      40.382  21.498  27.826  1.00  0.00    -0.744 OA
ENDBRANCH  94  95
ENDBRANCH  62  87
BRANCH  74  99
ATOM     99  C   UNL A   1      44.344  31.598  29.198  1.00  0.00     0.058 A 
ATOM    100  C   UNL A   1      43.500  32.592  28.669  1.00  0.00     0.135 A 
ATOM    101  C   UNL A   1      45.639  31.513  28.660  1.00  0.00     0.135 A 
ATOM    102  F   UNL A   1      42.288  32.825  29.195  1.00  0.00    -0.206 F 
ATOM    103  C   UNL A   1      43.907  33.419  27.617  1.00  0.00     0.059 A 
ATOM    104  C   UNL A   1      46.078  32.351  27.640  1.00  0.00     0.059 A 
ATOM    105  F   UNL A   1      46.519  30.627  29.159  1.00  0.00    -0.206 F 
ATOM    106  C   UNL A   1      45.199  33.290  27.108  1.00  0.00     0.060 A 
BRANCH 106 107
ATOM    107  S   UNL A   1      45.743  34.387  25.781  1.00  0.00     0.124 S 
ATOM    108  O   UNL A   1      47.151  34.029  25.644  1.00  0.00    -0.237 OA
ATOM    109  O   UNL A   1      44.877  33.998  24.672  1.00  0.00    -0.237 OA
ATOM    110  O   UNL A   1      45.490  35.723  26.317  1.00  0.00    -0.744 OA
ENDBRANCH 106 107
ENDBRANCH  74  99
ENDBRANCH  48  49
ENDBRANCH  41  43
ENDBRANCH  40  41
ENDBRANCH  39  40
ENDBRANCH  38  39
ENDBRANCH  37  38
ENDBRANCH  36  37
ENDBRANCH   1  36
TORSDOF 26
ENDMDL
MODEL 2
REMARK VINA RESULT:     -10.3      1.769      2.560
REMARK SMILES COC(=O)c1c(NC(=O)[C@@H]2C[C@@H]2C(=O)OCCOCCOCCOC(=O)c2ccc(-c3c4nc(c(-c5c(F)cc(S(=O)(=O)[O-])cc5F)c5ccc([nH]5)c(-c5c(F)cc(S(=O)(=O)[O-])cc5F)c5nc(c(-c6c(F)cc(S(=O)(=O)[O-])cc6F)c6ccc3[nH]6)C=C5)C=C4)cc2)sc2c1CC[N@@H+](Cc1ccccc1)C2
REMARK SMILES IDX 19 1 18 2 17 3 16 4 15 5 13 6 14 7 12 8 10 9 11 10 8 11 7 12
REMARK SMILES IDX 9 14 6 15 5 16 95 17 93 18 94 19 96 20 106 21 97 22 98 23
REMARK SMILES IDX 3 25 4 26 2 27 1 28 99 29 100 30 101 31 105 32 102 33 104 34
REMARK SMILES IDX 103 35 20 36 21 37 22 38 23 39 24 40 25 41 26 42 27 43 28 44
REMARK SMILES IDX 92 45 29 46 91 47 30 48 31 49 32 50 85 51 33 52 90 53 84 54
REMARK SMILES IDX 86 55 34 56 89 57 83 58 82 59 35 61 69 62 48 63 68 64 49 65
REMARK SMILES IDX 52 66 67 67 87 68 50 69 51 70 66 72 88 73 53 74 36 75 37 76
REMARK SMILES IDX 46 77 38 78 39 79 45 80 47 81 40 82 41 83 42 84 43 85 44 86
REMARK SMILES IDX 70 87 71 88 80 89 72 90 73 91 79 92 81 93 74 94 75 95 76 96
REMARK SMILES IDX 77 97 78 98 54 99 55 100 64 101 56 102 57 103 63 104 65 105
REMARK SMILES IDX 58 106 59 107 60 108 61 109 62 110
REMARK H PARENT 7 13 98 24 86 60 52 71
REMARK Flexibility Score: inf
ROOT
ATOM      1  C   UNL A   1      35.678  33.233  28.493  1.00  0.00     0.188 C 
ENDROOT
BRANCH   1   2
ATOM      2  O   UNL A   1      34.424  32.875  27.903  1.00  0.00    -0.376 OA
BRANCH   2   3
ATOM      3  C   UNL A   1      33.981  31.526  28.068  1.00  0.00     0.202 C 
BRANCH   3   4
ATOM      4  C   UNL A   1      33.372  30.850  26.827  1.00  0.00     0.261 C 
BRANCH   4   5
ATOM      5  O   UNL A   1      32.010  30.434  27.028  1.00  0.00    -0.463 OA
BRANCH   5   6
ATOM      6  C   UNL A   1      31.752  29.126  26.801  1.00  0.00     0.309 C 
ATOM      7  O   UNL A   1      32.023  28.214  27.566  1.00  0.00    -0.252 OA
BRANCH   6   8
ATOM      8  C   UNL A   1      30.995  28.845  25.543  1.00  0.00     0.112 C 
ATOM      9  C   UNL A   1      31.705  28.238  24.344  1.00  0.00     0.094 C 
ATOM     10  C   UNL A   1      31.060  29.588  24.239  1.00  0.00     0.030 C 
BRANCH   9  11
ATOM     11  C   UNL A   1      33.163  28.123  24.359  1.00  0.00     0.229 C 
ATOM     12  N   UNL A   1      33.745  26.907  24.501  1.00  0.00    -0.317 N 
ATOM     13  H   UNL A   1      34.721  26.963  24.621  1.00  0.00     0.170 HD
ATOM     14  O   UNL A   1      33.862  29.126  24.249  1.00  0.00    -0.274 OA
BRANCH  12  15
ATOM     15  C   UNL A   1      33.281  25.613  24.512  1.00  0.00     0.110 A 
ATOM     16  C   UNL A   1      33.157  24.470  23.726  1.00  0.00     0.098 A 
ATOM     17  C   UNL A   1      32.598  23.391  24.525  1.00  0.00    -0.006 A 
ATOM     18  S   UNL A   1      32.638  25.387  26.098  1.00  0.00    -0.116 S 
ATOM     19  C   UNL A   1      32.464  23.737  25.849  1.00  0.00     0.065 A 
ATOM     20  C   UNL A   1      32.423  21.961  24.089  1.00  0.00     0.099 C 
ATOM     21  C   UNL A   1      32.283  22.767  26.966  1.00  0.00     0.310 C 
ATOM     22  C   UNL A   1      32.213  21.010  25.291  1.00  0.00     0.267 C 
ATOM     23  N   UNL A   1      32.776  21.430  26.589  1.00  0.00    -0.326 N 
ATOM     24  H   UNL A   1      32.412  20.773  27.279  1.00  0.00     0.348 HD
BRANCH  16  25
ATOM     25  C   UNL A   1      33.530  24.188  22.336  1.00  0.00     0.341 C 
ATOM     26  O   UNL A   1      33.866  23.071  21.952  1.00  0.00    -0.246 OA
BRANCH  25  27
ATOM     27  O   UNL A   1      33.623  25.295  21.547  1.00  0.00    -0.465 OA
ATOM     28  C   UNL A   1      32.380  25.768  21.009  1.00  0.00     0.282 C 
ENDBRANCH  25  27
ENDBRANCH  16  25
BRANCH  23  29
ATOM     29  C   UNL A   1      34.227  21.225  26.761  1.00  0.00     0.299 C 
BRANCH  29  30
ATOM     30  C   UNL A   1      35.207  21.980  25.882  1.00  0.00     0.006 A 
ATOM     31  C   UNL A   1      35.653  21.426  24.671  1.00  0.00     0.009 A 
ATOM     32  C   UNL A   1      35.687  23.249  26.245  1.00  0.00     0.009 A 
ATOM     33  C   UNL A   1      36.491  22.149  23.817  1.00  0.00     0.001 A 
ATOM     34  C   UNL A   1      36.510  23.980  25.383  1.00  0.00     0.001 A 
ATOM     35  C   UNL A   1      36.907  23.431  24.168  1.00  0.00     0.000 A 
ENDBRANCH  29  30
ENDBRANCH  23  29
ENDBRANCH  12  15
ENDBRANCH   9  11
ENDBRANCH   6   8
ENDBRANCH   5   6
ENDBRANCH   4   5
ENDBRANCH   3   4
ENDBRANCH   2   3
ENDBRANCH   1   2
BRANCH   1  36
ATOM     36  C   UNL A   1      35.680  33.325  30.025  1.00  0.00     0.188 C 
BRANCH  36  37
ATOM     37  O   UNL A   1      34.584  34.092  30.478  1.00  0.00    -0.376 OA
BRANCH  37  38
ATOM     38  C   UNL A   1      34.450  34.694  31.752  1.00  0.00     0.202 C 
BRANCH  38  39
ATOM     39  C   UNL A   1      33.932  33.982  32.992  1.00  0.00     0.261 C 
BRANCH  39  40
ATOM     40  O   UNL A   1      34.770  32.995  33.543  1.00  0.00    -0.460 OA
BRANCH  40  41
ATOM     41  C   UNL A   1      36.005  33.351  33.938  1.00  0.00     0.338 C 
ATOM     42  O   UNL A   1      36.309  34.137  34.818  1.00  0.00    -0.246 OA
BRANCH  41  43
ATOM     43  C   UNL A   1      36.924  32.602  33.067  1.00  0.00     0.060 A 
ATOM     44  C   UNL A   1      36.656  31.254  32.858  1.00  0.00     0.016 A 
ATOM     45  C   UNL A   1      38.123  33.197  32.622  1.00  0.00     0.016 A 
ATOM     46  C   UNL A   1      37.693  30.457  32.425  1.00  0.00     0.010 A 
ATOM     47  C   UNL A   1      39.159  32.400  32.202  1.00  0.00     0.010 A 
ATOM     48  C   UNL A   1      38.957  31.029  32.202  1.00  0.00    -0.014 A 
BRANCH  48  49
ATOM     49  C   UNL A   1      40.047  30.142  31.867  1.00  0.00     0.031 A 
ATOM     50  C   UNL A   1      40.900  29.843  33.030  1.00  0.00     0.074 A 
ATOM     51  C   UNL A   1      40.238  29.626  30.639  1.00  0.00     0.049 A 
ATOM     52  N   UNL A   1      42.070  30.330  33.265  1.00  0.00    -0.248 NA
ATOM     53  C   UNL A   1      40.313  29.100  34.156  1.00  0.00     0.031 C 
ATOM     54  C   UNL A   1      39.334  29.657  29.488  1.00  0.00     0.029 A 
ATOM     55  N   UNL A   1      41.283  28.883  30.183  1.00  0.00    -0.354 N 
ATOM     56  C   UNL A   1      42.485  29.721  34.439  1.00  0.00     0.074 A 
ATOM     57  C   UNL A   1      41.304  29.165  35.048  1.00  0.00     0.031 C 
ATOM     58  C   UNL A   1      39.771  28.778  28.556  1.00  0.00     0.029 A 
ATOM     59  C   UNL A   1      41.042  28.218  28.985  1.00  0.00     0.049 A 
ATOM     60  H   UNL A   1      42.140  28.821  30.663  1.00  0.00     0.167 HD
ATOM     61  C   UNL A   1      43.803  29.455  34.635  1.00  0.00     0.037 A 
ATOM     62  C   UNL A   1      41.808  27.238  28.436  1.00  0.00     0.037 A 
ATOM     63  C   UNL A   1      44.638  30.276  33.790  1.00  0.00     0.049 A 
ATOM     64  C   UNL A   1      43.175  27.378  29.012  1.00  0.00     0.074 A 
ATOM     65  C   UNL A   1      44.727  31.638  33.560  1.00  0.00     0.029 A 
ATOM     66  N   UNL A   1      45.268  29.682  32.722  1.00  0.00    -0.354 N 
ATOM     67  N   UNL A   1      43.967  28.384  28.756  1.00  0.00    -0.248 NA
ATOM     68  C   UNL A   1      43.469  26.655  30.241  1.00  0.00     0.031 C 
ATOM     69  C   UNL A   1      44.938  31.764  32.156  1.00  0.00     0.029 A 
ATOM     70  C   UNL A   1      45.055  30.479  31.625  1.00  0.00     0.049 A 
ATOM     71  H   UNL A   1      45.777  28.839  32.740  1.00  0.00     0.167 HD
ATOM     72  C   UNL A   1      44.540  28.700  29.979  1.00  0.00     0.074 A 
ATOM     73  C   UNL A   1      44.260  27.550  30.838  1.00  0.00     0.031 C 
ATOM     74  C   UNL A   1      44.933  29.975  30.275  1.00  0.00     0.037 A 
BRANCH  61  75
ATOM     75  C   UNL A   1      44.280  28.179  35.275  1.00  0.00     0.058 A 
ATOM     76  C   UNL A   1      45.273  28.236  36.269  1.00  0.00     0.135 A 
ATOM     77  C   UNL A   1      43.998  26.890  34.763  1.00  0.00     0.135 A 
ATOM     78  F   UNL A   1      45.644  29.414  36.796  1.00  0.00    -0.206 F 
ATOM     79  C   UNL A   1      45.969  27.102  36.690  1.00  0.00     0.059 A 
ATOM     80  C   UNL A   1      44.633  25.742  35.212  1.00  0.00     0.059 A 
ATOM     81  F   UNL A   1      43.167  26.690  33.733  1.00  0.00    -0.206 F 
ATOM     82  C   UNL A   1      45.642  25.861  36.149  1.00  0.00     0.060 A 
BRANCH  82  83
ATOM     83  S   UNL A   1      46.573  24.405  36.646  1.00  0.00     0.124 S 
ATOM     84  O   UNL A   1      47.441  24.957  37.681  1.00  0.00    -0.237 OA
ATOM     85  O   UNL A   1      45.513  23.514  37.105  1.00  0.00    -0.237 OA
ATOM     86  O   UNL A   1      47.237  23.995  35.413  1.00  0.00    -0.744 OA
ENDBRANCH  82  83
ENDBRANCH  61  75
BRANCH  62  87
ATOM     87  C   UNL A   1      41.355  25.998  27.739  1.00  0.00     0.058 A 
ATOM     88  C   UNL A   1      42.200  25.316  26.840  1.00  0.00     0.135 A 
ATOM     89  C   UNL A   1      40.203  25.295  28.147  1.00  0.00     0.135 A 
ATOM     90  F   UNL A   1      43.330  25.894  26.404  1.00  0.00    -0.206 F 
ATOM     91  C   UNL A   1      41.952  23.999  26.426  1.00  0.00     0.059 A 
ATOM     92  C   UNL A   1      39.929  23.990  27.737  1.00  0.00     0.059 A 
ATOM     93  F   UNL A   1      39.346  25.815  29.036  1.00  0.00    -0.206 F 
ATOM     94  C   UNL A   1      40.822  23.336  26.901  1.00  0.00     0.060 A 
BRANCH  94  95
ATOM     95  S   UNL A   1      40.589  21.579  26.532  1.00  0.00     0.124 S 
ATOM     96  O   UNL A   1      40.654  20.980  27.860  1.00  0.00    -0.237 OA
ATOM     97  O   UNL A   1      39.280  21.568  25.889  1.00  0.00    -0.237 OA
ATOM     98  O   UNL A   1      41.713  21.268  25.652  1.00  0.00    -0.744 OA
ENDBRANCH  94  95
ENDBRANCH  62  87
BRANCH  74  99
ATOM     99  C   UNL A   1      45.052  30.981  29.156  1.00  0.00     0.058 A 
ATOM    100  C   UNL A   1      46.214  31.220  28.400  1.00  0.00     0.135 A 
ATOM    101  C   UNL A   1      43.882  31.642  28.747  1.00  0.00     0.135 A 
ATOM    102  F   UNL A   1      47.351  30.550  28.643  1.00  0.00    -0.206 F 
ATOM    103  C   UNL A   1      46.222  32.116  27.325  1.00  0.00     0.059 A 
ATOM    104  C   UNL A   1      43.858  32.507  27.657  1.00  0.00     0.059 A 
ATOM    105  F   UNL A   1      42.721  31.413  29.386  1.00  0.00    -0.206 F 
ATOM    106  C   UNL A   1      45.037  32.756  26.963  1.00  0.00     0.060 A 
BRANCH 106 107
ATOM    107  S   UNL A   1      45.033  33.877  25.547  1.00  0.00     0.124 S 
ATOM    108  O   UNL A   1      46.456  34.014  25.259  1.00  0.00    -0.237 OA
ATOM    109  O   UNL A   1      44.253  33.138  24.559  1.00  0.00    -0.237 OA
ATOM    110  O   UNL A   1      44.384  35.079  26.066  1.00  0.00    -0.744 OA
ENDBRANCH 106 107
ENDBRANCH  74  99
ENDBRANCH  48  49
ENDBRANCH  41  43
ENDBRANCH  40  41
ENDBRANCH  39  40
ENDBRANCH  38  39
ENDBRANCH  37  38
ENDBRANCH  36  37
ENDBRANCH   1  36
TORSDOF 26
ENDMDL
MODEL 3
REMARK VINA RESULT:     -10.0      3.326      4.978
REMARK SMILES COC(=O)c1c(NC(=O)[C@@H]2C[C@@H]2C(=O)OCCOCCOCCOC(=O)c2ccc(-c3c4nc(c(-c5c(F)cc(S(=O)(=O)[O-])cc5F)c5ccc([nH]5)c(-c5c(F)cc(S(=O)(=O)[O-])cc5F)c5nc(c(-c6c(F)cc(S(=O)(=O)[O-])cc6F)c6ccc3[nH]6)C=C5)C=C4)cc2)sc2c1CC[N@@H+](Cc1ccccc1)C2
REMARK SMILES IDX 19 1 18 2 17 3 16 4 15 5 13 6 14 7 12 8 10 9 11 10 8 11 7 12
REMARK SMILES IDX 9 14 6 15 5 16 95 17 93 18 94 19 96 20 106 21 97 22 98 23
REMARK SMILES IDX 3 25 4 26 2 27 1 28 99 29 100 30 101 31 105 32 102 33 104 34
REMARK SMILES IDX 103 35 20 36 21 37 22 38 23 39 24 40 25 41 26 42 27 43 28 44
REMARK SMILES IDX 92 45 29 46 91 47 30 48 31 49 32 50 85 51 33 52 90 53 84 54
REMARK SMILES IDX 86 55 34 56 89 57 83 58 82 59 35 61 69 62 48 63 68 64 49 65
REMARK SMILES IDX 52 66 67 67 87 68 50 69 51 70 66 72 88 73 53 74 36 75 37 76
REMARK SMILES IDX 46 77 38 78 39 79 45 80 47 81 40 82 41 83 42 84 43 85 44 86
REMARK SMILES IDX 70 87 71 88 80 89 72 90 73 91 79 92 81 93 74 94 75 95 76 96
REMARK SMILES IDX 77 97 78 98 54 99 55 100 64 101 56 102 57 103 63 104 65 105
REMARK SMILES IDX 58 106 59 107 60 108 61 109 62 110
REMARK H PARENT 7 13 98 24 86 60 52 71
REMARK Flexibility Score: inf
ROOT
ATOM      1  C   UNL A   1      35.159  33.912  28.578  1.00  0.00     0.188 C 
ENDROOT
BRANCH   1   2
ATOM      2  O   UNL A   1      34.992  32.864  27.617  1.00  0.00    -0.376 OA
BRANCH   2   3
ATOM      3  C   UNL A   1      34.275  31.699  28.033  1.00  0.00     0.202 C 
BRANCH   3   4
ATOM      4  C   UNL A   1      34.559  30.406  27.248  1.00  0.00     0.261 C 
BRANCH   4   5
ATOM      5  O   UNL A   1      33.487  30.045  26.359  1.00  0.00    -0.463 OA
BRANCH   5   6
ATOM      6  C   UNL A   1      33.111  28.747  26.384  1.00  0.00     0.309 C 
ATOM      7  O   UNL A   1      33.769  27.834  26.860  1.00  0.00    -0.252 OA
BRANCH   6   8
ATOM      8  C   UNL A   1      31.738  28.480  25.857  1.00  0.00     0.112 C 
ATOM      9  C   UNL A   1      31.555  27.728  24.549  1.00  0.00     0.094 C 
ATOM     10  C   UNL A   1      31.052  29.133  24.692  1.00  0.00     0.030 C 
BRANCH   9  11
ATOM     11  C   UNL A   1      32.724  27.450  23.714  1.00  0.00     0.229 C 
ATOM     12  N   UNL A   1      33.515  26.384  23.988  1.00  0.00    -0.317 N 
ATOM     13  H   UNL A   1      34.334  26.367  23.442  1.00  0.00     0.170 HD
ATOM     14  O   UNL A   1      32.994  28.184  22.767  1.00  0.00    -0.274 OA
BRANCH  12  15
ATOM     15  C   UNL A   1      33.430  25.321  24.855  1.00  0.00     0.110 A 
ATOM     16  C   UNL A   1      32.528  24.560  25.595  1.00  0.00     0.098 A 
ATOM     17  C   UNL A   1      33.234  23.467  26.244  1.00  0.00    -0.006 A 
ATOM     18  S   UNL A   1      35.056  24.778  25.051  1.00  0.00    -0.116 S 
ATOM     19  C   UNL A   1      34.553  23.396  25.860  1.00  0.00     0.065 A 
ATOM     20  C   UNL A   1      32.608  22.347  27.029  1.00  0.00     0.099 C 
ATOM     21  C   UNL A   1      35.427  22.205  26.043  1.00  0.00     0.310 C 
ATOM     22  C   UNL A   1      33.574  21.151  27.207  1.00  0.00     0.267 C 
ATOM     23  N   UNL A   1      34.624  20.976  26.184  1.00  0.00    -0.326 N 
ATOM     24  H   UNL A   1      35.247  20.252  26.541  1.00  0.00     0.348 HD
BRANCH  16  25
ATOM     25  C   UNL A   1      31.073  24.647  25.762  1.00  0.00     0.341 C 
ATOM     26  O   UNL A   1      30.545  25.280  26.671  1.00  0.00    -0.246 OA
BRANCH  25  27
ATOM     27  O   UNL A   1      30.365  23.842  24.919  1.00  0.00    -0.465 OA
ATOM     28  C   UNL A   1      30.913  23.707  23.600  1.00  0.00     0.282 C 
ENDBRANCH  25  27
ENDBRANCH  16  25
BRANCH  23  29
ATOM     29  C   UNL A   1      34.194  20.359  24.915  1.00  0.00     0.299 C 
BRANCH  29  30
ATOM     30  C   UNL A   1      33.903  18.870  24.858  1.00  0.00     0.006 A 
ATOM     31  C   UNL A   1      32.707  18.355  25.382  1.00  0.00     0.009 A 
ATOM     32  C   UNL A   1      34.811  17.971  24.274  1.00  0.00     0.009 A 
ATOM     33  C   UNL A   1      32.396  16.998  25.260  1.00  0.00     0.001 A 
ATOM     34  C   UNL A   1      34.492  16.617  24.135  1.00  0.00     0.001 A 
ATOM     35  C   UNL A   1      33.283  16.133  24.625  1.00  0.00     0.000 A 
ENDBRANCH  29  30
ENDBRANCH  23  29
ENDBRANCH  12  15
ENDBRANCH   9  11
ENDBRANCH   6   8
ENDBRANCH   5   6
ENDBRANCH   4   5
ENDBRANCH   3   4
ENDBRANCH   2   3
ENDBRANCH   1   2
BRANCH   1  36
ATOM     36  C   UNL A   1      34.088  33.973  29.676  1.00  0.00     0.188 C 
BRANCH  36  37
ATOM     37  O   UNL A   1      33.178  35.023  29.424  1.00  0.00    -0.376 OA
BRANCH  37  38
ATOM     38  C   UNL A   1      32.949  36.151  30.247  1.00  0.00     0.202 C 
BRANCH  38  39
ATOM     39  C   UNL A   1      32.335  36.092  31.638  1.00  0.00     0.261 C 
BRANCH  39  40
ATOM     40  O   UNL A   1      33.049  35.363  32.607  1.00  0.00    -0.460 OA
BRANCH  40  41
ATOM     41  C   UNL A   1      33.964  36.009  33.350  1.00  0.00     0.338 C 
ATOM     42  O   UNL A   1      33.875  37.119  33.845  1.00  0.00    -0.246 OA
BRANCH  41  43
ATOM     43  C   UNL A   1      35.117  35.098  33.427  1.00  0.00     0.060 A 
ATOM     44  C   UNL A   1      35.288  34.377  34.603  1.00  0.00     0.016 A 
ATOM     45  C   UNL A   1      36.098  35.107  32.413  1.00  0.00     0.016 A 
ATOM     46  C   UNL A   1      36.543  33.872  34.864  1.00  0.00     0.010 A 
ATOM     47  C   UNL A   1      37.350  34.612  32.680  1.00  0.00     0.010 A 
ATOM     48  C   UNL A   1      37.580  34.088  33.941  1.00  0.00    -0.014 A 
BRANCH  48  49
ATOM     49  C   UNL A   1      38.907  33.648  34.306  1.00  0.00     0.031 A 
ATOM     50  C   UNL A   1      39.479  34.451  35.400  1.00  0.00     0.074 A 
ATOM     51  C   UNL A   1      39.531  32.603  33.731  1.00  0.00     0.049 A 
ATOM     52  N   UNL A   1      40.387  35.359  35.287  1.00  0.00    -0.248 NA
ATOM     53  C   UNL A   1      38.830  34.401  36.719  1.00  0.00     0.031 C 
ATOM     54  C   UNL A   1      38.977  31.599  32.821  1.00  0.00     0.029 A 
ATOM     55  N   UNL A   1      40.811  32.176  33.909  1.00  0.00    -0.354 N 
ATOM     56  C   UNL A   1      40.626  35.792  36.582  1.00  0.00     0.074 A 
ATOM     57  C   UNL A   1      39.508  35.346  37.373  1.00  0.00     0.031 C 
ATOM     58  C   UNL A   1      39.846  30.568  32.715  1.00  0.00     0.029 A 
ATOM     59  C   UNL A   1      41.063  30.890  33.443  1.00  0.00     0.049 A 
ATOM     60  H   UNL A   1      41.503  32.733  34.334  1.00  0.00     0.167 HD
ATOM     61  C   UNL A   1      41.872  36.198  36.942  1.00  0.00     0.037 A 
ATOM     62  C   UNL A   1      42.166  30.137  33.700  1.00  0.00     0.037 A 
ATOM     63  C   UNL A   1      42.661  36.564  35.789  1.00  0.00     0.049 A 
ATOM     64  C   UNL A   1      43.257  31.079  34.077  1.00  0.00     0.074 A 
ATOM     65  C   UNL A   1      42.459  37.418  34.719  1.00  0.00     0.029 A 
ATOM     66  N   UNL A   1      43.673  35.719  35.398  1.00  0.00    -0.354 N 
ATOM     67  N   UNL A   1      43.808  31.919  33.243  1.00  0.00    -0.248 NA
ATOM     68  C   UNL A   1      43.398  31.422  35.485  1.00  0.00     0.031 C 
ATOM     69  C   UNL A   1      42.985  36.729  33.589  1.00  0.00     0.029 A 
ATOM     70  C   UNL A   1      43.556  35.539  34.043  1.00  0.00     0.049 A 
ATOM     71  H   UNL A   1      44.356  35.318  35.983  1.00  0.00     0.167 HD
ATOM     72  C   UNL A   1      43.948  33.093  33.968  1.00  0.00     0.074 A 
ATOM     73  C   UNL A   1      43.756  32.703  35.364  1.00  0.00     0.031 C 
ATOM     74  C   UNL A   1      43.917  34.317  33.359  1.00  0.00     0.037 A 
BRANCH  61  75
ATOM     75  C   UNL A   1      42.474  35.857  38.279  1.00  0.00     0.058 A 
ATOM     76  C   UNL A   1      43.113  36.864  39.024  1.00  0.00     0.135 A 
ATOM     77  C   UNL A   1      42.687  34.532  38.730  1.00  0.00     0.135 A 
ATOM     78  F   UNL A   1      43.008  38.152  38.660  1.00  0.00    -0.206 F 
ATOM     79  C   UNL A   1      43.940  36.574  40.109  1.00  0.00     0.059 A 
ATOM     80  C   UNL A   1      43.454  34.226  39.843  1.00  0.00     0.059 A 
ATOM     81  F   UNL A   1      42.246  33.463  38.058  1.00  0.00    -0.206 F 
ATOM     82  C   UNL A   1      44.106  35.250  40.506  1.00  0.00     0.060 A 
BRANCH  82  83
ATOM     83  S   UNL A   1      45.216  34.865  41.868  1.00  0.00     0.124 S 
ATOM     84  O   UNL A   1      44.632  35.655  42.946  1.00  0.00    -0.237 OA
ATOM     85  O   UNL A   1      45.064  33.418  41.977  1.00  0.00    -0.237 OA
ATOM     86  O   UNL A   1      46.515  35.317  41.381  1.00  0.00    -0.744 OA
ENDBRANCH  82  83
ENDBRANCH  61  75
BRANCH  62  87
ATOM     87  C   UNL A   1      42.236  28.674  33.983  1.00  0.00     0.058 A 
ATOM     88  C   UNL A   1      42.907  27.792  33.111  1.00  0.00     0.135 A 
ATOM     89  C   UNL A   1      41.901  28.145  35.246  1.00  0.00     0.135 A 
ATOM     90  F   UNL A   1      43.282  28.206  31.890  1.00  0.00    -0.206 F 
ATOM     91  C   UNL A   1      43.279  26.496  33.491  1.00  0.00     0.059 A 
ATOM     92  C   UNL A   1      42.248  26.852  35.641  1.00  0.00     0.059 A 
ATOM     93  F   UNL A   1      41.305  28.896  36.182  1.00  0.00    -0.206 F 
ATOM     94  C   UNL A   1      42.964  26.042  34.771  1.00  0.00     0.060 A 
BRANCH  94  95
ATOM     95  S   UNL A   1      43.602  24.448  35.343  1.00  0.00     0.124 S 
ATOM     96  O   UNL A   1      42.424  23.595  35.234  1.00  0.00    -0.237 OA
ATOM     97  O   UNL A   1      44.674  24.184  34.390  1.00  0.00    -0.237 OA
ATOM     98  O   UNL A   1      44.043  24.732  36.707  1.00  0.00    -0.744 OA
ENDBRANCH  94  95
ENDBRANCH  62  87
BRANCH  74  99
ATOM     99  C   UNL A   1      44.061  34.390  31.858  1.00  0.00     0.058 A 
ATOM    100  C   UNL A   1      43.024  34.180  30.932  1.00  0.00     0.135 A 
ATOM    101  C   UNL A   1      45.293  34.828  31.344  1.00  0.00     0.135 A 
ATOM    102  F   UNL A   1      41.783  33.872  31.337  1.00  0.00    -0.206 F 
ATOM    103  C   UNL A   1      43.221  34.344  29.557  1.00  0.00     0.059 A 
ATOM    104  C   UNL A   1      45.500  35.034  29.983  1.00  0.00     0.059 A 
ATOM    105  F   UNL A   1      46.310  35.106  32.177  1.00  0.00    -0.206 F 
ATOM    106  C   UNL A   1      44.465  34.771  29.092  1.00  0.00     0.060 A 
BRANCH 106 107
ATOM    107  S   UNL A   1      44.709  35.027  27.322  1.00  0.00     0.124 S 
ATOM    108  O   UNL A   1      46.087  34.586  27.134  1.00  0.00    -0.237 OA
ATOM    109  O   UNL A   1      43.683  34.172  26.732  1.00  0.00    -0.237 OA
ATOM    110  O   UNL A   1      44.486  36.461  27.150  1.00  0.00    -0.744 OA
ENDBRANCH 106 107
ENDBRANCH  74  99
ENDBRANCH  48  49
ENDBRANCH  41  43
ENDBRANCH  40  41
ENDBRANCH  39  40
ENDBRANCH  38  39
ENDBRANCH  37  38
ENDBRANCH  36  37
ENDBRANCH   1  36
TORSDOF 26
ENDMDL
