MODEL 1
REMARK VINA RESULT:     -10.8      0.000      0.000
REMARK SMILES O=C(OCCOCCOCCOC(=O)c1ccc(-c2c3nc(c(-c4c(F)cc(S(=O)(=O)[O-])cc4F)c4ccc([nH]4)c(-c4c(F)cc(S(=O)(=O)[O-])cc4F)c4nc(c(-c5c(F)cc(S(=O)(=O)[O-])cc5F)c5ccc2[nH]5)C=C4)C=C3)cc1)C1=Cc2cc(Cl)ccc2O[C@@H]1C(F)(F)F
REMARK SMILES IDX 8 1 7 2 6 3 5 4 4 5 3 6 2 7 1 8 81 9 82 10 91 11 83 12 90 13
REMARK SMILES IDX 84 14 89 15 85 16 88 17 86 18 87 19 92 20 93 21 94 22 95 23
REMARK SMILES IDX 9 24 10 25 11 26 12 27 13 28 14 29 15 30 16 31 80 32 17 33
REMARK SMILES IDX 79 34 18 35 19 36 20 37 73 38 21 39 78 40 72 41 74 42 22 43
REMARK SMILES IDX 77 44 71 45 70 46 23 48 57 49 36 50 56 51 37 52 40 53 55 54
REMARK SMILES IDX 75 55 38 56 39 57 54 59 76 60 41 61 24 62 25 63 34 64 26 65
REMARK SMILES IDX 27 66 33 67 35 68 28 69 29 70 30 71 31 72 32 73 58 74 59 75
REMARK SMILES IDX 68 76 60 77 61 78 67 79 69 80 62 81 63 82 64 83 65 84 66 85
REMARK SMILES IDX 42 86 43 87 52 88 44 89 45 90 51 91 53 92 46 93 47 94 48 95
REMARK SMILES IDX 49 96 50 97
REMARK H PARENT 74 47 40 58
REMARK Flexibility Score: inf
ROOT
ATOM      1  C   UNL A   1      42.042  20.228  26.428  1.00  0.00     0.188 C 
ENDROOT
BRANCH   1   2
ATOM      2  C   UNL A   1      40.759  20.869  26.950  1.00  0.00     0.188 C 
BRANCH   2   3
ATOM      3  O   UNL A   1      39.901  21.313  25.904  1.00  0.00    -0.376 OA
BRANCH   3   4
ATOM      4  C   UNL A   1      39.060  22.417  26.241  1.00  0.00     0.202 C 
BRANCH   4   5
ATOM      5  C   UNL A   1      37.615  22.265  25.743  1.00  0.00     0.261 C 
BRANCH   5   6
ATOM      6  O   UNL A   1      37.268  23.367  24.881  1.00  0.00    -0.460 OA
BRANCH   6   7
ATOM      7  C   UNL A   1      36.362  23.111  23.917  1.00  0.00     0.338 C 
ATOM      8  O   UNL A   1      36.653  23.049  22.733  1.00  0.00    -0.246 OA
BRANCH   7   9
ATOM      9  C   UNL A   1      34.969  23.006  24.435  1.00  0.00     0.087 C 
ATOM     10  C   UNL A   1      34.555  24.142  25.032  1.00  0.00     0.027 C 
ATOM     11  C   UNL A   1      33.963  22.207  23.629  1.00  0.00     0.316 C 
ATOM     12  C   UNL A   1      33.903  25.009  24.026  1.00  0.00     0.019 A 
ATOM     13  O   UNL A   1      33.042  23.050  22.867  1.00  0.00    -0.475 OA
ATOM     14  C   UNL A   1      34.029  26.397  24.091  1.00  0.00     0.032 A 
ATOM     15  C   UNL A   1      33.209  24.410  22.966  1.00  0.00     0.128 A 
ATOM     16  C   UNL A   1      33.501  27.177  23.062  1.00  0.00     0.041 A 
ATOM     17  C   UNL A   1      32.687  25.196  21.940  1.00  0.00     0.048 A 
ATOM     18  Cl  UNL A   1      33.669  28.889  23.117  1.00  0.00    -0.084 Cl
ATOM     19  C   UNL A   1      32.852  26.582  21.978  1.00  0.00     0.024 A 
BRANCH  11  20
ATOM     20  C   UNL A   1      33.201  21.182  24.468  1.00  0.00     0.430 C 
ATOM     21  F   UNL A   1      31.863  21.365  24.360  1.00  0.00    -0.167 F 
ATOM     22  F   UNL A   1      33.462  19.920  24.055  1.00  0.00    -0.167 F 
ATOM     23  F   UNL A   1      33.521  21.264  25.779  1.00  0.00    -0.167 F 
ENDBRANCH  11  20
ENDBRANCH   7   9
ENDBRANCH   6   7
ENDBRANCH   5   6
ENDBRANCH   4   5
ENDBRANCH   3   4
ENDBRANCH   2   3
ENDBRANCH   1   2
BRANCH   1  24
ATOM     24  O   UNL A   1      42.642  21.016  25.401  1.00  0.00    -0.376 OA
BRANCH  24  25
ATOM     25  C   UNL A   1      43.466  22.073  25.901  1.00  0.00     0.202 C 
BRANCH  25  26
ATOM     26  C   UNL A   1      43.127  23.493  25.405  1.00  0.00     0.261 C 
BRANCH  26  27
ATOM     27  O   UNL A   1      42.076  24.194  26.096  1.00  0.00    -0.460 OA
BRANCH  27  28
ATOM     28  C   UNL A   1      42.035  25.535  25.949  1.00  0.00     0.338 C 
ATOM     29  O   UNL A   1      41.963  26.150  24.902  1.00  0.00    -0.246 OA
BRANCH  28  30
ATOM     30  C   UNL A   1      41.989  26.169  27.286  1.00  0.00     0.060 A 
ATOM     31  C   UNL A   1      40.941  25.846  28.154  1.00  0.00     0.016 A 
ATOM     32  C   UNL A   1      42.909  27.162  27.634  1.00  0.00     0.016 A 
ATOM     33  C   UNL A   1      40.785  26.547  29.353  1.00  0.00     0.010 A 
ATOM     34  C   UNL A   1      42.745  27.873  28.833  1.00  0.00     0.010 A 
ATOM     35  C   UNL A   1      41.656  27.597  29.680  1.00  0.00    -0.014 A 
BRANCH  35  36
ATOM     36  C   UNL A   1      41.293  28.511  30.798  1.00  0.00     0.031 A 
ATOM     37  C   UNL A   1      42.098  28.451  32.072  1.00  0.00     0.074 A 
ATOM     38  C   UNL A   1      40.323  29.434  30.667  1.00  0.00     0.049 A 
ATOM     39  N   UNL A   1      42.038  29.217  33.132  1.00  0.00    -0.248 NA
ATOM     40  C   UNL A   1      43.112  27.386  32.158  1.00  0.00     0.031 C 
ATOM     41  C   UNL A   1      39.473  29.609  29.491  1.00  0.00     0.029 A 
ATOM     42  N   UNL A   1      39.892  30.405  31.540  1.00  0.00    -0.354 N 
ATOM     43  C   UNL A   1      43.026  28.752  33.993  1.00  0.00     0.074 A 
ATOM     44  C   UNL A   1      43.632  27.601  33.358  1.00  0.00     0.031 C 
ATOM     45  C   UNL A   1      38.616  30.621  29.718  1.00  0.00     0.029 A 
ATOM     46  C   UNL A   1      38.851  31.161  31.057  1.00  0.00     0.049 A 
ATOM     47  H   UNL A   1      40.292  30.544  32.428  1.00  0.00     0.167 HD
ATOM     48  C   UNL A   1      43.412  29.248  35.194  1.00  0.00     0.037 A 
ATOM     49  C   UNL A   1      38.165  32.172  31.630  1.00  0.00     0.037 A 
ATOM     50  C   UNL A   1      42.791  30.370  35.848  1.00  0.00     0.049 A 
ATOM     51  C   UNL A   1      38.568  32.667  32.999  1.00  0.00     0.074 A 
ATOM     52  C   UNL A   1      43.103  30.934  37.073  1.00  0.00     0.029 A 
ATOM     53  N   UNL A   1      41.722  31.091  35.339  1.00  0.00    -0.354 N 
ATOM     54  N   UNL A   1      39.534  32.245  33.780  1.00  0.00    -0.248 NA
ATOM     55  C   UNL A   1      37.797  33.789  33.555  1.00  0.00     0.031 C 
ATOM     56  C   UNL A   1      42.196  31.971  37.323  1.00  0.00     0.029 A 
ATOM     57  C   UNL A   1      41.351  32.085  36.231  1.00  0.00     0.049 A 
ATOM     58  H   UNL A   1      41.289  30.923  34.470  1.00  0.00     0.167 HD
ATOM     59  C   UNL A   1      39.502  33.065  34.905  1.00  0.00     0.074 A 
ATOM     60  C   UNL A   1      38.435  34.019  34.695  1.00  0.00     0.031 C 
ATOM     61  C   UNL A   1      40.287  33.032  36.013  1.00  0.00     0.037 A 
BRANCH  48  62
ATOM     62  C   UNL A   1      44.566  28.570  35.881  1.00  0.00     0.058 A 
ATOM     63  C   UNL A   1      45.889  28.993  35.673  1.00  0.00     0.135 A 
ATOM     64  C   UNL A   1      44.350  27.514  36.779  1.00  0.00     0.135 A 
ATOM     65  F   UNL A   1      46.153  29.987  34.811  1.00  0.00    -0.206 F 
ATOM     66  C   UNL A   1      46.959  28.376  36.313  1.00  0.00     0.059 A 
ATOM     67  C   UNL A   1      45.405  26.898  37.450  1.00  0.00     0.059 A 
ATOM     68  F   UNL A   1      43.106  27.068  37.013  1.00  0.00    -0.206 F 
ATOM     69  C   UNL A   1      46.707  27.329  37.201  1.00  0.00     0.060 A 
BRANCH  69  70
ATOM     70  S   UNL A   1      48.107  26.543  38.026  1.00  0.00     0.124 S 
ATOM     71  O   UNL A   1      47.461  25.409  38.681  1.00  0.00    -0.237 OA
ATOM     72  O   UNL A   1      48.983  26.212  36.907  1.00  0.00    -0.237 OA
ATOM     73  O   UNL A   1      48.603  27.584  38.921  1.00  0.00    -0.744 OA
ENDBRANCH  69  70
ENDBRANCH  48  62
BRANCH  49  74
ATOM     74  C   UNL A   1      37.010  32.789  30.919  1.00  0.00     0.058 A 
ATOM     75  C   UNL A   1      35.701  32.316  31.095  1.00  0.00     0.135 A 
ATOM     76  C   UNL A   1      37.205  33.850  30.020  1.00  0.00     0.135 A 
ATOM     77  F   UNL A   1      35.462  31.294  31.931  1.00  0.00    -0.206 F 
ATOM     78  C   UNL A   1      34.629  32.855  30.387  1.00  0.00     0.059 A 
ATOM     79  C   UNL A   1      36.146  34.422  29.322  1.00  0.00     0.059 A 
ATOM     80  F   UNL A   1      38.436  34.344  29.819  1.00  0.00    -0.206 F 
ATOM     81  C   UNL A   1      34.863  33.909  29.502  1.00  0.00     0.060 A 
BRANCH  81  82
ATOM     82  S   UNL A   1      33.464  34.622  28.608  1.00  0.00     0.124 S 
ATOM     83  O   UNL A   1      34.092  35.750  27.932  1.00  0.00    -0.237 OA
ATOM     84  O   UNL A   1      33.049  33.514  27.752  1.00  0.00    -0.237 OA
ATOM     85  O   UNL A   1      32.527  34.965  29.673  1.00  0.00    -0.744 OA
ENDBRANCH  81  82
ENDBRANCH  49  74
BRANCH  61  86
ATOM     86  C   UNL A   1      40.038  34.076  37.071  1.00  0.00     0.058 A 
ATOM     87  C   UNL A   1      39.181  33.840  38.158  1.00  0.00     0.135 A 
ATOM     88  C   UNL A   1      40.688  35.320  37.011  1.00  0.00     0.135 A 
ATOM     89  F   UNL A   1      38.535  32.669  38.267  1.00  0.00    -0.206 F 
ATOM     90  C   UNL A   1      38.943  34.815  39.123  1.00  0.00     0.059 A 
ATOM     91  C   UNL A   1      40.489  36.298  37.981  1.00  0.00     0.059 A 
ATOM     92  F   UNL A   1      41.532  35.594  36.004  1.00  0.00    -0.206 F 
ATOM     93  C   UNL A   1      39.598  36.044  39.023  1.00  0.00     0.060 A 
BRANCH  93  94
ATOM     94  S   UNL A   1      39.283  37.300  40.281  1.00  0.00     0.124 S 
ATOM     95  O   UNL A   1      38.492  38.271  39.534  1.00  0.00    -0.237 OA
ATOM     96  O   UNL A   1      38.563  36.548  41.304  1.00  0.00    -0.237 OA
ATOM     97  O   UNL A   1      40.622  37.741  40.664  1.00  0.00    -0.744 OA
ENDBRANCH  93  94
ENDBRANCH  61  86
ENDBRANCH  35  36
ENDBRANCH  28  30
ENDBRANCH  27  28
ENDBRANCH  26  27
ENDBRANCH  25  26
ENDBRANCH  24  25
ENDBRANCH   1  24
TORSDOF 21
ENDMDL
MODEL 2
REMARK VINA RESULT:     -10.5      1.335      2.059
REMARK SMILES O=C(OCCOCCOCCOC(=O)c1ccc(-c2c3nc(c(-c4c(F)cc(S(=O)(=O)[O-])cc4F)c4ccc([nH]4)c(-c4c(F)cc(S(=O)(=O)[O-])cc4F)c4nc(c(-c5c(F)cc(S(=O)(=O)[O-])cc5F)c5ccc2[nH]5)C=C4)C=C3)cc1)C1=Cc2cc(Cl)ccc2O[C@@H]1C(F)(F)F
REMARK SMILES IDX 8 1 7 2 6 3 5 4 4 5 3 6 2 7 1 8 81 9 82 10 91 11 83 12 90 13
REMARK SMILES IDX 84 14 89 15 85 16 88 17 86 18 87 19 92 20 93 21 94 22 95 23
REMARK SMILES IDX 9 24 10 25 11 26 12 27 13 28 14 29 15 30 16 31 80 32 17 33
REMARK SMILES IDX 79 34 18 35 19 36 20 37 73 38 21 39 78 40 72 41 74 42 22 43
REMARK SMILES IDX 77 44 71 45 70 46 23 48 57 49 36 50 56 51 37 52 40 53 55 54
REMARK SMILES IDX 75 55 38 56 39 57 54 59 76 60 41 61 24 62 25 63 34 64 26 65
REMARK SMILES IDX 27 66 33 67 35 68 28 69 29 70 30 71 31 72 32 73 58 74 59 75
REMARK SMILES IDX 68 76 60 77 61 78 67 79 69 80 62 81 63 82 64 83 65 84 66 85
REMARK SMILES IDX 42 86 43 87 52 88 44 89 45 90 51 91 53 92 46 93 47 94 48 95
REMARK SMILES IDX 49 96 50 97
REMARK H PARENT 74 47 40 58
REMARK Flexibility Score: inf
ROOT
ATOM      1  C   UNL A   1      42.041  20.447  26.513  1.00  0.00     0.188 C 
ENDROOT
BRANCH   1   2
ATOM      2  C   UNL A   1      40.799  21.107  27.103  1.00  0.00     0.188 C 
BRANCH   2   3
ATOM      3  O   UNL A   1      39.935  21.644  26.107  1.00  0.00    -0.376 OA
BRANCH   3   4
ATOM      4  C   UNL A   1      38.849  20.795  25.730  1.00  0.00     0.202 C 
BRANCH   4   5
ATOM      5  C   UNL A   1      37.673  21.547  25.091  1.00  0.00     0.261 C 
BRANCH   5   6
ATOM      6  O   UNL A   1      36.452  20.803  25.266  1.00  0.00    -0.460 OA
BRANCH   6   7
ATOM      7  C   UNL A   1      35.396  21.487  25.746  1.00  0.00     0.338 C 
ATOM      8  O   UNL A   1      35.499  22.586  26.269  1.00  0.00    -0.246 OA
BRANCH   7   9
ATOM      9  C   UNL A   1      34.116  20.729  25.656  1.00  0.00     0.087 C 
ATOM     10  C   UNL A   1      33.142  21.273  26.414  1.00  0.00     0.027 C 
ATOM     11  C   UNL A   1      33.735  20.122  24.320  1.00  0.00     0.316 C 
ATOM     12  C   UNL A   1      32.387  22.254  25.604  1.00  0.00     0.019 A 
ATOM     13  O   UNL A   1      32.706  20.887  23.615  1.00  0.00    -0.475 OA
ATOM     14  C   UNL A   1      31.881  23.419  26.181  1.00  0.00     0.032 A 
ATOM     15  C   UNL A   1      32.243  22.026  24.228  1.00  0.00     0.128 A 
ATOM     16  C   UNL A   1      31.278  24.377  25.365  1.00  0.00     0.041 A 
ATOM     17  C   UNL A   1      31.642  22.989  23.419  1.00  0.00     0.048 A 
ATOM     18  Cl  UNL A   1      30.672  25.829  26.061  1.00  0.00    -0.084 Cl
ATOM     19  C   UNL A   1      31.177  24.177  23.987  1.00  0.00     0.024 A 
BRANCH  11  20
ATOM     20  C   UNL A   1      33.348  18.647  24.421  1.00  0.00     0.430 C 
ATOM     21  F   UNL A   1      34.191  17.873  23.695  1.00  0.00    -0.167 F 
ATOM     22  F   UNL A   1      33.414  18.210  25.700  1.00  0.00    -0.167 F 
ATOM     23  F   UNL A   1      32.094  18.421  23.969  1.00  0.00    -0.167 F 
ENDBRANCH  11  20
ENDBRANCH   7   9
ENDBRANCH   6   7
ENDBRANCH   5   6
ENDBRANCH   4   5
ENDBRANCH   3   4
ENDBRANCH   2   3
ENDBRANCH   1   2
BRANCH   1  24
ATOM     24  O   UNL A   1      42.526  21.162  25.377  1.00  0.00    -0.376 OA
BRANCH  24  25
ATOM     25  C   UNL A   1      43.378  22.260  25.717  1.00  0.00     0.202 C 
BRANCH  25  26
ATOM     26  C   UNL A   1      42.873  23.662  25.317  1.00  0.00     0.261 C 
BRANCH  26  27
ATOM     27  O   UNL A   1      41.928  24.294  26.200  1.00  0.00    -0.460 OA
BRANCH  27  28
ATOM     28  C   UNL A   1      41.746  25.623  26.053  1.00  0.00     0.338 C 
ATOM     29  O   UNL A   1      41.549  26.219  25.011  1.00  0.00    -0.246 OA
BRANCH  28  30
ATOM     30  C   UNL A   1      41.721  26.260  27.389  1.00  0.00     0.060 A 
ATOM     31  C   UNL A   1      40.669  25.964  28.261  1.00  0.00     0.016 A 
ATOM     32  C   UNL A   1      42.665  27.233  27.731  1.00  0.00     0.016 A 
ATOM     33  C   UNL A   1      40.534  26.671  29.460  1.00  0.00     0.010 A 
ATOM     34  C   UNL A   1      42.522  27.950  28.929  1.00  0.00     0.010 A 
ATOM     35  C   UNL A   1      41.431  27.702  29.781  1.00  0.00    -0.014 A 
BRANCH  35  36
ATOM     36  C   UNL A   1      41.094  28.626  30.898  1.00  0.00     0.031 A 
ATOM     37  C   UNL A   1      41.902  28.549  32.170  1.00  0.00     0.074 A 
ATOM     38  C   UNL A   1      40.145  29.572  30.768  1.00  0.00     0.049 A 
ATOM     39  N   UNL A   1      41.864  29.319  33.227  1.00  0.00    -0.248 NA
ATOM     40  C   UNL A   1      42.889  27.461  32.254  1.00  0.00     0.031 C 
ATOM     41  C   UNL A   1      39.296  29.765  29.595  1.00  0.00     0.029 A 
ATOM     42  N   UNL A   1      39.741  30.555  31.640  1.00  0.00    -0.354 N 
ATOM     43  C   UNL A   1      42.843  28.832  34.086  1.00  0.00     0.074 A 
ATOM     44  C   UNL A   1      43.419  27.666  33.451  1.00  0.00     0.031 C 
ATOM     45  C   UNL A   1      38.464  30.797  29.823  1.00  0.00     0.029 A 
ATOM     46  C   UNL A   1      38.717  31.335  31.160  1.00  0.00     0.049 A 
ATOM     47  H   UNL A   1      40.148  30.687  32.527  1.00  0.00     0.167 HD
ATOM     48  C   UNL A   1      43.245  29.321  35.285  1.00  0.00     0.037 A 
ATOM     49  C   UNL A   1      38.057  32.363  31.733  1.00  0.00     0.037 A 
ATOM     50  C   UNL A   1      42.653  30.459  35.939  1.00  0.00     0.049 A 
ATOM     51  C   UNL A   1      38.477  32.851  33.100  1.00  0.00     0.074 A 
ATOM     52  C   UNL A   1      42.983  31.018  37.162  1.00  0.00     0.029 A 
ATOM     53  N   UNL A   1      41.600  31.205  35.432  1.00  0.00    -0.354 N 
ATOM     54  N   UNL A   1      39.436  32.407  33.878  1.00  0.00    -0.248 NA
ATOM     55  C   UNL A   1      37.735  33.992  33.656  1.00  0.00     0.031 C 
ATOM     56  C   UNL A   1      42.103  32.077  37.412  1.00  0.00     0.029 A 
ATOM     57  C   UNL A   1      41.256  32.209  36.323  1.00  0.00     0.049 A 
ATOM     58  H   UNL A   1      41.161  31.045  34.565  1.00  0.00     0.167 HD
ATOM     59  C   UNL A   1      39.427  33.231  35.002  1.00  0.00     0.074 A 
ATOM     60  C   UNL A   1      38.382  34.210  34.793  1.00  0.00     0.031 C 
ATOM     61  C   UNL A   1      40.214  33.181  36.107  1.00  0.00     0.037 A 
BRANCH  48  62
ATOM     62  C   UNL A   1      44.385  28.617  35.970  1.00  0.00     0.058 A 
ATOM     63  C   UNL A   1      44.160  27.524  36.823  1.00  0.00     0.135 A 
ATOM     64  C   UNL A   1      45.713  29.011  35.748  1.00  0.00     0.135 A 
ATOM     65  F   UNL A   1      42.907  27.116  37.083  1.00  0.00    -0.206 F 
ATOM     66  C   UNL A   1      45.210  26.863  37.451  1.00  0.00     0.059 A 
ATOM     67  C   UNL A   1      46.782  28.348  36.348  1.00  0.00     0.059 A 
ATOM     68  F   UNL A   1      45.985  30.051  34.944  1.00  0.00    -0.206 F 
ATOM     69  C   UNL A   1      46.519  27.282  37.207  1.00  0.00     0.060 A 
BRANCH  69  70
ATOM     70  S   UNL A   1      47.870  26.410  38.027  1.00  0.00     0.124 S 
ATOM     71  O   UNL A   1      47.698  26.839  39.411  1.00  0.00    -0.237 OA
ATOM     72  O   UNL A   1      47.550  25.012  37.753  1.00  0.00    -0.237 OA
ATOM     73  O   UNL A   1      49.062  26.921  37.355  1.00  0.00    -0.744 OA
ENDBRANCH  69  70
ENDBRANCH  48  62
BRANCH  49  74
ATOM     74  C   UNL A   1      36.915  33.006  31.024  1.00  0.00     0.058 A 
ATOM     75  C   UNL A   1      35.588  32.795  31.427  1.00  0.00     0.135 A 
ATOM     76  C   UNL A   1      37.134  33.823  29.904  1.00  0.00     0.135 A 
ATOM     77  F   UNL A   1      35.323  32.010  32.482  1.00  0.00    -0.206 F 
ATOM     78  C   UNL A   1      34.517  33.350  30.730  1.00  0.00     0.059 A 
ATOM     79  C   UNL A   1      36.083  34.411  29.208  1.00  0.00     0.059 A 
ATOM     80  F   UNL A   1      38.385  34.063  29.480  1.00  0.00    -0.206 F 
ATOM     81  C   UNL A   1      34.776  34.157  29.620  1.00  0.00     0.060 A 
BRANCH  81  82
ATOM     82  S   UNL A   1      33.383  34.896  28.738  1.00  0.00     0.124 S 
ATOM     83  O   UNL A   1      32.400  35.036  29.806  1.00  0.00    -0.237 OA
ATOM     84  O   UNL A   1      33.963  36.139  28.237  1.00  0.00    -0.237 OA
ATOM     85  O   UNL A   1      33.069  33.903  27.716  1.00  0.00    -0.744 OA
ENDBRANCH  81  82
ENDBRANCH  49  74
BRANCH  61  86
ATOM     86  C   UNL A   1      39.995  34.232  37.163  1.00  0.00     0.058 A 
ATOM     87  C   UNL A   1      40.653  35.472  37.124  1.00  0.00     0.135 A 
ATOM     88  C   UNL A   1      39.092  34.007  38.216  1.00  0.00     0.135 A 
ATOM     89  F   UNL A   1      41.526  35.742  36.141  1.00  0.00    -0.206 F 
ATOM     90  C   UNL A   1      40.458  36.433  38.112  1.00  0.00     0.059 A 
ATOM     91  C   UNL A   1      38.858  34.965  39.199  1.00  0.00     0.059 A 
ATOM     92  F   UNL A   1      38.420  32.847  38.295  1.00  0.00    -0.206 F 
ATOM     93  C   UNL A   1      39.562  36.168  39.149  1.00  0.00     0.060 A 
BRANCH  93  94
ATOM     94  S   UNL A   1      39.315  37.422  40.425  1.00  0.00     0.124 S 
ATOM     95  O   UNL A   1      38.870  36.610  41.552  1.00  0.00    -0.237 OA
ATOM     96  O   UNL A   1      40.646  38.008  40.552  1.00  0.00    -0.237 OA
ATOM     97  O   UNL A   1      38.304  38.302  39.846  1.00  0.00    -0.744 OA
ENDBRANCH  93  94
ENDBRANCH  61  86
ENDBRANCH  35  36
ENDBRANCH  28  30
ENDBRANCH  27  28
ENDBRANCH  26  27
ENDBRANCH  25  26
ENDBRANCH  24  25
ENDBRANCH   1  24
TORSDOF 21
ENDMDL
MODEL 3
REMARK VINA RESULT:     -10.4      1.676      2.750
REMARK SMILES O=C(OCCOCCOCCOC(=O)c1ccc(-c2c3nc(c(-c4c(F)cc(S(=O)(=O)[O-])cc4F)c4ccc([nH]4)c(-c4c(F)cc(S(=O)(=O)[O-])cc4F)c4nc(c(-c5c(F)cc(S(=O)(=O)[O-])cc5F)c5ccc2[nH]5)C=C4)C=C3)cc1)C1=Cc2cc(Cl)ccc2O[C@@H]1C(F)(F)F
REMARK SMILES IDX 8 1 7 2 6 3 5 4 4 5 3 6 2 7 1 8 81 9 82 10 91 11 83 12 90 13
REMARK SMILES IDX 84 14 89 15 85 16 88 17 86 18 87 19 92 20 93 21 94 22 95 23
REMARK SMILES IDX 9 24 10 25 11 26 12 27 13 28 14 29 15 30 16 31 80 32 17 33
REMARK SMILES IDX 79 34 18 35 19 36 20 37 73 38 21 39 78 40 72 41 74 42 22 43
REMARK SMILES IDX 77 44 71 45 70 46 23 48 57 49 36 50 56 51 37 52 40 53 55 54
REMARK SMILES IDX 75 55 38 56 39 57 54 59 76 60 41 61 24 62 25 63 34 64 26 65
REMARK SMILES IDX 27 66 33 67 35 68 28 69 29 70 30 71 31 72 32 73 58 74 59 75
REMARK SMILES IDX 68 76 60 77 61 78 67 79 69 80 62 81 63 82 64 83 65 84 66 85
REMARK SMILES IDX 42 86 43 87 52 88 44 89 45 90 51 91 53 92 46 93 47 94 48 95
REMARK SMILES IDX 49 96 50 97
REMARK H PARENT 74 47 40 58
REMARK Flexibility Score: inf
ROOT
ATOM      1  C   UNL A   1      42.098  20.914  26.654  1.00  0.00     0.188 C 
ENDROOT
BRANCH   1   2
ATOM      2  C   UNL A   1      40.588  20.729  26.766  1.00  0.00     0.188 C 
BRANCH   2   3
ATOM      3  O   UNL A   1      39.858  21.712  26.038  1.00  0.00    -0.376 OA
BRANCH   3   4
ATOM      4  C   UNL A   1      38.560  21.301  25.605  1.00  0.00     0.202 C 
BRANCH   4   5
ATOM      5  C   UNL A   1      37.634  22.470  25.240  1.00  0.00     0.261 C 
BRANCH   5   6
ATOM      6  O   UNL A   1      36.555  22.007  24.405  1.00  0.00    -0.460 OA
BRANCH   6   7
ATOM      7  C   UNL A   1      36.050  22.898  23.529  1.00  0.00     0.338 C 
ATOM      8  O   UNL A   1      36.686  23.327  22.579  1.00  0.00    -0.246 OA
BRANCH   7   9
ATOM      9  C   UNL A   1      34.683  23.366  23.891  1.00  0.00     0.087 C 
ATOM     10  C   UNL A   1      33.721  22.747  23.176  1.00  0.00     0.027 C 
ATOM     11  C   UNL A   1      34.400  23.700  25.342  1.00  0.00     0.316 C 
ATOM     12  C   UNL A   1      33.282  21.536  23.903  1.00  0.00     0.019 A 
ATOM     13  O   UNL A   1      33.640  22.658  26.032  1.00  0.00    -0.475 OA
ATOM     14  C   UNL A   1      32.913  20.381  23.210  1.00  0.00     0.032 A 
ATOM     15  C   UNL A   1      33.303  21.543  25.304  1.00  0.00     0.128 A 
ATOM     16  C   UNL A   1      32.618  19.222  23.927  1.00  0.00     0.041 A 
ATOM     17  C   UNL A   1      33.010  20.379  26.014  1.00  0.00     0.048 A 
ATOM     18  Cl  UNL A   1      32.185  17.785  23.085  1.00  0.00    -0.084 Cl
ATOM     19  C   UNL A   1      32.686  19.210  25.322  1.00  0.00     0.024 A 
BRANCH  11  20
ATOM     20  C   UNL A   1      33.745  25.069  25.526  1.00  0.00     0.430 C 
ATOM     21  F   UNL A   1      34.663  26.004  25.870  1.00  0.00    -0.167 F 
ATOM     22  F   UNL A   1      33.163  25.491  24.379  1.00  0.00    -0.167 F 
ATOM     23  F   UNL A   1      32.798  25.051  26.490  1.00  0.00    -0.167 F 
ENDBRANCH  11  20
ENDBRANCH   7   9
ENDBRANCH   6   7
ENDBRANCH   5   6
ENDBRANCH   4   5
ENDBRANCH   3   4
ENDBRANCH   2   3
ENDBRANCH   1   2
BRANCH   1  24
ATOM     24  O   UNL A   1      42.478  21.357  25.352  1.00  0.00    -0.376 OA
BRANCH  24  25
ATOM     25  C   UNL A   1      43.385  22.464  25.369  1.00  0.00     0.202 C 
BRANCH  25  26
ATOM     26  C   UNL A   1      43.035  23.615  26.335  1.00  0.00     0.261 C 
BRANCH  26  27
ATOM     27  O   UNL A   1      41.780  24.289  26.123  1.00  0.00    -0.460 OA
BRANCH  27  28
ATOM     28  C   UNL A   1      41.823  25.628  25.962  1.00  0.00     0.338 C 
ATOM     29  O   UNL A   1      41.808  26.233  24.907  1.00  0.00    -0.246 OA
BRANCH  28  30
ATOM     30  C   UNL A   1      41.791  26.278  27.291  1.00  0.00     0.060 A 
ATOM     31  C   UNL A   1      40.729  25.999  28.156  1.00  0.00     0.016 A 
ATOM     32  C   UNL A   1      42.740  27.246  27.633  1.00  0.00     0.016 A 
ATOM     33  C   UNL A   1      40.589  26.719  29.346  1.00  0.00     0.010 A 
ATOM     34  C   UNL A   1      42.592  27.976  28.822  1.00  0.00     0.010 A 
ATOM     35  C   UNL A   1      41.491  27.745  29.666  1.00  0.00    -0.014 A 
BRANCH  35  36
ATOM     36  C   UNL A   1      41.152  28.683  30.771  1.00  0.00     0.031 A 
ATOM     37  C   UNL A   1      41.982  28.649  32.030  1.00  0.00     0.074 A 
ATOM     38  C   UNL A   1      40.180  29.605  30.639  1.00  0.00     0.049 A 
ATOM     39  N   UNL A   1      41.944  29.438  33.074  1.00  0.00    -0.248 NA
ATOM     40  C   UNL A   1      42.995  27.585  32.119  1.00  0.00     0.031 C 
ATOM     41  C   UNL A   1      39.308  29.756  29.477  1.00  0.00     0.029 A 
ATOM     42  N   UNL A   1      39.768  30.595  31.499  1.00  0.00    -0.354 N 
ATOM     43  C   UNL A   1      42.948  28.989  33.925  1.00  0.00     0.074 A 
ATOM     44  C   UNL A   1      43.539  27.825  33.303  1.00  0.00     0.031 C 
ATOM     45  C   UNL A   1      38.456  30.774  29.699  1.00  0.00     0.029 A 
ATOM     46  C   UNL A   1      38.718  31.343  31.021  1.00  0.00     0.049 A 
ATOM     47  H   UNL A   1      40.185  30.753  32.376  1.00  0.00     0.167 HD
ATOM     48  C   UNL A   1      43.358  29.510  35.107  1.00  0.00     0.037 A 
ATOM     49  C   UNL A   1      38.045  32.367  31.586  1.00  0.00     0.037 A 
ATOM     50  C   UNL A   1      42.751  30.647  35.750  1.00  0.00     0.049 A 
ATOM     51  C   UNL A   1      38.476  32.890  32.936  1.00  0.00     0.074 A 
ATOM     52  C   UNL A   1      43.089  31.237  36.956  1.00  0.00     0.029 A 
ATOM     53  N   UNL A   1      41.673  31.360  35.246  1.00  0.00    -0.354 N 
ATOM     54  N   UNL A   1      39.457  32.483  33.706  1.00  0.00    -0.248 NA
ATOM     55  C   UNL A   1      37.718  34.025  33.483  1.00  0.00     0.031 C 
ATOM     56  C   UNL A   1      42.188  32.280  37.201  1.00  0.00     0.029 A 
ATOM     57  C   UNL A   1      41.321  32.373  36.124  1.00  0.00     0.049 A 
ATOM     58  H   UNL A   1      41.223  31.173  34.390  1.00  0.00     0.167 HD
ATOM     59  C   UNL A   1      39.448  33.328  34.814  1.00  0.00     0.074 A 
ATOM     60  C   UNL A   1      38.378  34.279  34.604  1.00  0.00     0.031 C 
ATOM     61  C   UNL A   1      40.254  33.317  35.907  1.00  0.00     0.037 A 
BRANCH  48  62
ATOM     62  C   UNL A   1      44.524  28.845  35.786  1.00  0.00     0.058 A 
ATOM     63  C   UNL A   1      44.336  27.779  36.682  1.00  0.00     0.135 A 
ATOM     64  C   UNL A   1      45.841  29.249  35.517  1.00  0.00     0.135 A 
ATOM     65  F   UNL A   1      43.096  27.365  36.988  1.00  0.00    -0.206 F 
ATOM     66  C   UNL A   1      45.411  27.154  37.305  1.00  0.00     0.059 A 
ATOM     67  C   UNL A   1      46.933  28.620  36.111  1.00  0.00     0.059 A 
ATOM     68  F   UNL A   1      46.077  30.263  34.670  1.00  0.00    -0.206 F 
ATOM     69  C   UNL A   1      46.707  27.582  37.013  1.00  0.00     0.060 A 
BRANCH  69  70
ATOM     70  S   UNL A   1      48.091  26.756  37.826  1.00  0.00     0.124 S 
ATOM     71  O   UNL A   1      48.180  25.515  37.063  1.00  0.00    -0.237 OA
ATOM     72  O   UNL A   1      49.182  27.704  37.623  1.00  0.00    -0.237 OA
ATOM     73  O   UNL A   1      47.638  26.613  39.207  1.00  0.00    -0.744 OA
ENDBRANCH  69  70
ENDBRANCH  48  62
BRANCH  49  74
ATOM     74  C   UNL A   1      36.877  32.971  30.884  1.00  0.00     0.058 A 
ATOM     75  C   UNL A   1      37.043  33.864  29.816  1.00  0.00     0.135 A 
ATOM     76  C   UNL A   1      35.566  32.684  31.297  1.00  0.00     0.135 A 
ATOM     77  F   UNL A   1      38.276  34.184  29.392  1.00  0.00    -0.206 F 
ATOM     78  C   UNL A   1      35.953  34.472  29.197  1.00  0.00     0.059 A 
ATOM     79  C   UNL A   1      34.461  33.257  30.677  1.00  0.00     0.059 A 
ATOM     80  F   UNL A   1      35.351  31.831  32.310  1.00  0.00    -0.206 F 
ATOM     81  C   UNL A   1      34.665  34.162  29.636  1.00  0.00     0.060 A 
BRANCH  81  82
ATOM     82  S   UNL A   1      33.255  34.932  28.810  1.00  0.00     0.124 S 
ATOM     83  O   UNL A   1      33.870  36.114  28.218  1.00  0.00    -0.237 OA
ATOM     84  O   UNL A   1      32.841  33.891  27.874  1.00  0.00    -0.237 OA
ATOM     85  O   UNL A   1      32.324  35.186  29.905  1.00  0.00    -0.744 OA
ENDBRANCH  81  82
ENDBRANCH  49  74
BRANCH  61  86
ATOM     86  C   UNL A   1      40.028  34.383  36.947  1.00  0.00     0.058 A 
ATOM     87  C   UNL A   1      40.692  35.620  36.898  1.00  0.00     0.135 A 
ATOM     88  C   UNL A   1      39.114  34.176  37.994  1.00  0.00     0.135 A 
ATOM     89  F   UNL A   1      41.576  35.873  35.920  1.00  0.00    -0.206 F 
ATOM     90  C   UNL A   1      40.491  36.595  37.871  1.00  0.00     0.059 A 
ATOM     91  C   UNL A   1      38.874  35.148  38.960  1.00  0.00     0.059 A 
ATOM     92  F   UNL A   1      38.437  33.020  38.081  1.00  0.00    -0.206 F 
ATOM     93  C   UNL A   1      39.583  36.347  38.902  1.00  0.00     0.060 A 
BRANCH  93  94
ATOM     94  S   UNL A   1      39.329  37.619  40.158  1.00  0.00     0.124 S 
ATOM     95  O   UNL A   1      40.622  38.294  40.159  1.00  0.00    -0.237 OA
ATOM     96  O   UNL A   1      38.214  38.385  39.610  1.00  0.00    -0.237 OA
ATOM     97  O   UNL A   1      39.020  36.851  41.361  1.00  0.00    -0.744 OA
ENDBRANCH  93  94
ENDBRANCH  61  86
ENDBRANCH  35  36
ENDBRANCH  28  30
ENDBRANCH  27  28
ENDBRANCH  26  27
ENDBRANCH  25  26
ENDBRANCH  24  25
ENDBRANCH   1  24
TORSDOF 21
ENDMDL
