MODEL 1
REMARK VINA RESULT:     -10.8      0.000      0.000
REMARK SMILES O=C(OCCOCCOCCOC(=O)c1cc(Br)n(Cc2ccn(C3CCCC3)n2)c1)c1ccc(-c2c3nc(c(-c4c(F)cc(S(=O)(=O)[O-])cc4F)c4ccc([nH]4)c(-c4c(F)cc(S(=O)(=O)[O-])cc4F)c4nc(c(-c5c(F)cc(S(=O)(=O)[O-])cc5F)c5ccc2[nH]5)C=C4)C=C3)cc1
REMARK SMILES IDX 7 1 6 2 5 3 4 4 3 5 2 6 1 7 32 8 33 9 97 10 34 11 96 12
REMARK SMILES IDX 35 13 36 14 37 15 90 16 38 17 95 18 89 19 91 20 39 21 94 22
REMARK SMILES IDX 88 23 87 24 40 26 74 27 53 28 73 29 54 30 57 31 72 32 92 33
REMARK SMILES IDX 55 34 56 35 71 37 93 38 58 39 41 40 42 41 51 42 43 43 44 44
REMARK SMILES IDX 50 45 52 46 45 47 46 48 47 49 48 50 49 51 75 52 76 53 85 54
REMARK SMILES IDX 77 55 78 56 84 57 86 58 79 59 80 60 81 61 82 62 83 63 59 64
REMARK SMILES IDX 60 65 69 66 61 67 62 68 68 69 70 70 63 71 64 72 65 73 66 74
REMARK SMILES IDX 67 75 8 76 9 77 10 78 11 79 12 80 13 81 14 82 15 83 16 84
REMARK SMILES IDX 31 85 17 86 19 87 18 88 20 89 21 90 22 91 30 92 23 93 24 94
REMARK SMILES IDX 25 95 26 96 29 97 27 98 28 99
REMARK H PARENT 91 25 57 36
REMARK Flexibility Score: inf
ROOT
ATOM      1  C   UNL A   1      41.300  21.806  26.106  1.00  0.00     0.188 C 
ENDROOT
BRANCH   1   2
ATOM      2  O   UNL A   1      42.077  20.953  26.939  1.00  0.00    -0.376 OA
BRANCH   2   3
ATOM      3  C   UNL A   1      41.951  19.564  26.677  1.00  0.00     0.202 C 
BRANCH   3   4
ATOM      4  C   UNL A   1      43.154  19.032  25.903  1.00  0.00     0.261 C 
BRANCH   4   5
ATOM      5  O   UNL A   1      43.349  19.588  24.587  1.00  0.00    -0.460 OA
BRANCH   5   6
ATOM      6  C   UNL A   1      44.313  20.373  24.069  1.00  0.00     0.338 C 
ATOM      7  O   UNL A   1      44.881  20.007  23.041  1.00  0.00    -0.246 OA
BRANCH   6   8
ATOM      8  C   UNL A   1      44.780  21.629  24.713  1.00  0.00     0.060 A 
ATOM      9  C   UNL A   1      45.601  21.683  25.843  1.00  0.00     0.016 A 
ATOM     10  C   UNL A   1      44.239  22.825  24.208  1.00  0.00     0.016 A 
ATOM     11  C   UNL A   1      45.843  22.900  26.486  1.00  0.00     0.010 A 
ATOM     12  C   UNL A   1      44.471  24.039  24.851  1.00  0.00     0.010 A 
ATOM     13  C   UNL A   1      45.233  24.068  26.027  1.00  0.00    -0.014 A 
BRANCH  13  14
ATOM     14  C   UNL A   1      45.167  25.246  26.910  1.00  0.00     0.031 A 
ATOM     15  C   UNL A   1      46.324  26.206  27.029  1.00  0.00     0.074 A 
ATOM     16  C   UNL A   1      43.982  25.481  27.516  1.00  0.00     0.049 A 
ATOM     17  N   UNL A   1      46.318  27.410  27.537  1.00  0.00    -0.248 NA
ATOM     18  C   UNL A   1      47.628  25.826  26.462  1.00  0.00     0.031 C 
ATOM     19  C   UNL A   1      42.727  24.732  27.354  1.00  0.00     0.029 A 
ATOM     20  N   UNL A   1      43.627  26.500  28.349  1.00  0.00    -0.354 N 
ATOM     21  C   UNL A   1      47.555  27.989  27.249  1.00  0.00     0.074 A 
ATOM     22  C   UNL A   1      48.346  26.935  26.642  1.00  0.00     0.031 C 
ATOM     23  C   UNL A   1      41.718  25.422  27.922  1.00  0.00     0.029 A 
ATOM     24  C   UNL A   1      42.260  26.605  28.563  1.00  0.00     0.049 A 
ATOM     25  H   UNL A   1      44.283  27.107  28.761  1.00  0.00     0.167 HD
ATOM     26  C   UNL A   1      48.174  28.920  28.022  1.00  0.00     0.037 A 
ATOM     27  C   UNL A   1      41.603  27.620  29.172  1.00  0.00     0.037 A 
ATOM     28  C   UNL A   1      48.213  28.579  29.408  1.00  0.00     0.049 A 
ATOM     29  C   UNL A   1      42.597  28.387  29.962  1.00  0.00     0.074 A 
ATOM     30  C   UNL A   1      48.876  27.629  30.154  1.00  0.00     0.029 A 
ATOM     31  N   UNL A   1      47.269  29.129  30.240  1.00  0.00    -0.354 N 
ATOM     32  N   UNL A   1      43.195  27.954  31.039  1.00  0.00    -0.248 NA
ATOM     33  C   UNL A   1      43.185  29.572  29.357  1.00  0.00     0.031 C 
ATOM     34  C   UNL A   1      48.025  27.357  31.260  1.00  0.00     0.029 A 
ATOM     35  C   UNL A   1      46.887  28.154  31.124  1.00  0.00     0.049 A 
ATOM     36  H   UNL A   1      46.931  30.054  30.207  1.00  0.00     0.167 HD
ATOM     37  C   UNL A   1      44.438  28.564  31.024  1.00  0.00     0.074 A 
ATOM     38  C   UNL A   1      44.318  29.649  30.059  1.00  0.00     0.031 C 
ATOM     39  C   UNL A   1      45.528  27.967  31.589  1.00  0.00     0.037 A 
BRANCH  26  40
ATOM     40  C   UNL A   1      48.134  30.341  27.564  1.00  0.00     0.058 A 
ATOM     41  C   UNL A   1      46.923  30.882  27.102  1.00  0.00     0.135 A 
ATOM     42  C   UNL A   1      49.276  31.158  27.478  1.00  0.00     0.135 A 
ATOM     43  F   UNL A   1      45.798  30.150  27.151  1.00  0.00    -0.206 F 
ATOM     44  C   UNL A   1      46.842  32.174  26.585  1.00  0.00     0.059 A 
ATOM     45  C   UNL A   1      49.217  32.456  26.975  1.00  0.00     0.059 A 
ATOM     46  F   UNL A   1      50.478  30.695  27.849  1.00  0.00    -0.206 F 
ATOM     47  C   UNL A   1      47.998  32.951  26.521  1.00  0.00     0.060 A 
BRANCH  47  48
ATOM     48  S   UNL A   1      47.913  34.636  25.877  1.00  0.00     0.124 S 
ATOM     49  O   UNL A   1      48.001  35.421  27.102  1.00  0.00    -0.237 OA
ATOM     50  O   UNL A   1      49.074  34.706  24.994  1.00  0.00    -0.237 OA
ATOM     51  O   UNL A   1      46.622  34.650  25.197  1.00  0.00    -0.744 OA
ENDBRANCH  47  48
ENDBRANCH  26  40
BRANCH  27  52
ATOM     52  C   UNL A   1      40.208  28.085  28.974  1.00  0.00     0.058 A 
ATOM     53  C   UNL A   1      39.307  28.135  30.050  1.00  0.00     0.135 A 
ATOM     54  C   UNL A   1      39.790  28.718  27.785  1.00  0.00     0.135 A 
ATOM     55  F   UNL A   1      39.628  27.581  31.230  1.00  0.00    -0.206 F 
ATOM     56  C   UNL A   1      38.085  28.808  29.969  1.00  0.00     0.059 A 
ATOM     57  C   UNL A   1      38.567  29.375  27.672  1.00  0.00     0.059 A 
ATOM     58  F   UNL A   1      40.600  28.795  26.717  1.00  0.00    -0.206 F 
ATOM     59  C   UNL A   1      37.732  29.441  28.779  1.00  0.00     0.060 A 
BRANCH  59  60
ATOM     60  S   UNL A   1      36.237  30.454  28.731  1.00  0.00     0.124 S 
ATOM     61  O   UNL A   1      36.744  31.716  28.205  1.00  0.00    -0.237 OA
ATOM     62  O   UNL A   1      35.377  29.687  27.836  1.00  0.00    -0.237 OA
ATOM     63  O   UNL A   1      35.804  30.487  30.126  1.00  0.00    -0.744 OA
ENDBRANCH  59  60
ENDBRANCH  27  52
BRANCH  39  64
ATOM     64  C   UNL A   1      45.308  26.811  32.531  1.00  0.00     0.058 A 
ATOM     65  C   UNL A   1      45.028  26.972  33.898  1.00  0.00     0.135 A 
ATOM     66  C   UNL A   1      45.157  25.524  31.990  1.00  0.00     0.135 A 
ATOM     67  F   UNL A   1      45.037  28.185  34.465  1.00  0.00    -0.206 F 
ATOM     68  C   UNL A   1      44.630  25.900  34.696  1.00  0.00     0.059 A 
ATOM     69  C   UNL A   1      44.724  24.446  32.761  1.00  0.00     0.059 A 
ATOM     70  F   UNL A   1      45.344  25.319  30.675  1.00  0.00    -0.206 F 
ATOM     71  C   UNL A   1      44.465  24.644  34.117  1.00  0.00     0.060 A 
BRANCH  71  72
ATOM     72  S   UNL A   1      43.762  23.304  35.104  1.00  0.00     0.124 S 
ATOM     73  O   UNL A   1      44.496  23.431  36.358  1.00  0.00    -0.237 OA
ATOM     74  O   UNL A   1      42.344  23.652  35.162  1.00  0.00    -0.237 OA
ATOM     75  O   UNL A   1      44.063  22.113  34.315  1.00  0.00    -0.744 OA
ENDBRANCH  71  72
ENDBRANCH  39  64
ENDBRANCH  13  14
ENDBRANCH   6   8
ENDBRANCH   5   6
ENDBRANCH   4   5
ENDBRANCH   3   4
ENDBRANCH   2   3
ENDBRANCH   1   2
BRANCH   1  76
ATOM     76  C   UNL A   1      39.825  21.945  26.540  1.00  0.00     0.188 C 
BRANCH  76  77
ATOM     77  O   UNL A   1      38.733  21.439  25.770  1.00  0.00    -0.376 OA
BRANCH  77  78
ATOM     78  C   UNL A   1      37.665  22.301  25.424  1.00  0.00     0.202 C 
BRANCH  78  79
ATOM     79  C   UNL A   1      36.301  21.670  25.700  1.00  0.00     0.261 C 
BRANCH  79  80
ATOM     80  O   UNL A   1      35.531  21.459  24.504  1.00  0.00    -0.460 OA
BRANCH  80  81
ATOM     81  C   UNL A   1      34.469  20.620  24.614  1.00  0.00     0.339 C 
ATOM     82  O   UNL A   1      34.537  19.390  24.585  1.00  0.00    -0.246 OA
BRANCH  81  83
ATOM     83  C   UNL A   1      33.188  21.308  24.652  1.00  0.00     0.078 A 
ATOM     84  C   UNL A   1      32.390  21.493  25.815  1.00  0.00     0.051 A 
ATOM     85  C   UNL A   1      32.561  22.018  23.635  1.00  0.00     0.102 A 
ATOM     86  C   UNL A   1      31.381  22.372  25.502  1.00  0.00     0.086 A 
ATOM     87  N   UNL A   1      31.466  22.682  24.167  1.00  0.00    -0.335 N 
ATOM     88  Br  UNL A   1      30.204  23.064  26.780  1.00  0.00    -0.031 Br
BRANCH  87  89
ATOM     89  C   UNL A   1      30.727  23.742  23.477  1.00  0.00     0.180 C 
BRANCH  89  90
ATOM     90  C   UNL A   1      31.409  25.072  23.466  1.00  0.00     0.082 A 
ATOM     91  C   UNL A   1      32.058  25.762  22.412  1.00  0.00     0.047 A 
ATOM     92  N   UNL A   1      31.389  25.819  24.582  1.00  0.00    -0.176 NA
ATOM     93  C   UNL A   1      32.441  26.969  22.944  1.00  0.00     0.109 A 
ATOM     94  N   UNL A   1      32.055  26.946  24.252  1.00  0.00    -0.269 N 
BRANCH  94  95
ATOM     95  C   UNL A   1      32.449  27.899  25.268  1.00  0.00     0.107 C 
ATOM     96  C   UNL A   1      31.917  29.321  25.107  1.00  0.00     0.027 C 
ATOM     97  C   UNL A   1      32.016  27.475  26.675  1.00  0.00     0.027 C 
ATOM     98  C   UNL A   1      32.106  29.890  26.507  1.00  0.00     0.002 C 
ATOM     99  C   UNL A   1      31.639  28.758  27.409  1.00  0.00     0.002 C 
ENDBRANCH  94  95
ENDBRANCH  89  90
ENDBRANCH  87  89
ENDBRANCH  81  83
ENDBRANCH  80  81
ENDBRANCH  79  80
ENDBRANCH  78  79
ENDBRANCH  77  78
ENDBRANCH  76  77
ENDBRANCH   1  76
TORSDOF 23
ENDMDL
MODEL 2
REMARK VINA RESULT:      -9.8      2.897      9.770
REMARK SMILES O=C(OCCOCCOCCOC(=O)c1cc(Br)n(Cc2ccn(C3CCCC3)n2)c1)c1ccc(-c2c3nc(c(-c4c(F)cc(S(=O)(=O)[O-])cc4F)c4ccc([nH]4)c(-c4c(F)cc(S(=O)(=O)[O-])cc4F)c4nc(c(-c5c(F)cc(S(=O)(=O)[O-])cc5F)c5ccc2[nH]5)C=C4)C=C3)cc1
REMARK SMILES IDX 7 1 6 2 5 3 4 4 3 5 2 6 1 7 32 8 33 9 97 10 34 11 96 12
REMARK SMILES IDX 35 13 36 14 37 15 90 16 38 17 95 18 89 19 91 20 39 21 94 22
REMARK SMILES IDX 88 23 87 24 40 26 74 27 53 28 73 29 54 30 57 31 72 32 92 33
REMARK SMILES IDX 55 34 56 35 71 37 93 38 58 39 41 40 42 41 51 42 43 43 44 44
REMARK SMILES IDX 50 45 52 46 45 47 46 48 47 49 48 50 49 51 75 52 76 53 85 54
REMARK SMILES IDX 77 55 78 56 84 57 86 58 79 59 80 60 81 61 82 62 83 63 59 64
REMARK SMILES IDX 60 65 69 66 61 67 62 68 68 69 70 70 63 71 64 72 65 73 66 74
REMARK SMILES IDX 67 75 8 76 9 77 10 78 11 79 12 80 13 81 14 82 15 83 16 84
REMARK SMILES IDX 31 85 17 86 19 87 18 88 20 89 21 90 22 91 30 92 23 93 24 94
REMARK SMILES IDX 25 95 26 96 29 97 27 98 28 99
REMARK H PARENT 91 25 57 36
REMARK Flexibility Score: inf
ROOT
ATOM      1  C   UNL A   1      33.919  31.476  27.475  1.00  0.00     0.188 C 
ENDROOT
BRANCH   1   2
ATOM      2  O   UNL A   1      35.072  32.310  27.516  1.00  0.00    -0.376 OA
BRANCH   2   3
ATOM      3  C   UNL A   1      34.868  33.606  28.058  1.00  0.00     0.202 C 
BRANCH   3   4
ATOM      4  C   UNL A   1      34.065  33.547  29.353  1.00  0.00     0.261 C 
BRANCH   4   5
ATOM      5  O   UNL A   1      34.349  32.428  30.218  1.00  0.00    -0.460 OA
BRANCH   5   6
ATOM      6  C   UNL A   1      35.366  32.173  31.063  1.00  0.00     0.338 C 
ATOM      7  O   UNL A   1      35.306  32.616  32.209  1.00  0.00    -0.246 OA
BRANCH   6   8
ATOM      8  C   UNL A   1      36.597  31.440  30.664  1.00  0.00     0.060 A 
ATOM      9  C   UNL A   1      36.851  30.097  30.959  1.00  0.00     0.016 A 
ATOM     10  C   UNL A   1      37.611  32.208  30.063  1.00  0.00     0.016 A 
ATOM     11  C   UNL A   1      38.106  29.540  30.703  1.00  0.00     0.010 A 
ATOM     12  C   UNL A   1      38.867  31.658  29.814  1.00  0.00     0.010 A 
ATOM     13  C   UNL A   1      39.132  30.334  30.185  1.00  0.00    -0.014 A 
BRANCH  13  14
ATOM     14  C   UNL A   1      40.527  29.869  30.285  1.00  0.00     0.031 A 
ATOM     15  C   UNL A   1      41.332  30.058  31.546  1.00  0.00     0.074 A 
ATOM     16  C   UNL A   1      41.006  29.166  29.234  1.00  0.00     0.049 A 
ATOM     17  N   UNL A   1      42.451  29.472  31.878  1.00  0.00    -0.248 NA
ATOM     18  C   UNL A   1      40.812  30.947  32.597  1.00  0.00     0.031 C 
ATOM     19  C   UNL A   1      40.280  28.759  28.021  1.00  0.00     0.029 A 
ATOM     20  N   UNL A   1      42.231  28.593  29.066  1.00  0.00    -0.354 N 
ATOM     21  C   UNL A   1      42.716  29.803  33.208  1.00  0.00     0.074 A 
ATOM     22  C   UNL A   1      41.701  30.774  33.576  1.00  0.00     0.031 C 
ATOM     23  C   UNL A   1      41.021  27.865  27.336  1.00  0.00     0.029 A 
ATOM     24  C   UNL A   1      42.299  27.705  28.002  1.00  0.00     0.049 A 
ATOM     25  H   UNL A   1      42.999  28.793  29.649  1.00  0.00     0.167 HD
ATOM     26  C   UNL A   1      43.958  29.907  33.749  1.00  0.00     0.037 A 
ATOM     27  C   UNL A   1      43.308  26.849  27.715  1.00  0.00     0.037 A 
ATOM     28  C   UNL A   1      44.862  30.685  32.962  1.00  0.00     0.049 A 
ATOM     29  C   UNL A   1      44.512  27.313  28.447  1.00  0.00     0.074 A 
ATOM     30  C   UNL A   1      44.969  32.022  32.648  1.00  0.00     0.029 A 
ATOM     31  N   UNL A   1      45.737  30.025  32.135  1.00  0.00    -0.354 N 
ATOM     32  N   UNL A   1      45.182  28.399  28.176  1.00  0.00    -0.248 NA
ATOM     33  C   UNL A   1      44.807  26.704  29.735  1.00  0.00     0.031 C 
ATOM     34  C   UNL A   1      45.584  32.060  31.367  1.00  0.00     0.029 A 
ATOM     35  C   UNL A   1      45.813  30.742  30.969  1.00  0.00     0.049 A 
ATOM     36  H   UNL A   1      46.220  29.192  32.342  1.00  0.00     0.167 HD
ATOM     37  C   UNL A   1      45.683  28.821  29.397  1.00  0.00     0.074 A 
ATOM     38  C   UNL A   1      45.546  27.671  30.281  1.00  0.00     0.031 C 
ATOM     39  C   UNL A   1      45.908  30.143  29.653  1.00  0.00     0.037 A 
BRANCH  26  40
ATOM     40  C   UNL A   1      44.435  28.788  34.616  1.00  0.00     0.058 A 
ATOM     41  C   UNL A   1      44.328  27.466  34.153  1.00  0.00     0.135 A 
ATOM     42  C   UNL A   1      44.907  28.973  35.927  1.00  0.00     0.135 A 
ATOM     43  F   UNL A   1      43.878  27.222  32.911  1.00  0.00    -0.206 F 
ATOM     44  C   UNL A   1      44.678  26.377  34.948  1.00  0.00     0.059 A 
ATOM     45  C   UNL A   1      45.272  27.900  36.736  1.00  0.00     0.059 A 
ATOM     46  F   UNL A   1      44.986  30.201  36.459  1.00  0.00    -0.206 F 
ATOM     47  C   UNL A   1      45.145  26.604  36.242  1.00  0.00     0.060 A 
BRANCH  47  48
ATOM     48  S   UNL A   1      45.627  25.209  37.282  1.00  0.00     0.124 S 
ATOM     49  O   UNL A   1      46.175  24.286  36.296  1.00  0.00    -0.237 OA
ATOM     50  O   UNL A   1      46.595  25.805  38.199  1.00  0.00    -0.237 OA
ATOM     51  O   UNL A   1      44.361  24.818  37.894  1.00  0.00    -0.744 OA
ENDBRANCH  47  48
ENDBRANCH  26  40
BRANCH  27  52
ATOM     52  C   UNL A   1      43.259  25.552  26.997  1.00  0.00     0.058 A 
ATOM     53  C   UNL A   1      43.608  25.468  25.638  1.00  0.00     0.135 A 
ATOM     54  C   UNL A   1      43.103  24.325  27.674  1.00  0.00     0.135 A 
ATOM     55  F   UNL A   1      43.801  26.583  24.918  1.00  0.00    -0.206 F 
ATOM     56  C   UNL A   1      43.832  24.245  25.000  1.00  0.00     0.059 A 
ATOM     57  C   UNL A   1      43.299  23.092  27.054  1.00  0.00     0.059 A 
ATOM     58  F   UNL A   1      42.842  24.286  28.990  1.00  0.00    -0.206 F 
ATOM     59  C   UNL A   1      43.692  23.062  25.723  1.00  0.00     0.060 A 
BRANCH  59  60
ATOM     60  S   UNL A   1      44.151  21.497  24.946  1.00  0.00     0.124 S 
ATOM     61  O   UNL A   1      45.416  21.192  25.605  1.00  0.00    -0.237 OA
ATOM     62  O   UNL A   1      43.024  20.639  25.299  1.00  0.00    -0.237 OA
ATOM     63  O   UNL A   1      44.250  21.837  23.529  1.00  0.00    -0.744 OA
ENDBRANCH  59  60
ENDBRANCH  27  52
BRANCH  39  64
ATOM     64  C   UNL A   1      45.942  31.105  28.494  1.00  0.00     0.058 A 
ATOM     65  C   UNL A   1      44.792  31.706  27.955  1.00  0.00     0.135 A 
ATOM     66  C   UNL A   1      47.185  31.598  28.066  1.00  0.00     0.135 A 
ATOM     67  F   UNL A   1      43.571  31.373  28.394  1.00  0.00    -0.206 F 
ATOM     68  C   UNL A   1      44.872  32.740  27.024  1.00  0.00     0.059 A 
ATOM     69  C   UNL A   1      47.288  32.656  27.164  1.00  0.00     0.059 A 
ATOM     70  F   UNL A   1      48.321  31.111  28.595  1.00  0.00    -0.206 F 
ATOM     71  C   UNL A   1      46.124  33.220  26.646  1.00  0.00     0.060 A 
BRANCH  71  72
ATOM     72  S   UNL A   1      46.224  34.686  25.593  1.00  0.00     0.124 S 
ATOM     73  O   UNL A   1      47.636  34.704  25.229  1.00  0.00    -0.237 OA
ATOM     74  O   UNL A   1      45.293  34.373  24.511  1.00  0.00    -0.237 OA
ATOM     75  O   UNL A   1      45.787  35.763  26.477  1.00  0.00    -0.744 OA
ENDBRANCH  71  72
ENDBRANCH  39  64
ENDBRANCH  13  14
ENDBRANCH   6   8
ENDBRANCH   5   6
ENDBRANCH   4   5
ENDBRANCH   3   4
ENDBRANCH   2   3
ENDBRANCH   1   2
BRANCH   1  76
ATOM     76  C   UNL A   1      34.162  30.090  26.839  1.00  0.00     0.188 C 
BRANCH  76  77
ATOM     77  O   UNL A   1      33.104  29.201  26.476  1.00  0.00    -0.376 OA
BRANCH  77  78
ATOM     78  C   UNL A   1      32.300  28.622  27.486  1.00  0.00     0.202 C 
BRANCH  78  79
ATOM     79  C   UNL A   1      31.379  27.533  26.939  1.00  0.00     0.261 C 
BRANCH  79  80
ATOM     80  O   UNL A   1      31.392  27.461  25.503  1.00  0.00    -0.460 OA
BRANCH  80  81
ATOM     81  C   UNL A   1      30.716  26.421  24.948  1.00  0.00     0.339 C 
ATOM     82  O   UNL A   1      29.514  26.198  25.107  1.00  0.00    -0.246 OA
BRANCH  81  83
ATOM     83  C   UNL A   1      31.572  25.493  24.225  1.00  0.00     0.078 A 
ATOM     84  C   UNL A   1      32.991  25.448  24.312  1.00  0.00     0.051 A 
ATOM     85  C   UNL A   1      31.197  24.414  23.434  1.00  0.00     0.102 A 
ATOM     86  C   UNL A   1      33.419  24.310  23.672  1.00  0.00     0.086 A 
ATOM     87  N   UNL A   1      32.332  23.684  23.115  1.00  0.00    -0.335 N 
ATOM     88  Br  UNL A   1      35.198  23.734  23.706  1.00  0.00    -0.031 Br
BRANCH  87  89
ATOM     89  C   UNL A   1      32.313  22.337  22.536  1.00  0.00     0.180 C 
BRANCH  89  90
ATOM     90  C   UNL A   1      32.437  21.229  23.532  1.00  0.00     0.082 A 
ATOM     91  C   UNL A   1      32.550  21.272  24.943  1.00  0.00     0.047 A 
ATOM     92  N   UNL A   1      32.375  19.959  23.098  1.00  0.00    -0.176 NA
ATOM     93  C   UNL A   1      32.562  19.961  25.351  1.00  0.00     0.109 A 
ATOM     94  N   UNL A   1      32.493  19.210  24.214  1.00  0.00    -0.269 N 
BRANCH  94  95
ATOM     95  C   UNL A   1      32.709  17.781  24.130  1.00  0.00     0.107 C 
ATOM     96  C   UNL A   1      34.057  17.330  23.572  1.00  0.00     0.027 C 
ATOM     97  C   UNL A   1      32.594  17.086  25.490  1.00  0.00     0.027 C 
ATOM     98  C   UNL A   1      34.130  15.886  24.052  1.00  0.00     0.002 C 
ATOM     99  C   UNL A   1      33.633  15.969  25.486  1.00  0.00     0.002 C 
ENDBRANCH  94  95
ENDBRANCH  89  90
ENDBRANCH  87  89
ENDBRANCH  81  83
ENDBRANCH  80  81
ENDBRANCH  79  80
ENDBRANCH  78  79
ENDBRANCH  77  78
ENDBRANCH  76  77
ENDBRANCH   1  76
TORSDOF 23
ENDMDL
MODEL 3
REMARK VINA RESULT:      -9.6      1.714      2.493
REMARK SMILES O=C(OCCOCCOCCOC(=O)c1cc(Br)n(Cc2ccn(C3CCCC3)n2)c1)c1ccc(-c2c3nc(c(-c4c(F)cc(S(=O)(=O)[O-])cc4F)c4ccc([nH]4)c(-c4c(F)cc(S(=O)(=O)[O-])cc4F)c4nc(c(-c5c(F)cc(S(=O)(=O)[O-])cc5F)c5ccc2[nH]5)C=C4)C=C3)cc1
REMARK SMILES IDX 7 1 6 2 5 3 4 4 3 5 2 6 1 7 32 8 33 9 97 10 34 11 96 12
REMARK SMILES IDX 35 13 36 14 37 15 90 16 38 17 95 18 89 19 91 20 39 21 94 22
REMARK SMILES IDX 88 23 87 24 40 26 74 27 53 28 73 29 54 30 57 31 72 32 92 33
REMARK SMILES IDX 55 34 56 35 71 37 93 38 58 39 41 40 42 41 51 42 43 43 44 44
REMARK SMILES IDX 50 45 52 46 45 47 46 48 47 49 48 50 49 51 75 52 76 53 85 54
REMARK SMILES IDX 77 55 78 56 84 57 86 58 79 59 80 60 81 61 82 62 83 63 59 64
REMARK SMILES IDX 60 65 69 66 61 67 62 68 68 69 70 70 63 71 64 72 65 73 66 74
REMARK SMILES IDX 67 75 8 76 9 77 10 78 11 79 12 80 13 81 14 82 15 83 16 84
REMARK SMILES IDX 31 85 17 86 19 87 18 88 20 89 21 90 22 91 30 92 23 93 24 94
REMARK SMILES IDX 25 95 26 96 29 97 27 98 28 99
REMARK H PARENT 91 25 57 36
REMARK Flexibility Score: inf
ROOT
ATOM      1  C   UNL A   1      40.116  21.166  26.362  1.00  0.00     0.188 C 
ENDROOT
BRANCH   1   2
ATOM      2  O   UNL A   1      40.195  19.750  26.491  1.00  0.00    -0.376 OA
BRANCH   2   3
ATOM      3  C   UNL A   1      41.443  19.174  26.137  1.00  0.00     0.202 C 
BRANCH   3   4
ATOM      4  C   UNL A   1      42.527  20.238  25.997  1.00  0.00     0.261 C 
BRANCH   4   5
ATOM      5  O   UNL A   1      43.454  20.049  24.908  1.00  0.00    -0.460 OA
BRANCH   5   6
ATOM      6  C   UNL A   1      44.351  20.871  24.331  1.00  0.00     0.338 C 
ATOM      7  O   UNL A   1      44.822  20.555  23.239  1.00  0.00    -0.246 OA
BRANCH   6   8
ATOM      8  C   UNL A   1      44.856  22.112  24.974  1.00  0.00     0.060 A 
ATOM      9  C   UNL A   1      45.618  22.146  26.146  1.00  0.00     0.016 A 
ATOM     10  C   UNL A   1      44.415  23.327  24.416  1.00  0.00     0.016 A 
ATOM     11  C   UNL A   1      45.897  23.360  26.776  1.00  0.00     0.010 A 
ATOM     12  C   UNL A   1      44.685  24.539  25.046  1.00  0.00     0.010 A 
ATOM     13  C   UNL A   1      45.383  24.552  26.261  1.00  0.00    -0.014 A 
BRANCH  13  14
ATOM     14  C   UNL A   1      45.341  25.752  27.115  1.00  0.00     0.031 A 
ATOM     15  C   UNL A   1      46.503  26.710  27.184  1.00  0.00     0.074 A 
ATOM     16  C   UNL A   1      44.170  26.006  27.741  1.00  0.00     0.049 A 
ATOM     17  N   UNL A   1      46.512  27.926  27.662  1.00  0.00    -0.248 NA
ATOM     18  C   UNL A   1      47.792  26.310  26.599  1.00  0.00     0.031 C 
ATOM     19  C   UNL A   1      42.909  25.258  27.625  1.00  0.00     0.029 A 
ATOM     20  N   UNL A   1      43.836  27.047  28.555  1.00  0.00    -0.354 N 
ATOM     21  C   UNL A   1      47.744  28.493  27.332  1.00  0.00     0.074 A 
ATOM     22  C   UNL A   1      48.518  27.421  26.735  1.00  0.00     0.031 C 
ATOM     23  C   UNL A   1      41.915  25.966  28.197  1.00  0.00     0.029 A 
ATOM     24  C   UNL A   1      42.475  27.162  28.797  1.00  0.00     0.049 A 
ATOM     25  H   UNL A   1      44.503  27.662  28.938  1.00  0.00     0.167 HD
ATOM     26  C   UNL A   1      48.382  29.441  28.068  1.00  0.00     0.037 A 
ATOM     27  C   UNL A   1      41.835  28.195  29.394  1.00  0.00     0.037 A 
ATOM     28  C   UNL A   1      48.451  29.135  29.461  1.00  0.00     0.049 A 
ATOM     29  C   UNL A   1      42.848  28.978  30.142  1.00  0.00     0.074 A 
ATOM     30  C   UNL A   1      49.127  28.202  30.216  1.00  0.00     0.029 A 
ATOM     31  N   UNL A   1      47.528  29.710  30.299  1.00  0.00    -0.354 N 
ATOM     32  N   UNL A   1      43.468  28.571  31.216  1.00  0.00    -0.248 NA
ATOM     33  C   UNL A   1      43.427  30.146  29.495  1.00  0.00     0.031 C 
ATOM     34  C   UNL A   1      48.300  27.961  31.347  1.00  0.00     0.029 A 
ATOM     35  C   UNL A   1      47.162  28.759  31.215  1.00  0.00     0.049 A 
ATOM     36  H   UNL A   1      47.192  30.634  30.250  1.00  0.00     0.167 HD
ATOM     37  C   UNL A   1      44.713  29.175  31.159  1.00  0.00     0.074 A 
ATOM     38  C   UNL A   1      44.574  30.235  30.169  1.00  0.00     0.031 C 
ATOM     39  C   UNL A   1      45.812  28.588  31.715  1.00  0.00     0.037 A 
BRANCH  26  40
ATOM     40  C   UNL A   1      48.338  30.851  27.574  1.00  0.00     0.058 A 
ATOM     41  C   UNL A   1      47.100  31.422  27.236  1.00  0.00     0.135 A 
ATOM     42  C   UNL A   1      49.488  31.623  27.336  1.00  0.00     0.135 A 
ATOM     43  F   UNL A   1      45.964  30.733  27.434  1.00  0.00    -0.206 F 
ATOM     44  C   UNL A   1      47.003  32.702  26.694  1.00  0.00     0.059 A 
ATOM     45  C   UNL A   1      49.415  32.909  26.804  1.00  0.00     0.059 A 
ATOM     46  F   UNL A   1      50.709  31.127  27.583  1.00  0.00    -0.206 F 
ATOM     47  C   UNL A   1      48.169  33.435  26.476  1.00  0.00     0.060 A 
BRANCH  47  48
ATOM     48  S   UNL A   1      48.066  35.105  25.796  1.00  0.00     0.124 S 
ATOM     49  O   UNL A   1      48.461  35.912  26.943  1.00  0.00    -0.237 OA
ATOM     50  O   UNL A   1      49.019  35.066  24.690  1.00  0.00    -0.237 OA
ATOM     51  O   UNL A   1      46.665  35.199  25.397  1.00  0.00    -0.744 OA
ENDBRANCH  47  48
ENDBRANCH  26  40
BRANCH  27  52
ATOM     52  C   UNL A   1      40.437  28.660  29.214  1.00  0.00     0.058 A 
ATOM     53  C   UNL A   1      39.653  29.025  30.321  1.00  0.00     0.135 A 
ATOM     54  C   UNL A   1      39.913  28.989  27.947  1.00  0.00     0.135 A 
ATOM     55  F   UNL A   1      40.082  28.775  31.568  1.00  0.00    -0.206 F 
ATOM     56  C   UNL A   1      38.444  29.713  30.184  1.00  0.00     0.059 A 
ATOM     57  C   UNL A   1      38.699  29.654  27.784  1.00  0.00     0.059 A 
ATOM     58  F   UNL A   1      40.609  28.753  26.824  1.00  0.00    -0.206 F 
ATOM     59  C   UNL A   1      37.984  30.038  28.910  1.00  0.00     0.060 A 
BRANCH  59  60
ATOM     60  S   UNL A   1      36.515  31.076  28.743  1.00  0.00     0.124 S 
ATOM     61  O   UNL A   1      35.796  30.782  29.978  1.00  0.00    -0.237 OA
ATOM     62  O   UNL A   1      37.094  32.411  28.644  1.00  0.00    -0.237 OA
ATOM     63  O   UNL A   1      35.886  30.581  27.521  1.00  0.00    -0.744 OA
ENDBRANCH  59  60
ENDBRANCH  27  52
BRANCH  39  64
ATOM     64  C   UNL A   1      45.610  27.457  32.690  1.00  0.00     0.058 A 
ATOM     65  C   UNL A   1      45.497  26.112  32.299  1.00  0.00     0.135 A 
ATOM     66  C   UNL A   1      45.756  27.718  34.062  1.00  0.00     0.135 A 
ATOM     67  F   UNL A   1      45.469  25.771  31.004  1.00  0.00    -0.206 F 
ATOM     68  C   UNL A   1      45.514  25.074  33.229  1.00  0.00     0.059 A 
ATOM     69  C   UNL A   1      45.814  26.694  35.005  1.00  0.00     0.059 A 
ATOM     70  F   UNL A   1      45.936  28.979  34.492  1.00  0.00    -0.206 F 
ATOM     71  C   UNL A   1      45.690  25.373  34.579  1.00  0.00     0.060 A 
BRANCH  71  72
ATOM     72  S   UNL A   1      45.910  24.021  35.758  1.00  0.00     0.124 S 
ATOM     73  O   UNL A   1      46.236  24.737  36.986  1.00  0.00    -0.237 OA
ATOM     74  O   UNL A   1      44.608  23.357  35.738  1.00  0.00    -0.237 OA
ATOM     75  O   UNL A   1      46.998  23.242  35.175  1.00  0.00    -0.744 OA
ENDBRANCH  71  72
ENDBRANCH  39  64
ENDBRANCH  13  14
ENDBRANCH   6   8
ENDBRANCH   5   6
ENDBRANCH   4   5
ENDBRANCH   3   4
ENDBRANCH   2   3
ENDBRANCH   1   2
BRANCH   1  76
ATOM     76  C   UNL A   1      38.896  21.662  25.557  1.00  0.00     0.188 C 
BRANCH  76  77
ATOM     77  O   UNL A   1      37.818  22.394  26.143  1.00  0.00    -0.376 OA
BRANCH  77  78
ATOM     78  C   UNL A   1      36.484  22.062  25.805  1.00  0.00     0.202 C 
BRANCH  78  79
ATOM     79  C   UNL A   1      35.480  23.070  26.361  1.00  0.00     0.261 C 
BRANCH  79  80
ATOM     80  O   UNL A   1      34.118  22.731  26.049  1.00  0.00    -0.460 OA
BRANCH  80  81
ATOM     81  C   UNL A   1      33.231  23.760  26.041  1.00  0.00     0.339 C 
ATOM     82  O   UNL A   1      32.283  23.880  26.820  1.00  0.00    -0.246 OA
BRANCH  81  83
ATOM     83  C   UNL A   1      33.420  24.679  24.929  1.00  0.00     0.078 A 
ATOM     84  C   UNL A   1      33.050  24.421  23.579  1.00  0.00     0.051 A 
ATOM     85  C   UNL A   1      33.858  25.998  24.965  1.00  0.00     0.102 A 
ATOM     86  C   UNL A   1      33.175  25.593  22.873  1.00  0.00     0.086 A 
ATOM     87  N   UNL A   1      33.687  26.556  23.708  1.00  0.00    -0.335 N 
ATOM     88  Br  UNL A   1      32.607  25.778  21.102  1.00  0.00    -0.031 Br
BRANCH  87  89
ATOM     89  C   UNL A   1      33.771  27.991  23.422  1.00  0.00     0.180 C 
BRANCH  89  90
ATOM     90  C   UNL A   1      32.645  28.803  23.975  1.00  0.00     0.082 A 
ATOM     91  C   UNL A   1      32.519  29.471  25.218  1.00  0.00     0.047 A 
ATOM     92  N   UNL A   1      31.571  29.033  23.201  1.00  0.00    -0.176 NA
ATOM     93  C   UNL A   1      31.308  30.117  25.167  1.00  0.00     0.109 A 
ATOM     94  N   UNL A   1      30.758  29.797  23.960  1.00  0.00    -0.269 N 
BRANCH  94  95
ATOM     95  C   UNL A   1      29.392  30.055  23.557  1.00  0.00     0.107 C 
ATOM     96  C   UNL A   1      28.870  31.470  23.794  1.00  0.00     0.027 C 
ATOM     97  C   UNL A   1      29.159  29.796  22.065  1.00  0.00     0.027 C 
ATOM     98  C   UNL A   1      27.660  31.519  22.871  1.00  0.00     0.002 C 
ATOM     99  C   UNL A   1      28.163  30.854  21.600  1.00  0.00     0.002 C 
ENDBRANCH  94  95
ENDBRANCH  89  90
ENDBRANCH  87  89
ENDBRANCH  81  83
ENDBRANCH  80  81
ENDBRANCH  79  80
ENDBRANCH  78  79
ENDBRANCH  77  78
ENDBRANCH  76  77
ENDBRANCH   1  76
TORSDOF 23
ENDMDL
