MODEL 1
REMARK VINA RESULT:     -10.6      0.000      0.000
REMARK SMILES CCn1c(C(=O)OCCOCCOCCOC(=O)c2ccc(-c3c4nc(c(-c5c(F)cc(S(=O)(=O)[O-])cc5F)c5ccc([nH]5)c(-c5c(F)cc(S(=O)(=O)[O-])cc5F)c5nc(c(-c6c(F)cc(S(=O)(=O)[O-])cc6F)c6ccc3[nH]6)C=C5)C=C4)cc2)c(C[NH2+]Cc2ccccc2Cl)c2ccc(C)cc21
REMARK SMILES IDX 11 1 10 2 9 3 8 4 7 5 5 6 6 7 4 8 3 9 102 10 85 11 96 12
REMARK SMILES IDX 101 13 97 14 99 15 98 16 100 17 2 18 1 19 86 20 87 21 88 24
REMARK SMILES IDX 89 25 90 26 94 27 91 28 93 29 95 30 92 31 12 32 13 33 14 34
REMARK SMILES IDX 15 35 16 36 17 37 18 38 19 39 20 40 84 41 21 42 83 43 22 44
REMARK SMILES IDX 23 45 24 46 77 47 25 48 82 49 76 50 78 51 26 52 81 53 75 54
REMARK SMILES IDX 74 55 27 57 61 58 40 59 60 60 41 61 44 62 59 63 79 64 42 65
REMARK SMILES IDX 43 66 58 68 80 69 45 70 28 71 29 72 38 73 30 74 31 75 37 76
REMARK SMILES IDX 39 77 32 78 33 79 34 80 35 81 36 82 62 83 63 84 72 85 64 86
REMARK SMILES IDX 65 87 71 88 73 89 66 90 67 91 68 92 69 93 70 94 46 95 47 96
REMARK SMILES IDX 56 97 48 98 49 99 55 100 57 101 50 102 51 103 52 104 53 105
REMARK SMILES IDX 54 106
REMARK H PARENT 87 22 87 23 78 56 44 67
REMARK Flexibility Score: inf
ROOT
ATOM      1  C   UNL A   1      37.518  20.997  25.246  1.00  0.00     0.188 C 
ENDROOT
BRANCH   1   2
ATOM      2  O   UNL A   1      36.499  21.223  24.297  1.00  0.00    -0.376 OA
BRANCH   2   3
ATOM      3  C   UNL A   1      36.405  22.503  23.730  1.00  0.00     0.202 C 
BRANCH   3   4
ATOM      4  C   UNL A   1      36.368  23.733  24.653  1.00  0.00     0.261 C 
BRANCH   4   5
ATOM      5  O   UNL A   1      35.538  24.854  24.295  1.00  0.00    -0.459 OA
BRANCH   5   6
ATOM      6  C   UNL A   1      34.302  24.588  23.792  1.00  0.00     0.355 C 
ATOM      7  O   UNL A   1      34.157  24.348  22.586  1.00  0.00    -0.244 OA
BRANCH   6   8
ATOM      8  C   UNL A   1      33.214  24.575  24.772  1.00  0.00     0.137 A 
ATOM      9  N   UNL A   1      32.710  23.497  25.491  1.00  0.00    -0.335 N 
ATOM     10  C   UNL A   1      31.625  23.855  26.252  1.00  0.00     0.049 A 
ATOM     11  C   UNL A   1      32.447  25.653  25.220  1.00  0.00     0.047 A 
ATOM     12  C   UNL A   1      31.265  25.121  25.840  1.00  0.00     0.009 A 
ATOM     13  C   UNL A   1      30.861  23.069  27.118  1.00  0.00     0.030 A 
ATOM     14  C   UNL A   1      29.962  25.542  26.172  1.00  0.00     0.011 A 
ATOM     15  C   UNL A   1      29.500  23.320  27.102  1.00  0.00    -0.049 A 
ATOM     16  C   UNL A   1      29.057  24.572  26.670  1.00  0.00     0.004 A 
ATOM     17  C   UNL A   1      28.595  22.133  27.310  1.00  0.00     0.044 C 
BRANCH   9  18
ATOM     18  C   UNL A   1      33.127  22.115  25.448  1.00  0.00     0.119 C 
ATOM     19  C   UNL A   1      32.810  21.330  24.152  1.00  0.00     0.027 C 
ENDBRANCH   9  18
BRANCH  11  20
ATOM     20  C   UNL A   1      32.865  27.069  25.086  1.00  0.00     0.300 C 
BRANCH  20  21
ATOM     21  N   UNL A   1      31.720  27.695  24.398  1.00  0.00    -0.339 N 
ATOM     22  H   UNL A   1      30.866  27.286  24.777  1.00  0.00     0.346 HD
ATOM     23  H   UNL A   1      31.864  27.515  23.405  1.00  0.00     0.346 HD
BRANCH  21  24
ATOM     24  C   UNL A   1      31.615  29.135  24.525  1.00  0.00     0.299 C 
BRANCH  24  25
ATOM     25  C   UNL A   1      30.432  29.609  23.720  1.00  0.00     0.025 A 
ATOM     26  C   UNL A   1      29.844  30.833  24.095  1.00  0.00     0.011 A 
ATOM     27  C   UNL A   1      29.733  28.739  22.872  1.00  0.00     0.049 A 
ATOM     28  C   UNL A   1      28.537  31.127  23.722  1.00  0.00     0.001 A 
ATOM     29  C   UNL A   1      28.420  29.035  22.512  1.00  0.00     0.021 A 
ATOM     30  Cl  UNL A   1      30.381  27.218  22.368  1.00  0.00    -0.084 Cl
ATOM     31  C   UNL A   1      27.818  30.214  22.955  1.00  0.00     0.002 A 
ENDBRANCH  24  25
ENDBRANCH  21  24
ENDBRANCH  20  21
ENDBRANCH  11  20
ENDBRANCH   6   8
ENDBRANCH   5   6
ENDBRANCH   4   5
ENDBRANCH   3   4
ENDBRANCH   2   3
ENDBRANCH   1   2
BRANCH   1  32
ATOM     32  C   UNL A   1      37.936  19.517  25.165  1.00  0.00     0.188 C 
BRANCH  32  33
ATOM     33  O   UNL A   1      39.343  19.265  25.077  1.00  0.00    -0.376 OA
BRANCH  33  34
ATOM     34  C   UNL A   1      40.134  19.695  26.178  1.00  0.00     0.202 C 
BRANCH  34  35
ATOM     35  C   UNL A   1      41.464  20.349  25.774  1.00  0.00     0.261 C 
BRANCH  35  36
ATOM     36  O   UNL A   1      41.790  21.492  26.608  1.00  0.00    -0.460 OA
BRANCH  36  37
ATOM     37  C   UNL A   1      42.246  22.611  25.988  1.00  0.00     0.338 C 
ATOM     38  O   UNL A   1      42.766  22.635  24.883  1.00  0.00    -0.246 OA
BRANCH  37  39
ATOM     39  C   UNL A   1      41.736  23.847  26.684  1.00  0.00     0.060 A 
ATOM     40  C   UNL A   1      40.916  24.848  26.134  1.00  0.00     0.016 A 
ATOM     41  C   UNL A   1      42.260  24.079  27.945  1.00  0.00     0.016 A 
ATOM     42  C   UNL A   1      40.787  26.135  26.755  1.00  0.00     0.010 A 
ATOM     43  C   UNL A   1      42.074  25.322  28.563  1.00  0.00     0.010 A 
ATOM     44  C   UNL A   1      41.460  26.439  27.943  1.00  0.00    -0.014 A 
BRANCH  44  45
ATOM     45  C   UNL A   1      41.326  27.732  28.755  1.00  0.00     0.031 A 
ATOM     46  C   UNL A   1      42.343  28.674  28.256  1.00  0.00     0.074 A 
ATOM     47  C   UNL A   1      40.427  28.301  29.643  1.00  0.00     0.049 A 
ATOM     48  N   UNL A   1      43.512  28.801  28.787  1.00  0.00    -0.248 NA
ATOM     49  C   UNL A   1      42.182  29.375  26.974  1.00  0.00     0.031 C 
ATOM     50  C   UNL A   1      39.238  27.746  30.282  1.00  0.00     0.029 A 
ATOM     51  N   UNL A   1      40.268  29.636  30.036  1.00  0.00    -0.354 N 
ATOM     52  C   UNL A   1      44.055  29.874  28.120  1.00  0.00     0.074 A 
ATOM     53  C   UNL A   1      43.387  29.935  26.848  1.00  0.00     0.031 C 
ATOM     54  C   UNL A   1      38.319  28.684  30.614  1.00  0.00     0.029 A 
ATOM     55  C   UNL A   1      38.977  29.972  30.527  1.00  0.00     0.049 A 
ATOM     56  H   UNL A   1      40.999  30.294  29.976  1.00  0.00     0.167 HD
ATOM     57  C   UNL A   1      44.665  30.861  28.824  1.00  0.00     0.037 A 
ATOM     58  C   UNL A   1      38.504  31.095  31.147  1.00  0.00     0.037 A 
ATOM     59  C   UNL A   1      44.851  30.491  30.215  1.00  0.00     0.049 A 
ATOM     60  C   UNL A   1      39.665  31.676  31.834  1.00  0.00     0.074 A 
ATOM     61  C   UNL A   1      45.381  29.398  30.876  1.00  0.00     0.029 A 
ATOM     62  N   UNL A   1      44.074  31.157  31.134  1.00  0.00    -0.354 N 
ATOM     63  N   UNL A   1      40.237  31.129  32.869  1.00  0.00    -0.248 NA
ATOM     64  C   UNL A   1      40.402  32.749  31.192  1.00  0.00     0.031 C 
ATOM     65  C   UNL A   1      44.633  29.260  32.080  1.00  0.00     0.029 A 
ATOM     66  C   UNL A   1      43.721  30.311  32.160  1.00  0.00     0.049 A 
ATOM     67  H   UNL A   1      43.811  32.102  31.068  1.00  0.00     0.167 HD
ATOM     68  C   UNL A   1      41.570  31.417  32.682  1.00  0.00     0.074 A 
ATOM     69  C   UNL A   1      41.581  32.573  31.792  1.00  0.00     0.031 C 
ATOM     70  C   UNL A   1      42.514  30.470  32.954  1.00  0.00     0.037 A 
BRANCH  57  71
ATOM     71  C   UNL A   1      44.715  32.292  28.362  1.00  0.00     0.058 A 
ATOM     72  C   UNL A   1      45.965  32.844  28.046  1.00  0.00     0.135 A 
ATOM     73  C   UNL A   1      43.632  33.201  28.422  1.00  0.00     0.135 A 
ATOM     74  F   UNL A   1      47.060  32.069  28.007  1.00  0.00    -0.206 F 
ATOM     75  C   UNL A   1      46.137  34.208  27.829  1.00  0.00     0.059 A 
ATOM     76  C   UNL A   1      43.768  34.553  28.140  1.00  0.00     0.059 A 
ATOM     77  F   UNL A   1      42.414  32.843  28.848  1.00  0.00    -0.206 F 
ATOM     78  C   UNL A   1      45.031  35.052  27.878  1.00  0.00     0.060 A 
BRANCH  78  79
ATOM     79  S   UNL A   1      45.269  36.821  27.659  1.00  0.00     0.124 S 
ATOM     80  O   UNL A   1      43.896  37.269  27.455  1.00  0.00    -0.237 OA
ATOM     81  O   UNL A   1      45.886  37.201  28.927  1.00  0.00    -0.237 OA
ATOM     82  O   UNL A   1      46.145  36.899  26.495  1.00  0.00    -0.744 OA
ENDBRANCH  78  79
ENDBRANCH  57  71
BRANCH  58  83
ATOM     83  C   UNL A   1      37.155  31.744  31.276  1.00  0.00     0.058 A 
ATOM     84  C   UNL A   1      36.544  31.938  32.536  1.00  0.00     0.135 A 
ATOM     85  C   UNL A   1      36.613  32.503  30.226  1.00  0.00     0.135 A 
ATOM     86  F   UNL A   1      36.946  31.232  33.602  1.00  0.00    -0.206 F 
ATOM     87  C   UNL A   1      35.570  32.921  32.767  1.00  0.00     0.059 A 
ATOM     88  C   UNL A   1      35.639  33.494  30.429  1.00  0.00     0.059 A 
ATOM     89  F   UNL A   1      37.095  32.357  28.987  1.00  0.00    -0.206 F 
ATOM     90  C   UNL A   1      35.159  33.732  31.715  1.00  0.00     0.060 A 
BRANCH  90  91
ATOM     91  S   UNL A   1      34.138  35.190  32.070  1.00  0.00     0.124 S 
ATOM     92  O   UNL A   1      33.929  35.753  30.740  1.00  0.00    -0.237 OA
ATOM     93  O   UNL A   1      32.960  34.600  32.701  1.00  0.00    -0.237 OA
ATOM     94  O   UNL A   1      34.980  35.983  32.961  1.00  0.00    -0.744 OA
ENDBRANCH  90  91
ENDBRANCH  58  83
BRANCH  70  95
ATOM     95  C   UNL A   1      42.183  29.387  33.964  1.00  0.00     0.058 A 
ATOM     96  C   UNL A   1      41.857  28.053  33.658  1.00  0.00     0.135 A 
ATOM     97  C   UNL A   1      42.322  29.692  35.327  1.00  0.00     0.135 A 
ATOM     98  F   UNL A   1      41.745  27.639  32.395  1.00  0.00    -0.206 F 
ATOM     99  C   UNL A   1      41.682  27.077  34.643  1.00  0.00     0.059 A 
ATOM    100  C   UNL A   1      42.180  28.731  36.330  1.00  0.00     0.059 A 
ATOM    101  F   UNL A   1      42.650  30.939  35.704  1.00  0.00    -0.206 F 
ATOM    102  C   UNL A   1      41.862  27.422  35.979  1.00  0.00     0.060 A 
BRANCH 102 103
ATOM    103  S   UNL A   1      41.745  26.129  37.235  1.00  0.00     0.124 S 
ATOM    104  O   UNL A   1      41.812  24.911  36.434  1.00  0.00    -0.237 OA
ATOM    105  O   UNL A   1      42.910  26.399  38.073  1.00  0.00    -0.237 OA
ATOM    106  O   UNL A   1      40.456  26.387  37.871  1.00  0.00    -0.744 OA
ENDBRANCH 102 103
ENDBRANCH  70  95
ENDBRANCH  44  45
ENDBRANCH  37  39
ENDBRANCH  36  37
ENDBRANCH  35  36
ENDBRANCH  34  35
ENDBRANCH  33  34
ENDBRANCH  32  33
ENDBRANCH   1  32
TORSDOF 25
ENDMDL
MODEL 2
REMARK VINA RESULT:     -10.5      2.270      4.365
REMARK SMILES CCn1c(C(=O)OCCOCCOCCOC(=O)c2ccc(-c3c4nc(c(-c5c(F)cc(S(=O)(=O)[O-])cc5F)c5ccc([nH]5)c(-c5c(F)cc(S(=O)(=O)[O-])cc5F)c5nc(c(-c6c(F)cc(S(=O)(=O)[O-])cc6F)c6ccc3[nH]6)C=C5)C=C4)cc2)c(C[NH2+]Cc2ccccc2Cl)c2ccc(C)cc21
REMARK SMILES IDX 11 1 10 2 9 3 8 4 7 5 5 6 6 7 4 8 3 9 102 10 85 11 96 12
REMARK SMILES IDX 101 13 97 14 99 15 98 16 100 17 2 18 1 19 86 20 87 21 88 24
REMARK SMILES IDX 89 25 90 26 94 27 91 28 93 29 95 30 92 31 12 32 13 33 14 34
REMARK SMILES IDX 15 35 16 36 17 37 18 38 19 39 20 40 84 41 21 42 83 43 22 44
REMARK SMILES IDX 23 45 24 46 77 47 25 48 82 49 76 50 78 51 26 52 81 53 75 54
REMARK SMILES IDX 74 55 27 57 61 58 40 59 60 60 41 61 44 62 59 63 79 64 42 65
REMARK SMILES IDX 43 66 58 68 80 69 45 70 28 71 29 72 38 73 30 74 31 75 37 76
REMARK SMILES IDX 39 77 32 78 33 79 34 80 35 81 36 82 62 83 63 84 72 85 64 86
REMARK SMILES IDX 65 87 71 88 73 89 66 90 67 91 68 92 69 93 70 94 46 95 47 96
REMARK SMILES IDX 56 97 48 98 49 99 55 100 57 101 50 102 51 103 52 104 53 105
REMARK SMILES IDX 54 106
REMARK H PARENT 87 22 87 23 78 56 44 67
REMARK Flexibility Score: inf
ROOT
ATOM      1  C   UNL A   1      39.747  21.940  26.465  1.00  0.00     0.188 C 
ENDROOT
BRANCH   1   2
ATOM      2  O   UNL A   1      38.605  21.354  25.881  1.00  0.00    -0.376 OA
BRANCH   2   3
ATOM      3  C   UNL A   1      37.778  22.171  25.096  1.00  0.00     0.202 C 
BRANCH   3   4
ATOM      4  C   UNL A   1      36.711  23.042  25.782  1.00  0.00     0.261 C 
BRANCH   4   5
ATOM      5  O   UNL A   1      36.061  24.079  25.025  1.00  0.00    -0.459 OA
BRANCH   5   6
ATOM      6  C   UNL A   1      35.239  23.698  24.009  1.00  0.00     0.355 C 
ATOM      7  O   UNL A   1      35.702  23.133  23.009  1.00  0.00    -0.244 OA
BRANCH   6   8
ATOM      8  C   UNL A   1      33.815  23.972  24.216  1.00  0.00     0.137 A 
ATOM      9  N   UNL A   1      32.914  24.575  23.346  1.00  0.00    -0.335 N 
ATOM     10  C   UNL A   1      31.681  24.742  23.925  1.00  0.00     0.049 A 
ATOM     11  C   UNL A   1      33.035  23.669  25.335  1.00  0.00     0.047 A 
ATOM     12  C   UNL A   1      31.844  24.469  25.267  1.00  0.00     0.009 A 
ATOM     13  C   UNL A   1      30.518  25.285  23.375  1.00  0.00     0.030 A 
ATOM     14  C   UNL A   1      30.843  24.953  26.132  1.00  0.00     0.011 A 
ATOM     15  C   UNL A   1      29.767  26.070  24.233  1.00  0.00    -0.049 A 
ATOM     16  C   UNL A   1      29.899  25.871  25.608  1.00  0.00     0.004 A 
ATOM     17  C   UNL A   1      29.057  27.249  23.617  1.00  0.00     0.044 C 
BRANCH   9  18
ATOM     18  C   UNL A   1      33.156  25.091  22.019  1.00  0.00     0.119 C 
ATOM     19  C   UNL A   1      33.111  26.629  21.850  1.00  0.00     0.027 C 
ENDBRANCH   9  18
BRANCH  11  20
ATOM     20  C   UNL A   1      33.413  22.654  26.347  1.00  0.00     0.300 C 
BRANCH  20  21
ATOM     21  N   UNL A   1      33.209  21.377  25.638  1.00  0.00    -0.339 N 
ATOM     22  H   UNL A   1      32.859  21.590  24.704  1.00  0.00     0.346 HD
ATOM     23  H   UNL A   1      32.559  20.843  26.215  1.00  0.00     0.346 HD
BRANCH  21  24
ATOM     24  C   UNL A   1      34.382  20.538  25.491  1.00  0.00     0.299 C 
BRANCH  24  25
ATOM     25  C   UNL A   1      34.077  19.444  24.502  1.00  0.00     0.025 A 
ATOM     26  C   UNL A   1      32.772  19.399  23.969  1.00  0.00     0.011 A 
ATOM     27  C   UNL A   1      34.915  18.329  24.366  1.00  0.00     0.049 A 
ATOM     28  C   UNL A   1      32.280  18.222  23.418  1.00  0.00     0.001 A 
ATOM     29  C   UNL A   1      34.411  17.150  23.823  1.00  0.00     0.021 A 
ATOM     30  Cl  UNL A   1      36.526  18.301  24.993  1.00  0.00    -0.084 Cl
ATOM     31  C   UNL A   1      33.091  17.090  23.372  1.00  0.00     0.002 A 
ENDBRANCH  24  25
ENDBRANCH  21  24
ENDBRANCH  20  21
ENDBRANCH  11  20
ENDBRANCH   6   8
ENDBRANCH   5   6
ENDBRANCH   4   5
ENDBRANCH   3   4
ENDBRANCH   2   3
ENDBRANCH   1   2
BRANCH   1  32
ATOM     32  C   UNL A   1      40.756  20.822  26.784  1.00  0.00     0.188 C 
BRANCH  32  33
ATOM     33  O   UNL A   1      41.797  20.619  25.821  1.00  0.00    -0.376 OA
BRANCH  33  34
ATOM     34  C   UNL A   1      43.025  21.294  26.063  1.00  0.00     0.202 C 
BRANCH  34  35
ATOM     35  C   UNL A   1      43.113  22.682  25.411  1.00  0.00     0.261 C 
BRANCH  35  36
ATOM     36  O   UNL A   1      44.052  23.553  26.097  1.00  0.00    -0.460 OA
BRANCH  36  37
ATOM     37  C   UNL A   1      44.683  24.501  25.358  1.00  0.00     0.338 C 
ATOM     38  O   UNL A   1      45.087  24.342  24.216  1.00  0.00    -0.246 OA
BRANCH  37  39
ATOM     39  C   UNL A   1      44.530  25.858  25.994  1.00  0.00     0.060 A 
ATOM     40  C   UNL A   1      45.478  26.535  26.781  1.00  0.00     0.016 A 
ATOM     41  C   UNL A   1      43.264  26.415  25.908  1.00  0.00     0.016 A 
ATOM     42  C   UNL A   1      45.106  27.637  27.620  1.00  0.00     0.010 A 
ATOM     43  C   UNL A   1      42.936  27.529  26.691  1.00  0.00     0.010 A 
ATOM     44  C   UNL A   1      43.785  28.095  27.674  1.00  0.00    -0.014 A 
BRANCH  44  45
ATOM     45  C   UNL A   1      43.281  29.320  28.446  1.00  0.00     0.031 A 
ATOM     46  C   UNL A   1      43.971  30.501  27.899  1.00  0.00     0.074 A 
ATOM     47  C   UNL A   1      42.259  29.630  29.329  1.00  0.00     0.049 A 
ATOM     48  N   UNL A   1      45.053  30.986  28.406  1.00  0.00    -0.248 NA
ATOM     49  C   UNL A   1      43.601  31.076  26.598  1.00  0.00     0.031 C 
ATOM     50  C   UNL A   1      41.291  28.773  30.005  1.00  0.00     0.029 A 
ATOM     51  N   UNL A   1      41.715  30.872  29.680  1.00  0.00    -0.354 N 
ATOM     52  C   UNL A   1      45.251  32.147  27.695  1.00  0.00     0.074 A 
ATOM     53  C   UNL A   1      44.587  31.962  26.433  1.00  0.00     0.031 C 
ATOM     54  C   UNL A   1      40.138  29.409  30.322  1.00  0.00     0.029 A 
ATOM     55  C   UNL A   1      40.386  30.829  30.182  1.00  0.00     0.049 A 
ATOM     56  H   UNL A   1      42.219  31.714  29.587  1.00  0.00     0.167 HD
ATOM     57  C   UNL A   1      45.547  33.295  28.355  1.00  0.00     0.037 A 
ATOM     58  C   UNL A   1      39.606  31.785  30.772  1.00  0.00     0.037 A 
ATOM     59  C   UNL A   1      45.842  33.047  29.755  1.00  0.00     0.049 A 
ATOM     60  C   UNL A   1      40.548  32.707  31.420  1.00  0.00     0.074 A 
ATOM     61  C   UNL A   1      46.675  32.184  30.442  1.00  0.00     0.029 A 
ATOM     62  N   UNL A   1      44.909  33.487  30.665  1.00  0.00    -0.354 N 
ATOM     63  N   UNL A   1      41.262  32.391  32.463  1.00  0.00    -0.248 NA
ATOM     64  C   UNL A   1      40.931  33.926  30.731  1.00  0.00     0.031 C 
ATOM     65  C   UNL A   1      46.008  31.875  31.663  1.00  0.00     0.029 A 
ATOM     66  C   UNL A   1      44.828  32.612  31.723  1.00  0.00     0.049 A 
ATOM     67  H   UNL A   1      44.377  34.309  30.572  1.00  0.00     0.167 HD
ATOM     68  C   UNL A   1      42.449  33.053  32.244  1.00  0.00     0.074 A 
ATOM     69  C   UNL A   1      42.113  34.127  31.317  1.00  0.00     0.031 C 
ATOM     70  C   UNL A   1      43.632  32.437  32.532  1.00  0.00     0.037 A 
BRANCH  57  71
ATOM     71  C   UNL A   1      45.168  34.659  27.847  1.00  0.00     0.058 A 
ATOM     72  C   UNL A   1      46.197  35.570  27.562  1.00  0.00     0.135 A 
ATOM     73  C   UNL A   1      43.854  35.183  27.831  1.00  0.00     0.135 A 
ATOM     74  F   UNL A   1      47.480  35.177  27.595  1.00  0.00    -0.206 F 
ATOM     75  C   UNL A   1      45.944  36.914  27.305  1.00  0.00     0.059 A 
ATOM     76  C   UNL A   1      43.573  36.502  27.507  1.00  0.00     0.059 A 
ATOM     77  F   UNL A   1      42.790  34.469  28.220  1.00  0.00    -0.206 F 
ATOM     78  C   UNL A   1      44.628  37.369  27.280  1.00  0.00     0.060 A 
BRANCH  78  79
ATOM     79  S   UNL A   1      44.311  39.118  27.009  1.00  0.00     0.124 S 
ATOM     80  O   UNL A   1      44.488  39.650  28.355  1.00  0.00    -0.237 OA
ATOM     81  O   UNL A   1      45.346  39.464  26.040  1.00  0.00    -0.237 OA
ATOM     82  O   UNL A   1      42.946  39.134  26.493  1.00  0.00    -0.744 OA
ENDBRANCH  78  79
ENDBRANCH  57  71
BRANCH  58  83
ATOM     83  C   UNL A   1      38.126  32.012  30.902  1.00  0.00     0.058 A 
ATOM     84  C   UNL A   1      37.454  31.829  32.132  1.00  0.00     0.135 A 
ATOM     85  C   UNL A   1      37.419  32.749  29.940  1.00  0.00     0.135 A 
ATOM     86  F   UNL A   1      38.012  31.099  33.110  1.00  0.00    -0.206 F 
ATOM     87  C   UNL A   1      36.238  32.457  32.437  1.00  0.00     0.059 A 
ATOM     88  C   UNL A   1      36.201  33.391  30.218  1.00  0.00     0.059 A 
ATOM     89  F   UNL A   1      37.953  32.940  28.728  1.00  0.00    -0.206 F 
ATOM     90  C   UNL A   1      35.642  33.282  31.489  1.00  0.00     0.060 A 
BRANCH  90  91
ATOM     91  S   UNL A   1      34.244  34.329  31.982  1.00  0.00     0.124 S 
ATOM     92  O   UNL A   1      33.524  33.465  32.912  1.00  0.00    -0.237 OA
ATOM     93  O   UNL A   1      34.913  35.483  32.577  1.00  0.00    -0.237 OA
ATOM     94  O   UNL A   1      33.560  34.596  30.720  1.00  0.00    -0.744 OA
ENDBRANCH  90  91
ENDBRANCH  58  83
BRANCH  70  95
ATOM     95  C   UNL A   1      43.643  31.341  33.583  1.00  0.00     0.058 A 
ATOM     96  C   UNL A   1      43.553  31.539  34.973  1.00  0.00     0.135 A 
ATOM     97  C   UNL A   1      43.623  30.008  33.144  1.00  0.00     0.135 A 
ATOM     98  F   UNL A   1      43.516  32.764  35.498  1.00  0.00    -0.206 F 
ATOM     99  C   UNL A   1      43.446  30.478  35.877  1.00  0.00     0.059 A 
ATOM    100  C   UNL A   1      43.489  28.931  34.024  1.00  0.00     0.059 A 
ATOM    101  F   UNL A   1      43.686  29.734  31.831  1.00  0.00    -0.206 F 
ATOM    102  C   UNL A   1      43.399  29.175  35.391  1.00  0.00     0.060 A 
BRANCH 102 103
ATOM    103  S   UNL A   1      43.147  27.820  36.558  1.00  0.00     0.124 S 
ATOM    104  O   UNL A   1      43.439  26.648  35.741  1.00  0.00    -0.237 OA
ATOM    105  O   UNL A   1      44.121  28.121  37.603  1.00  0.00    -0.237 OA
ATOM    106  O   UNL A   1      41.750  27.969  36.958  1.00  0.00    -0.744 OA
ENDBRANCH 102 103
ENDBRANCH  70  95
ENDBRANCH  44  45
ENDBRANCH  37  39
ENDBRANCH  36  37
ENDBRANCH  35  36
ENDBRANCH  34  35
ENDBRANCH  33  34
ENDBRANCH  32  33
ENDBRANCH   1  32
TORSDOF 25
ENDMDL
MODEL 3
REMARK VINA RESULT:     -10.3      7.085     14.704
REMARK SMILES CCn1c(C(=O)OCCOCCOCCOC(=O)c2ccc(-c3c4nc(c(-c5c(F)cc(S(=O)(=O)[O-])cc5F)c5ccc([nH]5)c(-c5c(F)cc(S(=O)(=O)[O-])cc5F)c5nc(c(-c6c(F)cc(S(=O)(=O)[O-])cc6F)c6ccc3[nH]6)C=C5)C=C4)cc2)c(C[NH2+]Cc2ccccc2Cl)c2ccc(C)cc21
REMARK SMILES IDX 11 1 10 2 9 3 8 4 7 5 5 6 6 7 4 8 3 9 102 10 85 11 96 12
REMARK SMILES IDX 101 13 97 14 99 15 98 16 100 17 2 18 1 19 86 20 87 21 88 24
REMARK SMILES IDX 89 25 90 26 94 27 91 28 93 29 95 30 92 31 12 32 13 33 14 34
REMARK SMILES IDX 15 35 16 36 17 37 18 38 19 39 20 40 84 41 21 42 83 43 22 44
REMARK SMILES IDX 23 45 24 46 77 47 25 48 82 49 76 50 78 51 26 52 81 53 75 54
REMARK SMILES IDX 74 55 27 57 61 58 40 59 60 60 41 61 44 62 59 63 79 64 42 65
REMARK SMILES IDX 43 66 58 68 80 69 45 70 28 71 29 72 38 73 30 74 31 75 37 76
REMARK SMILES IDX 39 77 32 78 33 79 34 80 35 81 36 82 62 83 63 84 72 85 64 86
REMARK SMILES IDX 65 87 71 88 73 89 66 90 67 91 68 92 69 93 70 94 46 95 47 96
REMARK SMILES IDX 56 97 48 98 49 99 55 100 57 101 50 102 51 103 52 104 53 105
REMARK SMILES IDX 54 106
REMARK H PARENT 87 22 87 23 78 56 44 67
REMARK Flexibility Score: inf
ROOT
ATOM      1  C   UNL A   1      43.644  42.605  31.896  1.00  0.00     0.188 C 
ENDROOT
BRANCH   1   2
ATOM      2  O   UNL A   1      43.229  43.600  30.987  1.00  0.00    -0.376 OA
BRANCH   2   3
ATOM      3  C   UNL A   1      44.109  44.663  30.732  1.00  0.00     0.202 C 
BRANCH   3   4
ATOM      4  C   UNL A   1      44.839  44.726  29.379  1.00  0.00     0.261 C 
BRANCH   4   5
ATOM      5  O   UNL A   1      44.592  43.701  28.400  1.00  0.00    -0.459 OA
BRANCH   5   6
ATOM      6  C   UNL A   1      45.346  43.714  27.268  1.00  0.00     0.355 C 
ATOM      7  O   UNL A   1      46.516  44.120  27.301  1.00  0.00    -0.244 OA
BRANCH   6   8
ATOM      8  C   UNL A   1      44.689  43.192  26.067  1.00  0.00     0.137 A 
ATOM      9  N   UNL A   1      44.717  43.701  24.774  1.00  0.00    -0.335 N 
ATOM     10  C   UNL A   1      43.904  42.989  23.929  1.00  0.00     0.049 A 
ATOM     11  C   UNL A   1      43.896  42.048  25.950  1.00  0.00     0.047 A 
ATOM     12  C   UNL A   1      43.148  42.158  24.728  1.00  0.00     0.009 A 
ATOM     13  C   UNL A   1      43.679  43.174  22.562  1.00  0.00     0.030 A 
ATOM     14  C   UNL A   1      41.976  41.629  24.153  1.00  0.00     0.011 A 
ATOM     15  C   UNL A   1      42.374  42.979  22.144  1.00  0.00    -0.049 A 
ATOM     16  C   UNL A   1      41.539  42.171  22.918  1.00  0.00     0.004 A 
ATOM     17  C   UNL A   1      41.888  43.861  21.023  1.00  0.00     0.044 C 
BRANCH   9  18
ATOM     18  C   UNL A   1      45.397  44.879  24.287  1.00  0.00     0.119 C 
ATOM     19  C   UNL A   1      46.850  44.690  23.787  1.00  0.00     0.027 C 
ENDBRANCH   9  18
BRANCH  11  20
ATOM     20  C   UNL A   1      43.911  40.936  26.930  1.00  0.00     0.300 C 
BRANCH  20  21
ATOM     21  N   UNL A   1      42.759  41.240  27.802  1.00  0.00    -0.339 N 
ATOM     22  H   UNL A   1      42.308  42.080  27.442  1.00  0.00     0.346 HD
ATOM     23  H   UNL A   1      43.144  41.342  28.741  1.00  0.00     0.346 HD
BRANCH  21  24
ATOM     24  C   UNL A   1      41.751  40.203  27.903  1.00  0.00     0.299 C 
BRANCH  24  25
ATOM     25  C   UNL A   1      42.434  38.861  27.925  1.00  0.00     0.025 A 
ATOM     26  C   UNL A   1      42.095  37.945  26.909  1.00  0.00     0.011 A 
ATOM     27  C   UNL A   1      43.107  38.405  29.068  1.00  0.00     0.049 A 
ATOM     28  C   UNL A   1      42.321  36.585  27.087  1.00  0.00     0.001 A 
ATOM     29  C   UNL A   1      43.319  37.039  29.243  1.00  0.00     0.021 A 
ATOM     30  Cl  UNL A   1      43.556  39.461  30.360  1.00  0.00    -0.084 Cl
ATOM     31  C   UNL A   1      42.907  36.132  28.266  1.00  0.00     0.002 A 
ENDBRANCH  24  25
ENDBRANCH  21  24
ENDBRANCH  20  21
ENDBRANCH  11  20
ENDBRANCH   6   8
ENDBRANCH   5   6
ENDBRANCH   4   5
ENDBRANCH   3   4
ENDBRANCH   2   3
ENDBRANCH   1   2
BRANCH   1  32
ATOM     32  C   UNL A   1      44.691  43.219  32.843  1.00  0.00     0.188 C 
BRANCH  32  33
ATOM     33  O   UNL A   1      45.973  42.581  32.863  1.00  0.00    -0.376 OA
BRANCH  33  34
ATOM     34  C   UNL A   1      46.473  42.124  31.612  1.00  0.00     0.202 C 
BRANCH  34  35
ATOM     35  C   UNL A   1      47.034  40.694  31.649  1.00  0.00     0.261 C 
BRANCH  35  36
ATOM     36  O   UNL A   1      46.569  39.952  32.808  1.00  0.00    -0.460 OA
BRANCH  36  37
ATOM     37  C   UNL A   1      46.716  38.602  32.788  1.00  0.00     0.338 C 
ATOM     38  O   UNL A   1      47.775  38.012  32.943  1.00  0.00    -0.246 OA
BRANCH  37  39
ATOM     39  C   UNL A   1      45.375  37.921  32.883  1.00  0.00     0.060 A 
ATOM     40  C   UNL A   1      44.190  38.461  33.413  1.00  0.00     0.016 A 
ATOM     41  C   UNL A   1      45.365  36.578  32.545  1.00  0.00     0.016 A 
ATOM     42  C   UNL A   1      43.084  37.623  33.779  1.00  0.00     0.010 A 
ATOM     43  C   UNL A   1      44.252  35.787  32.856  1.00  0.00     0.010 A 
ATOM     44  C   UNL A   1      43.135  36.236  33.605  1.00  0.00    -0.014 A 
BRANCH  44  45
ATOM     45  C   UNL A   1      41.991  35.248  33.859  1.00  0.00     0.031 A 
ATOM     46  C   UNL A   1      41.832  35.121  35.317  1.00  0.00     0.074 A 
ATOM     47  C   UNL A   1      40.985  34.631  33.132  1.00  0.00     0.049 A 
ATOM     48  N   UNL A   1      42.401  34.196  36.014  1.00  0.00    -0.248 NA
ATOM     49  C   UNL A   1      41.197  36.177  36.119  1.00  0.00     0.031 C 
ATOM     50  C   UNL A   1      40.726  34.603  31.697  1.00  0.00     0.029 A 
ATOM     51  N   UNL A   1      39.801  34.022  33.568  1.00  0.00    -0.354 N 
ATOM     52  C   UNL A   1      41.863  34.359  37.270  1.00  0.00     0.074 A 
ATOM     53  C   UNL A   1      41.450  35.734  37.353  1.00  0.00     0.031 C 
ATOM     54  C   UNL A   1      39.421  34.411  31.389  1.00  0.00     0.029 A 
ATOM     55  C   UNL A   1      38.763  33.957  32.597  1.00  0.00     0.049 A 
ATOM     56  H   UNL A   1      39.695  33.664  34.479  1.00  0.00     0.167 HD
ATOM     57  C   UNL A   1      41.404  33.276  37.947  1.00  0.00     0.037 A 
ATOM     58  C   UNL A   1      37.562  33.303  32.593  1.00  0.00     0.037 A 
ATOM     59  C   UNL A   1      41.782  32.036  37.294  1.00  0.00     0.049 A 
ATOM     60  C   UNL A   1      37.755  32.134  33.462  1.00  0.00     0.074 A 
ATOM     61  C   UNL A   1      42.965  31.502  36.814  1.00  0.00     0.029 A 
ATOM     62  N   UNL A   1      40.769  31.324  36.696  1.00  0.00    -0.354 N 
ATOM     63  N   UNL A   1      38.511  31.121  33.147  1.00  0.00    -0.248 NA
ATOM     64  C   UNL A   1      37.329  32.205  34.848  1.00  0.00     0.031 C 
ATOM     65  C   UNL A   1      42.613  30.709  35.685  1.00  0.00     0.029 A 
ATOM     66  C   UNL A   1      41.227  30.717  35.550  1.00  0.00     0.049 A 
ATOM     67  H   UNL A   1      39.849  31.258  37.039  1.00  0.00     0.167 HD
ATOM     68  C   UNL A   1      39.061  30.751  34.354  1.00  0.00     0.074 A 
ATOM     69  C   UNL A   1      38.149  31.285  35.359  1.00  0.00     0.031 C 
ATOM     70  C   UNL A   1      40.374  30.389  34.419  1.00  0.00     0.037 A 
BRANCH  57  71
ATOM     71  C   UNL A   1      40.282  33.344  38.946  1.00  0.00     0.058 A 
ATOM     72  C   UNL A   1      40.519  32.866  40.244  1.00  0.00     0.135 A 
ATOM     73  C   UNL A   1      38.936  33.654  38.636  1.00  0.00     0.135 A 
ATOM     74  F   UNL A   1      41.757  32.505  40.619  1.00  0.00    -0.206 F 
ATOM     75  C   UNL A   1      39.491  32.681  41.163  1.00  0.00     0.059 A 
ATOM     76  C   UNL A   1      37.907  33.544  39.559  1.00  0.00     0.059 A 
ATOM     77  F   UNL A   1      38.540  33.984  37.400  1.00  0.00    -0.206 F 
ATOM     78  C   UNL A   1      38.189  33.024  40.810  1.00  0.00     0.060 A 
BRANCH  78  79
ATOM     79  S   UNL A   1      36.856  32.725  41.979  1.00  0.00     0.124 S 
ATOM     80  O   UNL A   1      37.606  32.431  43.195  1.00  0.00    -0.237 OA
ATOM     81  O   UNL A   1      36.145  34.000  41.957  1.00  0.00    -0.237 OA
ATOM     82  O   UNL A   1      36.137  31.602  41.387  1.00  0.00    -0.744 OA
ENDBRANCH  78  79
ENDBRANCH  57  71
BRANCH  58  83
ATOM     83  C   UNL A   1      36.245  33.514  31.903  1.00  0.00     0.058 A 
ATOM     84  C   UNL A   1      35.316  34.478  32.358  1.00  0.00     0.135 A 
ATOM     85  C   UNL A   1      36.027  33.046  30.598  1.00  0.00     0.135 A 
ATOM     86  F   UNL A   1      35.395  34.961  33.607  1.00  0.00    -0.206 F 
ATOM     87  C   UNL A   1      34.338  35.045  31.529  1.00  0.00     0.059 A 
ATOM     88  C   UNL A   1      35.056  33.596  29.744  1.00  0.00     0.059 A 
ATOM     89  F   UNL A   1      36.827  32.100  30.092  1.00  0.00    -0.206 F 
ATOM     90  C   UNL A   1      34.249  34.634  30.203  1.00  0.00     0.060 A 
BRANCH  90  91
ATOM     91  S   UNL A   1      33.201  35.573  29.056  1.00  0.00     0.124 S 
ATOM     92  O   UNL A   1      34.187  36.300  28.262  1.00  0.00    -0.237 OA
ATOM     93  O   UNL A   1      32.479  34.515  28.355  1.00  0.00    -0.237 OA
ATOM     94  O   UNL A   1      32.382  36.395  29.942  1.00  0.00    -0.744 OA
ENDBRANCH  90  91
ENDBRANCH  58  83
BRANCH  70  95
ATOM     95  C   UNL A   1      41.038  29.842  33.167  1.00  0.00     0.058 A 
ATOM     96  C   UNL A   1      40.825  28.565  32.618  1.00  0.00     0.135 A 
ATOM     97  C   UNL A   1      41.847  30.710  32.419  1.00  0.00     0.135 A 
ATOM     98  F   UNL A   1      40.035  27.674  33.221  1.00  0.00    -0.206 F 
ATOM     99  C   UNL A   1      41.377  28.170  31.396  1.00  0.00     0.059 A 
ATOM    100  C   UNL A   1      42.389  30.352  31.182  1.00  0.00     0.059 A 
ATOM    101  F   UNL A   1      42.086  31.955  32.864  1.00  0.00    -0.206 F 
ATOM    102  C   UNL A   1      42.147  29.078  30.675  1.00  0.00     0.060 A 
BRANCH 102 103
ATOM    103  S   UNL A   1      42.761  28.597  29.047  1.00  0.00     0.124 S 
ATOM    104  O   UNL A   1      42.697  29.854  28.308  1.00  0.00    -0.237 OA
ATOM    105  O   UNL A   1      44.103  28.109  29.349  1.00  0.00    -0.237 OA
ATOM    106  O   UNL A   1      41.815  27.571  28.614  1.00  0.00    -0.744 OA
ENDBRANCH 102 103
ENDBRANCH  70  95
ENDBRANCH  44  45
ENDBRANCH  37  39
ENDBRANCH  36  37
ENDBRANCH  35  36
ENDBRANCH  34  35
ENDBRANCH  33  34
ENDBRANCH  32  33
ENDBRANCH   1  32
TORSDOF 25
ENDMDL
