MODEL 1
REMARK VINA RESULT:      -8.6      0.000      0.000
REMARK SMILES O=C(C[N@@H+](Cc1c(F)cccc1Cl)C1CC1)OCCOCCOCCOC(=O)c1ccc(-c2c3nc(c(-c4c(F)cc(S(=O)(=O)[O-])cc4F)c4ccc([nH]4)c(-c4c(F)cc(S(=O)(=O)[O-])cc4F)c4nc(c(-c5c(F)cc(S(=O)(=O)[O-])cc5F)c5ccc2[nH]5)C=C4)C=C3)cc1
REMARK SMILES IDX 21 1 20 2 19 3 18 4 17 5 2 6 1 7 3 8 4 9 5 11 6 12 7 13
REMARK SMILES IDX 12 14 8 15 9 16 11 17 13 18 10 19 14 20 15 21 16 22 22 23
REMARK SMILES IDX 23 24 24 25 25 26 26 27 27 28 28 29 29 30 30 31 94 32 31 33
REMARK SMILES IDX 93 34 32 35 33 36 34 37 87 38 35 39 92 40 86 41 88 42 36 43
REMARK SMILES IDX 91 44 85 45 84 46 37 48 71 49 50 50 70 51 51 52 54 53 69 54
REMARK SMILES IDX 89 55 52 56 53 57 68 59 90 60 55 61 38 62 39 63 48 64 40 65
REMARK SMILES IDX 41 66 47 67 49 68 42 69 43 70 44 71 45 72 46 73 72 74 73 75
REMARK SMILES IDX 82 76 74 77 75 78 81 79 83 80 76 81 77 82 78 83 79 84 80 85
REMARK SMILES IDX 56 86 57 87 66 88 58 89 59 90 65 91 67 92 60 93 61 94 62 95
REMARK SMILES IDX 63 96 64 97
REMARK H PARENT 4 10 88 47 54 58
REMARK Flexibility Score: inf
ROOT
ATOM      1  C   UNL A   1      46.395  42.596  27.403  1.00  0.00     0.188 C 
ENDROOT
BRANCH   1   2
ATOM      2  O   UNL A   1      45.170  42.972  26.790  1.00  0.00    -0.376 OA
BRANCH   2   3
ATOM      3  C   UNL A   1      44.892  42.334  25.551  1.00  0.00     0.202 C 
BRANCH   3   4
ATOM      4  C   UNL A   1      43.898  43.152  24.727  1.00  0.00     0.261 C 
BRANCH   4   5
ATOM      5  O   UNL A   1      44.092  43.125  23.295  1.00  0.00    -0.459 OA
BRANCH   5   6
ATOM      6  C   UNL A   1      45.262  43.324  22.645  1.00  0.00     0.361 C 
ATOM      7  O   UNL A   1      46.163  43.965  23.186  1.00  0.00    -0.245 OA
BRANCH   6   8
ATOM      8  C   UNL A   1      45.394  42.824  21.221  1.00  0.00     0.387 C 
BRANCH   8   9
ATOM      9  N   UNL A   1      45.659  43.898  20.251  1.00  0.00    -0.319 N 
ATOM     10  H   UNL A   1      45.528  43.558  19.299  1.00  0.00     0.349 HD
BRANCH   9  11
ATOM     11  C   UNL A   1      44.617  44.958  20.207  1.00  0.00     0.304 C 
BRANCH  11  12
ATOM     12  C   UNL A   1      43.793  45.054  18.943  1.00  0.00     0.061 A 
ATOM     13  C   UNL A   1      44.150  45.979  17.954  1.00  0.00     0.133 A 
ATOM     14  C   UNL A   1      42.617  44.328  18.727  1.00  0.00     0.052 A 
ATOM     15  F   UNL A   1      45.368  46.537  17.974  1.00  0.00    -0.206 F 
ATOM     16  C   UNL A   1      43.275  46.349  16.937  1.00  0.00     0.040 A 
ATOM     17  C   UNL A   1      41.695  44.744  17.765  1.00  0.00     0.021 A 
ATOM     18  Cl  UNL A   1      42.281  42.839  19.545  1.00  0.00    -0.084 Cl
ATOM     19  C   UNL A   1      42.012  45.776  16.885  1.00  0.00     0.005 A 
ENDBRANCH  11  12
ENDBRANCH   9  11
BRANCH   9  20
ATOM     20  C   UNL A   1      47.091  44.262  20.268  1.00  0.00     0.185 C 
ATOM     21  C   UNL A   1      48.264  43.451  19.824  1.00  0.00     0.071 C 
ATOM     22  C   UNL A   1      47.780  44.574  18.959  1.00  0.00     0.071 C 
ENDBRANCH   9  20
ENDBRANCH   8   9
ENDBRANCH   6   8
ENDBRANCH   5   6
ENDBRANCH   4   5
ENDBRANCH   3   4
ENDBRANCH   2   3
ENDBRANCH   1   2
BRANCH   1  23
ATOM     23  C   UNL A   1      46.210  41.870  28.746  1.00  0.00     0.188 C 
BRANCH  23  24
ATOM     24  O   UNL A   1      46.342  40.456  28.793  1.00  0.00    -0.376 OA
BRANCH  24  25
ATOM     25  C   UNL A   1      45.754  39.753  29.880  1.00  0.00     0.202 C 
BRANCH  25  26
ATOM     26  C   UNL A   1      46.180  38.299  30.101  1.00  0.00     0.261 C 
BRANCH  26  27
ATOM     27  O   UNL A   1      46.179  37.478  28.915  1.00  0.00    -0.460 OA
BRANCH  27  28
ATOM     28  C   UNL A   1      47.407  37.036  28.543  1.00  0.00     0.338 C 
ATOM     29  O   UNL A   1      48.412  37.706  28.379  1.00  0.00    -0.246 OA
BRANCH  28  30
ATOM     30  C   UNL A   1      47.431  35.571  28.376  1.00  0.00     0.060 A 
ATOM     31  C   UNL A   1      47.278  35.035  27.093  1.00  0.00     0.016 A 
ATOM     32  C   UNL A   1      47.361  34.744  29.501  1.00  0.00     0.016 A 
ATOM     33  C   UNL A   1      47.011  33.671  26.937  1.00  0.00     0.010 A 
ATOM     34  C   UNL A   1      47.080  33.381  29.340  1.00  0.00     0.010 A 
ATOM     35  C   UNL A   1      46.866  32.842  28.061  1.00  0.00    -0.014 A 
BRANCH  35  36
ATOM     36  C   UNL A   1      46.361  31.452  27.902  1.00  0.00     0.031 A 
ATOM     37  C   UNL A   1      47.316  30.352  27.540  1.00  0.00     0.074 A 
ATOM     38  C   UNL A   1      45.059  31.162  28.066  1.00  0.00     0.049 A 
ATOM     39  N   UNL A   1      47.065  29.085  27.332  1.00  0.00    -0.248 NA
ATOM     40  C   UNL A   1      48.722  30.734  27.346  1.00  0.00     0.031 C 
ATOM     41  C   UNL A   1      44.025  32.150  28.324  1.00  0.00     0.029 A 
ATOM     42  N   UNL A   1      44.382  29.967  28.054  1.00  0.00    -0.354 N 
ATOM     43  C   UNL A   1      48.268  28.527  26.921  1.00  0.00     0.074 A 
ATOM     44  C   UNL A   1      49.254  29.590  26.940  1.00  0.00     0.031 C 
ATOM     45  C   UNL A   1      42.859  31.520  28.539  1.00  0.00     0.029 A 
ATOM     46  C   UNL A   1      43.052  30.084  28.393  1.00  0.00     0.049 A 
ATOM     47  H   UNL A   1      44.806  29.109  27.827  1.00  0.00     0.167 HD
ATOM     48  C   UNL A   1      48.516  27.254  26.531  1.00  0.00     0.037 A 
ATOM     49  C   UNL A   1      42.100  29.145  28.564  1.00  0.00     0.037 A 
ATOM     50  C   UNL A   1      47.531  26.203  26.508  1.00  0.00     0.049 A 
ATOM     51  C   UNL A   1      42.427  27.715  28.235  1.00  0.00     0.074 A 
ATOM     52  C   UNL A   1      47.687  24.887  26.109  1.00  0.00     0.029 A 
ATOM     53  N   UNL A   1      46.208  26.345  26.903  1.00  0.00    -0.354 N 
ATOM     54  N   UNL A   1      43.568  27.206  27.840  1.00  0.00    -0.248 NA
ATOM     55  C   UNL A   1      41.329  26.742  28.321  1.00  0.00     0.031 C 
ATOM     56  C   UNL A   1      46.451  24.240  26.235  1.00  0.00     0.029 A 
ATOM     57  C   UNL A   1      45.536  25.142  26.753  1.00  0.00     0.049 A 
ATOM     58  H   UNL A   1      45.806  27.177  27.240  1.00  0.00     0.167 HD
ATOM     59  C   UNL A   1      43.318  25.862  27.594  1.00  0.00     0.074 A 
ATOM     60  C   UNL A   1      41.933  25.623  27.942  1.00  0.00     0.031 C 
ATOM     61  C   UNL A   1      44.153  24.920  27.092  1.00  0.00     0.037 A 
BRANCH  48  62
ATOM     62  C   UNL A   1      49.901  26.950  26.036  1.00  0.00     0.058 A 
ATOM     63  C   UNL A   1      50.926  26.547  26.904  1.00  0.00     0.135 A 
ATOM     64  C   UNL A   1      50.201  27.061  24.669  1.00  0.00     0.135 A 
ATOM     65  F   UNL A   1      50.694  26.447  28.223  1.00  0.00    -0.206 F 
ATOM     66  C   UNL A   1      52.212  26.293  26.438  1.00  0.00     0.059 A 
ATOM     67  C   UNL A   1      51.473  26.790  24.177  1.00  0.00     0.059 A 
ATOM     68  F   UNL A   1      49.256  27.448  23.798  1.00  0.00    -0.206 F 
ATOM     69  C   UNL A   1      52.476  26.423  25.073  1.00  0.00     0.060 A 
BRANCH  69  70
ATOM     70  S   UNL A   1      54.152  26.103  24.482  1.00  0.00     0.124 S 
ATOM     71  O   UNL A   1      54.311  24.690  24.811  1.00  0.00    -0.237 OA
ATOM     72  O   UNL A   1      54.049  26.415  23.060  1.00  0.00    -0.237 OA
ATOM     73  O   UNL A   1      54.969  27.027  25.265  1.00  0.00    -0.744 OA
ENDBRANCH  69  70
ENDBRANCH  48  62
BRANCH  49  74
ATOM     74  C   UNL A   1      40.753  29.514  29.081  1.00  0.00     0.058 A 
ATOM     75  C   UNL A   1      40.574  29.817  30.441  1.00  0.00     0.135 A 
ATOM     76  C   UNL A   1      39.628  29.590  28.246  1.00  0.00     0.135 A 
ATOM     77  F   UNL A   1      41.614  29.751  31.286  1.00  0.00    -0.206 F 
ATOM     78  C   UNL A   1      39.331  30.178  30.955  1.00  0.00     0.059 A 
ATOM     79  C   UNL A   1      38.383  29.980  28.729  1.00  0.00     0.059 A 
ATOM     80  F   UNL A   1      39.744  29.320  26.937  1.00  0.00    -0.206 F 
ATOM     81  C   UNL A   1      38.243  30.264  30.087  1.00  0.00     0.060 A 
BRANCH  81  82
ATOM     82  S   UNL A   1      36.654  30.823  30.737  1.00  0.00     0.124 S 
ATOM     83  O   UNL A   1      35.921  31.115  29.512  1.00  0.00    -0.237 OA
ATOM     84  O   UNL A   1      36.207  29.656  31.493  1.00  0.00    -0.237 OA
ATOM     85  O   UNL A   1      37.020  31.978  31.552  1.00  0.00    -0.744 OA
ENDBRANCH  81  82
ENDBRANCH  49  74
BRANCH  61  86
ATOM     86  C   UNL A   1      43.585  23.547  26.872  1.00  0.00     0.058 A 
ATOM     87  C   UNL A   1      43.318  23.068  25.579  1.00  0.00     0.135 A 
ATOM     88  C   UNL A   1      43.355  22.685  27.954  1.00  0.00     0.135 A 
ATOM     89  F   UNL A   1      43.516  23.858  24.511  1.00  0.00    -0.206 F 
ATOM     90  C   UNL A   1      42.824  21.785  25.369  1.00  0.00     0.059 A 
ATOM     91  C   UNL A   1      42.879  21.391  27.766  1.00  0.00     0.059 A 
ATOM     92  F   UNL A   1      43.600  23.094  29.209  1.00  0.00    -0.206 F 
ATOM     93  C   UNL A   1      42.608  20.954  26.469  1.00  0.00     0.060 A 
BRANCH  93  94
ATOM     94  S   UNL A   1      41.999  19.279  26.181  1.00  0.00     0.124 S 
ATOM     95  O   UNL A   1      42.370  18.613  27.425  1.00  0.00    -0.237 OA
ATOM     96  O   UNL A   1      40.569  19.493  25.977  1.00  0.00    -0.237 OA
ATOM     97  O   UNL A   1      42.737  18.850  24.995  1.00  0.00    -0.744 OA
ENDBRANCH  93  94
ENDBRANCH  61  86
ENDBRANCH  35  36
ENDBRANCH  28  30
ENDBRANCH  27  28
ENDBRANCH  26  27
ENDBRANCH  25  26
ENDBRANCH  24  25
ENDBRANCH  23  24
ENDBRANCH   1  23
TORSDOF 24
ENDMDL
MODEL 2
REMARK VINA RESULT:      -8.5      2.888      8.799
REMARK SMILES O=C(C[N@@H+](Cc1c(F)cccc1Cl)C1CC1)OCCOCCOCCOC(=O)c1ccc(-c2c3nc(c(-c4c(F)cc(S(=O)(=O)[O-])cc4F)c4ccc([nH]4)c(-c4c(F)cc(S(=O)(=O)[O-])cc4F)c4nc(c(-c5c(F)cc(S(=O)(=O)[O-])cc5F)c5ccc2[nH]5)C=C4)C=C3)cc1
REMARK SMILES IDX 21 1 20 2 19 3 18 4 17 5 2 6 1 7 3 8 4 9 5 11 6 12 7 13
REMARK SMILES IDX 12 14 8 15 9 16 11 17 13 18 10 19 14 20 15 21 16 22 22 23
REMARK SMILES IDX 23 24 24 25 25 26 26 27 27 28 28 29 29 30 30 31 94 32 31 33
REMARK SMILES IDX 93 34 32 35 33 36 34 37 87 38 35 39 92 40 86 41 88 42 36 43
REMARK SMILES IDX 91 44 85 45 84 46 37 48 71 49 50 50 70 51 51 52 54 53 69 54
REMARK SMILES IDX 89 55 52 56 53 57 68 59 90 60 55 61 38 62 39 63 48 64 40 65
REMARK SMILES IDX 41 66 47 67 49 68 42 69 43 70 44 71 45 72 46 73 72 74 73 75
REMARK SMILES IDX 82 76 74 77 75 78 81 79 83 80 76 81 77 82 78 83 79 84 80 85
REMARK SMILES IDX 56 86 57 87 66 88 58 89 59 90 65 91 67 92 60 93 61 94 62 95
REMARK SMILES IDX 63 96 64 97
REMARK H PARENT 4 10 88 47 54 58
REMARK Flexibility Score: inf
ROOT
ATOM      1  C   UNL A   1      42.407  35.308  29.914  1.00  0.00     0.188 C 
ENDROOT
BRANCH   1   2
ATOM      2  O   UNL A   1      42.988  35.924  28.773  1.00  0.00    -0.376 OA
BRANCH   2   3
ATOM      3  C   UNL A   1      42.596  37.271  28.545  1.00  0.00     0.202 C 
BRANCH   3   4
ATOM      4  C   UNL A   1      43.250  37.824  27.279  1.00  0.00     0.261 C 
BRANCH   4   5
ATOM      5  O   UNL A   1      44.450  38.604  27.479  1.00  0.00    -0.459 OA
BRANCH   5   6
ATOM      6  C   UNL A   1      44.738  39.788  26.893  1.00  0.00     0.361 C 
ATOM      7  O   UNL A   1      45.108  39.818  25.719  1.00  0.00    -0.245 OA
BRANCH   6   8
ATOM      8  C   UNL A   1      44.683  41.047  27.736  1.00  0.00     0.387 C 
BRANCH   8   9
ATOM      9  N   UNL A   1      45.573  42.112  27.248  1.00  0.00    -0.319 N 
ATOM     10  H   UNL A   1      45.917  41.888  26.314  1.00  0.00     0.349 HD
BRANCH   9  11
ATOM     11  C   UNL A   1      44.879  43.376  26.886  1.00  0.00     0.304 C 
BRANCH  11  12
ATOM     12  C   UNL A   1      44.833  43.733  25.417  1.00  0.00     0.061 A 
ATOM     13  C   UNL A   1      45.844  44.531  24.867  1.00  0.00     0.133 A 
ATOM     14  C   UNL A   1      43.775  43.388  24.569  1.00  0.00     0.052 A 
ATOM     15  F   UNL A   1      46.991  44.705  25.538  1.00  0.00    -0.206 F 
ATOM     16  C   UNL A   1      45.700  45.160  23.635  1.00  0.00     0.040 A 
ATOM     17  C   UNL A   1      43.577  44.075  23.370  1.00  0.00     0.021 A 
ATOM     18  Cl  UNL A   1      42.726  42.048  24.890  1.00  0.00    -0.084 Cl
ATOM     19  C   UNL A   1      44.528  44.984  22.913  1.00  0.00     0.005 A 
ENDBRANCH  11  12
ENDBRANCH   9  11
BRANCH   9  20
ATOM     20  C   UNL A   1      46.816  42.146  28.047  1.00  0.00     0.185 C 
ATOM     21  C   UNL A   1      47.582  41.004  28.629  1.00  0.00     0.071 C 
ATOM     22  C   UNL A   1      48.108  41.693  27.407  1.00  0.00     0.071 C 
ENDBRANCH   9  20
ENDBRANCH   8   9
ENDBRANCH   6   8
ENDBRANCH   5   6
ENDBRANCH   4   5
ENDBRANCH   3   4
ENDBRANCH   2   3
ENDBRANCH   1   2
BRANCH   1  23
ATOM     23  C   UNL A   1      41.209  34.404  29.579  1.00  0.00     0.188 C 
BRANCH  23  24
ATOM     24  O   UNL A   1      39.913  34.977  29.487  1.00  0.00    -0.376 OA
BRANCH  24  25
ATOM     25  C   UNL A   1      38.867  34.425  30.278  1.00  0.00     0.202 C 
BRANCH  25  26
ATOM     26  C   UNL A   1      38.057  33.272  29.680  1.00  0.00     0.261 C 
BRANCH  26  27
ATOM     27  O   UNL A   1      37.448  32.391  30.645  1.00  0.00    -0.460 OA
BRANCH  27  28
ATOM     28  C   UNL A   1      37.055  31.195  30.139  1.00  0.00     0.338 C 
ATOM     29  O   UNL A   1      35.911  30.805  29.978  1.00  0.00    -0.246 OA
BRANCH  28  30
ATOM     30  C   UNL A   1      38.207  30.366  29.742  1.00  0.00     0.060 A 
ATOM     31  C   UNL A   1      39.183  30.065  30.698  1.00  0.00     0.016 A 
ATOM     32  C   UNL A   1      38.437  30.100  28.390  1.00  0.00     0.016 A 
ATOM     33  C   UNL A   1      40.413  29.534  30.294  1.00  0.00     0.010 A 
ATOM     34  C   UNL A   1      39.675  29.581  27.988  1.00  0.00     0.010 A 
ATOM     35  C   UNL A   1      40.684  29.330  28.932  1.00  0.00    -0.014 A 
BRANCH  35  36
ATOM     36  C   UNL A   1      42.062  28.983  28.490  1.00  0.00     0.031 A 
ATOM     37  C   UNL A   1      42.349  27.607  27.966  1.00  0.00     0.074 A 
ATOM     38  C   UNL A   1      43.061  29.879  28.562  1.00  0.00     0.049 A 
ATOM     39  N   UNL A   1      43.487  27.106  27.559  1.00  0.00    -0.248 NA
ATOM     40  C   UNL A   1      41.223  26.662  27.938  1.00  0.00     0.031 C 
ATOM     41  C   UNL A   1      42.932  31.208  29.135  1.00  0.00     0.029 A 
ATOM     42  N   UNL A   1      44.369  29.822  28.146  1.00  0.00    -0.354 N 
ATOM     43  C   UNL A   1      43.232  25.769  27.283  1.00  0.00     0.074 A 
ATOM     44  C   UNL A   1      41.823  25.547  27.543  1.00  0.00     0.031 C 
ATOM     45  C   UNL A   1      44.081  31.879  28.955  1.00  0.00     0.029 A 
ATOM     46  C   UNL A   1      45.045  31.013  28.290  1.00  0.00     0.049 A 
ATOM     47  H   UNL A   1      44.784  29.008  27.780  1.00  0.00     0.167 HD
ATOM     48  C   UNL A   1      44.101  24.811  26.886  1.00  0.00     0.037 A 
ATOM     49  C   UNL A   1      46.295  31.366  27.930  1.00  0.00     0.037 A 
ATOM     50  C   UNL A   1      45.503  25.035  26.637  1.00  0.00     0.049 A 
ATOM     51  C   UNL A   1      47.215  30.311  27.381  1.00  0.00     0.074 A 
ATOM     52  C   UNL A   1      46.466  24.119  26.250  1.00  0.00     0.029 A 
ATOM     53  N   UNL A   1      46.142  26.262  26.745  1.00  0.00    -0.354 N 
ATOM     54  N   UNL A   1      46.960  29.049  27.135  1.00  0.00    -0.248 NA
ATOM     55  C   UNL A   1      48.604  30.710  27.113  1.00  0.00     0.031 C 
ATOM     56  C   UNL A   1      47.693  24.785  26.152  1.00  0.00     0.029 A 
ATOM     57  C   UNL A   1      47.487  26.126  26.437  1.00  0.00     0.049 A 
ATOM     58  H   UNL A   1      45.706  27.105  27.003  1.00  0.00     0.167 HD
ATOM     59  C   UNL A   1      48.163  28.494  26.719  1.00  0.00     0.074 A 
ATOM     60  C   UNL A   1      49.133  29.569  26.688  1.00  0.00     0.031 C 
ATOM     61  C   UNL A   1      48.445  27.202  26.422  1.00  0.00     0.037 A 
BRANCH  48  62
ATOM     62  C   UNL A   1      43.567  23.413  26.760  1.00  0.00     0.058 A 
ATOM     63  C   UNL A   1      43.286  22.623  27.884  1.00  0.00     0.135 A 
ATOM     64  C   UNL A   1      43.330  22.860  25.491  1.00  0.00     0.135 A 
ATOM     65  F   UNL A   1      43.516  23.099  29.119  1.00  0.00    -0.206 F 
ATOM     66  C   UNL A   1      42.816  21.320  27.755  1.00  0.00     0.059 A 
ATOM     67  C   UNL A   1      42.839  21.568  25.338  1.00  0.00     0.059 A 
ATOM     68  F   UNL A   1      43.588  23.574  24.384  1.00  0.00    -0.206 F 
ATOM     69  C   UNL A   1      42.601  20.800  26.477  1.00  0.00     0.060 A 
BRANCH  69  70
ATOM     70  S   UNL A   1      42.004  19.104  26.322  1.00  0.00     0.124 S 
ATOM     71  O   UNL A   1      42.109  18.633  27.699  1.00  0.00    -0.237 OA
ATOM     72  O   UNL A   1      40.647  19.293  25.819  1.00  0.00    -0.237 OA
ATOM     73  O   UNL A   1      42.940  18.501  25.378  1.00  0.00    -0.744 OA
ENDBRANCH  69  70
ENDBRANCH  48  62
BRANCH  49  74
ATOM     74  C   UNL A   1      46.754  32.777  28.061  1.00  0.00     0.058 A 
ATOM     75  C   UNL A   1      46.493  33.706  27.040  1.00  0.00     0.135 A 
ATOM     76  C   UNL A   1      47.439  33.236  29.195  1.00  0.00     0.135 A 
ATOM     77  F   UNL A   1      45.849  33.317  25.928  1.00  0.00    -0.206 F 
ATOM     78  C   UNL A   1      46.897  35.034  27.136  1.00  0.00     0.059 A 
ATOM     79  C   UNL A   1      47.824  34.567  29.330  1.00  0.00     0.059 A 
ATOM     80  F   UNL A   1      47.708  32.394  30.205  1.00  0.00    -0.206 F 
ATOM     81  C   UNL A   1      47.556  35.456  28.290  1.00  0.00     0.060 A 
BRANCH  81  82
ATOM     82  S   UNL A   1      47.994  37.200  28.453  1.00  0.00     0.124 S 
ATOM     83  O   UNL A   1      47.154  37.611  29.571  1.00  0.00    -0.237 OA
ATOM     84  O   UNL A   1      49.428  37.130  28.717  1.00  0.00    -0.237 OA
ATOM     85  O   UNL A   1      47.637  37.753  27.150  1.00  0.00    -0.744 OA
ENDBRANCH  81  82
ENDBRANCH  49  74
BRANCH  61  86
ATOM     86  C   UNL A   1      49.865  26.876  26.056  1.00  0.00     0.058 A 
ATOM     87  C   UNL A   1      50.297  26.897  24.721  1.00  0.00     0.135 A 
ATOM     88  C   UNL A   1      50.813  26.591  27.051  1.00  0.00     0.135 A 
ATOM     89  F   UNL A   1      49.425  27.157  23.733  1.00  0.00    -0.206 F 
ATOM     90  C   UNL A   1      51.618  26.628  24.381  1.00  0.00     0.059 A 
ATOM     91  C   UNL A   1      52.145  26.339  26.735  1.00  0.00     0.059 A 
ATOM     92  F   UNL A   1      50.451  26.565  28.343  1.00  0.00    -0.206 F 
ATOM     93  C   UNL A   1      52.535  26.351  25.396  1.00  0.00     0.060 A 
BRANCH  93  94
ATOM     94  S   UNL A   1      54.256  26.039  24.946  1.00  0.00     0.124 S 
ATOM     95  O   UNL A   1      54.271  26.444  23.545  1.00  0.00    -0.237 OA
ATOM     96  O   UNL A   1      54.985  26.907  25.867  1.00  0.00    -0.237 OA
ATOM     97  O   UNL A   1      54.414  24.607  25.188  1.00  0.00    -0.744 OA
ENDBRANCH  93  94
ENDBRANCH  61  86
ENDBRANCH  35  36
ENDBRANCH  28  30
ENDBRANCH  27  28
ENDBRANCH  26  27
ENDBRANCH  25  26
ENDBRANCH  24  25
ENDBRANCH  23  24
ENDBRANCH   1  23
TORSDOF 24
ENDMDL
MODEL 3
REMARK VINA RESULT:      -8.4      1.311      2.084
REMARK SMILES O=C(C[N@@H+](Cc1c(F)cccc1Cl)C1CC1)OCCOCCOCCOC(=O)c1ccc(-c2c3nc(c(-c4c(F)cc(S(=O)(=O)[O-])cc4F)c4ccc([nH]4)c(-c4c(F)cc(S(=O)(=O)[O-])cc4F)c4nc(c(-c5c(F)cc(S(=O)(=O)[O-])cc5F)c5ccc2[nH]5)C=C4)C=C3)cc1
REMARK SMILES IDX 21 1 20 2 19 3 18 4 17 5 2 6 1 7 3 8 4 9 5 11 6 12 7 13
REMARK SMILES IDX 12 14 8 15 9 16 11 17 13 18 10 19 14 20 15 21 16 22 22 23
REMARK SMILES IDX 23 24 24 25 25 26 26 27 27 28 28 29 29 30 30 31 94 32 31 33
REMARK SMILES IDX 93 34 32 35 33 36 34 37 87 38 35 39 92 40 86 41 88 42 36 43
REMARK SMILES IDX 91 44 85 45 84 46 37 48 71 49 50 50 70 51 51 52 54 53 69 54
REMARK SMILES IDX 89 55 52 56 53 57 68 59 90 60 55 61 38 62 39 63 48 64 40 65
REMARK SMILES IDX 41 66 47 67 49 68 42 69 43 70 44 71 45 72 46 73 72 74 73 75
REMARK SMILES IDX 82 76 74 77 75 78 81 79 83 80 76 81 77 82 78 83 79 84 80 85
REMARK SMILES IDX 56 86 57 87 66 88 58 89 59 90 65 91 67 92 60 93 61 94 62 95
REMARK SMILES IDX 63 96 64 97
REMARK H PARENT 4 10 88 47 54 58
REMARK Flexibility Score: inf
ROOT
ATOM      1  C   UNL A   1      46.970  42.596  27.762  1.00  0.00     0.188 C 
ENDROOT
BRANCH   1   2
ATOM      2  O   UNL A   1      46.307  42.347  26.530  1.00  0.00    -0.376 OA
BRANCH   2   3
ATOM      3  C   UNL A   1      46.975  41.450  25.654  1.00  0.00     0.202 C 
BRANCH   3   4
ATOM      4  C   UNL A   1      46.560  41.693  24.203  1.00  0.00     0.261 C 
BRANCH   4   5
ATOM      5  O   UNL A   1      47.082  42.892  23.590  1.00  0.00    -0.459 OA
BRANCH   5   6
ATOM      6  C   UNL A   1      47.569  42.998  22.332  1.00  0.00     0.361 C 
ATOM      7  O   UNL A   1      48.757  43.270  22.156  1.00  0.00    -0.245 OA
BRANCH   6   8
ATOM      8  C   UNL A   1      46.608  42.867  21.168  1.00  0.00     0.387 C 
BRANCH   8   9
ATOM      9  N   UNL A   1      45.959  44.136  20.804  1.00  0.00    -0.319 N 
ATOM     10  H   UNL A   1      45.222  43.975  20.119  1.00  0.00     0.349 HD
BRANCH   9  11
ATOM     11  C   UNL A   1      45.094  44.712  21.868  1.00  0.00     0.304 C 
BRANCH  11  12
ATOM     12  C   UNL A   1      43.797  43.991  22.158  1.00  0.00     0.061 A 
ATOM     13  C   UNL A   1      43.443  43.710  23.483  1.00  0.00     0.133 A 
ATOM     14  C   UNL A   1      42.949  43.492  21.162  1.00  0.00     0.052 A 
ATOM     15  F   UNL A   1      44.068  44.343  24.485  1.00  0.00    -0.206 F 
ATOM     16  C   UNL A   1      42.456  42.783  23.804  1.00  0.00     0.040 A 
ATOM     17  C   UNL A   1      42.013  42.501  21.463  1.00  0.00     0.021 A 
ATOM     18  Cl  UNL A   1      42.929  44.130  19.553  1.00  0.00    -0.084 Cl
ATOM     19  C   UNL A   1      41.785  42.124  22.784  1.00  0.00     0.005 A 
ENDBRANCH  11  12
ENDBRANCH   9  11
BRANCH   9  20
ATOM     20  C   UNL A   1      46.903  44.998  20.063  1.00  0.00     0.185 C 
ATOM     21  C   UNL A   1      47.776  44.645  18.904  1.00  0.00     0.071 C 
ATOM     22  C   UNL A   1      46.536  45.452  18.669  1.00  0.00     0.071 C 
ENDBRANCH   9  20
ENDBRANCH   8   9
ENDBRANCH   6   8
ENDBRANCH   5   6
ENDBRANCH   4   5
ENDBRANCH   3   4
ENDBRANCH   2   3
ENDBRANCH   1   2
BRANCH   1  23
ATOM     23  C   UNL A   1      46.398  41.788  28.939  1.00  0.00     0.188 C 
BRANCH  23  24
ATOM     24  O   UNL A   1      46.886  40.475  29.179  1.00  0.00    -0.376 OA
BRANCH  24  25
ATOM     25  C   UNL A   1      46.291  39.707  30.218  1.00  0.00     0.202 C 
BRANCH  25  26
ATOM     26  C   UNL A   1      46.596  38.207  30.257  1.00  0.00     0.261 C 
BRANCH  26  27
ATOM     27  O   UNL A   1      46.305  37.494  29.038  1.00  0.00    -0.460 OA
BRANCH  27  28
ATOM     28  C   UNL A   1      47.404  37.073  28.363  1.00  0.00     0.338 C 
ATOM     29  O   UNL A   1      48.310  37.764  27.930  1.00  0.00    -0.246 OA
BRANCH  28  30
ATOM     30  C   UNL A   1      47.426  35.606  28.218  1.00  0.00     0.060 A 
ATOM     31  C   UNL A   1      47.247  35.050  26.947  1.00  0.00     0.016 A 
ATOM     32  C   UNL A   1      47.379  34.796  29.356  1.00  0.00     0.016 A 
ATOM     33  C   UNL A   1      46.977  33.684  26.817  1.00  0.00     0.010 A 
ATOM     34  C   UNL A   1      47.097  33.431  29.223  1.00  0.00     0.010 A 
ATOM     35  C   UNL A   1      46.856  32.873  27.956  1.00  0.00    -0.014 A 
BRANCH  35  36
ATOM     36  C   UNL A   1      46.349  31.480  27.829  1.00  0.00     0.031 A 
ATOM     37  C   UNL A   1      47.294  30.378  27.448  1.00  0.00     0.074 A 
ATOM     38  C   UNL A   1      45.054  31.189  28.039  1.00  0.00     0.049 A 
ATOM     39  N   UNL A   1      47.039  29.108  27.262  1.00  0.00    -0.248 NA
ATOM     40  C   UNL A   1      48.692  30.760  27.204  1.00  0.00     0.031 C 
ATOM     41  C   UNL A   1      44.026  32.179  28.320  1.00  0.00     0.029 A 
ATOM     42  N   UNL A   1      44.379  29.993  28.062  1.00  0.00    -0.354 N 
ATOM     43  C   UNL A   1      48.229  28.548  26.818  1.00  0.00     0.074 A 
ATOM     44  C   UNL A   1      49.213  29.612  26.793  1.00  0.00     0.031 C 
ATOM     45  C   UNL A   1      42.869  31.549  28.579  1.00  0.00     0.029 A 
ATOM     46  C   UNL A   1      43.061  30.112  28.443  1.00  0.00     0.049 A 
ATOM     47  H   UNL A   1      44.797  29.133  27.830  1.00  0.00     0.167 HD
ATOM     48  C   UNL A   1      48.467  27.271  26.434  1.00  0.00     0.037 A 
ATOM     49  C   UNL A   1      42.117  29.173  28.655  1.00  0.00     0.037 A 
ATOM     50  C   UNL A   1      47.484  26.218  26.455  1.00  0.00     0.049 A 
ATOM     51  C   UNL A   1      42.436  27.740  28.332  1.00  0.00     0.074 A 
ATOM     52  C   UNL A   1      47.629  24.898  26.065  1.00  0.00     0.029 A 
ATOM     53  N   UNL A   1      46.174  26.362  26.891  1.00  0.00    -0.354 N 
ATOM     54  N   UNL A   1      43.565  27.229  27.904  1.00  0.00    -0.248 NA
ATOM     55  C   UNL A   1      41.343  26.766  28.464  1.00  0.00     0.031 C 
ATOM     56  C   UNL A   1      46.400  24.250  26.238  1.00  0.00     0.029 A 
ATOM     57  C   UNL A   1      45.500  25.157  26.777  1.00  0.00     0.049 A 
ATOM     58  H   UNL A   1      45.782  27.197  27.232  1.00  0.00     0.167 HD
ATOM     59  C   UNL A   1      43.309  25.882  27.682  1.00  0.00     0.074 A 
ATOM     60  C   UNL A   1      41.936  25.644  28.077  1.00  0.00     0.031 C 
ATOM     61  C   UNL A   1      44.130  24.936  27.163  1.00  0.00     0.037 A 
BRANCH  48  62
ATOM     62  C   UNL A   1      49.835  26.963  25.897  1.00  0.00     0.058 A 
ATOM     63  C   UNL A   1      50.846  26.428  26.708  1.00  0.00     0.135 A 
ATOM     64  C   UNL A   1      50.134  27.208  24.547  1.00  0.00     0.135 A 
ATOM     65  F   UNL A   1      50.616  26.197  28.011  1.00  0.00    -0.206 F 
ATOM     66  C   UNL A   1      52.118  26.172  26.207  1.00  0.00     0.059 A 
ATOM     67  C   UNL A   1      51.392  26.938  24.018  1.00  0.00     0.059 A 
ATOM     68  F   UNL A   1      49.203  27.725  23.730  1.00  0.00    -0.206 F 
ATOM     69  C   UNL A   1      52.382  26.435  24.861  1.00  0.00     0.060 A 
BRANCH  69  70
ATOM     70  S   UNL A   1      54.040  26.111  24.225  1.00  0.00     0.124 S 
ATOM     71  O   UNL A   1      54.792  27.224  24.795  1.00  0.00    -0.237 OA
ATOM     72  O   UNL A   1      54.338  24.795  24.779  1.00  0.00    -0.237 OA
ATOM     73  O   UNL A   1      53.860  26.150  22.776  1.00  0.00    -0.744 OA
ENDBRANCH  69  70
ENDBRANCH  48  62
BRANCH  49  74
ATOM     74  C   UNL A   1      40.787  29.546  29.212  1.00  0.00     0.058 A 
ATOM     75  C   UNL A   1      40.647  29.838  30.579  1.00  0.00     0.135 A 
ATOM     76  C   UNL A   1      39.640  29.635  28.409  1.00  0.00     0.135 A 
ATOM     77  F   UNL A   1      41.709  29.759  31.394  1.00  0.00    -0.206 F 
ATOM     78  C   UNL A   1      39.421  30.202  31.129  1.00  0.00     0.059 A 
ATOM     79  C   UNL A   1      38.410  30.028  28.929  1.00  0.00     0.059 A 
ATOM     80  F   UNL A   1      39.718  29.375  27.095  1.00  0.00    -0.206 F 
ATOM     81  C   UNL A   1      38.309  30.301  30.293  1.00  0.00     0.060 A 
BRANCH  81  82
ATOM     82  S   UNL A   1      36.743  30.864  30.991  1.00  0.00     0.124 S 
ATOM     83  O   UNL A   1      37.037  32.261  31.284  1.00  0.00    -0.237 OA
ATOM     84  O   UNL A   1      35.814  30.619  29.892  1.00  0.00    -0.237 OA
ATOM     85  O   UNL A   1      36.566  29.994  32.149  1.00  0.00    -0.744 OA
ENDBRANCH  81  82
ENDBRANCH  49  74
BRANCH  61  86
ATOM     86  C   UNL A   1      43.557  23.559  26.976  1.00  0.00     0.058 A 
ATOM     87  C   UNL A   1      43.363  22.697  28.067  1.00  0.00     0.135 A 
ATOM     88  C   UNL A   1      43.153  23.118  25.707  1.00  0.00     0.135 A 
ATOM     89  F   UNL A   1      43.741  23.071  29.300  1.00  0.00    -0.206 F 
ATOM     90  C   UNL A   1      42.804  21.434  27.902  1.00  0.00     0.059 A 
ATOM     91  C   UNL A   1      42.573  21.867  25.523  1.00  0.00     0.059 A 
ATOM     92  F   UNL A   1      43.312  23.908  24.634  1.00  0.00    -0.206 F 
ATOM     93  C   UNL A   1      42.411  21.029  26.626  1.00  0.00     0.060 A 
BRANCH  93  94
ATOM     94  S   UNL A   1      41.653  19.402  26.430  1.00  0.00     0.124 S 
ATOM     95  O   UNL A   1      40.247  19.751  26.255  1.00  0.00    -0.237 OA
ATOM     96  O   UNL A   1      42.330  18.879  25.246  1.00  0.00    -0.237 OA
ATOM     97  O   UNL A   1      41.981  18.723  27.681  1.00  0.00    -0.744 OA
ENDBRANCH  93  94
ENDBRANCH  61  86
ENDBRANCH  35  36
ENDBRANCH  28  30
ENDBRANCH  27  28
ENDBRANCH  26  27
ENDBRANCH  25  26
ENDBRANCH  24  25
ENDBRANCH  23  24
ENDBRANCH   1  23
TORSDOF 24
ENDMDL
