MODEL 1
REMARK VINA RESULT:     -10.0      0.000      0.000
REMARK SMILES C[C@](NC(=O)Cc1cccc(F)c1F)(C(=O)OCCOCCOCCOC(=O)c1ccc(-c2c3nc(c(-c4c(F)cc(S(=O)(=O)[O-])cc4F)c4ccc([nH]4)c(-c4c(F)cc(S(=O)(=O)[O-])cc4F)c4nc(c(-c5c(F)cc(S(=O)(=O)[O-])cc5F)c5ccc2[nH]5)C=C4)C=C3)cc1)C1CC1
REMARK SMILES IDX 21 1 20 2 19 3 18 4 17 5 15 6 16 7 2 8 1 9 95 10 96 11 97 12
REMARK SMILES IDX 3 13 4 14 5 16 6 17 7 18 8 19 13 20 9 21 11 22 14 23 10 24
REMARK SMILES IDX 12 25 22 26 23 27 24 28 25 29 26 30 27 31 28 32 29 33 30 34
REMARK SMILES IDX 94 35 31 36 93 37 32 38 33 39 34 40 87 41 35 42 92 43 86 44
REMARK SMILES IDX 88 45 36 46 91 47 85 48 84 49 37 51 71 52 50 53 70 54 51 55
REMARK SMILES IDX 54 56 69 57 89 58 52 59 53 60 68 62 90 63 55 64 38 65 39 66
REMARK SMILES IDX 48 67 40 68 41 69 47 70 49 71 42 72 43 73 44 74 45 75 46 76
REMARK SMILES IDX 72 77 73 78 82 79 74 80 75 81 81 82 83 83 76 84 77 85 78 86
REMARK SMILES IDX 79 87 80 88 56 89 57 90 66 91 58 92 59 93 65 94 67 95 60 96
REMARK SMILES IDX 61 97 62 98 63 99 64 100
REMARK H PARENT 3 15 88 50 54 61
REMARK Flexibility Score: inf
ROOT
ATOM      1  C   UNL A   1      38.270  21.870  25.565  1.00  0.00     0.188 C 
ENDROOT
BRANCH   1   2
ATOM      2  O   UNL A   1      36.914  21.510  25.812  1.00  0.00    -0.376 OA
BRANCH   2   3
ATOM      3  C   UNL A   1      36.043  21.341  24.705  1.00  0.00     0.202 C 
BRANCH   3   4
ATOM      4  C   UNL A   1      34.599  20.936  25.008  1.00  0.00     0.261 C 
BRANCH   4   5
ATOM      5  O   UNL A   1      33.858  21.907  25.772  1.00  0.00    -0.461 OA
BRANCH   5   6
ATOM      6  C   UNL A   1      32.772  22.459  25.150  1.00  0.00     0.331 C 
ATOM      7  O   UNL A   1      31.728  21.853  24.937  1.00  0.00    -0.249 OA
BRANCH   6   8
ATOM      8  C   UNL A   1      32.942  23.999  24.859  1.00  0.00     0.138 C 
ATOM      9  C   UNL A   1      34.009  24.582  25.801  1.00  0.00     0.048 C 
BRANCH   8  10
ATOM     10  C   UNL A   1      33.550  24.105  23.435  1.00  0.00     0.026 C 
ATOM     11  C   UNL A   1      33.469  23.093  22.305  1.00  0.00     0.007 C 
ATOM     12  C   UNL A   1      32.668  24.358  22.229  1.00  0.00     0.007 C 
ENDBRANCH   8  10
BRANCH   8  13
ATOM     13  N   UNL A   1      31.668  24.753  24.911  1.00  0.00    -0.340 N 
ATOM     14  C   UNL A   1      31.325  26.060  24.792  1.00  0.00     0.225 C 
ATOM     15  H   UNL A   1      30.890  24.170  25.068  1.00  0.00     0.164 HD
ATOM     16  O   UNL A   1      30.145  26.347  25.034  1.00  0.00    -0.275 OA
BRANCH  14  17
ATOM     17  C   UNL A   1      32.284  27.149  24.361  1.00  0.00     0.138 C 
BRANCH  17  18
ATOM     18  C   UNL A   1      32.495  28.245  25.375  1.00  0.00     0.000 A 
ATOM     19  C   UNL A   1      33.420  28.090  26.420  1.00  0.00     0.007 A 
ATOM     20  C   UNL A   1      31.770  29.438  25.311  1.00  0.00     0.162 A 
ATOM     21  C   UNL A   1      33.621  29.114  27.354  1.00  0.00     0.004 A 
ATOM     22  C   UNL A   1      31.990  30.464  26.221  1.00  0.00     0.159 A 
ATOM     23  F   UNL A   1      30.852  29.614  24.354  1.00  0.00    -0.203 F 
ATOM     24  C   UNL A   1      32.914  30.310  27.246  1.00  0.00     0.042 A 
ATOM     25  F   UNL A   1      31.329  31.623  26.101  1.00  0.00    -0.204 F 
ENDBRANCH  17  18
ENDBRANCH  14  17
ENDBRANCH   8  13
ENDBRANCH   6   8
ENDBRANCH   5   6
ENDBRANCH   4   5
ENDBRANCH   3   4
ENDBRANCH   2   3
ENDBRANCH   1   2
BRANCH   1  26
ATOM     26  C   UNL A   1      38.947  22.914  26.472  1.00  0.00     0.188 C 
BRANCH  26  27
ATOM     27  O   UNL A   1      40.122  22.440  27.115  1.00  0.00    -0.376 OA
BRANCH  27  28
ATOM     28  C   UNL A   1      41.066  21.796  26.275  1.00  0.00     0.202 C 
BRANCH  28  29
ATOM     29  C   UNL A   1      42.342  22.622  26.092  1.00  0.00     0.261 C 
BRANCH  29  30
ATOM     30  O   UNL A   1      42.126  24.044  26.073  1.00  0.00    -0.460 OA
BRANCH  30  31
ATOM     31  C   UNL A   1      43.139  24.808  26.534  1.00  0.00     0.338 C 
ATOM     32  O   UNL A   1      44.292  24.820  26.118  1.00  0.00    -0.246 OA
BRANCH  31  33
ATOM     33  C   UNL A   1      42.591  25.790  27.490  1.00  0.00     0.060 A 
ATOM     34  C   UNL A   1      43.190  27.051  27.561  1.00  0.00     0.016 A 
ATOM     35  C   UNL A   1      41.498  25.483  28.307  1.00  0.00     0.016 A 
ATOM     36  C   UNL A   1      42.713  28.002  28.462  1.00  0.00     0.010 A 
ATOM     37  C   UNL A   1      41.031  26.431  29.225  1.00  0.00     0.010 A 
ATOM     38  C   UNL A   1      41.649  27.691  29.321  1.00  0.00    -0.014 A 
BRANCH  38  39
ATOM     39  C   UNL A   1      41.327  28.621  30.432  1.00  0.00     0.031 A 
ATOM     40  C   UNL A   1      42.180  28.577  31.671  1.00  0.00     0.074 A 
ATOM     41  C   UNL A   1      40.345  29.535  30.326  1.00  0.00     0.049 A 
ATOM     42  N   UNL A   1      42.120  29.316  32.749  1.00  0.00    -0.248 NA
ATOM     43  C   UNL A   1      43.254  27.569  31.690  1.00  0.00     0.031 C 
ATOM     44  C   UNL A   1      39.468  29.709  29.169  1.00  0.00     0.029 A 
ATOM     45  N   UNL A   1      39.924  30.497  31.213  1.00  0.00    -0.354 N 
ATOM     46  C   UNL A   1      43.159  28.881  33.563  1.00  0.00     0.074 A 
ATOM     47  C   UNL A   1      43.809  27.786  32.873  1.00  0.00     0.031 C 
ATOM     48  C   UNL A   1      38.604  30.709  29.423  1.00  0.00     0.029 A 
ATOM     49  C   UNL A   1      38.853  31.234  30.765  1.00  0.00     0.049 A 
ATOM     50  H   UNL A   1      40.350  30.643  32.089  1.00  0.00     0.167 HD
ATOM     51  C   UNL A   1      43.550  29.356  34.769  1.00  0.00     0.037 A 
ATOM     52  C   UNL A   1      38.147  32.209  31.376  1.00  0.00     0.037 A 
ATOM     53  C   UNL A   1      42.887  30.420  35.476  1.00  0.00     0.049 A 
ATOM     54  C   UNL A   1      38.551  32.667  32.758  1.00  0.00     0.074 A 
ATOM     55  C   UNL A   1      43.189  30.944  36.721  1.00  0.00     0.029 A 
ATOM     56  N   UNL A   1      41.787  31.118  35.006  1.00  0.00    -0.354 N 
ATOM     57  N   UNL A   1      39.543  32.252  33.510  1.00  0.00    -0.248 NA
ATOM     58  C   UNL A   1      37.742  33.732  33.369  1.00  0.00     0.031 C 
ATOM     59  C   UNL A   1      42.247  31.935  37.019  1.00  0.00     0.029 A 
ATOM     60  C   UNL A   1      41.388  32.060  35.939  1.00  0.00     0.049 A 
ATOM     61  H   UNL A   1      41.351  30.967  34.135  1.00  0.00     0.167 HD
ATOM     62  C   UNL A   1      39.489  33.021  34.670  1.00  0.00     0.074 A 
ATOM     63  C   UNL A   1      38.380  33.938  34.512  1.00  0.00     0.031 C 
ATOM     64  C   UNL A   1      40.284  32.971  35.769  1.00  0.00     0.037 A 
BRANCH  51  65
ATOM     65  C   UNL A   1      44.746  28.707  35.405  1.00  0.00     0.058 A 
ATOM     66  C   UNL A   1      44.610  27.591  36.245  1.00  0.00     0.135 A 
ATOM     67  C   UNL A   1      46.039  29.194  35.161  1.00  0.00     0.135 A 
ATOM     68  F   UNL A   1      43.392  27.102  36.530  1.00  0.00    -0.206 F 
ATOM     69  C   UNL A   1      45.715  26.993  36.841  1.00  0.00     0.059 A 
ATOM     70  C   UNL A   1      47.161  28.597  35.727  1.00  0.00     0.059 A 
ATOM     71  F   UNL A   1      46.222  30.263  34.370  1.00  0.00    -0.206 F 
ATOM     72  C   UNL A   1      46.987  27.505  36.577  1.00  0.00     0.060 A 
BRANCH  72  73
ATOM     73  S   UNL A   1      48.411  26.718  37.358  1.00  0.00     0.124 S 
ATOM     74  O   UNL A   1      48.409  27.351  38.673  1.00  0.00    -0.237 OA
ATOM     75  O   UNL A   1      48.042  25.306  37.335  1.00  0.00    -0.237 OA
ATOM     76  O   UNL A   1      49.523  27.086  36.487  1.00  0.00    -0.744 OA
ENDBRANCH  72  73
ENDBRANCH  51  65
BRANCH  52  77
ATOM     77  C   UNL A   1      36.963  32.811  30.704  1.00  0.00     0.058 A 
ATOM     78  C   UNL A   1      37.103  33.802  29.721  1.00  0.00     0.135 A 
ATOM     79  C   UNL A   1      35.661  32.434  31.069  1.00  0.00     0.135 A 
ATOM     80  F   UNL A   1      38.326  34.209  29.349  1.00  0.00    -0.206 F 
ATOM     81  C   UNL A   1      35.996  34.417  29.141  1.00  0.00     0.059 A 
ATOM     82  C   UNL A   1      34.539  33.013  30.484  1.00  0.00     0.059 A 
ATOM     83  F   UNL A   1      35.472  31.486  32.000  1.00  0.00    -0.206 F 
ATOM     84  C   UNL A   1      34.717  34.016  29.532  1.00  0.00     0.060 A 
BRANCH  84  85
ATOM     85  S   UNL A   1      33.285  34.800  28.760  1.00  0.00     0.124 S 
ATOM     86  O   UNL A   1      32.439  35.071  29.917  1.00  0.00    -0.237 OA
ATOM     87  O   UNL A   1      33.882  35.968  28.119  1.00  0.00    -0.237 OA
ATOM     88  O   UNL A   1      32.795  33.774  27.844  1.00  0.00    -0.744 OA
ENDBRANCH  84  85
ENDBRANCH  52  77
BRANCH  64  89
ATOM     89  C   UNL A   1      40.007  33.957  36.873  1.00  0.00     0.058 A 
ATOM     90  C   UNL A   1      39.203  33.627  37.975  1.00  0.00     0.135 A 
ATOM     91  C   UNL A   1      40.580  35.239  36.843  1.00  0.00     0.135 A 
ATOM     92  F   UNL A   1      38.629  32.415  38.054  1.00  0.00    -0.206 F 
ATOM     93  C   UNL A   1      38.946  34.543  38.990  1.00  0.00     0.059 A 
ATOM     94  C   UNL A   1      40.359  36.162  37.861  1.00  0.00     0.059 A 
ATOM     95  F   UNL A   1      41.370  35.603  35.820  1.00  0.00    -0.206 F 
ATOM     96  C   UNL A   1      39.526  35.812  38.922  1.00  0.00     0.060 A 
BRANCH  96  97
ATOM     97  S   UNL A   1      39.194  36.993  40.247  1.00  0.00     0.124 S 
ATOM     98  O   UNL A   1      38.647  38.123  39.502  1.00  0.00    -0.237 OA
ATOM     99  O   UNL A   1      38.244  36.266  41.084  1.00  0.00    -0.237 OA
ATOM    100  O   UNL A   1      40.507  37.210  40.845  1.00  0.00    -0.744 OA
ENDBRANCH  96  97
ENDBRANCH  64  89
ENDBRANCH  38  39
ENDBRANCH  31  33
ENDBRANCH  30  31
ENDBRANCH  29  30
ENDBRANCH  28  29
ENDBRANCH  27  28
ENDBRANCH  26  27
ENDBRANCH   1  26
TORSDOF 24
ENDMDL
MODEL 2
REMARK VINA RESULT:      -9.6      1.232      8.168
REMARK SMILES C[C@](NC(=O)Cc1cccc(F)c1F)(C(=O)OCCOCCOCCOC(=O)c1ccc(-c2c3nc(c(-c4c(F)cc(S(=O)(=O)[O-])cc4F)c4ccc([nH]4)c(-c4c(F)cc(S(=O)(=O)[O-])cc4F)c4nc(c(-c5c(F)cc(S(=O)(=O)[O-])cc5F)c5ccc2[nH]5)C=C4)C=C3)cc1)C1CC1
REMARK SMILES IDX 21 1 20 2 19 3 18 4 17 5 15 6 16 7 2 8 1 9 95 10 96 11 97 12
REMARK SMILES IDX 3 13 4 14 5 16 6 17 7 18 8 19 13 20 9 21 11 22 14 23 10 24
REMARK SMILES IDX 12 25 22 26 23 27 24 28 25 29 26 30 27 31 28 32 29 33 30 34
REMARK SMILES IDX 94 35 31 36 93 37 32 38 33 39 34 40 87 41 35 42 92 43 86 44
REMARK SMILES IDX 88 45 36 46 91 47 85 48 84 49 37 51 71 52 50 53 70 54 51 55
REMARK SMILES IDX 54 56 69 57 89 58 52 59 53 60 68 62 90 63 55 64 38 65 39 66
REMARK SMILES IDX 48 67 40 68 41 69 47 70 49 71 42 72 43 73 44 74 45 75 46 76
REMARK SMILES IDX 72 77 73 78 82 79 74 80 75 81 81 82 83 83 76 84 77 85 78 86
REMARK SMILES IDX 79 87 80 88 56 89 57 90 66 91 58 92 59 93 65 94 67 95 60 96
REMARK SMILES IDX 61 97 62 98 63 99 64 100
REMARK H PARENT 3 15 88 50 54 61
REMARK Flexibility Score: inf
ROOT
ATOM      1  C   UNL A   1      39.148  21.860  26.124  1.00  0.00     0.188 C 
ENDROOT
BRANCH   1   2
ATOM      2  O   UNL A   1      37.969  22.252  25.426  1.00  0.00    -0.376 OA
BRANCH   2   3
ATOM      3  C   UNL A   1      36.707  21.954  26.002  1.00  0.00     0.202 C 
BRANCH   3   4
ATOM      4  C   UNL A   1      35.669  21.284  25.099  1.00  0.00     0.261 C 
BRANCH   4   5
ATOM      5  O   UNL A   1      34.303  21.499  25.505  1.00  0.00    -0.461 OA
BRANCH   5   6
ATOM      6  C   UNL A   1      33.412  21.763  24.502  1.00  0.00     0.331 C 
ATOM      7  O   UNL A   1      33.084  20.943  23.650  1.00  0.00    -0.249 OA
BRANCH   6   8
ATOM      8  C   UNL A   1      32.739  23.182  24.628  1.00  0.00     0.138 C 
ATOM      9  C   UNL A   1      33.821  24.236  24.917  1.00  0.00     0.048 C 
BRANCH   8  10
ATOM     10  C   UNL A   1      32.195  23.529  23.216  1.00  0.00     0.026 C 
ATOM     11  C   UNL A   1      32.294  24.849  22.474  1.00  0.00     0.007 C 
ATOM     12  C   UNL A   1      33.133  23.686  22.037  1.00  0.00     0.007 C 
ENDBRANCH   8  10
BRANCH   8  13
ATOM     13  N   UNL A   1      31.630  23.223  25.610  1.00  0.00    -0.340 N 
ATOM     14  C   UNL A   1      31.095  24.181  26.407  1.00  0.00     0.225 C 
ATOM     15  H   UNL A   1      31.178  22.354  25.706  1.00  0.00     0.164 HD
ATOM     16  O   UNL A   1      30.240  23.809  27.222  1.00  0.00    -0.275 OA
BRANCH  14  17
ATOM     17  C   UNL A   1      31.463  25.648  26.330  1.00  0.00     0.138 C 
BRANCH  17  18
ATOM     18  C   UNL A   1      30.755  26.422  25.248  1.00  0.00     0.000 A 
ATOM     19  C   UNL A   1      29.499  26.011  24.772  1.00  0.00     0.007 A 
ATOM     20  C   UNL A   1      31.331  27.562  24.680  1.00  0.00     0.162 A 
ATOM     21  C   UNL A   1      28.840  26.739  23.774  1.00  0.00     0.004 A 
ATOM     22  C   UNL A   1      30.664  28.299  23.710  1.00  0.00     0.159 A 
ATOM     23  F   UNL A   1      32.542  27.970  25.076  1.00  0.00    -0.203 F 
ATOM     24  C   UNL A   1      29.418  27.895  23.251  1.00  0.00     0.042 A 
ATOM     25  F   UNL A   1      31.208  29.424  23.227  1.00  0.00    -0.204 F 
ENDBRANCH  17  18
ENDBRANCH  14  17
ENDBRANCH   8  13
ENDBRANCH   6   8
ENDBRANCH   5   6
ENDBRANCH   4   5
ENDBRANCH   3   4
ENDBRANCH   2   3
ENDBRANCH   1   2
BRANCH   1  26
ATOM     26  C   UNL A   1      40.069  22.946  26.712  1.00  0.00     0.188 C 
BRANCH  26  27
ATOM     27  O   UNL A   1      41.365  22.476  27.053  1.00  0.00    -0.376 OA
BRANCH  27  28
ATOM     28  C   UNL A   1      42.201  22.130  25.961  1.00  0.00     0.202 C 
BRANCH  28  29
ATOM     29  C   UNL A   1      43.207  23.235  25.624  1.00  0.00     0.261 C 
BRANCH  29  30
ATOM     30  O   UNL A   1      43.354  24.230  26.653  1.00  0.00    -0.460 OA
BRANCH  30  31
ATOM     31  C   UNL A   1      43.373  25.517  26.242  1.00  0.00     0.338 C 
ATOM     32  O   UNL A   1      43.594  25.916  25.104  1.00  0.00    -0.246 OA
BRANCH  31  33
ATOM     33  C   UNL A   1      42.874  26.369  27.338  1.00  0.00     0.060 A 
ATOM     34  C   UNL A   1      43.354  27.679  27.429  1.00  0.00     0.016 A 
ATOM     35  C   UNL A   1      41.943  25.893  28.267  1.00  0.00     0.016 A 
ATOM     36  C   UNL A   1      42.921  28.512  28.461  1.00  0.00     0.010 A 
ATOM     37  C   UNL A   1      41.522  26.724  29.314  1.00  0.00     0.010 A 
ATOM     38  C   UNL A   1      42.025  28.032  29.428  1.00  0.00    -0.014 A 
BRANCH  38  39
ATOM     39  C   UNL A   1      41.776  28.847  30.643  1.00  0.00     0.031 A 
ATOM     40  C   UNL A   1      40.616  29.807  30.634  1.00  0.00     0.074 A 
ATOM     41  C   UNL A   1      42.514  28.697  31.758  1.00  0.00     0.049 A 
ATOM     42  N   UNL A   1      40.178  30.589  31.587  1.00  0.00    -0.248 NA
ATOM     43  C   UNL A   1      39.841  29.884  29.385  1.00  0.00     0.031 C 
ATOM     44  C   UNL A   1      43.642  27.780  31.912  1.00  0.00     0.029 A 
ATOM     45  N   UNL A   1      42.418  29.319  32.980  1.00  0.00    -0.354 N 
ATOM     46  C   UNL A   1      39.063  31.232  31.062  1.00  0.00     0.074 A 
ATOM     47  C   UNL A   1      38.916  30.780  29.694  1.00  0.00     0.031 C 
ATOM     48  C   UNL A   1      44.142  27.908  33.155  1.00  0.00     0.029 A 
ATOM     49  C   UNL A   1      43.383  28.928  33.879  1.00  0.00     0.049 A 
ATOM     50  H   UNL A   1      41.723  29.984  33.191  1.00  0.00     0.167 HD
ATOM     51  C   UNL A   1      38.226  32.109  31.665  1.00  0.00     0.037 A 
ATOM     52  C   UNL A   1      43.632  29.357  35.134  1.00  0.00     0.037 A 
ATOM     53  C   UNL A   1      38.386  32.590  33.012  1.00  0.00     0.049 A 
ATOM     54  C   UNL A   1      42.734  30.399  35.757  1.00  0.00     0.074 A 
ATOM     55  C   UNL A   1      37.608  33.509  33.696  1.00  0.00     0.029 A 
ATOM     56  N   UNL A   1      39.393  32.197  33.878  1.00  0.00    -0.354 N 
ATOM     57  N   UNL A   1      41.677  30.990  35.251  1.00  0.00    -0.248 NA
ATOM     58  C   UNL A   1      43.058  30.824  37.127  1.00  0.00     0.031 C 
ATOM     59  C   UNL A   1      38.169  33.699  34.964  1.00  0.00     0.029 A 
ATOM     60  C   UNL A   1      39.267  32.863  35.086  1.00  0.00     0.049 A 
ATOM     61  H   UNL A   1      40.097  31.541  33.666  1.00  0.00     0.167 HD
ATOM     62  C   UNL A   1      41.201  31.838  36.249  1.00  0.00     0.074 A 
ATOM     63  C   UNL A   1      42.072  31.669  37.392  1.00  0.00     0.031 C 
ATOM     64  C   UNL A   1      40.139  32.683  36.220  1.00  0.00     0.037 A 
BRANCH  51  65
ATOM     65  C   UNL A   1      37.068  32.617  30.854  1.00  0.00     0.058 A 
ATOM     66  C   UNL A   1      37.180  33.774  30.066  1.00  0.00     0.135 A 
ATOM     67  C   UNL A   1      35.841  31.936  30.852  1.00  0.00     0.135 A 
ATOM     68  F   UNL A   1      38.325  34.475  30.052  1.00  0.00    -0.206 F 
ATOM     69  C   UNL A   1      36.108  34.250  29.320  1.00  0.00     0.059 A 
ATOM     70  C   UNL A   1      34.762  32.382  30.095  1.00  0.00     0.059 A 
ATOM     71  F   UNL A   1      35.681  30.829  31.594  1.00  0.00    -0.206 F 
ATOM     72  C   UNL A   1      34.902  33.548  29.343  1.00  0.00     0.060 A 
BRANCH  72  73
ATOM     73  S   UNL A   1      33.518  34.179  28.371  1.00  0.00     0.124 S 
ATOM     74  O   UNL A   1      32.658  34.732  29.412  1.00  0.00    -0.237 OA
ATOM     75  O   UNL A   1      34.167  35.155  27.500  1.00  0.00    -0.237 OA
ATOM     76  O   UNL A   1      33.004  32.989  27.699  1.00  0.00    -0.744 OA
ENDBRANCH  72  73
ENDBRANCH  51  65
BRANCH  52  77
ATOM     77  C   UNL A   1      44.801  28.827  35.889  1.00  0.00     0.058 A 
ATOM     78  C   UNL A   1      44.676  27.738  36.763  1.00  0.00     0.135 A 
ATOM     79  C   UNL A   1      46.061  29.436  35.782  1.00  0.00     0.135 A 
ATOM     80  F   UNL A   1      43.488  27.132  36.913  1.00  0.00    -0.206 F 
ATOM     81  C   UNL A   1      45.751  27.285  37.524  1.00  0.00     0.059 A 
ATOM     82  C   UNL A   1      47.158  28.984  36.510  1.00  0.00     0.059 A 
ATOM     83  F   UNL A   1      46.237  30.479  34.955  1.00  0.00    -0.206 F 
ATOM     84  C   UNL A   1      46.988  27.917  37.391  1.00  0.00     0.060 A 
BRANCH  84  85
ATOM     85  S   UNL A   1      48.385  27.310  38.363  1.00  0.00     0.124 S 
ATOM     86  O   UNL A   1      48.263  28.106  39.579  1.00  0.00    -0.237 OA
ATOM     87  O   UNL A   1      48.074  25.890  38.495  1.00  0.00    -0.237 OA
ATOM     88  O   UNL A   1      49.537  27.616  37.519  1.00  0.00    -0.744 OA
ENDBRANCH  84  85
ENDBRANCH  52  77
BRANCH  64  89
ATOM     89  C   UNL A   1      39.837  33.464  37.471  1.00  0.00     0.058 A 
ATOM     90  C   UNL A   1      38.935  32.993  38.438  1.00  0.00     0.135 A 
ATOM     91  C   UNL A   1      40.483  34.686  37.721  1.00  0.00     0.135 A 
ATOM     92  F   UNL A   1      38.288  31.831  38.250  1.00  0.00    -0.206 F 
ATOM     93  C   UNL A   1      38.657  33.721  39.591  1.00  0.00     0.059 A 
ATOM     94  C   UNL A   1      40.241  35.418  38.879  1.00  0.00     0.059 A 
ATOM     95  F   UNL A   1      41.367  35.177  36.837  1.00  0.00    -0.206 F 
ATOM     96  C   UNL A   1      39.312  34.936  39.801  1.00  0.00     0.060 A 
BRANCH  96  97
ATOM     97  S   UNL A   1      38.950  35.872  41.302  1.00  0.00     0.124 S 
ATOM     98  O   UNL A   1      39.232  37.238  40.872  1.00  0.00    -0.237 OA
ATOM     99  O   UNL A   1      37.544  35.558  41.537  1.00  0.00    -0.237 OA
ATOM    100  O   UNL A   1      39.880  35.316  42.280  1.00  0.00    -0.744 OA
ENDBRANCH  96  97
ENDBRANCH  64  89
ENDBRANCH  38  39
ENDBRANCH  31  33
ENDBRANCH  30  31
ENDBRANCH  29  30
ENDBRANCH  28  29
ENDBRANCH  27  28
ENDBRANCH  26  27
ENDBRANCH   1  26
TORSDOF 24
ENDMDL
MODEL 3
REMARK VINA RESULT:      -9.3      6.019     11.747
REMARK SMILES C[C@](NC(=O)Cc1cccc(F)c1F)(C(=O)OCCOCCOCCOC(=O)c1ccc(-c2c3nc(c(-c4c(F)cc(S(=O)(=O)[O-])cc4F)c4ccc([nH]4)c(-c4c(F)cc(S(=O)(=O)[O-])cc4F)c4nc(c(-c5c(F)cc(S(=O)(=O)[O-])cc5F)c5ccc2[nH]5)C=C4)C=C3)cc1)C1CC1
REMARK SMILES IDX 21 1 20 2 19 3 18 4 17 5 15 6 16 7 2 8 1 9 95 10 96 11 97 12
REMARK SMILES IDX 3 13 4 14 5 16 6 17 7 18 8 19 13 20 9 21 11 22 14 23 10 24
REMARK SMILES IDX 12 25 22 26 23 27 24 28 25 29 26 30 27 31 28 32 29 33 30 34
REMARK SMILES IDX 94 35 31 36 93 37 32 38 33 39 34 40 87 41 35 42 92 43 86 44
REMARK SMILES IDX 88 45 36 46 91 47 85 48 84 49 37 51 71 52 50 53 70 54 51 55
REMARK SMILES IDX 54 56 69 57 89 58 52 59 53 60 68 62 90 63 55 64 38 65 39 66
REMARK SMILES IDX 48 67 40 68 41 69 47 70 49 71 42 72 43 73 44 74 45 75 46 76
REMARK SMILES IDX 72 77 73 78 82 79 74 80 75 81 81 82 83 83 76 84 77 85 78 86
REMARK SMILES IDX 79 87 80 88 56 89 57 90 66 91 58 92 59 93 65 94 67 95 60 96
REMARK SMILES IDX 61 97 62 98 63 99 64 100
REMARK H PARENT 3 15 88 50 54 61
REMARK Flexibility Score: inf
ROOT
ATOM      1  C   UNL A   1      34.330  32.428  27.770  1.00  0.00     0.188 C 
ENDROOT
BRANCH   1   2
ATOM      2  O   UNL A   1      34.059  31.168  27.164  1.00  0.00    -0.376 OA
BRANCH   2   3
ATOM      3  C   UNL A   1      32.711  30.823  26.886  1.00  0.00     0.202 C 
BRANCH   3   4
ATOM      4  C   UNL A   1      32.466  29.818  25.759  1.00  0.00     0.261 C 
BRANCH   4   5
ATOM      5  O   UNL A   1      33.515  28.845  25.592  1.00  0.00    -0.461 OA
BRANCH   5   6
ATOM      6  C   UNL A   1      33.537  28.184  24.395  1.00  0.00     0.331 C 
ATOM      7  O   UNL A   1      34.172  28.566  23.418  1.00  0.00    -0.249 OA
BRANCH   6   8
ATOM      8  C   UNL A   1      32.780  26.803  24.435  1.00  0.00     0.138 C 
ATOM      9  C   UNL A   1      32.977  26.152  25.816  1.00  0.00     0.048 C 
BRANCH   8  10
ATOM     10  C   UNL A   1      31.267  27.137  24.352  1.00  0.00     0.026 C 
ATOM     11  C   UNL A   1      30.190  26.414  23.563  1.00  0.00     0.007 C 
ATOM     12  C   UNL A   1      30.239  26.274  25.056  1.00  0.00     0.007 C 
ENDBRANCH   8  10
BRANCH   8  13
ATOM     13  N   UNL A   1      33.148  25.895  23.324  1.00  0.00    -0.340 N 
ATOM     14  C   UNL A   1      33.110  24.553  23.133  1.00  0.00     0.225 C 
ATOM     15  H   UNL A   1      33.503  26.379  22.543  1.00  0.00     0.164 HD
ATOM     16  O   UNL A   1      33.642  24.125  22.099  1.00  0.00    -0.275 OA
BRANCH  14  17
ATOM     17  C   UNL A   1      32.441  23.583  24.083  1.00  0.00     0.138 C 
BRANCH  17  18
ATOM     18  C   UNL A   1      33.255  22.358  24.414  1.00  0.00     0.000 A 
ATOM     19  C   UNL A   1      32.840  21.084  23.995  1.00  0.00     0.007 A 
ATOM     20  C   UNL A   1      34.436  22.454  25.155  1.00  0.00     0.162 A 
ATOM     21  C   UNL A   1      33.604  19.949  24.295  1.00  0.00     0.004 A 
ATOM     22  C   UNL A   1      35.207  21.331  25.429  1.00  0.00     0.159 A 
ATOM     23  F   UNL A   1      34.849  23.642  25.607  1.00  0.00    -0.203 F 
ATOM     24  C   UNL A   1      34.799  20.074  25.003  1.00  0.00     0.042 A 
ATOM     25  F   UNL A   1      36.368  21.457  26.086  1.00  0.00    -0.204 F 
ENDBRANCH  17  18
ENDBRANCH  14  17
ENDBRANCH   8  13
ENDBRANCH   6   8
ENDBRANCH   5   6
ENDBRANCH   4   5
ENDBRANCH   3   4
ENDBRANCH   2   3
ENDBRANCH   1   2
BRANCH   1  26
ATOM     26  C   UNL A   1      35.792  32.850  28.004  1.00  0.00     0.188 C 
BRANCH  26  27
ATOM     27  O   UNL A   1      35.954  33.819  29.030  1.00  0.00    -0.376 OA
BRANCH  27  28
ATOM     28  C   UNL A   1      37.129  33.693  29.815  1.00  0.00     0.202 C 
BRANCH  28  29
ATOM     29  C   UNL A   1      36.917  32.799  31.040  1.00  0.00     0.261 C 
BRANCH  29  30
ATOM     30  O   UNL A   1      36.370  31.504  30.737  1.00  0.00    -0.460 OA
BRANCH  30  31
ATOM     31  C   UNL A   1      36.867  30.465  31.443  1.00  0.00     0.338 C 
ATOM     32  O   UNL A   1      36.313  29.881  32.369  1.00  0.00    -0.246 OA
BRANCH  31  33
ATOM     33  C   UNL A   1      38.104  29.999  30.788  1.00  0.00     0.060 A 
ATOM     34  C   UNL A   1      39.145  29.532  31.596  1.00  0.00     0.016 A 
ATOM     35  C   UNL A   1      38.245  30.014  29.397  1.00  0.00     0.016 A 
ATOM     36  C   UNL A   1      40.338  29.098  31.018  1.00  0.00     0.010 A 
ATOM     37  C   UNL A   1      39.449  29.595  28.818  1.00  0.00     0.010 A 
ATOM     38  C   UNL A   1      40.510  29.153  29.627  1.00  0.00    -0.014 A 
BRANCH  38  39
ATOM     39  C   UNL A   1      41.864  28.924  29.062  1.00  0.00     0.031 A 
ATOM     40  C   UNL A   1      42.213  27.540  28.583  1.00  0.00     0.074 A 
ATOM     41  C   UNL A   1      42.745  29.929  28.909  1.00  0.00     0.049 A 
ATOM     42  N   UNL A   1      43.310  27.110  28.016  1.00  0.00    -0.248 NA
ATOM     43  C   UNL A   1      41.178  26.508  28.758  1.00  0.00     0.031 C 
ATOM     44  C   UNL A   1      42.521  31.321  29.297  1.00  0.00     0.029 A 
ATOM     45  N   UNL A   1      44.013  29.929  28.378  1.00  0.00    -0.354 N 
ATOM     46  C   UNL A   1      43.090  25.764  27.745  1.00  0.00     0.074 A 
ATOM     47  C   UNL A   1      41.771  25.440  28.246  1.00  0.00     0.031 C 
ATOM     48  C   UNL A   1      43.622  32.038  29.003  1.00  0.00     0.029 A 
ATOM     49  C   UNL A   1      44.634  31.155  28.423  1.00  0.00     0.049 A 
ATOM     50  H   UNL A   1      44.438  29.124  28.002  1.00  0.00     0.167 HD
ATOM     51  C   UNL A   1      43.904  24.879  27.122  1.00  0.00     0.037 A 
ATOM     52  C   UNL A   1      45.880  31.517  28.053  1.00  0.00     0.037 A 
ATOM     53  C   UNL A   1      45.230  25.185  26.654  1.00  0.00     0.049 A 
ATOM     54  C   UNL A   1      46.801  30.492  27.436  1.00  0.00     0.074 A 
ATOM     55  C   UNL A   1      46.143  24.342  26.044  1.00  0.00     0.029 A 
ATOM     56  N   UNL A   1      45.835  26.428  26.748  1.00  0.00    -0.354 N 
ATOM     57  N   UNL A   1      46.574  29.226  27.176  1.00  0.00    -0.248 NA
ATOM     58  C   UNL A   1      48.145  30.949  27.053  1.00  0.00     0.031 C 
ATOM     59  C   UNL A   1      47.316  25.067  25.803  1.00  0.00     0.029 A 
ATOM     60  C   UNL A   1      47.115  26.373  26.220  1.00  0.00     0.049 A 
ATOM     61  H   UNL A   1      45.418  27.232  27.134  1.00  0.00     0.167 HD
ATOM     62  C   UNL A   1      47.738  28.744  26.581  1.00  0.00     0.074 A 
ATOM     63  C   UNL A   1      48.659  29.859  26.502  1.00  0.00     0.031 C 
ATOM     64  C   UNL A   1      48.021  27.491  26.142  1.00  0.00     0.037 A 
BRANCH  51  65
ATOM     65  C   UNL A   1      43.379  23.485  26.931  1.00  0.00     0.058 A 
ATOM     66  C   UNL A   1      43.331  22.570  27.995  1.00  0.00     0.135 A 
ATOM     67  C   UNL A   1      42.906  23.063  25.679  1.00  0.00     0.135 A 
ATOM     68  F   UNL A   1      43.795  22.917  29.207  1.00  0.00    -0.206 F 
ATOM     69  C   UNL A   1      42.853  21.277  27.819  1.00  0.00     0.059 A 
ATOM     70  C   UNL A   1      42.400  21.781  25.486  1.00  0.00     0.059 A 
ATOM     71  F   UNL A   1      42.936  23.898  24.628  1.00  0.00    -0.206 F 
ATOM     72  C   UNL A   1      42.391  20.891  26.559  1.00  0.00     0.060 A 
BRANCH  72  73
ATOM     73  S   UNL A   1      41.773  19.208  26.346  1.00  0.00     0.124 S 
ATOM     74  O   UNL A   1      41.897  18.679  27.700  1.00  0.00    -0.237 OA
ATOM     75  O   UNL A   1      40.410  19.433  25.875  1.00  0.00    -0.237 OA
ATOM     76  O   UNL A   1      42.686  18.633  25.362  1.00  0.00    -0.744 OA
ENDBRANCH  72  73
ENDBRANCH  51  65
BRANCH  52  77
ATOM     77  C   UNL A   1      46.353  32.911  28.275  1.00  0.00     0.058 A 
ATOM     78  C   UNL A   1      46.160  33.913  27.312  1.00  0.00     0.135 A 
ATOM     79  C   UNL A   1      47.051  33.255  29.443  1.00  0.00     0.135 A 
ATOM     80  F   UNL A   1      45.512  33.631  26.172  1.00  0.00    -0.206 F 
ATOM     81  C   UNL A   1      46.663  35.200  27.488  1.00  0.00     0.059 A 
ATOM     82  C   UNL A   1      47.539  34.541  29.653  1.00  0.00     0.059 A 
ATOM     83  F   UNL A   1      47.259  32.335  30.398  1.00  0.00    -0.206 F 
ATOM     84  C   UNL A   1      47.353  35.503  28.662  1.00  0.00     0.060 A 
BRANCH  84  85
ATOM     85  S   UNL A   1      47.984  37.180  28.893  1.00  0.00     0.124 S 
ATOM     86  O   UNL A   1      47.977  37.688  27.526  1.00  0.00    -0.237 OA
ATOM     87  O   UNL A   1      46.992  37.760  29.794  1.00  0.00    -0.237 OA
ATOM     88  O   UNL A   1      49.303  36.963  29.480  1.00  0.00    -0.744 OA
ENDBRANCH  84  85
ENDBRANCH  52  77
BRANCH  64  89
ATOM     89  C   UNL A   1      49.366  27.265  25.505  1.00  0.00     0.058 A 
ATOM     90  C   UNL A   1      49.561  27.396  24.121  1.00  0.00     0.135 A 
ATOM     91  C   UNL A   1      50.482  26.942  26.293  1.00  0.00     0.135 A 
ATOM     92  F   UNL A   1      48.528  27.703  23.319  1.00  0.00    -0.206 F 
ATOM     93  C   UNL A   1      50.806  27.182  23.537  1.00  0.00     0.059 A 
ATOM     94  C   UNL A   1      51.742  26.749  25.734  1.00  0.00     0.059 A 
ATOM     95  F   UNL A   1      50.357  26.818  27.625  1.00  0.00    -0.206 F 
ATOM     96  C   UNL A   1      51.891  26.854  24.352  1.00  0.00     0.060 A 
BRANCH  96  97
ATOM     97  S   UNL A   1      53.504  26.583  23.587  1.00  0.00     0.124 S 
ATOM     98  O   UNL A   1      54.000  25.439  24.345  1.00  0.00    -0.237 OA
ATOM     99  O   UNL A   1      53.151  26.316  22.195  1.00  0.00    -0.237 OA
ATOM    100  O   UNL A   1      54.204  27.842  23.817  1.00  0.00    -0.744 OA
ENDBRANCH  96  97
ENDBRANCH  64  89
ENDBRANCH  38  39
ENDBRANCH  31  33
ENDBRANCH  30  31
ENDBRANCH  29  30
ENDBRANCH  28  29
ENDBRANCH  27  28
ENDBRANCH  26  27
ENDBRANCH   1  26
TORSDOF 24
ENDMDL
