MODEL 1
REMARK VINA RESULT:      -9.0      0.000      0.000
REMARK SMILES CC(C)(C)OC(=O)N1CCSC[C@@H]1CC(=O)OCCOCCOCCOC(=O)c1ccc(-c2c3nc(c(-c4c(F)cc(S(=O)(=O)[O-])cc4F)c4ccc([nH]4)c(-c4c(F)cc(S(=O)(=O)[O-])cc4F)c4nc(c(-c5c(F)cc(S(=O)(=O)[O-])cc5F)c5ccc2[nH]5)C=C4)C=C3)cc1
REMARK SMILES IDX 21 1 20 2 19 3 18 4 17 5 15 6 16 7 14 8 13 9 8 10 9 11 10 12
REMARK SMILES IDX 12 13 11 14 6 15 7 16 5 17 2 18 1 19 3 20 4 21 22 22 23 23
REMARK SMILES IDX 24 24 25 25 26 26 27 27 28 28 29 29 30 30 94 31 31 32 93 33
REMARK SMILES IDX 32 34 33 35 34 36 87 37 35 38 92 39 86 40 88 41 36 42 91 43
REMARK SMILES IDX 85 44 84 45 37 47 71 48 50 49 70 50 51 51 54 52 69 53 89 54
REMARK SMILES IDX 52 55 53 56 68 58 90 59 55 60 38 61 39 62 48 63 40 64 41 65
REMARK SMILES IDX 47 66 49 67 42 68 43 69 44 70 45 71 46 72 72 73 73 74 82 75
REMARK SMILES IDX 74 76 75 77 81 78 83 79 76 80 77 81 78 82 79 83 80 84 56 85
REMARK SMILES IDX 57 86 66 87 58 88 59 89 65 90 67 91 60 92 61 93 62 94 63 95
REMARK SMILES IDX 64 96
REMARK H PARENT 88 46 54 57
REMARK Flexibility Score: inf
ROOT
ATOM      1  C   UNL A   1      38.378  19.665  25.178  1.00  0.00     0.188 C 
ENDROOT
BRANCH   1   2
ATOM      2  O   UNL A   1      38.000  21.012  24.946  1.00  0.00    -0.376 OA
BRANCH   2   3
ATOM      3  C   UNL A   1      36.933  21.508  25.761  1.00  0.00     0.202 C 
BRANCH   3   4
ATOM      4  C   UNL A   1      35.499  21.124  25.340  1.00  0.00     0.261 C 
BRANCH   4   5
ATOM      5  O   UNL A   1      34.916  22.046  24.384  1.00  0.00    -0.463 OA
BRANCH   5   6
ATOM      6  C   UNL A   1      35.274  23.352  24.532  1.00  0.00     0.307 C 
ATOM      7  O   UNL A   1      36.059  23.938  23.797  1.00  0.00    -0.252 OA
BRANCH   6   8
ATOM      8  C   UNL A   1      34.435  24.064  25.581  1.00  0.00     0.148 C 
BRANCH   8   9
ATOM      9  C   UNL A   1      33.452  25.153  25.094  1.00  0.00     0.109 C 
ATOM     10  N   UNL A   1      32.457  25.523  26.147  1.00  0.00    -0.303 N 
ATOM     11  C   UNL A   1      31.661  24.416  26.694  1.00  0.00     0.134 C 
ATOM     12  C   UNL A   1      30.727  23.832  25.624  1.00  0.00     0.091 C 
ATOM     13  C   UNL A   1      32.698  24.708  23.824  1.00  0.00     0.095 C 
ATOM     14  S   UNL A   1      31.583  23.271  24.099  1.00  0.00    -0.158 SA
BRANCH  10  15
ATOM     15  C   UNL A   1      31.955  26.830  26.242  1.00  0.00     0.410 C 
ATOM     16  O   UNL A   1      30.901  27.181  25.700  1.00  0.00    -0.224 OA
BRANCH  15  17
ATOM     17  O   UNL A   1      32.752  27.638  26.988  1.00  0.00    -0.444 OA
BRANCH  17  18
ATOM     18  C   UNL A   1      33.320  28.926  26.584  1.00  0.00     0.106 C 
ATOM     19  C   UNL A   1      33.453  28.848  25.050  1.00  0.00     0.056 C 
ATOM     20  C   UNL A   1      34.714  29.054  27.189  1.00  0.00     0.056 C 
ATOM     21  C   UNL A   1      32.507  30.188  26.902  1.00  0.00     0.056 C 
ENDBRANCH  17  18
ENDBRANCH  15  17
ENDBRANCH  10  15
ENDBRANCH   8   9
ENDBRANCH   6   8
ENDBRANCH   5   6
ENDBRANCH   4   5
ENDBRANCH   3   4
ENDBRANCH   2   3
ENDBRANCH   1   2
BRANCH   1  22
ATOM     22  C   UNL A   1      39.824  19.425  25.630  1.00  0.00     0.188 C 
BRANCH  22  23
ATOM     23  O   UNL A   1      40.304  20.231  26.699  1.00  0.00    -0.376 OA
BRANCH  23  24
ATOM     24  C   UNL A   1      41.141  21.326  26.324  1.00  0.00     0.202 C 
BRANCH  24  25
ATOM     25  C   UNL A   1      41.179  22.504  27.334  1.00  0.00     0.261 C 
BRANCH  25  26
ATOM     26  O   UNL A   1      42.276  23.449  27.224  1.00  0.00    -0.460 OA
BRANCH  26  27
ATOM     27  C   UNL A   1      41.946  24.611  26.634  1.00  0.00     0.338 C 
ATOM     28  O   UNL A   1      41.844  24.757  25.418  1.00  0.00    -0.246 OA
BRANCH  27  29
ATOM     29  C   UNL A   1      41.467  25.664  27.550  1.00  0.00     0.060 A 
ATOM     30  C   UNL A   1      42.296  26.785  27.681  1.00  0.00     0.016 A 
ATOM     31  C   UNL A   1      40.328  25.552  28.342  1.00  0.00     0.016 A 
ATOM     32  C   UNL A   1      42.079  27.721  28.682  1.00  0.00     0.010 A 
ATOM     33  C   UNL A   1      40.079  26.528  29.324  1.00  0.00     0.010 A 
ATOM     34  C   UNL A   1      40.979  27.593  29.532  1.00  0.00    -0.014 A 
BRANCH  34  35
ATOM     35  C   UNL A   1      40.839  28.565  30.648  1.00  0.00     0.031 A 
ATOM     36  C   UNL A   1      41.787  28.536  31.818  1.00  0.00     0.074 A 
ATOM     37  C   UNL A   1      39.929  29.556  30.550  1.00  0.00     0.049 A 
ATOM     38  N   UNL A   1      41.820  29.309  32.873  1.00  0.00    -0.248 NA
ATOM     39  C   UNL A   1      42.849  27.518  31.791  1.00  0.00     0.031 C 
ATOM     40  C   UNL A   1      39.011  29.748  29.425  1.00  0.00     0.029 A 
ATOM     41  N   UNL A   1      39.637  30.594  31.398  1.00  0.00    -0.354 N 
ATOM     42  C   UNL A   1      42.893  28.868  33.641  1.00  0.00     0.074 A 
ATOM     43  C   UNL A   1      43.482  27.752  32.933  1.00  0.00     0.031 C 
ATOM     44  C   UNL A   1      38.268  30.842  29.646  1.00  0.00     0.029 A 
ATOM     45  C   UNL A   1      38.602  31.386  30.959  1.00  0.00     0.049 A 
ATOM     46  H   UNL A   1      40.121  30.757  32.239  1.00  0.00     0.167 HD
ATOM     47  C   UNL A   1      43.341  29.350  34.827  1.00  0.00     0.037 A 
ATOM     48  C   UNL A   1      37.959  32.404  31.561  1.00  0.00     0.037 A 
ATOM     49  C   UNL A   1      42.740  30.455  35.533  1.00  0.00     0.049 A 
ATOM     50  C   UNL A   1      38.399  32.842  32.928  1.00  0.00     0.074 A 
ATOM     51  C   UNL A   1      43.114  31.005  36.748  1.00  0.00     0.029 A 
ATOM     52  N   UNL A   1      41.634  31.170  35.099  1.00  0.00    -0.354 N 
ATOM     53  N   UNL A   1      39.397  32.395  33.653  1.00  0.00    -0.248 NA
ATOM     54  C   UNL A   1      37.620  33.912  33.563  1.00  0.00     0.031 C 
ATOM     55  C   UNL A   1      42.197  32.011  37.076  1.00  0.00     0.029 A 
ATOM     56  C   UNL A   1      41.287  32.130  36.038  1.00  0.00     0.049 A 
ATOM     57  H   UNL A   1      41.163  31.019  34.247  1.00  0.00     0.167 HD
ATOM     58  C   UNL A   1      39.371  33.136  34.829  1.00  0.00     0.074 A 
ATOM     59  C   UNL A   1      38.276  34.077  34.704  1.00  0.00     0.031 C 
ATOM     60  C   UNL A   1      40.181  33.045  35.915  1.00  0.00     0.037 A 
BRANCH  47  61
ATOM     61  C   UNL A   1      44.508  28.651  35.473  1.00  0.00     0.058 A 
ATOM     62  C   UNL A   1      44.345  27.516  36.281  1.00  0.00     0.135 A 
ATOM     63  C   UNL A   1      45.819  29.098  35.231  1.00  0.00     0.135 A 
ATOM     64  F   UNL A   1      43.115  27.055  36.560  1.00  0.00    -0.206 F 
ATOM     65  C   UNL A   1      45.437  26.856  36.839  1.00  0.00     0.059 A 
ATOM     66  C   UNL A   1      46.926  28.441  35.759  1.00  0.00     0.059 A 
ATOM     67  F   UNL A   1      46.032  30.181  34.468  1.00  0.00    -0.206 F 
ATOM     68  C   UNL A   1      46.725  27.327  36.572  1.00  0.00     0.060 A 
BRANCH  68  69
ATOM     69  S   UNL A   1      48.133  26.459  37.298  1.00  0.00     0.124 S 
ATOM     70  O   UNL A   1      47.812  25.071  36.983  1.00  0.00    -0.237 OA
ATOM     71  O   UNL A   1      49.261  27.030  36.567  1.00  0.00    -0.237 OA
ATOM     72  O   UNL A   1      48.061  26.814  38.712  1.00  0.00    -0.744 OA
ENDBRANCH  68  69
ENDBRANCH  47  61
BRANCH  48  73
ATOM     73  C   UNL A   1      36.787  33.028  30.891  1.00  0.00     0.058 A 
ATOM     74  C   UNL A   1      35.480  32.807  31.346  1.00  0.00     0.135 A 
ATOM     75  C   UNL A   1      36.962  33.885  29.791  1.00  0.00     0.135 A 
ATOM     76  F   UNL A   1      35.261  31.985  32.383  1.00  0.00    -0.206 F 
ATOM     77  C   UNL A   1      34.387  33.413  30.734  1.00  0.00     0.059 A 
ATOM     78  C   UNL A   1      35.889  34.526  29.185  1.00  0.00     0.059 A 
ATOM     79  F   UNL A   1      38.195  34.135  29.322  1.00  0.00    -0.206 F 
ATOM     80  C   UNL A   1      34.602  34.278  29.659  1.00  0.00     0.060 A 
BRANCH  80  81
ATOM     81  S   UNL A   1      33.186  35.118  28.919  1.00  0.00     0.124 S 
ATOM     82  O   UNL A   1      33.815  36.305  28.350  1.00  0.00    -0.237 OA
ATOM     83  O   UNL A   1      32.709  34.125  27.961  1.00  0.00    -0.237 OA
ATOM     84  O   UNL A   1      32.305  35.354  30.059  1.00  0.00    -0.744 OA
ENDBRANCH  80  81
ENDBRANCH  48  73
BRANCH  60  85
ATOM     85  C   UNL A   1      39.911  33.998  37.047  1.00  0.00     0.058 A 
ATOM     86  C   UNL A   1      39.089  33.642  38.128  1.00  0.00     0.135 A 
ATOM     87  C   UNL A   1      40.481  35.281  37.052  1.00  0.00     0.135 A 
ATOM     88  F   UNL A   1      38.514  32.429  38.170  1.00  0.00    -0.206 F 
ATOM     89  C   UNL A   1      38.806  34.540  39.154  1.00  0.00     0.059 A 
ATOM     90  C   UNL A   1      40.236  36.185  38.082  1.00  0.00     0.059 A 
ATOM     91  F   UNL A   1      41.283  35.669  36.049  1.00  0.00    -0.206 F 
ATOM     92  C   UNL A   1      39.380  35.811  39.118  1.00  0.00     0.060 A 
BRANCH  92  93
ATOM     93  S   UNL A   1      38.999  36.971  40.447  1.00  0.00     0.124 S 
ATOM     94  O   UNL A   1      40.334  37.317  40.925  1.00  0.00    -0.237 OA
ATOM     95  O   UNL A   1      38.283  38.030  39.744  1.00  0.00    -0.237 OA
ATOM     96  O   UNL A   1      38.189  36.178  41.367  1.00  0.00    -0.744 OA
ENDBRANCH  92  93
ENDBRANCH  60  85
ENDBRANCH  34  35
ENDBRANCH  27  29
ENDBRANCH  26  27
ENDBRANCH  25  26
ENDBRANCH  24  25
ENDBRANCH  23  24
ENDBRANCH  22  23
ENDBRANCH   1  22
TORSDOF 24
ENDMDL
MODEL 2
REMARK VINA RESULT:      -8.3      2.679      9.298
REMARK SMILES CC(C)(C)OC(=O)N1CCSC[C@@H]1CC(=O)OCCOCCOCCOC(=O)c1ccc(-c2c3nc(c(-c4c(F)cc(S(=O)(=O)[O-])cc4F)c4ccc([nH]4)c(-c4c(F)cc(S(=O)(=O)[O-])cc4F)c4nc(c(-c5c(F)cc(S(=O)(=O)[O-])cc5F)c5ccc2[nH]5)C=C4)C=C3)cc1
REMARK SMILES IDX 21 1 20 2 19 3 18 4 17 5 15 6 16 7 14 8 13 9 8 10 9 11 10 12
REMARK SMILES IDX 12 13 11 14 6 15 7 16 5 17 2 18 1 19 3 20 4 21 22 22 23 23
REMARK SMILES IDX 24 24 25 25 26 26 27 27 28 28 29 29 30 30 94 31 31 32 93 33
REMARK SMILES IDX 32 34 33 35 34 36 87 37 35 38 92 39 86 40 88 41 36 42 91 43
REMARK SMILES IDX 85 44 84 45 37 47 71 48 50 49 70 50 51 51 54 52 69 53 89 54
REMARK SMILES IDX 52 55 53 56 68 58 90 59 55 60 38 61 39 62 48 63 40 64 41 65
REMARK SMILES IDX 47 66 49 67 42 68 43 69 44 70 45 71 46 72 72 73 73 74 82 75
REMARK SMILES IDX 74 76 75 77 81 78 83 79 76 80 77 81 78 82 79 83 80 84 56 85
REMARK SMILES IDX 57 86 66 87 58 88 59 89 65 90 67 91 60 92 61 93 62 94 63 95
REMARK SMILES IDX 64 96
REMARK H PARENT 88 46 54 57
REMARK Flexibility Score: inf
ROOT
ATOM      1  C   UNL A   1      34.945  32.242  28.042  1.00  0.00     0.188 C 
ENDROOT
BRANCH   1   2
ATOM      2  O   UNL A   1      34.716  30.843  28.065  1.00  0.00    -0.376 OA
BRANCH   2   3
ATOM      3  C   UNL A   1      33.673  30.368  27.209  1.00  0.00     0.202 C 
BRANCH   3   4
ATOM      4  C   UNL A   1      33.693  28.867  26.851  1.00  0.00     0.261 C 
BRANCH   4   5
ATOM      5  O   UNL A   1      34.049  28.612  25.468  1.00  0.00    -0.463 OA
BRANCH   5   6
ATOM      6  C   UNL A   1      33.002  28.485  24.606  1.00  0.00     0.307 C 
ATOM      7  O   UNL A   1      32.088  29.295  24.509  1.00  0.00    -0.252 OA
BRANCH   6   8
ATOM      8  C   UNL A   1      33.197  27.338  23.628  1.00  0.00     0.148 C 
BRANCH   8   9
ATOM      9  C   UNL A   1      33.403  25.923  24.214  1.00  0.00     0.109 C 
ATOM     10  N   UNL A   1      33.326  24.862  23.163  1.00  0.00    -0.303 N 
ATOM     11  C   UNL A   1      32.093  24.839  22.365  1.00  0.00     0.134 C 
ATOM     12  C   UNL A   1      30.885  24.457  23.233  1.00  0.00     0.091 C 
ATOM     13  C   UNL A   1      32.372  25.612  25.318  1.00  0.00     0.095 C 
ATOM     14  S   UNL A   1      30.640  25.530  24.702  1.00  0.00    -0.158 SA
BRANCH  10  15
ATOM     15  C   UNL A   1      34.094  23.692  23.257  1.00  0.00     0.410 C 
ATOM     16  O   UNL A   1      34.879  23.336  22.371  1.00  0.00    -0.224 OA
BRANCH  15  17
ATOM     17  O   UNL A   1      33.875  23.020  24.417  1.00  0.00    -0.444 OA
BRANCH  17  18
ATOM     18  C   UNL A   1      33.292  21.684  24.560  1.00  0.00     0.106 C 
ATOM     19  C   UNL A   1      32.294  21.798  25.729  1.00  0.00     0.056 C 
ATOM     20  C   UNL A   1      34.397  20.710  24.954  1.00  0.00     0.056 C 
ATOM     21  C   UNL A   1      32.517  21.120  23.361  1.00  0.00     0.056 C 
ENDBRANCH  17  18
ENDBRANCH  15  17
ENDBRANCH  10  15
ENDBRANCH   8   9
ENDBRANCH   6   8
ENDBRANCH   5   6
ENDBRANCH   4   5
ENDBRANCH   3   4
ENDBRANCH   2   3
ENDBRANCH   1   2
BRANCH   1  22
ATOM     22  C   UNL A   1      33.703  33.140  27.964  1.00  0.00     0.188 C 
BRANCH  22  23
ATOM     23  O   UNL A   1      33.918  34.503  27.622  1.00  0.00    -0.376 OA
BRANCH  23  24
ATOM     24  C   UNL A   1      33.395  35.464  28.541  1.00  0.00     0.202 C 
BRANCH  24  25
ATOM     25  C   UNL A   1      33.797  35.246  30.024  1.00  0.00     0.261 C 
BRANCH  25  26
ATOM     26  O   UNL A   1      33.202  36.120  31.018  1.00  0.00    -0.460 OA
BRANCH  26  27
ATOM     27  C   UNL A   1      32.852  35.501  32.159  1.00  0.00     0.338 C 
ATOM     28  O   UNL A   1      31.687  35.314  32.506  1.00  0.00    -0.246 OA
BRANCH  27  29
ATOM     29  C   UNL A   1      33.955  34.830  32.871  1.00  0.00     0.060 A 
ATOM     30  C   UNL A   1      35.112  35.595  33.069  1.00  0.00     0.016 A 
ATOM     31  C   UNL A   1      33.944  33.490  33.246  1.00  0.00     0.016 A 
ATOM     32  C   UNL A   1      36.291  35.009  33.503  1.00  0.00     0.010 A 
ATOM     33  C   UNL A   1      35.126  32.906  33.735  1.00  0.00     0.010 A 
ATOM     34  C   UNL A   1      36.320  33.650  33.822  1.00  0.00    -0.014 A 
BRANCH  34  35
ATOM     35  C   UNL A   1      37.626  33.045  34.193  1.00  0.00     0.031 A 
ATOM     36  C   UNL A   1      38.220  33.272  35.559  1.00  0.00     0.074 A 
ATOM     37  C   UNL A   1      38.222  32.187  33.340  1.00  0.00     0.049 A 
ATOM     38  N   UNL A   1      39.342  32.817  36.057  1.00  0.00    -0.248 NA
ATOM     39  C   UNL A   1      37.445  34.102  36.493  1.00  0.00     0.031 C 
ATOM     40  C   UNL A   1      37.702  31.813  32.023  1.00  0.00     0.029 A 
ATOM     41  N   UNL A   1      39.382  31.464  33.456  1.00  0.00    -0.354 N 
ATOM     42  C   UNL A   1      39.415  33.312  37.355  1.00  0.00     0.074 A 
ATOM     43  C   UNL A   1      38.227  34.111  37.566  1.00  0.00     0.031 C 
ATOM     44  C   UNL A   1      38.532  30.923  31.459  1.00  0.00     0.029 A 
ATOM     45  C   UNL A   1      39.678  30.719  32.340  1.00  0.00     0.049 A 
ATOM     46  H   UNL A   1      39.947  31.477  34.262  1.00  0.00     0.167 HD
ATOM     47  C   UNL A   1      40.386  33.119  38.282  1.00  0.00     0.037 A 
ATOM     48  C   UNL A   1      40.769  29.992  32.033  1.00  0.00     0.037 A 
ATOM     49  C   UNL A   1      41.575  32.332  38.059  1.00  0.00     0.049 A 
ATOM     50  C   UNL A   1      41.887  29.892  33.032  1.00  0.00     0.074 A 
ATOM     51  C   UNL A   1      42.623  32.091  38.932  1.00  0.00     0.029 A 
ATOM     52  N   UNL A   1      41.883  31.671  36.879  1.00  0.00    -0.354 N 
ATOM     53  N   UNL A   1      41.954  30.390  34.243  1.00  0.00    -0.248 NA
ATOM     54  C   UNL A   1      43.079  29.141  32.618  1.00  0.00     0.031 C 
ATOM     55  C   UNL A   1      43.591  31.336  38.259  1.00  0.00     0.029 A 
ATOM     56  C   UNL A   1      43.121  31.054  36.987  1.00  0.00     0.049 A 
ATOM     57  H   UNL A   1      41.306  31.642  36.082  1.00  0.00     0.167 HD
ATOM     58  C   UNL A   1      43.194  30.006  34.742  1.00  0.00     0.074 A 
ATOM     59  C   UNL A   1      43.829  29.212  33.709  1.00  0.00     0.031 C 
ATOM     60  C   UNL A   1      43.755  30.287  35.945  1.00  0.00     0.037 A 
BRANCH  47  61
ATOM     61  C   UNL A   1      40.240  33.815  39.608  1.00  0.00     0.058 A 
ATOM     62  C   UNL A   1      39.570  33.226  40.692  1.00  0.00     0.135 A 
ATOM     63  C   UNL A   1      40.831  35.074  39.812  1.00  0.00     0.135 A 
ATOM     64  F   UNL A   1      38.972  32.033  40.548  1.00  0.00    -0.206 F 
ATOM     65  C   UNL A   1      39.478  33.865  41.925  1.00  0.00     0.059 A 
ATOM     66  C   UNL A   1      40.772  35.721  41.043  1.00  0.00     0.059 A 
ATOM     67  F   UNL A   1      41.482  35.685  38.810  1.00  0.00    -0.206 F 
ATOM     68  C   UNL A   1      40.083  35.113  42.091  1.00  0.00     0.060 A 
BRANCH  68  69
ATOM     69  S   UNL A   1      39.960  35.929  43.698  1.00  0.00     0.124 S 
ATOM     70  O   UNL A   1      38.538  36.259  43.748  1.00  0.00    -0.237 OA
ATOM     71  O   UNL A   1      40.398  34.880  44.614  1.00  0.00    -0.237 OA
ATOM     72  O   UNL A   1      40.864  37.068  43.573  1.00  0.00    -0.744 OA
ENDBRANCH  68  69
ENDBRANCH  47  61
BRANCH  48  73
ATOM     73  C   UNL A   1      40.876  29.362  30.690  1.00  0.00     0.058 A 
ATOM     74  C   UNL A   1      41.665  29.925  29.677  1.00  0.00     0.135 A 
ATOM     75  C   UNL A   1      40.205  28.160  30.406  1.00  0.00     0.135 A 
ATOM     76  F   UNL A   1      42.314  31.078  29.896  1.00  0.00    -0.206 F 
ATOM     77  C   UNL A   1      41.785  29.319  28.431  1.00  0.00     0.059 A 
ATOM     78  C   UNL A   1      40.334  27.521  29.180  1.00  0.00     0.059 A 
ATOM     79  F   UNL A   1      39.442  27.578  31.346  1.00  0.00    -0.206 F 
ATOM     80  C   UNL A   1      41.122  28.113  28.194  1.00  0.00     0.060 A 
BRANCH  80  81
ATOM     81  S   UNL A   1      41.342  27.295  26.600  1.00  0.00     0.124 S 
ATOM     82  O   UNL A   1      41.090  28.391  25.672  1.00  0.00    -0.237 OA
ATOM     83  O   UNL A   1      42.724  26.831  26.683  1.00  0.00    -0.237 OA
ATOM     84  O   UNL A   1      40.332  26.241  26.623  1.00  0.00    -0.744 OA
ENDBRANCH  80  81
ENDBRANCH  48  73
BRANCH  60  85
ATOM     85  C   UNL A   1      45.124  29.720  36.206  1.00  0.00     0.058 A 
ATOM     86  C   UNL A   1      45.297  28.448  36.776  1.00  0.00     0.135 A 
ATOM     87  C   UNL A   1      46.276  30.455  35.882  1.00  0.00     0.135 A 
ATOM     88  F   UNL A   1      44.229  27.706  37.110  1.00  0.00    -0.206 F 
ATOM     89  C   UNL A   1      46.563  27.943  37.055  1.00  0.00     0.059 A 
ATOM     90  C   UNL A   1      47.552  29.958  36.126  1.00  0.00     0.059 A 
ATOM     91  F   UNL A   1      46.167  31.671  35.325  1.00  0.00    -0.206 F 
ATOM     92  C   UNL A   1      47.685  28.708  36.732  1.00  0.00     0.060 A 
BRANCH  92  93
ATOM     93  S   UNL A   1      49.322  28.048  37.109  1.00  0.00     0.124 S 
ATOM     94  O   UNL A   1      50.147  28.727  36.115  1.00  0.00    -0.237 OA
ATOM     95  O   UNL A   1      49.520  28.469  38.492  1.00  0.00    -0.237 OA
ATOM     96  O   UNL A   1      49.160  26.610  36.914  1.00  0.00    -0.744 OA
ENDBRANCH  92  93
ENDBRANCH  60  85
ENDBRANCH  34  35
ENDBRANCH  27  29
ENDBRANCH  26  27
ENDBRANCH  25  26
ENDBRANCH  24  25
ENDBRANCH  23  24
ENDBRANCH  22  23
ENDBRANCH   1  22
TORSDOF 24
ENDMDL
MODEL 3
REMARK VINA RESULT:      -8.2      5.134     10.101
REMARK SMILES CC(C)(C)OC(=O)N1CCSC[C@@H]1CC(=O)OCCOCCOCCOC(=O)c1ccc(-c2c3nc(c(-c4c(F)cc(S(=O)(=O)[O-])cc4F)c4ccc([nH]4)c(-c4c(F)cc(S(=O)(=O)[O-])cc4F)c4nc(c(-c5c(F)cc(S(=O)(=O)[O-])cc5F)c5ccc2[nH]5)C=C4)C=C3)cc1
REMARK SMILES IDX 21 1 20 2 19 3 18 4 17 5 15 6 16 7 14 8 13 9 8 10 9 11 10 12
REMARK SMILES IDX 12 13 11 14 6 15 7 16 5 17 2 18 1 19 3 20 4 21 22 22 23 23
REMARK SMILES IDX 24 24 25 25 26 26 27 27 28 28 29 29 30 30 94 31 31 32 93 33
REMARK SMILES IDX 32 34 33 35 34 36 87 37 35 38 92 39 86 40 88 41 36 42 91 43
REMARK SMILES IDX 85 44 84 45 37 47 71 48 50 49 70 50 51 51 54 52 69 53 89 54
REMARK SMILES IDX 52 55 53 56 68 58 90 59 55 60 38 61 39 62 48 63 40 64 41 65
REMARK SMILES IDX 47 66 49 67 42 68 43 69 44 70 45 71 46 72 72 73 73 74 82 75
REMARK SMILES IDX 74 76 75 77 81 78 83 79 76 80 77 81 78 82 79 83 80 84 56 85
REMARK SMILES IDX 57 86 66 87 58 88 59 89 65 90 67 91 60 92 61 93 62 94 63 95
REMARK SMILES IDX 64 96
REMARK H PARENT 88 46 54 57
REMARK Flexibility Score: inf
ROOT
ATOM      1  C   UNL A   1      34.796  30.534  27.566  1.00  0.00     0.188 C 
ENDROOT
BRANCH   1   2
ATOM      2  O   UNL A   1      33.379  30.472  27.588  1.00  0.00    -0.376 OA
BRANCH   2   3
ATOM      3  C   UNL A   1      32.723  30.795  26.358  1.00  0.00     0.202 C 
BRANCH   3   4
ATOM      4  C   UNL A   1      32.446  29.627  25.388  1.00  0.00     0.261 C 
BRANCH   4   5
ATOM      5  O   UNL A   1      31.434  28.707  25.872  1.00  0.00    -0.463 OA
BRANCH   5   6
ATOM      6  C   UNL A   1      31.897  27.504  26.313  1.00  0.00     0.307 C 
ATOM      7  O   UNL A   1      31.429  26.894  27.267  1.00  0.00    -0.252 OA
BRANCH   6   8
ATOM      8  C   UNL A   1      32.920  26.898  25.366  1.00  0.00     0.148 C 
BRANCH   8   9
ATOM      9  C   UNL A   1      32.587  25.529  24.732  1.00  0.00     0.109 C 
ATOM     10  N   UNL A   1      33.479  25.213  23.573  1.00  0.00    -0.303 N 
ATOM     11  C   UNL A   1      33.505  26.210  22.495  1.00  0.00     0.134 C 
ATOM     12  C   UNL A   1      32.146  26.285  21.785  1.00  0.00     0.091 C 
ATOM     13  C   UNL A   1      31.118  25.463  24.266  1.00  0.00     0.095 C 
ATOM     14  S   UNL A   1      30.729  26.632  22.899  1.00  0.00    -0.158 SA
BRANCH  10  15
ATOM     15  C   UNL A   1      33.850  23.892  23.284  1.00  0.00     0.410 C 
ATOM     16  O   UNL A   1      34.107  23.507  22.137  1.00  0.00    -0.224 OA
BRANCH  15  17
ATOM     17  O   UNL A   1      33.893  23.110  24.394  1.00  0.00    -0.444 OA
BRANCH  17  18
ATOM     18  C   UNL A   1      35.074  22.798  25.202  1.00  0.00     0.106 C 
ATOM     19  C   UNL A   1      35.343  21.298  24.968  1.00  0.00     0.056 C 
ATOM     20  C   UNL A   1      34.727  23.008  26.672  1.00  0.00     0.056 C 
ATOM     21  C   UNL A   1      36.373  23.545  24.871  1.00  0.00     0.056 C 
ENDBRANCH  17  18
ENDBRANCH  15  17
ENDBRANCH  10  15
ENDBRANCH   8   9
ENDBRANCH   6   8
ENDBRANCH   5   6
ENDBRANCH   4   5
ENDBRANCH   3   4
ENDBRANCH   2   3
ENDBRANCH   1   2
BRANCH   1  22
ATOM     22  C   UNL A   1      35.428  31.901  27.852  1.00  0.00     0.188 C 
BRANCH  22  23
ATOM     23  O   UNL A   1      34.554  33.023  27.859  1.00  0.00    -0.376 OA
BRANCH  23  24
ATOM     24  C   UNL A   1      34.079  33.432  29.144  1.00  0.00     0.202 C 
BRANCH  24  25
ATOM     25  C   UNL A   1      34.966  33.000  30.343  1.00  0.00     0.261 C 
BRANCH  25  26
ATOM     26  O   UNL A   1      34.325  32.283  31.430  1.00  0.00    -0.460 OA
BRANCH  26  27
ATOM     27  C   UNL A   1      34.314  32.948  32.598  1.00  0.00     0.338 C 
ATOM     28  O   UNL A   1      33.294  33.180  33.244  1.00  0.00    -0.246 OA
BRANCH  27  29
ATOM     29  C   UNL A   1      35.641  33.178  33.199  1.00  0.00     0.060 A 
ATOM     30  C   UNL A   1      36.008  34.517  33.381  1.00  0.00     0.016 A 
ATOM     31  C   UNL A   1      36.555  32.168  33.485  1.00  0.00     0.016 A 
ATOM     32  C   UNL A   1      37.310  34.864  33.707  1.00  0.00     0.010 A 
ATOM     33  C   UNL A   1      37.864  32.518  33.866  1.00  0.00     0.010 A 
ATOM     34  C   UNL A   1      38.263  33.868  33.933  1.00  0.00    -0.014 A 
BRANCH  34  35
ATOM     35  C   UNL A   1      39.667  34.286  34.187  1.00  0.00     0.031 A 
ATOM     36  C   UNL A   1      40.667  34.345  33.063  1.00  0.00     0.074 A 
ATOM     37  C   UNL A   1      40.012  34.730  35.413  1.00  0.00     0.049 A 
ATOM     38  N   UNL A   1      41.929  34.693  33.098  1.00  0.00    -0.248 NA
ATOM     39  C   UNL A   1      40.185  33.985  31.721  1.00  0.00     0.031 C 
ATOM     40  C   UNL A   1      39.110  34.807  36.565  1.00  0.00     0.029 A 
ATOM     41  N   UNL A   1      41.203  35.214  35.891  1.00  0.00    -0.354 N 
ATOM     42  C   UNL A   1      42.395  34.586  31.792  1.00  0.00     0.074 A 
ATOM     43  C   UNL A   1      41.282  34.130  30.988  1.00  0.00     0.031 C 
ATOM     44  C   UNL A   1      39.776  35.319  37.610  1.00  0.00     0.029 A 
ATOM     45  C   UNL A   1      41.168  35.535  37.227  1.00  0.00     0.049 A 
ATOM     46  H   UNL A   1      42.006  35.320  35.331  1.00  0.00     0.167 HD
ATOM     47  C   UNL A   1      43.638  34.840  31.312  1.00  0.00     0.037 A 
ATOM     48  C   UNL A   1      42.151  35.916  38.065  1.00  0.00     0.037 A 
ATOM     49  C   UNL A   1      44.746  35.282  32.124  1.00  0.00     0.049 A 
ATOM     50  C   UNL A   1      43.546  36.076  37.532  1.00  0.00     0.074 A 
ATOM     51  C   UNL A   1      46.046  35.551  31.730  1.00  0.00     0.029 A 
ATOM     52  N   UNL A   1      44.692  35.505  33.492  1.00  0.00    -0.354 N 
ATOM     53  N   UNL A   1      43.976  35.941  36.301  1.00  0.00    -0.248 NA
ATOM     54  C   UNL A   1      44.589  36.428  38.504  1.00  0.00     0.031 C 
ATOM     55  C   UNL A   1      46.792  35.877  32.869  1.00  0.00     0.029 A 
ATOM     56  C   UNL A   1      45.943  35.870  33.965  1.00  0.00     0.049 A 
ATOM     57  H   UNL A   1      43.883  35.418  34.046  1.00  0.00     0.167 HD
ATOM     58  C   UNL A   1      45.342  36.200  36.347  1.00  0.00     0.074 A 
ATOM     59  C   UNL A   1      45.657  36.525  37.724  1.00  0.00     0.031 C 
ATOM     60  C   UNL A   1      46.252  36.169  35.341  1.00  0.00     0.037 A 
BRANCH  47  61
ATOM     61  C   UNL A   1      43.889  34.594  29.848  1.00  0.00     0.058 A 
ATOM     62  C   UNL A   1      44.511  33.426  29.382  1.00  0.00     0.135 A 
ATOM     63  C   UNL A   1      43.448  35.525  28.892  1.00  0.00     0.135 A 
ATOM     64  F   UNL A   1      44.968  32.511  30.252  1.00  0.00    -0.206 F 
ATOM     65  C   UNL A   1      44.701  33.195  28.022  1.00  0.00     0.059 A 
ATOM     66  C   UNL A   1      43.605  35.304  27.527  1.00  0.00     0.059 A 
ATOM     67  F   UNL A   1      42.849  36.661  29.282  1.00  0.00    -0.206 F 
ATOM     68  C   UNL A   1      44.244  34.141  27.102  1.00  0.00     0.060 A 
BRANCH  68  69
ATOM     69  S   UNL A   1      44.491  33.826  25.340  1.00  0.00     0.124 S 
ATOM     70  O   UNL A   1      43.290  34.426  24.767  1.00  0.00    -0.237 OA
ATOM     71  O   UNL A   1      45.741  34.530  25.070  1.00  0.00    -0.237 OA
ATOM     72  O   UNL A   1      44.564  32.371  25.261  1.00  0.00    -0.744 OA
ENDBRANCH  68  69
ENDBRANCH  47  61
BRANCH  48  73
ATOM     73  C   UNL A   1      41.850  36.103  39.509  1.00  0.00     0.058 A 
ATOM     74  C   UNL A   1      41.487  37.354  40.026  1.00  0.00     0.135 A 
ATOM     75  C   UNL A   1      41.896  35.016  40.399  1.00  0.00     0.135 A 
ATOM     76  F   UNL A   1      41.442  38.425  39.219  1.00  0.00    -0.206 F 
ATOM     77  C   UNL A   1      41.180  37.522  41.372  1.00  0.00     0.059 A 
ATOM     78  C   UNL A   1      41.564  35.152  41.740  1.00  0.00     0.059 A 
ATOM     79  F   UNL A   1      42.232  33.795  39.951  1.00  0.00    -0.206 F 
ATOM     80  C   UNL A   1      41.213  36.413  42.220  1.00  0.00     0.060 A 
BRANCH  80  81
ATOM     81  S   UNL A   1      40.742  36.624  43.950  1.00  0.00     0.124 S 
ATOM     82  O   UNL A   1      42.017  36.981  44.559  1.00  0.00    -0.237 OA
ATOM     83  O   UNL A   1      39.749  37.692  43.868  1.00  0.00    -0.237 OA
ATOM     84  O   UNL A   1      40.212  35.313  44.314  1.00  0.00    -0.744 OA
ENDBRANCH  80  81
ENDBRANCH  48  73
BRANCH  60  85
ATOM     85  C   UNL A   1      47.673  36.507  35.698  1.00  0.00     0.058 A 
ATOM     86  C   UNL A   1      48.594  35.514  36.067  1.00  0.00     0.135 A 
ATOM     87  C   UNL A   1      48.120  37.838  35.671  1.00  0.00     0.135 A 
ATOM     88  F   UNL A   1      48.218  34.226  36.116  1.00  0.00    -0.206 F 
ATOM     89  C   UNL A   1      49.898  35.833  36.439  1.00  0.00     0.059 A 
ATOM     90  C   UNL A   1      49.427  38.176  36.010  1.00  0.00     0.059 A 
ATOM     91  F   UNL A   1      47.284  38.825  35.314  1.00  0.00    -0.206 F 
ATOM     92  C   UNL A   1      50.302  37.168  36.413  1.00  0.00     0.060 A 
BRANCH  92  93
ATOM     93  S   UNL A   1      51.991  37.571  36.906  1.00  0.00     0.124 S 
ATOM     94  O   UNL A   1      52.690  36.328  36.600  1.00  0.00    -0.237 OA
ATOM     95  O   UNL A   1      52.307  38.705  36.043  1.00  0.00    -0.237 OA
ATOM     96  O   UNL A   1      51.863  37.888  38.325  1.00  0.00    -0.744 OA
ENDBRANCH  92  93
ENDBRANCH  60  85
ENDBRANCH  34  35
ENDBRANCH  27  29
ENDBRANCH  26  27
ENDBRANCH  25  26
ENDBRANCH  24  25
ENDBRANCH  23  24
ENDBRANCH  22  23
ENDBRANCH   1  22
TORSDOF 24
ENDMDL
