MODEL 1
REMARK VINA RESULT:     -11.1      0.000      0.000
REMARK SMILES C[N@H+](Cc1ncccc1C(=O)OCCOCCOCCOC(=O)c1ccc(-c2c3nc(c(-c4c(F)cc(S(=O)(=O)[O-])cc4F)c4ccc([nH]4)c(-c4c(F)cc(S(=O)(=O)[O-])cc4F)c4nc(c(-c5c(F)cc(S(=O)(=O)[O-])cc5F)c5ccc2[nH]5)C=C4)C=C3)cc1)C[C@@H]1CCN(c2ccccc2)C1
REMARK SMILES IDX 16 1 15 2 14 3 13 4 12 5 10 6 11 7 9 8 4 9 5 10 6 11 8 12
REMARK SMILES IDX 7 13 3 14 2 15 1 16 90 18 91 19 92 20 101 21 93 22 94 23
REMARK SMILES IDX 95 24 96 25 100 26 97 27 99 28 98 29 17 30 18 31 19 32 20 33
REMARK SMILES IDX 21 34 22 35 23 36 24 37 25 38 89 39 26 40 88 41 27 42 28 43
REMARK SMILES IDX 29 44 82 45 30 46 87 47 81 48 83 49 31 50 86 51 80 52 79 53
REMARK SMILES IDX 32 55 66 56 45 57 65 58 46 59 49 60 64 61 84 62 47 63 48 64
REMARK SMILES IDX 63 66 85 67 50 68 33 69 34 70 43 71 35 72 36 73 42 74 44 75
REMARK SMILES IDX 37 76 38 77 39 78 40 79 41 80 67 81 68 82 77 83 69 84 70 85
REMARK SMILES IDX 76 86 78 87 71 88 72 89 73 90 74 91 75 92 51 93 52 94 61 95
REMARK SMILES IDX 53 96 54 97 60 98 62 99 55 100 56 101 57 102 58 103 59 104
REMARK H PARENT 2 17 83 54 49 65
REMARK Flexibility Score: inf
ROOT
ATOM      1  C   UNL A   1      33.808  22.827  27.111  1.00  0.00     0.188 C 
ENDROOT
BRANCH   1   2
ATOM      2  O   UNL A   1      32.506  22.883  26.589  1.00  0.00    -0.376 OA
BRANCH   2   3
ATOM      3  C   UNL A   1      31.766  24.048  26.870  1.00  0.00     0.202 C 
BRANCH   3   4
ATOM      4  C   UNL A   1      30.422  24.262  26.147  1.00  0.00     0.261 C 
BRANCH   4   5
ATOM      5  O   UNL A   1      30.236  25.518  25.438  1.00  0.00    -0.460 OA
BRANCH   5   6
ATOM      6  C   UNL A   1      29.942  25.407  24.109  1.00  0.00     0.340 C 
ATOM      7  O   UNL A   1      28.886  25.740  23.596  1.00  0.00    -0.246 OA
BRANCH   6   8
ATOM      8  C   UNL A   1      31.075  24.880  23.288  1.00  0.00     0.087 A 
ATOM      9  C   UNL A   1      31.916  26.018  22.110  1.00  0.00     0.109 A 
ATOM     10  N   UNL A   1      33.006  25.385  20.822  1.00  0.00    -0.254 NA
ATOM     11  C   UNL A   1      33.533  23.660  20.921  1.00  0.00     0.111 A 
ATOM     12  C   UNL A   1      31.592  23.133  23.340  1.00  0.00     0.019 A 
ATOM     13  C   UNL A   1      32.931  22.540  22.256  1.00  0.00     0.021 A 
BRANCH   9  14
ATOM     14  C   UNL A   1      32.164  27.439  22.631  1.00  0.00     0.320 C 
BRANCH  14  15
ATOM     15  N   UNL A   1      33.511  27.667  23.173  1.00  0.00    -0.332 N 
ATOM     16  C   UNL A   1      34.507  28.276  22.319  1.00  0.00     0.333 C 
ATOM     17  H   UNL A   1      33.123  26.738  23.337  1.00  0.00     0.348 HD
BRANCH  15  18
ATOM     18  C   UNL A   1      33.883  27.383  24.542  1.00  0.00     0.267 C 
BRANCH  18  19
ATOM     19  C   UNL A   1      33.676  28.424  25.661  1.00  0.00     0.065 C 
ATOM     20  C   UNL A   1      32.803  28.002  26.786  1.00  0.00     0.032 C 
ATOM     21  C   UNL A   1      33.020  29.711  25.191  1.00  0.00     0.126 C 
ATOM     22  C   UNL A   1      31.413  28.078  26.205  1.00  0.00     0.117 C 
ATOM     23  N   UNL A   1      31.354  29.493  25.114  1.00  0.00    -0.371 N 
BRANCH  23  24
ATOM     24  C   UNL A   1      29.815  30.295  24.105  1.00  0.00     0.037 A 
ATOM     25  C   UNL A   1      28.686  29.615  23.339  1.00  0.00     0.026 A 
ATOM     26  C   UNL A   1      29.476  31.816  23.945  1.00  0.00     0.026 A 
ATOM     27  C   UNL A   1      27.641  30.261  22.610  1.00  0.00     0.002 A 
ATOM     28  C   UNL A   1      28.410  32.413  23.236  1.00  0.00     0.002 A 
ATOM     29  C   UNL A   1      27.506  31.636  22.557  1.00  0.00     0.000 A 
ENDBRANCH  23  24
ENDBRANCH  18  19
ENDBRANCH  15  18
ENDBRANCH  14  15
ENDBRANCH   9  14
ENDBRANCH   6   8
ENDBRANCH   5   6
ENDBRANCH   4   5
ENDBRANCH   3   4
ENDBRANCH   2   3
ENDBRANCH   1   2
BRANCH   1  30
ATOM     30  C   UNL A   1      34.767  21.676  26.798  1.00  0.00     0.188 C 
BRANCH  30  31
ATOM     31  O   UNL A   1      34.835  21.177  25.487  1.00  0.00    -0.376 OA
BRANCH  31  32
ATOM     32  C   UNL A   1      35.973  21.461  24.696  1.00  0.00     0.202 C 
BRANCH  32  33
ATOM     33  C   UNL A   1      37.389  21.455  25.297  1.00  0.00     0.261 C 
BRANCH  33  34
ATOM     34  O   UNL A   1      38.182  22.653  25.129  1.00  0.00    -0.460 OA
BRANCH  34  35
ATOM     35  C   UNL A   1      39.135  22.826  26.088  1.00  0.00     0.338 C 
ATOM     36  O   UNL A   1      39.968  21.985  26.402  1.00  0.00    -0.246 OA
BRANCH  35  37
ATOM     37  C   UNL A   1      39.172  24.167  26.740  1.00  0.00     0.060 A 
ATOM     38  C   UNL A   1      39.970  25.188  26.265  1.00  0.00     0.016 A 
ATOM     39  C   UNL A   1      38.633  24.317  28.020  1.00  0.00     0.016 A 
ATOM     40  C   UNL A   1      40.449  26.162  27.129  1.00  0.00     0.010 A 
ATOM     41  C   UNL A   1      38.917  25.465  28.790  1.00  0.00     0.010 A 
ATOM     42  C   UNL A   1      39.881  26.397  28.373  1.00  0.00    -0.014 A 
BRANCH  42  43
ATOM     43  C   UNL A   1      40.310  27.594  29.174  1.00  0.00     0.031 A 
ATOM     44  C   UNL A   1      41.613  27.569  29.936  1.00  0.00     0.074 A 
ATOM     45  C   UNL A   1      39.568  28.731  29.213  1.00  0.00     0.049 A 
ATOM     46  N   UNL A   1      41.988  28.298  30.954  1.00  0.00    -0.248 NA
ATOM     47  C   UNL A   1      42.621  26.586  29.505  1.00  0.00     0.031 C 
ATOM     48  C   UNL A   1      38.349  29.005  28.441  1.00  0.00     0.029 A 
ATOM     49  N   UNL A   1      39.733  29.892  29.940  1.00  0.00    -0.354 N 
ATOM     50  C   UNL A   1      43.226  27.800  31.348  1.00  0.00     0.074 A 
ATOM     51  C   UNL A   1      43.552  26.721  30.442  1.00  0.00     0.031 C 
ATOM     52  C   UNL A   1      37.937  30.257  28.660  1.00  0.00     0.029 A 
ATOM     53  C   UNL A   1      38.707  30.797  29.762  1.00  0.00     0.049 A 
ATOM     54  H   UNL A   1      40.505  30.058  30.527  1.00  0.00     0.167 HD
ATOM     55  C   UNL A   1      43.997  28.200  32.389  1.00  0.00     0.037 A 
ATOM     56  C   UNL A   1      38.320  31.873  30.474  1.00  0.00     0.037 A 
ATOM     57  C   UNL A   1      43.670  29.325  33.231  1.00  0.00     0.049 A 
ATOM     58  C   UNL A   1      39.100  32.220  31.704  1.00  0.00     0.074 A 
ATOM     59  C   UNL A   1      44.362  29.810  34.327  1.00  0.00     0.029 A 
ATOM     60  N   UNL A   1      42.565  30.149  33.061  1.00  0.00    -0.354 N 
ATOM     61  N   UNL A   1      40.193  31.661  32.164  1.00  0.00    -0.248 NA
ATOM     62  C   UNL A   1      38.580  33.313  32.533  1.00  0.00     0.031 C 
ATOM     63  C   UNL A   1      43.639  30.884  34.858  1.00  0.00     0.029 A 
ATOM     64  C   UNL A   1      42.537  31.116  34.052  1.00  0.00     0.049 A 
ATOM     65  H   UNL A   1      41.900  30.058  32.341  1.00  0.00     0.167 HD
ATOM     66  C   UNL A   1      40.501  32.345  33.330  1.00  0.00     0.074 A 
ATOM     67  C   UNL A   1      39.491  33.371  33.494  1.00  0.00     0.031 C 
ATOM     68  C   UNL A   1      41.527  32.138  34.190  1.00  0.00     0.037 A 
BRANCH  55  69
ATOM     69  C   UNL A   1      45.211  27.377  32.733  1.00  0.00     0.058 A 
ATOM     70  C   UNL A   1      45.170  26.282  33.608  1.00  0.00     0.135 A 
ATOM     71  C   UNL A   1      46.448  27.683  32.136  1.00  0.00     0.135 A 
ATOM     72  F   UNL A   1      44.023  25.951  34.223  1.00  0.00    -0.206 F 
ATOM     73  C   UNL A   1      46.313  25.541  33.902  1.00  0.00     0.059 A 
ATOM     74  C   UNL A   1      47.595  26.936  32.388  1.00  0.00     0.059 A 
ATOM     75  F   UNL A   1      46.552  28.721  31.290  1.00  0.00    -0.206 F 
ATOM     76  C   UNL A   1      47.521  25.874  33.286  1.00  0.00     0.060 A 
BRANCH  76  77
ATOM     77  S   UNL A   1      48.992  24.904  33.680  1.00  0.00     0.124 S 
ATOM     78  O   UNL A   1      49.701  24.920  32.403  1.00  0.00    -0.237 OA
ATOM     79  O   UNL A   1      49.601  25.685  34.752  1.00  0.00    -0.237 OA
ATOM     80  O   UNL A   1      48.452  23.609  34.079  1.00  0.00    -0.744 OA
ENDBRANCH  76  77
ENDBRANCH  55  69
BRANCH  56  81
ATOM     81  C   UNL A   1      37.065  32.600  30.117  1.00  0.00     0.058 A 
ATOM     82  C   UNL A   1      35.866  32.357  30.800  1.00  0.00     0.135 A 
ATOM     83  C   UNL A   1      37.043  33.572  29.098  1.00  0.00     0.135 A 
ATOM     84  F   UNL A   1      35.822  31.428  31.767  1.00  0.00    -0.206 F 
ATOM     85  C   UNL A   1      34.694  33.043  30.487  1.00  0.00     0.059 A 
ATOM     86  C   UNL A   1      35.898  34.301  28.796  1.00  0.00     0.059 A 
ATOM     87  F   UNL A   1      38.161  33.853  28.409  1.00  0.00    -0.206 F 
ATOM     88  C   UNL A   1      34.723  34.020  29.489  1.00  0.00     0.060 A 
BRANCH  88  89
ATOM     89  S   UNL A   1      33.209  34.934  29.125  1.00  0.00     0.124 S 
ATOM     90  O   UNL A   1      32.547  34.934  30.424  1.00  0.00    -0.237 OA
ATOM     91  O   UNL A   1      33.730  36.220  28.675  1.00  0.00    -0.237 OA
ATOM     92  O   UNL A   1      32.568  34.129  28.091  1.00  0.00    -0.744 OA
ENDBRANCH  88  89
ENDBRANCH  56  81
BRANCH  68  93
ATOM     93  C   UNL A   1      41.635  33.065  35.365  1.00  0.00     0.058 A 
ATOM     94  C   UNL A   1      42.296  34.298  35.272  1.00  0.00     0.135 A 
ATOM     95  C   UNL A   1      41.007  32.741  36.578  1.00  0.00     0.135 A 
ATOM     96  F   UNL A   1      42.929  34.644  34.141  1.00  0.00    -0.206 F 
ATOM     97  C   UNL A   1      42.332  35.180  36.345  1.00  0.00     0.059 A 
ATOM     98  C   UNL A   1      41.001  33.622  37.652  1.00  0.00     0.059 A 
ATOM     99  F   UNL A   1      40.363  31.570  36.716  1.00  0.00    -0.206 F 
ATOM    100  C   UNL A   1      41.668  34.839  37.525  1.00  0.00     0.060 A 
BRANCH 100 101
ATOM    101  S   UNL A   1      41.656  36.032  38.880  1.00  0.00     0.124 S 
ATOM    102  O   UNL A   1      43.069  36.381  38.980  1.00  0.00    -0.237 OA
ATOM    103  O   UNL A   1      40.780  37.077  38.360  1.00  0.00    -0.237 OA
ATOM    104  O   UNL A   1      41.116  35.269  40.001  1.00  0.00    -0.744 OA
ENDBRANCH 100 101
ENDBRANCH  68  93
ENDBRANCH  42  43
ENDBRANCH  35  37
ENDBRANCH  34  35
ENDBRANCH  33  34
ENDBRANCH  32  33
ENDBRANCH  31  32
ENDBRANCH  30  31
ENDBRANCH   1  30
TORSDOF 25
ENDMDL
MODEL 2
REMARK VINA RESULT:     -10.4      5.397     10.572
REMARK SMILES C[N@H+](Cc1ncccc1C(=O)OCCOCCOCCOC(=O)c1ccc(-c2c3nc(c(-c4c(F)cc(S(=O)(=O)[O-])cc4F)c4ccc([nH]4)c(-c4c(F)cc(S(=O)(=O)[O-])cc4F)c4nc(c(-c5c(F)cc(S(=O)(=O)[O-])cc5F)c5ccc2[nH]5)C=C4)C=C3)cc1)C[C@@H]1CCN(c2ccccc2)C1
REMARK SMILES IDX 16 1 15 2 14 3 13 4 12 5 10 6 11 7 9 8 4 9 5 10 6 11 8 12
REMARK SMILES IDX 7 13 3 14 2 15 1 16 90 18 91 19 92 20 101 21 93 22 94 23
REMARK SMILES IDX 95 24 96 25 100 26 97 27 99 28 98 29 17 30 18 31 19 32 20 33
REMARK SMILES IDX 21 34 22 35 23 36 24 37 25 38 89 39 26 40 88 41 27 42 28 43
REMARK SMILES IDX 29 44 82 45 30 46 87 47 81 48 83 49 31 50 86 51 80 52 79 53
REMARK SMILES IDX 32 55 66 56 45 57 65 58 46 59 49 60 64 61 84 62 47 63 48 64
REMARK SMILES IDX 63 66 85 67 50 68 33 69 34 70 43 71 35 72 36 73 42 74 44 75
REMARK SMILES IDX 37 76 38 77 39 78 40 79 41 80 67 81 68 82 77 83 69 84 70 85
REMARK SMILES IDX 76 86 78 87 71 88 72 89 73 90 74 91 75 92 51 93 52 94 61 95
REMARK SMILES IDX 53 96 54 97 60 98 62 99 55 100 56 101 57 102 58 103 59 104
REMARK H PARENT 2 17 83 54 49 65
REMARK Flexibility Score: inf
ROOT
ATOM      1  C   UNL A   1      34.601  31.942  28.013  1.00  0.00     0.188 C 
ENDROOT
BRANCH   1   2
ATOM      2  O   UNL A   1      35.241  30.728  28.308  1.00  0.00    -0.376 OA
BRANCH   2   3
ATOM      3  C   UNL A   1      35.369  29.811  27.247  1.00  0.00     0.202 C 
BRANCH   3   4
ATOM      4  C   UNL A   1      34.108  29.418  26.453  1.00  0.00     0.261 C 
BRANCH   4   5
ATOM      5  O   UNL A   1      33.704  28.022  26.485  1.00  0.00    -0.460 OA
BRANCH   5   6
ATOM      6  C   UNL A   1      32.438  27.764  26.043  1.00  0.00     0.340 C 
ATOM      7  O   UNL A   1      31.682  28.594  25.563  1.00  0.00    -0.246 OA
BRANCH   6   8
ATOM      8  C   UNL A   1      32.052  26.323  26.141  1.00  0.00     0.087 A 
ATOM      9  C   UNL A   1      30.270  25.875  26.010  1.00  0.00     0.109 A 
ATOM     10  N   UNL A   1      29.683  24.244  26.501  1.00  0.00    -0.254 NA
ATOM     11  C   UNL A   1      30.907  22.947  26.793  1.00  0.00     0.111 A 
ATOM     12  C   UNL A   1      33.265  25.006  26.481  1.00  0.00     0.019 A 
ATOM     13  C   UNL A   1      32.716  23.279  26.665  1.00  0.00     0.021 A 
BRANCH   9  14
ATOM     14  C   UNL A   1      29.478  26.636  24.940  1.00  0.00     0.320 C 
BRANCH  14  15
ATOM     15  N   UNL A   1      30.160  26.760  23.644  1.00  0.00    -0.332 N 
ATOM     16  C   UNL A   1      29.958  27.963  22.867  1.00  0.00     0.333 C 
ATOM     17  H   UNL A   1      29.680  25.875  23.805  1.00  0.00     0.348 HD
BRANCH  15  18
ATOM     18  C   UNL A   1      31.087  25.775  23.128  1.00  0.00     0.267 C 
BRANCH  18  19
ATOM     19  C   UNL A   1      32.351  26.194  22.351  1.00  0.00     0.065 C 
ATOM     20  C   UNL A   1      32.521  25.579  21.010  1.00  0.00     0.032 C 
ATOM     21  C   UNL A   1      33.651  25.839  23.051  1.00  0.00     0.126 C 
ATOM     22  C   UNL A   1      32.956  24.167  21.319  1.00  0.00     0.117 C 
ATOM     23  N   UNL A   1      34.025  24.227  22.750  1.00  0.00    -0.371 N 
BRANCH  23  24
ATOM     24  C   UNL A   1      35.079  22.774  23.648  1.00  0.00     0.037 A 
ATOM     25  C   UNL A   1      34.600  21.508  24.351  1.00  0.00     0.026 A 
ATOM     26  C   UNL A   1      36.638  22.667  23.766  1.00  0.00     0.026 A 
ATOM     27  C   UNL A   1      35.417  20.535  25.004  1.00  0.00     0.002 A 
ATOM     28  C   UNL A   1      37.409  21.665  24.397  1.00  0.00     0.002 A 
ATOM     29  C   UNL A   1      36.797  20.612  25.028  1.00  0.00     0.000 A 
ENDBRANCH  23  24
ENDBRANCH  18  19
ENDBRANCH  15  18
ENDBRANCH  14  15
ENDBRANCH   9  14
ENDBRANCH   6   8
ENDBRANCH   5   6
ENDBRANCH   4   5
ENDBRANCH   3   4
ENDBRANCH   2   3
ENDBRANCH   1   2
BRANCH   1  30
ATOM     30  C   UNL A   1      34.113  32.897  29.105  1.00  0.00     0.188 C 
BRANCH  30  31
ATOM     31  O   UNL A   1      35.052  33.660  29.819  1.00  0.00    -0.376 OA
BRANCH  31  32
ATOM     32  C   UNL A   1      35.982  33.004  30.659  1.00  0.00     0.202 C 
BRANCH  32  33
ATOM     33  C   UNL A   1      35.580  31.778  31.497  1.00  0.00     0.261 C 
BRANCH  33  34
ATOM     34  O   UNL A   1      36.340  30.564  31.296  1.00  0.00    -0.460 OA
BRANCH  34  35
ATOM     35  C   UNL A   1      37.415  30.439  32.125  1.00  0.00     0.338 C 
ATOM     36  O   UNL A   1      37.344  30.238  33.331  1.00  0.00    -0.246 OA
BRANCH  35  37
ATOM     37  C   UNL A   1      38.755  30.497  31.473  1.00  0.00     0.060 A 
ATOM     38  C   UNL A   1      38.920  30.955  30.181  1.00  0.00     0.016 A 
ATOM     39  C   UNL A   1      39.823  29.804  32.048  1.00  0.00     0.016 A 
ATOM     40  C   UNL A   1      39.969  30.490  29.402  1.00  0.00     0.010 A 
ATOM     41  C   UNL A   1      41.009  29.576  31.319  1.00  0.00     0.010 A 
ATOM     42  C   UNL A   1      41.086  29.876  29.949  1.00  0.00    -0.014 A 
BRANCH  42  43
ATOM     43  C   UNL A   1      42.275  29.579  29.079  1.00  0.00     0.031 A 
ATOM     44  C   UNL A   1      42.428  28.219  28.443  1.00  0.00     0.074 A 
ATOM     45  C   UNL A   1      43.218  30.519  28.813  1.00  0.00     0.049 A 
ATOM     46  N   UNL A   1      43.507  27.636  27.991  1.00  0.00    -0.248 NA
ATOM     47  C   UNL A   1      41.210  27.401  28.310  1.00  0.00     0.031 C 
ATOM     48  C   UNL A   1      43.184  31.930  29.220  1.00  0.00     0.029 A 
ATOM     49  N   UNL A   1      44.410  30.432  28.123  1.00  0.00    -0.354 N 
ATOM     50  C   UNL A   1      43.122  26.353  27.613  1.00  0.00     0.074 A 
ATOM     51  C   UNL A   1      41.702  26.250  27.866  1.00  0.00     0.031 C 
ATOM     52  C   UNL A   1      44.231  32.582  28.707  1.00  0.00     0.029 A 
ATOM     53  C   UNL A   1      45.138  31.604  28.143  1.00  0.00     0.049 A 
ATOM     54  H   UNL A   1      44.710  29.616  27.662  1.00  0.00     0.167 HD
ATOM     55  C   UNL A   1      43.899  25.355  27.126  1.00  0.00     0.037 A 
ATOM     56  C   UNL A   1      46.433  31.866  27.877  1.00  0.00     0.037 A 
ATOM     57  C   UNL A   1      45.300  25.515  26.824  1.00  0.00     0.049 A 
ATOM     58  C   UNL A   1      47.313  30.724  27.475  1.00  0.00     0.074 A 
ATOM     59  C   UNL A   1      46.193  24.572  26.348  1.00  0.00     0.029 A 
ATOM     60  N   UNL A   1      46.008  26.703  26.955  1.00  0.00    -0.354 N 
ATOM     61  N   UNL A   1      46.982  29.474  27.256  1.00  0.00    -0.248 NA
ATOM     62  C   UNL A   1      48.743  31.012  27.321  1.00  0.00     0.031 C 
ATOM     63  C   UNL A   1      47.454  25.172  26.256  1.00  0.00     0.029 A 
ATOM     64  C   UNL A   1      47.333  26.507  26.604  1.00  0.00     0.049 A 
ATOM     65  H   UNL A   1      45.624  27.559  27.254  1.00  0.00     0.167 HD
ATOM     66  C   UNL A   1      48.163  28.828  26.923  1.00  0.00     0.074 A 
ATOM     67  C   UNL A   1      49.211  29.828  26.950  1.00  0.00     0.031 C 
ATOM     68  C   UNL A   1      48.360  27.521  26.626  1.00  0.00     0.037 A 
BRANCH  55  69
ATOM     69  C   UNL A   1      43.286  23.987  26.972  1.00  0.00     0.058 A 
ATOM     70  C   UNL A   1      42.866  23.471  25.737  1.00  0.00     0.135 A 
ATOM     71  C   UNL A   1      43.147  23.158  28.102  1.00  0.00     0.135 A 
ATOM     72  F   UNL A   1      42.957  24.220  24.626  1.00  0.00    -0.206 F 
ATOM     73  C   UNL A   1      42.305  22.200  25.631  1.00  0.00     0.059 A 
ATOM     74  C   UNL A   1      42.620  21.872  28.014  1.00  0.00     0.059 A 
ATOM     75  F   UNL A   1      43.529  23.596  29.312  1.00  0.00    -0.206 F 
ATOM     76  C   UNL A   1      42.187  21.408  26.775  1.00  0.00     0.060 A 
BRANCH  76  77
ATOM     77  S   UNL A   1      41.456  19.764  26.620  1.00  0.00     0.124 S 
ATOM     78  O   UNL A   1      41.924  19.120  27.845  1.00  0.00    -0.237 OA
ATOM     79  O   UNL A   1      40.028  20.063  26.568  1.00  0.00    -0.237 OA
ATOM     80  O   UNL A   1      42.032  19.247  25.383  1.00  0.00    -0.744 OA
ENDBRANCH  76  77
ENDBRANCH  55  69
BRANCH  56  81
ATOM     81  C   UNL A   1      46.989  33.230  28.120  1.00  0.00     0.058 A 
ATOM     82  C   UNL A   1      46.989  34.205  27.113  1.00  0.00     0.135 A 
ATOM     83  C   UNL A   1      47.515  33.598  29.374  1.00  0.00     0.135 A 
ATOM     84  F   UNL A   1      46.520  33.906  25.893  1.00  0.00    -0.206 F 
ATOM     85  C   UNL A   1      47.489  35.486  27.335  1.00  0.00     0.059 A 
ATOM     86  C   UNL A   1      47.980  34.882  29.634  1.00  0.00     0.059 A 
ATOM     87  F   UNL A   1      47.540  32.709  30.382  1.00  0.00    -0.206 F 
ATOM     88  C   UNL A   1      47.974  35.818  28.602  1.00  0.00     0.060 A 
BRANCH  88  89
ATOM     89  S   UNL A   1      48.576  37.495  28.890  1.00  0.00     0.124 S 
ATOM     90  O   UNL A   1      49.794  37.243  29.651  1.00  0.00    -0.237 OA
ATOM     91  O   UNL A   1      48.765  37.990  27.530  1.00  0.00    -0.237 OA
ATOM     92  O   UNL A   1      47.488  38.123  29.633  1.00  0.00    -0.744 OA
ENDBRANCH  88  89
ENDBRANCH  56  81
BRANCH  68  93
ATOM     93  C   UNL A   1      49.755  27.103  26.263  1.00  0.00     0.058 A 
ATOM     94  C   UNL A   1      50.670  26.669  27.233  1.00  0.00     0.135 A 
ATOM     95  C   UNL A   1      50.153  27.071  24.918  1.00  0.00     0.135 A 
ATOM     96  F   UNL A   1      50.343  26.700  28.535  1.00  0.00    -0.206 F 
ATOM     97  C   UNL A   1      51.937  26.219  26.881  1.00  0.00     0.059 A 
ATOM     98  C   UNL A   1      51.402  26.593  24.540  1.00  0.00     0.059 A 
ATOM     99  F   UNL A   1      49.313  27.478  23.952  1.00  0.00    -0.206 F 
ATOM    100  C   UNL A   1      52.287  26.170  25.531  1.00  0.00     0.060 A 
BRANCH 100 101
ATOM    101  S   UNL A   1      53.905  25.506  25.086  1.00  0.00     0.124 S 
ATOM    102  O   UNL A   1      53.537  24.363  24.255  1.00  0.00    -0.237 OA
ATOM    103  O   UNL A   1      54.515  26.630  24.383  1.00  0.00    -0.237 OA
ATOM    104  O   UNL A   1      54.505  25.178  26.375  1.00  0.00    -0.744 OA
ENDBRANCH 100 101
ENDBRANCH  68  93
ENDBRANCH  42  43
ENDBRANCH  35  37
ENDBRANCH  34  35
ENDBRANCH  33  34
ENDBRANCH  32  33
ENDBRANCH  31  32
ENDBRANCH  30  31
ENDBRANCH   1  30
TORSDOF 25
ENDMDL
MODEL 3
REMARK VINA RESULT:     -10.3      3.137      3.775
REMARK SMILES C[N@H+](Cc1ncccc1C(=O)OCCOCCOCCOC(=O)c1ccc(-c2c3nc(c(-c4c(F)cc(S(=O)(=O)[O-])cc4F)c4ccc([nH]4)c(-c4c(F)cc(S(=O)(=O)[O-])cc4F)c4nc(c(-c5c(F)cc(S(=O)(=O)[O-])cc5F)c5ccc2[nH]5)C=C4)C=C3)cc1)C[C@@H]1CCN(c2ccccc2)C1
REMARK SMILES IDX 16 1 15 2 14 3 13 4 12 5 10 6 11 7 9 8 4 9 5 10 6 11 8 12
REMARK SMILES IDX 7 13 3 14 2 15 1 16 90 18 91 19 92 20 101 21 93 22 94 23
REMARK SMILES IDX 95 24 96 25 100 26 97 27 99 28 98 29 17 30 18 31 19 32 20 33
REMARK SMILES IDX 21 34 22 35 23 36 24 37 25 38 89 39 26 40 88 41 27 42 28 43
REMARK SMILES IDX 29 44 82 45 30 46 87 47 81 48 83 49 31 50 86 51 80 52 79 53
REMARK SMILES IDX 32 55 66 56 45 57 65 58 46 59 49 60 64 61 84 62 47 63 48 64
REMARK SMILES IDX 63 66 85 67 50 68 33 69 34 70 43 71 35 72 36 73 42 74 44 75
REMARK SMILES IDX 37 76 38 77 39 78 40 79 41 80 67 81 68 82 77 83 69 84 70 85
REMARK SMILES IDX 76 86 78 87 71 88 72 89 73 90 74 91 75 92 51 93 52 94 61 95
REMARK SMILES IDX 53 96 54 97 60 98 62 99 55 100 56 101 57 102 58 103 59 104
REMARK H PARENT 2 17 83 54 49 65
REMARK Flexibility Score: inf
ROOT
ATOM      1  C   UNL A   1      33.622  22.669  27.169  1.00  0.00     0.188 C 
ENDROOT
BRANCH   1   2
ATOM      2  O   UNL A   1      32.363  22.875  26.583  1.00  0.00    -0.376 OA
BRANCH   2   3
ATOM      3  C   UNL A   1      31.750  24.119  26.830  1.00  0.00     0.202 C 
BRANCH   3   4
ATOM      4  C   UNL A   1      30.380  24.409  26.188  1.00  0.00     0.261 C 
BRANCH   4   5
ATOM      5  O   UNL A   1      30.249  25.633  25.414  1.00  0.00    -0.460 OA
BRANCH   5   6
ATOM      6  C   UNL A   1      29.927  25.467  24.098  1.00  0.00     0.340 C 
ATOM      7  O   UNL A   1      28.857  25.772  23.595  1.00  0.00    -0.246 OA
BRANCH   6   8
ATOM      8  C   UNL A   1      31.045  24.914  23.274  1.00  0.00     0.087 A 
ATOM      9  C   UNL A   1      31.903  26.030  22.086  1.00  0.00     0.109 A 
ATOM     10  N   UNL A   1      32.974  25.370  20.796  1.00  0.00    -0.254 NA
ATOM     11  C   UNL A   1      33.468  23.635  20.901  1.00  0.00     0.111 A 
ATOM     12  C   UNL A   1      31.528  23.158  23.331  1.00  0.00     0.019 A 
ATOM     13  C   UNL A   1      32.850  22.533  22.244  1.00  0.00     0.021 A 
BRANCH   9  14
ATOM     14  C   UNL A   1      32.181  27.448  22.600  1.00  0.00     0.320 C 
BRANCH  14  15
ATOM     15  N   UNL A   1      33.526  27.646  23.157  1.00  0.00    -0.332 N 
ATOM     16  C   UNL A   1      34.547  28.229  22.315  1.00  0.00     0.333 C 
ATOM     17  H   UNL A   1      33.113  26.727  23.318  1.00  0.00     0.348 HD
BRANCH  15  18
ATOM     18  C   UNL A   1      33.874  27.357  24.532  1.00  0.00     0.267 C 
BRANCH  18  19
ATOM     19  C   UNL A   1      33.673  28.403  25.646  1.00  0.00     0.065 C 
ATOM     20  C   UNL A   1      32.785  27.996  26.766  1.00  0.00     0.032 C 
ATOM     21  C   UNL A   1      33.038  29.698  25.169  1.00  0.00     0.126 C 
ATOM     22  C   UNL A   1      31.400  28.090  26.173  1.00  0.00     0.117 C 
ATOM     23  N   UNL A   1      31.370  29.503  25.078  1.00  0.00    -0.371 N 
BRANCH  23  24
ATOM     24  C   UNL A   1      29.851  30.324  24.056  1.00  0.00     0.037 A 
ATOM     25  C   UNL A   1      29.353  31.765  24.031  1.00  0.00     0.026 A 
ATOM     26  C   UNL A   1      28.891  29.608  23.045  1.00  0.00     0.026 A 
ATOM     27  C   UNL A   1      28.233  32.267  23.301  1.00  0.00     0.002 A 
ATOM     28  C   UNL A   1      27.810  30.153  22.317  1.00  0.00     0.002 A 
ATOM     29  C   UNL A   1      27.473  31.475  22.459  1.00  0.00     0.000 A 
ENDBRANCH  23  24
ENDBRANCH  18  19
ENDBRANCH  15  18
ENDBRANCH  14  15
ENDBRANCH   9  14
ENDBRANCH   6   8
ENDBRANCH   5   6
ENDBRANCH   4   5
ENDBRANCH   3   4
ENDBRANCH   2   3
ENDBRANCH   1   2
BRANCH   1  30
ATOM     30  C   UNL A   1      34.484  21.445  26.850  1.00  0.00     0.188 C 
BRANCH  30  31
ATOM     31  O   UNL A   1      34.625  21.035  25.514  1.00  0.00    -0.376 OA
BRANCH  31  32
ATOM     32  C   UNL A   1      35.772  21.433  24.786  1.00  0.00     0.202 C 
BRANCH  32  33
ATOM     33  C   UNL A   1      37.183  21.324  25.388  1.00  0.00     0.261 C 
BRANCH  33  34
ATOM     34  O   UNL A   1      37.888  22.561  25.643  1.00  0.00    -0.460 OA
BRANCH  34  35
ATOM     35  C   UNL A   1      39.037  22.407  26.360  1.00  0.00     0.338 C 
ATOM     36  O   UNL A   1      39.713  21.386  26.379  1.00  0.00    -0.246 OA
BRANCH  35  37
ATOM     37  C   UNL A   1      39.503  23.605  27.115  1.00  0.00     0.060 A 
ATOM     38  C   UNL A   1      38.922  24.846  26.949  1.00  0.00     0.016 A 
ATOM     39  C   UNL A   1      40.734  23.558  27.775  1.00  0.00     0.016 A 
ATOM     40  C   UNL A   1      39.661  26.000  27.159  1.00  0.00     0.010 A 
ATOM     41  C   UNL A   1      41.351  24.741  28.233  1.00  0.00     0.010 A 
ATOM     42  C   UNL A   1      40.843  26.003  27.885  1.00  0.00    -0.014 A 
BRANCH  42  43
ATOM     43  C   UNL A   1      41.490  27.310  28.250  1.00  0.00     0.031 A 
ATOM     44  C   UNL A   1      42.968  27.515  28.021  1.00  0.00     0.074 A 
ATOM     45  C   UNL A   1      40.773  28.344  28.760  1.00  0.00     0.049 A 
ATOM     46  N   UNL A   1      43.780  28.371  28.584  1.00  0.00    -0.248 NA
ATOM     47  C   UNL A   1      43.622  26.631  27.040  1.00  0.00     0.031 C 
ATOM     48  C   UNL A   1      39.315  28.396  28.932  1.00  0.00     0.029 A 
ATOM     49  N   UNL A   1      41.176  29.576  29.234  1.00  0.00    -0.354 N 
ATOM     50  C   UNL A   1      45.050  28.068  28.104  1.00  0.00     0.074 A 
ATOM     51  C   UNL A   1      44.899  26.963  27.183  1.00  0.00     0.031 C 
ATOM     52  C   UNL A   1      38.946  29.601  29.375  1.00  0.00     0.029 A 
ATOM     53  C   UNL A   1      40.141  30.327  29.751  1.00  0.00     0.049 A 
ATOM     54  H   UNL A   1      42.109  29.888  29.205  1.00  0.00     0.167 HD
ATOM     55  C   UNL A   1      46.230  28.651  28.432  1.00  0.00     0.037 A 
ATOM     56  C   UNL A   1      40.125  31.404  30.560  1.00  0.00     0.037 A 
ATOM     57  C   UNL A   1      46.334  29.795  29.304  1.00  0.00     0.049 A 
ATOM     58  C   UNL A   1      41.437  31.952  31.028  1.00  0.00     0.074 A 
ATOM     59  C   UNL A   1      47.474  30.457  29.725  1.00  0.00     0.029 A 
ATOM     60  N   UNL A   1      45.255  30.456  29.876  1.00  0.00    -0.354 N 
ATOM     61  N   UNL A   1      42.647  31.577  30.690  1.00  0.00    -0.248 NA
ATOM     62  C   UNL A   1      41.389  33.039  32.011  1.00  0.00     0.031 C 
ATOM     63  C   UNL A   1      47.087  31.475  30.604  1.00  0.00     0.029 A 
ATOM     64  C   UNL A   1      45.705  31.495  30.675  1.00  0.00     0.049 A 
ATOM     65  H   UNL A   1      44.310  30.221  29.735  1.00  0.00     0.167 HD
ATOM     66  C   UNL A   1      43.507  32.393  31.410  1.00  0.00     0.074 A 
ATOM     67  C   UNL A   1      42.679  33.294  32.184  1.00  0.00     0.031 C 
ATOM     68  C   UNL A   1      44.862  32.391  31.429  1.00  0.00     0.037 A 
BRANCH  55  69
ATOM     69  C   UNL A   1      47.501  28.019  27.925  1.00  0.00     0.058 A 
ATOM     70  C   UNL A   1      48.195  27.027  28.631  1.00  0.00     0.135 A 
ATOM     71  C   UNL A   1      48.015  28.405  26.672  1.00  0.00     0.135 A 
ATOM     72  F   UNL A   1      47.765  26.629  29.839  1.00  0.00    -0.206 F 
ATOM     73  C   UNL A   1      49.367  26.462  28.131  1.00  0.00     0.059 A 
ATOM     74  C   UNL A   1      49.165  27.830  26.138  1.00  0.00     0.059 A 
ATOM     75  F   UNL A   1      47.396  29.352  25.950  1.00  0.00    -0.206 F 
ATOM     76  C   UNL A   1      49.844  26.869  26.883  1.00  0.00     0.060 A 
BRANCH  76  77
ATOM     77  S   UNL A   1      51.364  26.129  26.250  1.00  0.00     0.124 S 
ATOM     78  O   UNL A   1      51.267  26.435  24.826  1.00  0.00    -0.237 OA
ATOM     79  O   UNL A   1      52.393  26.857  26.986  1.00  0.00    -0.237 OA
ATOM     80  O   UNL A   1      51.228  24.717  26.597  1.00  0.00    -0.744 OA
ENDBRANCH  76  77
ENDBRANCH  55  69
BRANCH  56  81
ATOM     81  C   UNL A   1      38.830  31.935  31.081  1.00  0.00     0.058 A 
ATOM     82  C   UNL A   1      38.287  31.470  32.287  1.00  0.00     0.135 A 
ATOM     83  C   UNL A   1      38.115  32.936  30.395  1.00  0.00     0.135 A 
ATOM     84  F   UNL A   1      38.913  30.503  32.974  1.00  0.00    -0.206 F 
ATOM     85  C   UNL A   1      37.089  31.971  32.791  1.00  0.00     0.059 A 
ATOM     86  C   UNL A   1      36.940  33.483  30.898  1.00  0.00     0.059 A 
ATOM     87  F   UNL A   1      38.585  33.425  29.235  1.00  0.00    -0.206 F 
ATOM     88  C   UNL A   1      36.427  32.985  32.093  1.00  0.00     0.060 A 
BRANCH  88  89
ATOM     89  S   UNL A   1      34.900  33.658  32.781  1.00  0.00     0.124 S 
ATOM     90  O   UNL A   1      34.948  33.156  34.149  1.00  0.00    -0.237 OA
ATOM     91  O   UNL A   1      35.100  35.094  32.621  1.00  0.00    -0.237 OA
ATOM     92  O   UNL A   1      33.863  33.079  31.933  1.00  0.00    -0.744 OA
ENDBRANCH  88  89
ENDBRANCH  56  81
BRANCH  68  93
ATOM     93  C   UNL A   1      45.536  33.423  32.284  1.00  0.00     0.058 A 
ATOM     94  C   UNL A   1      45.794  34.718  31.810  1.00  0.00     0.135 A 
ATOM     95  C   UNL A   1      45.864  33.129  33.616  1.00  0.00     0.135 A 
ATOM     96  F   UNL A   1      45.518  35.041  30.537  1.00  0.00    -0.206 F 
ATOM     97  C   UNL A   1      46.357  35.688  32.631  1.00  0.00     0.059 A 
ATOM     98  C   UNL A   1      46.396  34.093  34.465  1.00  0.00     0.059 A 
ATOM     99  F   UNL A   1      45.637  31.903  34.116  1.00  0.00    -0.206 F 
ATOM    100  C   UNL A   1      46.640  35.370  33.960  1.00  0.00     0.060 A 
BRANCH 100 101
ATOM    101  S   UNL A   1      47.293  36.665  35.034  1.00  0.00     0.124 S 
ATOM    102  O   UNL A   1      48.558  36.982  34.378  1.00  0.00    -0.237 OA
ATOM    103  O   UNL A   1      46.258  37.690  34.943  1.00  0.00    -0.237 OA
ATOM    104  O   UNL A   1      47.406  36.007  36.332  1.00  0.00    -0.744 OA
ENDBRANCH 100 101
ENDBRANCH  68  93
ENDBRANCH  42  43
ENDBRANCH  35  37
ENDBRANCH  34  35
ENDBRANCH  33  34
ENDBRANCH  32  33
ENDBRANCH  31  32
ENDBRANCH  30  31
ENDBRANCH   1  30
TORSDOF 25
ENDMDL
