MODEL 1
REMARK VINA RESULT:      -9.5      0.000      0.000
REMARK SMILES C[C@@H]1SCCC[C@]1(CC(=O)OCCOCCOCCOC(=O)c1ccc(-c2c3nc(c(-c4c(F)cc(S(=O)(=O)[O-])cc4F)c4ccc([nH]4)c(-c4c(F)cc(S(=O)(=O)[O-])cc4F)c4nc(c(-c5c(F)cc(S(=O)(=O)[O-])cc5F)c5ccc2[nH]5)C=C4)C=C3)cc1)C(C)(C)[NH3+]
REMARK SMILES IDX 15 1 14 2 13 3 12 4 11 5 9 6 10 7 8 8 7 9 1 10 2 11 3 12
REMARK SMILES IDX 4 13 6 14 5 15 89 16 90 17 91 18 92 19 16 23 17 24 18 25
REMARK SMILES IDX 19 26 20 27 21 28 22 29 23 30 24 31 88 32 25 33 87 34 26 35
REMARK SMILES IDX 27 36 28 37 81 38 29 39 86 40 80 41 82 42 30 43 85 44 79 45
REMARK SMILES IDX 78 46 31 48 65 49 44 50 64 51 45 52 48 53 63 54 83 55 46 56
REMARK SMILES IDX 47 57 62 59 84 60 49 61 32 62 33 63 42 64 34 65 35 66 41 67
REMARK SMILES IDX 43 68 36 69 37 70 38 71 39 72 40 73 66 74 67 75 76 76 68 77
REMARK SMILES IDX 69 78 75 79 77 80 70 81 71 82 72 83 73 84 74 85 50 86 51 87
REMARK SMILES IDX 60 88 52 89 53 90 59 91 61 92 54 93 55 94 56 95 57 96 58 97
REMARK H PARENT 92 20 92 21 92 22 82 47 48 58
REMARK Flexibility Score: inf
ROOT
ATOM      1  C   UNL A   1      34.765  33.504  29.256  1.00  0.00     0.188 C 
ENDROOT
BRANCH   1   2
ATOM      2  O   UNL A   1      33.913  32.427  28.899  1.00  0.00    -0.376 OA
BRANCH   2   3
ATOM      3  C   UNL A   1      34.314  31.648  27.773  1.00  0.00     0.202 C 
BRANCH   3   4
ATOM      4  C   UNL A   1      33.306  30.610  27.242  1.00  0.00     0.261 C 
BRANCH   4   5
ATOM      5  O   UNL A   1      33.898  29.389  26.715  1.00  0.00    -0.463 OA
BRANCH   5   6
ATOM      6  C   UNL A   1      33.195  28.246  26.976  1.00  0.00     0.306 C 
ATOM      7  O   UNL A   1      32.278  28.186  27.790  1.00  0.00    -0.252 OA
BRANCH   6   8
ATOM      8  C   UNL A   1      33.502  27.073  26.029  1.00  0.00     0.137 C 
BRANCH   8   9
ATOM      9  C   UNL A   1      32.431  26.343  25.077  1.00  0.00     0.046 C 
ATOM     10  C   UNL A   1      29.991  26.830  24.102  1.00  0.00     0.020 C 
ATOM     11  C   UNL A   1      31.266  27.361  24.755  1.00  0.00     0.056 C 
ATOM     12  S   UNL A   1      31.813  28.781  23.707  1.00  0.00    -0.158 SA
ATOM     13  C   UNL A   1      32.528  27.873  22.318  1.00  0.00     0.070 C 
ATOM     14  C   UNL A   1      33.161  25.898  23.758  1.00  0.00     0.016 C 
ATOM     15  C   UNL A   1      33.647  26.976  22.802  1.00  0.00     0.012 C 
BRANCH   9  16
ATOM     16  C   UNL A   1      31.953  24.943  25.766  1.00  0.00     0.096 C 
ATOM     17  C   UNL A   1      31.171  23.921  24.900  1.00  0.00     0.079 C 
ATOM     18  C   UNL A   1      33.142  24.104  26.320  1.00  0.00     0.079 C 
BRANCH  16  19
ATOM     19  N   UNL A   1      31.070  25.265  26.878  1.00  0.00    -0.353 N 
ATOM     20  H   UNL A   1      30.298  25.841  26.544  1.00  0.00     0.344 HD
ATOM     21  H   UNL A   1      31.593  25.775  27.590  1.00  0.00     0.344 HD
ATOM     22  H   UNL A   1      30.702  24.403  27.280  1.00  0.00     0.344 HD
ENDBRANCH  16  19
ENDBRANCH   9  16
ENDBRANCH   8   9
ENDBRANCH   6   8
ENDBRANCH   5   6
ENDBRANCH   4   5
ENDBRANCH   3   4
ENDBRANCH   2   3
ENDBRANCH   1   2
BRANCH   1  23
ATOM     23  C   UNL A   1      34.603  34.088  30.668  1.00  0.00     0.188 C 
BRANCH  23  24
ATOM     24  O   UNL A   1      35.566  33.643  31.614  1.00  0.00    -0.376 OA
BRANCH  24  25
ATOM     25  C   UNL A   1      36.320  32.490  31.261  1.00  0.00     0.202 C 
BRANCH  25  26
ATOM     26  C   UNL A   1      35.770  31.194  31.866  1.00  0.00     0.261 C 
BRANCH  26  27
ATOM     27  O   UNL A   1      36.384  29.994  31.356  1.00  0.00    -0.460 OA
BRANCH  27  28
ATOM     28  C   UNL A   1      37.290  29.394  32.164  1.00  0.00     0.338 C 
ATOM     29  O   UNL A   1      37.058  28.713  33.146  1.00  0.00    -0.246 OA
BRANCH  28  30
ATOM     30  C   UNL A   1      38.622  29.487  31.525  1.00  0.00     0.060 A 
ATOM     31  C   UNL A   1      38.665  29.848  30.176  1.00  0.00     0.016 A 
ATOM     32  C   UNL A   1      39.806  29.228  32.206  1.00  0.00     0.016 A 
ATOM     33  C   UNL A   1      39.861  29.854  29.465  1.00  0.00     0.010 A 
ATOM     34  C   UNL A   1      41.019  29.263  31.501  1.00  0.00     0.010 A 
ATOM     35  C   UNL A   1      41.051  29.530  30.115  1.00  0.00    -0.014 A 
BRANCH  35  36
ATOM     36  C   UNL A   1      42.298  29.311  29.333  1.00  0.00     0.031 A 
ATOM     37  C   UNL A   1      42.525  27.957  28.713  1.00  0.00     0.074 A 
ATOM     38  C   UNL A   1      43.200  30.293  29.136  1.00  0.00     0.049 A 
ATOM     39  N   UNL A   1      43.603  27.459  28.169  1.00  0.00    -0.248 NA
ATOM     40  C   UNL A   1      41.374  27.037  28.718  1.00  0.00     0.031 C 
ATOM     41  C   UNL A   1      43.062  31.679  29.581  1.00  0.00     0.029 A 
ATOM     42  N   UNL A   1      44.425  30.264  28.513  1.00  0.00    -0.354 N 
ATOM     43  C   UNL A   1      43.278  26.155  27.813  1.00  0.00     0.074 A 
ATOM     44  C   UNL A   1      41.906  25.935  28.214  1.00  0.00     0.031 C 
ATOM     45  C   UNL A   1      44.163  32.365  29.228  1.00  0.00     0.029 A 
ATOM     46  C   UNL A   1      45.114  31.452  28.597  1.00  0.00     0.049 A 
ATOM     47  H   UNL A   1      44.777  29.469  28.052  1.00  0.00     0.167 HD
ATOM     48  C   UNL A   1      44.056  25.226  27.208  1.00  0.00     0.037 A 
ATOM     49  C   UNL A   1      46.382  31.756  28.252  1.00  0.00     0.037 A 
ATOM     50  C   UNL A   1      45.409  25.467  26.780  1.00  0.00     0.049 A 
ATOM     51  C   UNL A   1      47.262  30.682  27.661  1.00  0.00     0.074 A 
ATOM     52  C   UNL A   1      46.285  24.591  26.162  1.00  0.00     0.029 A 
ATOM     53  N   UNL A   1      46.082  26.673  26.920  1.00  0.00    -0.354 N 
ATOM     54  N   UNL A   1      46.968  29.434  27.381  1.00  0.00    -0.248 NA
ATOM     55  C   UNL A   1      48.650  31.054  27.351  1.00  0.00     0.031 C 
ATOM     56  C   UNL A   1      47.503  25.252  25.974  1.00  0.00     0.029 A 
ATOM     57  C   UNL A   1      47.366  26.558  26.417  1.00  0.00     0.049 A 
ATOM     58  H   UNL A   1      45.701  27.489  27.316  1.00  0.00     0.167 HD
ATOM     59  C   UNL A   1      48.123  28.883  26.832  1.00  0.00     0.074 A 
ATOM     60  C   UNL A   1      49.117  29.936  26.811  1.00  0.00     0.031 C 
ATOM     61  C   UNL A   1      48.341  27.621  26.385  1.00  0.00     0.037 A 
BRANCH  48  62
ATOM     62  C   UNL A   1      43.477  23.851  27.013  1.00  0.00     0.058 A 
ATOM     63  C   UNL A   1      43.064  23.384  25.756  1.00  0.00     0.135 A 
ATOM     64  C   UNL A   1      43.357  22.976  28.106  1.00  0.00     0.135 A 
ATOM     65  F   UNL A   1      43.133  24.184  24.680  1.00  0.00    -0.206 F 
ATOM     66  C   UNL A   1      42.527  22.110  25.593  1.00  0.00     0.059 A 
ATOM     67  C   UNL A   1      42.854  21.687  27.962  1.00  0.00     0.059 A 
ATOM     68  F   UNL A   1      43.733  23.372  29.333  1.00  0.00    -0.206 F 
ATOM     69  C   UNL A   1      42.428  21.269  26.703  1.00  0.00     0.060 A 
BRANCH  69  70
ATOM     70  S   UNL A   1      41.732  19.618  26.475  1.00  0.00     0.124 S 
ATOM     71  O   UNL A   1      42.260  18.917  27.642  1.00  0.00    -0.237 OA
ATOM     72  O   UNL A   1      40.297  19.881  26.490  1.00  0.00    -0.237 OA
ATOM     73  O   UNL A   1      42.276  19.193  25.189  1.00  0.00    -0.744 OA
ENDBRANCH  69  70
ENDBRANCH  48  62
BRANCH  49  74
ATOM     74  C   UNL A   1      46.921  33.124  28.498  1.00  0.00     0.058 A 
ATOM     75  C   UNL A   1      47.507  33.463  29.727  1.00  0.00     0.135 A 
ATOM     76  C   UNL A   1      46.846  34.126  27.516  1.00  0.00     0.135 A 
ATOM     77  F   UNL A   1      47.588  32.549  30.706  1.00  0.00    -0.206 F 
ATOM     78  C   UNL A   1      47.985  34.746  29.980  1.00  0.00     0.059 A 
ATOM     79  C   UNL A   1      47.345  35.406  27.734  1.00  0.00     0.059 A 
ATOM     80  F   UNL A   1      46.298  33.857  26.321  1.00  0.00    -0.206 F 
ATOM     81  C   UNL A   1      47.901  35.710  28.975  1.00  0.00     0.060 A 
BRANCH  81  82
ATOM     82  S   UNL A   1      48.561  37.360  29.302  1.00  0.00     0.124 S 
ATOM     83  O   UNL A   1      49.988  37.155  29.083  1.00  0.00    -0.237 OA
ATOM     84  O   UNL A   1      47.871  38.168  28.302  1.00  0.00    -0.237 OA
ATOM     85  O   UNL A   1      48.164  37.612  30.684  1.00  0.00    -0.744 OA
ENDBRANCH  81  82
ENDBRANCH  49  74
BRANCH  61  86
ATOM     86  C   UNL A   1      49.686  27.315  25.779  1.00  0.00     0.058 A 
ATOM     87  C   UNL A   1      50.770  26.878  26.557  1.00  0.00     0.135 A 
ATOM     88  C   UNL A   1      49.871  27.404  24.390  1.00  0.00     0.135 A 
ATOM     89  F   UNL A   1      50.649  26.780  27.890  1.00  0.00    -0.206 F 
ATOM     90  C   UNL A   1      51.996  26.563  25.980  1.00  0.00     0.059 A 
ATOM     91  C   UNL A   1      51.078  27.063  23.788  1.00  0.00     0.059 A 
ATOM     92  F   UNL A   1      48.864  27.805  23.597  1.00  0.00    -0.206 F 
ATOM     93  C   UNL A   1      52.139  26.655  24.594  1.00  0.00     0.060 A 
BRANCH  93  94
ATOM     94  S   UNL A   1      53.724  26.205  23.855  1.00  0.00     0.124 S 
ATOM     95  O   UNL A   1      53.995  24.922  24.497  1.00  0.00    -0.237 OA
ATOM     96  O   UNL A   1      53.399  26.145  22.433  1.00  0.00    -0.237 OA
ATOM     97  O   UNL A   1      54.605  27.301  24.244  1.00  0.00    -0.744 OA
ENDBRANCH  93  94
ENDBRANCH  61  86
ENDBRANCH  35  36
ENDBRANCH  28  30
ENDBRANCH  27  28
ENDBRANCH  26  27
ENDBRANCH  25  26
ENDBRANCH  24  25
ENDBRANCH  23  24
ENDBRANCH   1  23
TORSDOF 23
ENDMDL
MODEL 2
REMARK VINA RESULT:      -9.4      2.198      8.657
REMARK SMILES C[C@@H]1SCCC[C@]1(CC(=O)OCCOCCOCCOC(=O)c1ccc(-c2c3nc(c(-c4c(F)cc(S(=O)(=O)[O-])cc4F)c4ccc([nH]4)c(-c4c(F)cc(S(=O)(=O)[O-])cc4F)c4nc(c(-c5c(F)cc(S(=O)(=O)[O-])cc5F)c5ccc2[nH]5)C=C4)C=C3)cc1)C(C)(C)[NH3+]
REMARK SMILES IDX 15 1 14 2 13 3 12 4 11 5 9 6 10 7 8 8 7 9 1 10 2 11 3 12
REMARK SMILES IDX 4 13 6 14 5 15 89 16 90 17 91 18 92 19 16 23 17 24 18 25
REMARK SMILES IDX 19 26 20 27 21 28 22 29 23 30 24 31 88 32 25 33 87 34 26 35
REMARK SMILES IDX 27 36 28 37 81 38 29 39 86 40 80 41 82 42 30 43 85 44 79 45
REMARK SMILES IDX 78 46 31 48 65 49 44 50 64 51 45 52 48 53 63 54 83 55 46 56
REMARK SMILES IDX 47 57 62 59 84 60 49 61 32 62 33 63 42 64 34 65 35 66 41 67
REMARK SMILES IDX 43 68 36 69 37 70 38 71 39 72 40 73 66 74 67 75 76 76 68 77
REMARK SMILES IDX 69 78 75 79 77 80 70 81 71 82 72 83 73 84 74 85 50 86 51 87
REMARK SMILES IDX 60 88 52 89 53 90 59 91 61 92 54 93 55 94 56 95 57 96 58 97
REMARK H PARENT 92 20 92 21 92 22 82 47 48 58
REMARK Flexibility Score: inf
ROOT
ATOM      1  C   UNL A   1      35.079  21.635  24.864  1.00  0.00     0.188 C 
ENDROOT
BRANCH   1   2
ATOM      2  O   UNL A   1      34.874  21.476  26.259  1.00  0.00    -0.376 OA
BRANCH   2   3
ATOM      3  C   UNL A   1      34.150  22.517  26.915  1.00  0.00     0.202 C 
BRANCH   3   4
ATOM      4  C   UNL A   1      32.625  22.556  26.696  1.00  0.00     0.261 C 
BRANCH   4   5
ATOM      5  O   UNL A   1      32.170  23.513  25.698  1.00  0.00    -0.463 OA
BRANCH   5   6
ATOM      6  C   UNL A   1      31.795  24.731  26.193  1.00  0.00     0.306 C 
ATOM      7  O   UNL A   1      30.788  24.905  26.875  1.00  0.00    -0.252 OA
BRANCH   6   8
ATOM      8  C   UNL A   1      32.833  25.850  26.003  1.00  0.00     0.137 C 
BRANCH   8   9
ATOM      9  C   UNL A   1      32.568  27.247  25.253  1.00  0.00     0.046 C 
ATOM     10  C   UNL A   1      33.730  28.732  23.360  1.00  0.00     0.020 C 
ATOM     11  C   UNL A   1      33.588  27.378  24.054  1.00  0.00     0.056 C 
ATOM     12  S   UNL A   1      33.283  26.153  22.706  1.00  0.00    -0.158 SA
ATOM     13  C   UNL A   1      31.545  26.510  22.360  1.00  0.00     0.070 C 
ATOM     14  C   UNL A   1      31.086  27.257  24.728  1.00  0.00     0.016 C 
ATOM     15  C   UNL A   1      30.712  26.301  23.606  1.00  0.00     0.012 C 
BRANCH   9  16
ATOM     16  C   UNL A   1      32.619  28.466  26.339  1.00  0.00     0.096 C 
ATOM     17  C   UNL A   1      32.168  29.879  25.885  1.00  0.00     0.079 C 
ATOM     18  C   UNL A   1      31.737  28.196  27.594  1.00  0.00     0.079 C 
BRANCH  16  19
ATOM     19  N   UNL A   1      33.997  28.622  26.780  1.00  0.00    -0.353 N 
ATOM     20  H   UNL A   1      34.164  28.025  27.590  1.00  0.00     0.344 HD
ATOM     21  H   UNL A   1      34.166  29.595  27.033  1.00  0.00     0.344 HD
ATOM     22  H   UNL A   1      34.628  28.353  26.025  1.00  0.00     0.344 HD
ENDBRANCH  16  19
ENDBRANCH   9  16
ENDBRANCH   8   9
ENDBRANCH   6   8
ENDBRANCH   5   6
ENDBRANCH   4   5
ENDBRANCH   3   4
ENDBRANCH   2   3
ENDBRANCH   1   2
BRANCH   1  23
ATOM     23  C   UNL A   1      36.520  21.883  24.392  1.00  0.00     0.188 C 
BRANCH  23  24
ATOM     24  O   UNL A   1      37.474  22.038  25.435  1.00  0.00    -0.376 OA
BRANCH  24  25
ATOM     25  C   UNL A   1      38.615  21.189  25.387  1.00  0.00     0.202 C 
BRANCH  25  26
ATOM     26  C   UNL A   1      39.604  21.433  26.531  1.00  0.00     0.261 C 
BRANCH  26  27
ATOM     27  O   UNL A   1      40.367  20.272  26.914  1.00  0.00    -0.460 OA
BRANCH  27  28
ATOM     28  C   UNL A   1      41.525  20.068  26.243  1.00  0.00     0.338 C 
ATOM     29  O   UNL A   1      41.763  19.179  25.445  1.00  0.00    -0.246 OA
BRANCH  28  30
ATOM     30  C   UNL A   1      42.395  21.250  26.439  1.00  0.00     0.060 A 
ATOM     31  C   UNL A   1      42.776  21.558  27.747  1.00  0.00     0.016 A 
ATOM     32  C   UNL A   1      42.831  22.050  25.388  1.00  0.00     0.016 A 
ATOM     33  C   UNL A   1      43.500  22.710  28.039  1.00  0.00     0.010 A 
ATOM     34  C   UNL A   1      43.588  23.195  25.674  1.00  0.00     0.010 A 
ATOM     35  C   UNL A   1      43.889  23.560  27.004  1.00  0.00    -0.014 A 
BRANCH  35  36
ATOM     36  C   UNL A   1      44.462  24.899  27.309  1.00  0.00     0.031 A 
ATOM     37  C   UNL A   1      43.537  25.973  27.820  1.00  0.00     0.074 A 
ATOM     38  C   UNL A   1      45.777  25.162  27.176  1.00  0.00     0.049 A 
ATOM     39  N   UNL A   1      43.745  27.255  27.962  1.00  0.00    -0.248 NA
ATOM     40  C   UNL A   1      42.188  25.535  28.220  1.00  0.00     0.031 C 
ATOM     41  C   UNL A   1      46.805  24.193  26.797  1.00  0.00     0.029 A 
ATOM     42  N   UNL A   1      46.471  26.337  27.338  1.00  0.00    -0.354 N 
ATOM     43  C   UNL A   1      42.542  27.785  28.416  1.00  0.00     0.074 A 
ATOM     44  C   UNL A   1      41.606  26.687  28.515  1.00  0.00     0.031 C 
ATOM     45  C   UNL A   1      47.995  24.815  26.744  1.00  0.00     0.029 A 
ATOM     46  C   UNL A   1      47.804  26.239  27.013  1.00  0.00     0.049 A 
ATOM     47  H   UNL A   1      46.054  27.170  27.654  1.00  0.00     0.167 HD
ATOM     48  C   UNL A   1      42.247  29.070  28.721  1.00  0.00     0.037 A 
ATOM     49  C   UNL A   1      48.751  27.193  26.897  1.00  0.00     0.037 A 
ATOM     50  C   UNL A   1      43.197  30.149  28.654  1.00  0.00     0.049 A 
ATOM     51  C   UNL A   1      48.380  28.633  27.155  1.00  0.00     0.074 A 
ATOM     52  C   UNL A   1      42.998  31.490  28.937  1.00  0.00     0.029 A 
ATOM     53  N   UNL A   1      44.528  30.013  28.283  1.00  0.00    -0.354 N 
ATOM     54  N   UNL A   1      47.226  29.135  27.527  1.00  0.00    -0.248 NA
ATOM     55  C   UNL A   1      49.436  29.638  26.964  1.00  0.00     0.031 C 
ATOM     56  C   UNL A   1      44.194  32.171  28.689  1.00  0.00     0.029 A 
ATOM     57  C   UNL A   1      45.155  31.247  28.312  1.00  0.00     0.049 A 
ATOM     58  H   UNL A   1      44.961  29.164  28.037  1.00  0.00     0.167 HD
ATOM     59  C   UNL A   1      47.427  30.508  27.646  1.00  0.00     0.074 A 
ATOM     60  C   UNL A   1      48.815  30.755  27.316  1.00  0.00     0.031 C 
ATOM     61  C   UNL A   1      46.545  31.475  27.998  1.00  0.00     0.037 A 
BRANCH  48  62
ATOM     62  C   UNL A   1      40.829  29.387  29.113  1.00  0.00     0.058 A 
ATOM     63  C   UNL A   1      40.447  29.579  30.449  1.00  0.00     0.135 A 
ATOM     64  C   UNL A   1      39.841  29.525  28.125  1.00  0.00     0.135 A 
ATOM     65  F   UNL A   1      41.345  29.436  31.438  1.00  0.00    -0.206 F 
ATOM     66  C   UNL A   1      39.130  29.868  30.795  1.00  0.00     0.059 A 
ATOM     67  C   UNL A   1      38.525  29.845  28.444  1.00  0.00     0.059 A 
ATOM     68  F   UNL A   1      40.149  29.348  26.830  1.00  0.00    -0.206 F 
ATOM     69  C   UNL A   1      38.176  30.000  29.784  1.00  0.00     0.060 A 
BRANCH  69  70
ATOM     70  S   UNL A   1      36.473  30.378  30.248  1.00  0.00     0.124 S 
ATOM     71  O   UNL A   1      35.741  29.908  29.076  1.00  0.00    -0.237 OA
ATOM     72  O   UNL A   1      36.299  29.588  31.462  1.00  0.00    -0.237 OA
ATOM     73  O   UNL A   1      36.485  31.825  30.441  1.00  0.00    -0.744 OA
ENDBRANCH  69  70
ENDBRANCH  48  62
BRANCH  49  74
ATOM     74  C   UNL A   1      50.133  26.834  26.471  1.00  0.00     0.058 A 
ATOM     75  C   UNL A   1      51.143  26.587  27.413  1.00  0.00     0.135 A 
ATOM     76  C   UNL A   1      50.477  26.747  25.112  1.00  0.00     0.135 A 
ATOM     77  F   UNL A   1      50.872  26.675  28.725  1.00  0.00    -0.206 F 
ATOM     78  C   UNL A   1      52.445  26.282  27.026  1.00  0.00     0.059 A 
ATOM     79  C   UNL A   1      51.764  26.412  24.700  1.00  0.00     0.059 A 
ATOM     80  F   UNL A   1      49.551  26.970  24.167  1.00  0.00    -0.206 F 
ATOM     81  C   UNL A   1      52.744  26.195  25.666  1.00  0.00     0.060 A 
BRANCH  81  82
ATOM     82  S   UNL A   1      54.428  25.759  25.177  1.00  0.00     0.124 S 
ATOM     83  O   UNL A   1      54.558  26.464  23.908  1.00  0.00    -0.237 OA
ATOM     84  O   UNL A   1      55.214  26.289  26.287  1.00  0.00    -0.237 OA
ATOM     85  O   UNL A   1      54.385  24.302  25.089  1.00  0.00    -0.744 OA
ENDBRANCH  81  82
ENDBRANCH  49  74
BRANCH  61  86
ATOM     86  C   UNL A   1      47.058  32.888  28.104  1.00  0.00     0.058 A 
ATOM     87  C   UNL A   1      46.910  33.814  27.060  1.00  0.00     0.135 A 
ATOM     88  C   UNL A   1      47.654  33.335  29.295  1.00  0.00     0.135 A 
ATOM     89  F   UNL A   1      46.351  33.439  25.899  1.00  0.00    -0.206 F 
ATOM     90  C   UNL A   1      47.355  35.126  27.184  1.00  0.00     0.059 A 
ATOM     91  C   UNL A   1      48.078  34.650  29.453  1.00  0.00     0.059 A 
ATOM     92  F   UNL A   1      47.811  32.494  30.331  1.00  0.00    -0.206 F 
ATOM     93  C   UNL A   1      47.935  35.536  28.387  1.00  0.00     0.060 A 
BRANCH  93  94
ATOM     94  S   UNL A   1      48.473  37.252  28.549  1.00  0.00     0.124 S 
ATOM     95  O   UNL A   1      49.904  37.137  28.287  1.00  0.00    -0.237 OA
ATOM     96  O   UNL A   1      47.691  37.922  27.514  1.00  0.00    -0.237 OA
ATOM     97  O   UNL A   1      48.110  37.596  29.920  1.00  0.00    -0.744 OA
ENDBRANCH  93  94
ENDBRANCH  61  86
ENDBRANCH  35  36
ENDBRANCH  28  30
ENDBRANCH  27  28
ENDBRANCH  26  27
ENDBRANCH  25  26
ENDBRANCH  24  25
ENDBRANCH  23  24
ENDBRANCH   1  23
TORSDOF 23
ENDMDL
MODEL 3
REMARK VINA RESULT:      -9.1      1.136      8.339
REMARK SMILES C[C@@H]1SCCC[C@]1(CC(=O)OCCOCCOCCOC(=O)c1ccc(-c2c3nc(c(-c4c(F)cc(S(=O)(=O)[O-])cc4F)c4ccc([nH]4)c(-c4c(F)cc(S(=O)(=O)[O-])cc4F)c4nc(c(-c5c(F)cc(S(=O)(=O)[O-])cc5F)c5ccc2[nH]5)C=C4)C=C3)cc1)C(C)(C)[NH3+]
REMARK SMILES IDX 15 1 14 2 13 3 12 4 11 5 9 6 10 7 8 8 7 9 1 10 2 11 3 12
REMARK SMILES IDX 4 13 6 14 5 15 89 16 90 17 91 18 92 19 16 23 17 24 18 25
REMARK SMILES IDX 19 26 20 27 21 28 22 29 23 30 24 31 88 32 25 33 87 34 26 35
REMARK SMILES IDX 27 36 28 37 81 38 29 39 86 40 80 41 82 42 30 43 85 44 79 45
REMARK SMILES IDX 78 46 31 48 65 49 44 50 64 51 45 52 48 53 63 54 83 55 46 56
REMARK SMILES IDX 47 57 62 59 84 60 49 61 32 62 33 63 42 64 34 65 35 66 41 67
REMARK SMILES IDX 43 68 36 69 37 70 38 71 39 72 40 73 66 74 67 75 76 76 68 77
REMARK SMILES IDX 69 78 75 79 77 80 70 81 71 82 72 83 73 84 74 85 50 86 51 87
REMARK SMILES IDX 60 88 52 89 53 90 59 91 61 92 54 93 55 94 56 95 57 96 58 97
REMARK H PARENT 92 20 92 21 92 22 82 47 48 58
REMARK Flexibility Score: inf
ROOT
ATOM      1  C   UNL A   1      33.640  32.656  27.488  1.00  0.00     0.188 C 
ENDROOT
BRANCH   1   2
ATOM      2  O   UNL A   1      34.685  31.767  27.849  1.00  0.00    -0.376 OA
BRANCH   2   3
ATOM      3  C   UNL A   1      34.326  30.393  27.992  1.00  0.00     0.202 C 
BRANCH   3   4
ATOM      4  C   UNL A   1      34.785  29.429  26.880  1.00  0.00     0.261 C 
BRANCH   4   5
ATOM      5  O   UNL A   1      33.733  28.981  25.979  1.00  0.00    -0.463 OA
BRANCH   5   6
ATOM      6  C   UNL A   1      33.451  27.645  26.038  1.00  0.00     0.306 C 
ATOM      7  O   UNL A   1      32.768  27.134  26.922  1.00  0.00    -0.252 OA
BRANCH   6   8
ATOM      8  C   UNL A   1      33.887  26.841  24.801  1.00  0.00     0.137 C 
BRANCH   8   9
ATOM      9  C   UNL A   1      33.198  25.484  24.284  1.00  0.00     0.046 C 
ATOM     10  C   UNL A   1      30.746  24.425  24.172  1.00  0.00     0.020 C 
ATOM     11  C   UNL A   1      31.629  25.661  24.344  1.00  0.00     0.056 C 
ATOM     12  S   UNL A   1      30.993  26.904  23.133  1.00  0.00    -0.158 SA
ATOM     13  C   UNL A   1      31.695  26.228  21.611  1.00  0.00     0.070 C 
ATOM     14  C   UNL A   1      33.672  25.215  22.810  1.00  0.00     0.016 C 
ATOM     15  C   UNL A   1      33.203  26.162  21.717  1.00  0.00     0.012 C 
BRANCH   9  16
ATOM     16  C   UNL A   1      33.781  24.217  25.133  1.00  0.00     0.096 C 
ATOM     17  C   UNL A   1      33.696  22.802  24.504  1.00  0.00     0.079 C 
ATOM     18  C   UNL A   1      35.293  24.364  25.476  1.00  0.00     0.079 C 
BRANCH  16  19
ATOM     19  N   UNL A   1      33.041  24.131  26.384  1.00  0.00    -0.353 N 
ATOM     20  H   UNL A   1      33.096  25.024  26.873  1.00  0.00     0.344 HD
ATOM     21  H   UNL A   1      33.443  23.398  26.967  1.00  0.00     0.344 HD
ATOM     22  H   UNL A   1      32.065  23.912  26.186  1.00  0.00     0.344 HD
ENDBRANCH  16  19
ENDBRANCH   9  16
ENDBRANCH   8   9
ENDBRANCH   6   8
ENDBRANCH   5   6
ENDBRANCH   4   5
ENDBRANCH   3   4
ENDBRANCH   2   3
ENDBRANCH   1   2
BRANCH   1  23
ATOM     23  C   UNL A   1      33.333  33.808  28.459  1.00  0.00     0.188 C 
BRANCH  23  24
ATOM     24  O   UNL A   1      34.473  34.380  29.087  1.00  0.00    -0.376 OA
BRANCH  24  25
ATOM     25  C   UNL A   1      34.466  34.416  30.509  1.00  0.00     0.202 C 
BRANCH  25  26
ATOM     26  C   UNL A   1      35.804  34.007  31.135  1.00  0.00     0.261 C 
BRANCH  26  27
ATOM     27  O   UNL A   1      36.542  33.031  30.373  1.00  0.00    -0.460 OA
BRANCH  27  28
ATOM     28  C   UNL A   1      36.469  31.751  30.808  1.00  0.00     0.338 C 
ATOM     29  O   UNL A   1      35.514  31.211  31.336  1.00  0.00    -0.246 OA
BRANCH  28  30
ATOM     30  C   UNL A   1      37.659  31.020  30.317  1.00  0.00     0.060 A 
ATOM     31  C   UNL A   1      38.455  30.376  31.267  1.00  0.00     0.016 A 
ATOM     32  C   UNL A   1      38.006  30.959  28.972  1.00  0.00     0.016 A 
ATOM     33  C   UNL A   1      39.650  29.757  30.912  1.00  0.00     0.010 A 
ATOM     34  C   UNL A   1      39.194  30.309  28.605  1.00  0.00     0.010 A 
ATOM     35  C   UNL A   1      40.049  29.745  29.576  1.00  0.00    -0.014 A 
BRANCH  35  36
ATOM     36  C   UNL A   1      41.418  29.292  29.206  1.00  0.00     0.031 A 
ATOM     37  C   UNL A   1      42.535  30.302  29.234  1.00  0.00     0.074 A 
ATOM     38  C   UNL A   1      41.686  28.011  28.887  1.00  0.00     0.049 A 
ATOM     39  N   UNL A   1      43.752  30.211  28.768  1.00  0.00    -0.248 NA
ATOM     40  C   UNL A   1      42.231  31.594  29.872  1.00  0.00     0.031 C 
ATOM     41  C   UNL A   1      40.729  26.905  28.923  1.00  0.00     0.029 A 
ATOM     42  N   UNL A   1      42.853  27.426  28.456  1.00  0.00    -0.354 N 
ATOM     43  C   UNL A   1      44.342  31.448  29.008  1.00  0.00     0.074 A 
ATOM     44  C   UNL A   1      43.345  32.275  29.651  1.00  0.00     0.031 C 
ATOM     45  C   UNL A   1      41.344  25.780  28.521  1.00  0.00     0.029 A 
ATOM     46  C   UNL A   1      42.716  26.097  28.129  1.00  0.00     0.049 A 
ATOM     47  H   UNL A   1      43.706  27.913  28.387  1.00  0.00     0.167 HD
ATOM     48  C   UNL A   1      45.600  31.855  28.717  1.00  0.00     0.037 A 
ATOM     49  C   UNL A   1      43.578  25.247  27.535  1.00  0.00     0.037 A 
ATOM     50  C   UNL A   1      46.596  31.012  28.110  1.00  0.00     0.049 A 
ATOM     51  C   UNL A   1      44.946  25.745  27.136  1.00  0.00     0.074 A 
ATOM     52  C   UNL A   1      47.900  31.329  27.768  1.00  0.00     0.029 A 
ATOM     53  N   UNL A   1      46.403  29.683  27.758  1.00  0.00    -0.354 N 
ATOM     54  N   UNL A   1      45.477  26.932  27.313  1.00  0.00    -0.248 NA
ATOM     55  C   UNL A   1      45.827  24.792  26.447  1.00  0.00     0.031 C 
ATOM     56  C   UNL A   1      48.478  30.208  27.165  1.00  0.00     0.029 A 
ATOM     57  C   UNL A   1      47.556  29.173  27.187  1.00  0.00     0.049 A 
ATOM     58  H   UNL A   1      45.570  29.178  27.896  1.00  0.00     0.167 HD
ATOM     59  C   UNL A   1      46.764  26.857  26.786  1.00  0.00     0.074 A 
ATOM     60  C   UNL A   1      46.934  25.506  26.294  1.00  0.00     0.031 C 
ATOM     61  C   UNL A   1      47.718  27.818  26.718  1.00  0.00     0.037 A 
BRANCH  48  62
ATOM     62  C   UNL A   1      45.956  33.287  29.011  1.00  0.00     0.058 A 
ATOM     63  C   UNL A   1      45.742  34.317  28.082  1.00  0.00     0.135 A 
ATOM     64  C   UNL A   1      46.502  33.635  30.257  1.00  0.00     0.135 A 
ATOM     65  F   UNL A   1      45.245  34.040  26.866  1.00  0.00    -0.206 F 
ATOM     66  C   UNL A   1      46.081  35.636  28.368  1.00  0.00     0.059 A 
ATOM     67  C   UNL A   1      46.819  34.951  30.578  1.00  0.00     0.059 A 
ATOM     68  F   UNL A   1      46.733  32.689  31.182  1.00  0.00    -0.206 F 
ATOM     69  C   UNL A   1      46.618  35.943  29.620  1.00  0.00     0.060 A 
BRANCH  69  70
ATOM     70  S   UNL A   1      47.050  37.659  29.976  1.00  0.00     0.124 S 
ATOM     71  O   UNL A   1      45.796  38.166  30.526  1.00  0.00    -0.237 OA
ATOM     72  O   UNL A   1      48.146  37.513  30.929  1.00  0.00    -0.237 OA
ATOM     73  O   UNL A   1      47.424  38.195  28.671  1.00  0.00    -0.744 OA
ENDBRANCH  69  70
ENDBRANCH  48  62
BRANCH  49  74
ATOM     74  C   UNL A   1      43.166  23.847  27.231  1.00  0.00     0.058 A 
ATOM     75  C   UNL A   1      42.717  23.483  25.953  1.00  0.00     0.135 A 
ATOM     76  C   UNL A   1      43.194  22.848  28.219  1.00  0.00     0.135 A 
ATOM     77  F   UNL A   1      42.653  24.403  24.978  1.00  0.00    -0.206 F 
ATOM     78  C   UNL A   1      42.299  22.187  25.667  1.00  0.00     0.059 A 
ATOM     79  C   UNL A   1      42.811  21.538  27.949  1.00  0.00     0.059 A 
ATOM     80  F   UNL A   1      43.616  23.139  29.459  1.00  0.00    -0.206 F 
ATOM     81  C   UNL A   1      42.353  21.220  26.672  1.00  0.00     0.060 A 
BRANCH  81  82
ATOM     82  S   UNL A   1      41.845  19.532  26.277  1.00  0.00     0.124 S 
ATOM     83  O   UNL A   1      40.409  19.694  26.086  1.00  0.00    -0.237 OA
ATOM     84  O   UNL A   1      42.623  19.253  25.074  1.00  0.00    -0.237 OA
ATOM     85  O   UNL A   1      42.244  18.776  27.461  1.00  0.00    -0.744 OA
ENDBRANCH  81  82
ENDBRANCH  49  74
BRANCH  61  86
ATOM     86  C   UNL A   1      49.056  27.437  26.142  1.00  0.00     0.058 A 
ATOM     87  C   UNL A   1      50.154  27.117  26.957  1.00  0.00     0.135 A 
ATOM     88  C   UNL A   1      49.222  27.331  24.751  1.00  0.00     0.135 A 
ATOM     89  F   UNL A   1      50.051  27.204  28.292  1.00  0.00    -0.206 F 
ATOM     90  C   UNL A   1      51.374  26.729  26.413  1.00  0.00     0.059 A 
ATOM     91  C   UNL A   1      50.424  26.915  24.186  1.00  0.00     0.059 A 
ATOM     92  F   UNL A   1      48.202  27.614  23.924  1.00  0.00    -0.206 F 
ATOM     93  C   UNL A   1      51.498  26.628  25.025  1.00  0.00     0.060 A 
BRANCH  93  94
ATOM     94  S   UNL A   1      53.075  26.086  24.334  1.00  0.00     0.124 S 
ATOM     95  O   UNL A   1      53.121  24.691  24.761  1.00  0.00    -0.237 OA
ATOM     96  O   UNL A   1      52.880  26.305  22.904  1.00  0.00    -0.237 OA
ATOM     97  O   UNL A   1      54.048  26.969  24.969  1.00  0.00    -0.744 OA
ENDBRANCH  93  94
ENDBRANCH  61  86
ENDBRANCH  35  36
ENDBRANCH  28  30
ENDBRANCH  27  28
ENDBRANCH  26  27
ENDBRANCH  25  26
ENDBRANCH  24  25
ENDBRANCH  23  24
ENDBRANCH   1  23
TORSDOF 23
ENDMDL
