MODEL 1
REMARK VINA RESULT:      -9.6      0.000      0.000
REMARK SMILES CC[C@@](C)(NC(=O)c1cncc(O)c1)C(=O)OCCOCCOCCOC(=O)c1ccc(-c2c3nc(c(-c4c(F)cc(S(=O)(=O)[O-])cc4F)c4ccc([nH]4)c(-c4c(F)cc(S(=O)(=O)[O-])cc4F)c4nc(c(-c5c(F)cc(S(=O)(=O)[O-])cc5F)c5ccc2[nH]5)C=C4)C=C3)cc1
REMARK SMILES IDX 21 1 20 2 19 3 18 4 17 5 15 6 16 7 3 8 4 9 2 10 1 11 5 12
REMARK SMILES IDX 6 13 7 15 8 16 9 17 14 18 10 19 12 20 11 21 13 22 22 24
REMARK SMILES IDX 23 25 24 26 25 27 26 28 27 29 28 30 29 31 30 32 94 33 31 34
REMARK SMILES IDX 93 35 32 36 33 37 34 38 87 39 35 40 92 41 86 42 88 43 36 44
REMARK SMILES IDX 91 45 85 46 84 47 37 49 71 50 50 51 70 52 51 53 54 54 69 55
REMARK SMILES IDX 89 56 52 57 53 58 68 60 90 61 55 62 38 63 39 64 48 65 40 66
REMARK SMILES IDX 41 67 47 68 49 69 42 70 43 71 44 72 45 73 46 74 72 75 73 76
REMARK SMILES IDX 82 77 74 78 75 79 81 80 83 81 76 82 77 83 78 84 79 85 80 86
REMARK SMILES IDX 56 87 57 88 66 89 58 90 59 91 65 92 67 93 60 94 61 95 62 96
REMARK SMILES IDX 63 97 64 98
REMARK H PARENT 5 14 13 23 88 48 54 59
REMARK Flexibility Score: inf
ROOT
ATOM      1  C   UNL A   1      33.017  31.156  27.244  1.00  0.00     0.188 C 
ENDROOT
BRANCH   1   2
ATOM      2  O   UNL A   1      33.134  30.078  26.317  1.00  0.00    -0.376 OA
BRANCH   2   3
ATOM      3  C   UNL A   1      31.858  29.453  26.040  1.00  0.00     0.202 C 
BRANCH   3   4
ATOM      4  C   UNL A   1      31.528  29.244  24.546  1.00  0.00     0.261 C 
BRANCH   4   5
ATOM      5  O   UNL A   1      32.367  28.238  23.977  1.00  0.00    -0.462 OA
BRANCH   5   6
ATOM      6  C   UNL A   1      31.846  27.217  23.271  1.00  0.00     0.331 C 
ATOM      7  O   UNL A   1      31.073  27.356  22.334  1.00  0.00    -0.249 OA
BRANCH   6   8
ATOM      8  C   UNL A   1      32.410  25.863  23.796  1.00  0.00     0.135 C 
ATOM      9  C   UNL A   1      33.259  26.122  25.047  1.00  0.00     0.047 C 
BRANCH   8  10
ATOM     10  C   UNL A   1      31.200  24.933  24.226  1.00  0.00     0.037 C 
ATOM     11  C   UNL A   1      30.257  25.428  25.322  1.00  0.00     0.007 C 
ENDBRANCH   8  10
BRANCH   8  12
ATOM     12  N   UNL A   1      33.240  25.044  22.810  1.00  0.00    -0.336 N 
ATOM     13  C   UNL A   1      33.495  23.699  22.592  1.00  0.00     0.253 C 
ATOM     14  H   UNL A   1      33.714  25.616  22.166  1.00  0.00     0.165 HD
ATOM     15  O   UNL A   1      33.478  23.306  21.423  1.00  0.00    -0.269 OA
BRANCH  13  16
ATOM     16  C   UNL A   1      33.909  22.700  23.612  1.00  0.00     0.061 A 
ATOM     17  C   UNL A   1      33.117  21.596  23.927  1.00  0.00     0.125 A 
ATOM     18  C   UNL A   1      34.975  22.930  24.471  1.00  0.00     0.063 A 
ATOM     19  N   UNL A   1      33.321  20.698  24.934  1.00  0.00    -0.260 NA
ATOM     20  C   UNL A   1      35.215  22.022  25.508  1.00  0.00     0.134 A 
ATOM     21  C   UNL A   1      34.377  20.936  25.713  1.00  0.00     0.157 A 
BRANCH  20  22
ATOM     22  O   UNL A   1      36.290  22.200  26.322  1.00  0.00    -0.506 OA
ATOM     23  H   UNL A   1      36.843  22.948  26.213  1.00  0.00     0.293 HD
ENDBRANCH  20  22
ENDBRANCH  13  16
ENDBRANCH   8  12
ENDBRANCH   6   8
ENDBRANCH   5   6
ENDBRANCH   4   5
ENDBRANCH   3   4
ENDBRANCH   2   3
ENDBRANCH   1   2
BRANCH   1  24
ATOM     24  C   UNL A   1      31.914  32.209  27.006  1.00  0.00     0.188 C 
BRANCH  24  25
ATOM     25  O   UNL A   1      32.053  33.473  27.615  1.00  0.00    -0.376 OA
BRANCH  25  26
ATOM     26  C   UNL A   1      33.386  33.911  27.906  1.00  0.00     0.202 C 
BRANCH  26  27
ATOM     27  C   UNL A   1      33.782  33.943  29.398  1.00  0.00     0.261 C 
BRANCH  27  28
ATOM     28  O   UNL A   1      33.964  32.647  30.004  1.00  0.00    -0.460 OA
BRANCH  28  29
ATOM     29  C   UNL A   1      34.730  32.600  31.123  1.00  0.00     0.338 C 
ATOM     30  O   UNL A   1      34.396  32.859  32.260  1.00  0.00    -0.246 OA
BRANCH  29  31
ATOM     31  C   UNL A   1      35.952  31.851  30.755  1.00  0.00     0.060 A 
ATOM     32  C   UNL A   1      36.689  31.238  31.785  1.00  0.00     0.016 A 
ATOM     33  C   UNL A   1      36.315  31.691  29.420  1.00  0.00     0.016 A 
ATOM     34  C   UNL A   1      37.785  30.444  31.482  1.00  0.00     0.010 A 
ATOM     35  C   UNL A   1      37.471  30.970  29.121  1.00  0.00     0.010 A 
ATOM     36  C   UNL A   1      38.221  30.379  30.156  1.00  0.00    -0.014 A 
BRANCH  36  37
ATOM     37  C   UNL A   1      39.630  30.017  29.916  1.00  0.00     0.031 A 
ATOM     38  C   UNL A   1      40.644  31.107  30.123  1.00  0.00     0.074 A 
ATOM     39  C   UNL A   1      39.990  28.769  29.578  1.00  0.00     0.049 A 
ATOM     40  N   UNL A   1      41.929  31.098  29.901  1.00  0.00    -0.248 NA
ATOM     41  C   UNL A   1      40.134  32.384  30.659  1.00  0.00     0.031 C 
ATOM     42  C   UNL A   1      39.086  27.628  29.447  1.00  0.00     0.029 A 
ATOM     43  N   UNL A   1      41.225  28.261  29.272  1.00  0.00    -0.354 N 
ATOM     44  C   UNL A   1      42.374  32.366  30.257  1.00  0.00     0.074 A 
ATOM     45  C   UNL A   1      41.229  33.122  30.700  1.00  0.00     0.031 C 
ATOM     46  C   UNL A   1      39.796  26.555  29.057  1.00  0.00     0.029 A 
ATOM     47  C   UNL A   1      41.192  26.948  28.870  1.00  0.00     0.049 A 
ATOM     48  H   UNL A   1      42.055  28.786  29.333  1.00  0.00     0.167 HD
ATOM     49  C   UNL A   1      43.634  32.854  30.210  1.00  0.00     0.037 A 
ATOM     50  C   UNL A   1      42.178  26.177  28.371  1.00  0.00     0.037 A 
ATOM     51  C   UNL A   1      44.755  32.087  29.745  1.00  0.00     0.049 A 
ATOM     52  C   UNL A   1      43.558  26.773  28.234  1.00  0.00     0.074 A 
ATOM     53  C   UNL A   1      46.075  32.476  29.628  1.00  0.00     0.029 A 
ATOM     54  N   UNL A   1      44.678  30.771  29.308  1.00  0.00    -0.354 N 
ATOM     55  N   UNL A   1      43.973  27.978  28.553  1.00  0.00    -0.248 NA
ATOM     56  C   UNL A   1      44.603  25.909  27.669  1.00  0.00     0.031 C 
ATOM     57  C   UNL A   1      46.789  31.410  29.071  1.00  0.00     0.029 A 
ATOM     58  C   UNL A   1      45.925  30.337  28.901  1.00  0.00     0.049 A 
ATOM     59  H   UNL A   1      43.858  30.228  29.293  1.00  0.00     0.167 HD
ATOM     60  C   UNL A   1      45.333  28.005  28.258  1.00  0.00     0.074 A 
ATOM     61  C   UNL A   1      45.668  26.694  27.740  1.00  0.00     0.031 C 
ATOM     62  C   UNL A   1      46.225  29.018  28.402  1.00  0.00     0.037 A 
BRANCH  49  63
ATOM     63  C   UNL A   1      43.838  34.286  30.613  1.00  0.00     0.058 A 
ATOM     64  C   UNL A   1      44.223  34.646  31.915  1.00  0.00     0.135 A 
ATOM     65  C   UNL A   1      43.647  35.317  29.679  1.00  0.00     0.135 A 
ATOM     66  F   UNL A   1      44.385  33.704  32.858  1.00  0.00    -0.206 F 
ATOM     67  C   UNL A   1      44.396  35.978  32.280  1.00  0.00     0.059 A 
ATOM     68  C   UNL A   1      43.841  36.653  30.014  1.00  0.00     0.059 A 
ATOM     69  F   UNL A   1      43.260  35.030  28.426  1.00  0.00    -0.206 F 
ATOM     70  C   UNL A   1      44.206  36.973  31.321  1.00  0.00     0.060 A 
BRANCH  70  71
ATOM     71  S   UNL A   1      44.452  38.696  31.804  1.00  0.00     0.124 S 
ATOM     72  O   UNL A   1      43.501  38.828  32.904  1.00  0.00    -0.237 OA
ATOM     73  O   UNL A   1      45.862  38.714  32.179  1.00  0.00    -0.237 OA
ATOM     74  O   UNL A   1      44.118  39.439  30.594  1.00  0.00    -0.744 OA
ENDBRANCH  70  71
ENDBRANCH  49  63
BRANCH  50  75
ATOM     75  C   UNL A   1      41.891  24.784  27.935  1.00  0.00     0.058 A 
ATOM     76  C   UNL A   1      42.348  23.681  28.670  1.00  0.00     0.135 A 
ATOM     77  C   UNL A   1      41.150  24.528  26.770  1.00  0.00     0.135 A 
ATOM     78  F   UNL A   1      43.069  23.871  29.785  1.00  0.00    -0.206 F 
ATOM     79  C   UNL A   1      42.091  22.375  28.262  1.00  0.00     0.059 A 
ATOM     80  C   UNL A   1      40.857  23.232  26.356  1.00  0.00     0.059 A 
ATOM     81  F   UNL A   1      40.681  25.547  26.032  1.00  0.00    -0.206 F 
ATOM     82  C   UNL A   1      41.341  22.161  27.105  1.00  0.00     0.060 A 
BRANCH  82  83
ATOM     83  S   UNL A   1      40.973  20.463  26.612  1.00  0.00     0.124 S 
ATOM     84  O   UNL A   1      39.684  20.623  25.946  1.00  0.00    -0.237 OA
ATOM     85  O   UNL A   1      42.105  20.145  25.748  1.00  0.00    -0.237 OA
ATOM     86  O   UNL A   1      40.941  19.743  27.882  1.00  0.00    -0.744 OA
ENDBRANCH  82  83
ENDBRANCH  50  75
BRANCH  62  87
ATOM     87  C   UNL A   1      47.658  28.733  28.047  1.00  0.00     0.058 A 
ATOM     88  C   UNL A   1      48.599  28.349  29.014  1.00  0.00     0.135 A 
ATOM     89  C   UNL A   1      48.070  28.774  26.705  1.00  0.00     0.135 A 
ATOM     90  F   UNL A   1      48.254  28.297  30.310  1.00  0.00    -0.206 F 
ATOM     91  C   UNL A   1      49.908  28.038  28.664  1.00  0.00     0.059 A 
ATOM     92  C   UNL A   1      49.366  28.436  26.331  1.00  0.00     0.059 A 
ATOM     93  F   UNL A   1      47.203  29.121  25.740  1.00  0.00    -0.206 F 
ATOM     94  C   UNL A   1      50.280  28.081  27.319  1.00  0.00     0.060 A 
BRANCH  94  95
ATOM     95  S   UNL A   1      51.972  27.637  26.877  1.00  0.00     0.124 S 
ATOM     96  O   UNL A   1      52.737  28.338  27.903  1.00  0.00    -0.237 OA
ATOM     97  O   UNL A   1      51.952  26.182  26.984  1.00  0.00    -0.237 OA
ATOM     98  O   UNL A   1      52.117  28.157  25.521  1.00  0.00    -0.744 OA
ENDBRANCH  94  95
ENDBRANCH  62  87
ENDBRANCH  36  37
ENDBRANCH  29  31
ENDBRANCH  28  29
ENDBRANCH  27  28
ENDBRANCH  26  27
ENDBRANCH  25  26
ENDBRANCH  24  25
ENDBRANCH   1  24
TORSDOF 24
ENDMDL
MODEL 2
REMARK VINA RESULT:      -9.1      6.333     14.102
REMARK SMILES CC[C@@](C)(NC(=O)c1cncc(O)c1)C(=O)OCCOCCOCCOC(=O)c1ccc(-c2c3nc(c(-c4c(F)cc(S(=O)(=O)[O-])cc4F)c4ccc([nH]4)c(-c4c(F)cc(S(=O)(=O)[O-])cc4F)c4nc(c(-c5c(F)cc(S(=O)(=O)[O-])cc5F)c5ccc2[nH]5)C=C4)C=C3)cc1
REMARK SMILES IDX 21 1 20 2 19 3 18 4 17 5 15 6 16 7 3 8 4 9 2 10 1 11 5 12
REMARK SMILES IDX 6 13 7 15 8 16 9 17 14 18 10 19 12 20 11 21 13 22 22 24
REMARK SMILES IDX 23 25 24 26 25 27 26 28 27 29 28 30 29 31 30 32 94 33 31 34
REMARK SMILES IDX 93 35 32 36 33 37 34 38 87 39 35 40 92 41 86 42 88 43 36 44
REMARK SMILES IDX 91 45 85 46 84 47 37 49 71 50 50 51 70 52 51 53 54 54 69 55
REMARK SMILES IDX 89 56 52 57 53 58 68 60 90 61 55 62 38 63 39 64 48 65 40 66
REMARK SMILES IDX 41 67 47 68 49 69 42 70 43 71 44 72 45 73 46 74 72 75 73 76
REMARK SMILES IDX 82 77 74 78 75 79 81 80 83 81 76 82 77 83 78 84 79 85 80 86
REMARK SMILES IDX 56 87 57 88 66 89 58 90 59 91 65 92 67 93 60 94 61 95 62 96
REMARK SMILES IDX 63 97 64 98
REMARK H PARENT 5 14 13 23 88 48 54 59
REMARK Flexibility Score: inf
ROOT
ATOM      1  C   UNL A   1      42.607  41.092  25.343  1.00  0.00     0.188 C 
ENDROOT
BRANCH   1   2
ATOM      2  O   UNL A   1      42.958  41.707  24.105  1.00  0.00    -0.376 OA
BRANCH   2   3
ATOM      3  C   UNL A   1      41.859  42.453  23.531  1.00  0.00     0.202 C 
BRANCH   3   4
ATOM      4  C   UNL A   1      42.205  43.304  22.290  1.00  0.00     0.261 C 
BRANCH   4   5
ATOM      5  O   UNL A   1      43.608  43.272  22.029  1.00  0.00    -0.462 OA
BRANCH   5   6
ATOM      6  C   UNL A   1      44.427  44.223  22.515  1.00  0.00     0.331 C 
ATOM      7  O   UNL A   1      44.040  45.239  23.077  1.00  0.00    -0.249 OA
BRANCH   6   8
ATOM      8  C   UNL A   1      45.913  43.812  22.296  1.00  0.00     0.135 C 
ATOM      9  C   UNL A   1      46.717  44.134  23.563  1.00  0.00     0.047 C 
BRANCH   8  10
ATOM     10  C   UNL A   1      45.986  42.243  22.073  1.00  0.00     0.037 C 
ATOM     11  C   UNL A   1      47.136  41.680  21.239  1.00  0.00     0.007 C 
ENDBRANCH   8  10
BRANCH   8  12
ATOM     12  N   UNL A   1      46.624  44.440  21.101  1.00  0.00    -0.336 N 
ATOM     13  C   UNL A   1      46.275  45.287  20.061  1.00  0.00     0.253 C 
ATOM     14  H   UNL A   1      47.572  44.178  21.058  1.00  0.00     0.165 HD
ATOM     15  O   UNL A   1      47.064  46.195  19.786  1.00  0.00    -0.269 OA
BRANCH  13  16
ATOM     16  C   UNL A   1      45.104  45.142  19.156  1.00  0.00     0.061 A 
ATOM     17  C   UNL A   1      44.269  46.216  18.854  1.00  0.00     0.125 A 
ATOM     18  C   UNL A   1      44.638  43.897  18.757  1.00  0.00     0.063 A 
ATOM     19  N   UNL A   1      43.095  46.176  18.159  1.00  0.00    -0.260 NA
ATOM     20  C   UNL A   1      43.442  43.823  18.035  1.00  0.00     0.134 A 
ATOM     21  C   UNL A   1      42.702  44.964  17.763  1.00  0.00     0.157 A 
BRANCH  20  22
ATOM     22  O   UNL A   1      43.001  42.617  17.585  1.00  0.00    -0.506 OA
ATOM     23  H   UNL A   1      42.958  41.886  18.169  1.00  0.00     0.293 HD
ENDBRANCH  20  22
ENDBRANCH  13  16
ENDBRANCH   8  12
ENDBRANCH   6   8
ENDBRANCH   5   6
ENDBRANCH   4   5
ENDBRANCH   3   4
ENDBRANCH   2   3
ENDBRANCH   1   2
BRANCH   1  24
ATOM     24  C   UNL A   1      43.721  40.410  26.163  1.00  0.00     0.188 C 
BRANCH  24  25
ATOM     25  O   UNL A   1      43.349  39.474  27.150  1.00  0.00    -0.376 OA
BRANCH  25  26
ATOM     26  C   UNL A   1      44.305  38.458  27.478  1.00  0.00     0.202 C 
BRANCH  26  27
ATOM     27  C   UNL A   1      45.763  38.733  27.051  1.00  0.00     0.261 C 
BRANCH  27  28
ATOM     28  O   UNL A   1      46.607  37.566  26.991  1.00  0.00    -0.460 OA
BRANCH  28  29
ATOM     29  C   UNL A   1      47.068  37.087  28.174  1.00  0.00     0.338 C 
ATOM     30  O   UNL A   1      47.269  37.709  29.196  1.00  0.00    -0.246 OA
BRANCH  29  31
ATOM     31  C   UNL A   1      46.960  35.614  28.093  1.00  0.00     0.060 A 
ATOM     32  C   UNL A   1      46.472  35.049  26.900  1.00  0.00     0.016 A 
ATOM     33  C   UNL A   1      47.403  34.808  29.138  1.00  0.00     0.016 A 
ATOM     34  C   UNL A   1      46.444  33.672  26.739  1.00  0.00     0.010 A 
ATOM     35  C   UNL A   1      47.288  33.424  29.014  1.00  0.00     0.010 A 
ATOM     36  C   UNL A   1      46.775  32.862  27.829  1.00  0.00    -0.014 A 
BRANCH  36  37
ATOM     37  C   UNL A   1      46.241  31.488  27.848  1.00  0.00     0.031 A 
ATOM     38  C   UNL A   1      47.178  30.403  27.396  1.00  0.00     0.074 A 
ATOM     39  C   UNL A   1      45.004  31.217  28.290  1.00  0.00     0.049 A 
ATOM     40  N   UNL A   1      46.953  29.129  27.225  1.00  0.00    -0.248 NA
ATOM     41  C   UNL A   1      48.564  30.813  27.099  1.00  0.00     0.031 C 
ATOM     42  C   UNL A   1      44.062  32.193  28.834  1.00  0.00     0.029 A 
ATOM     43  N   UNL A   1      44.326  30.028  28.337  1.00  0.00    -0.354 N 
ATOM     44  C   UNL A   1      48.160  28.595  26.790  1.00  0.00     0.074 A 
ATOM     45  C   UNL A   1      49.112  29.674  26.713  1.00  0.00     0.031 C 
ATOM     46  C   UNL A   1      42.911  31.564  29.135  1.00  0.00     0.029 A 
ATOM     47  C   UNL A   1      43.027  30.156  28.762  1.00  0.00     0.049 A 
ATOM     48  H   UNL A   1      44.731  29.165  28.090  1.00  0.00     0.167 HD
ATOM     49  C   UNL A   1      48.441  27.311  26.477  1.00  0.00     0.037 A 
ATOM     50  C   UNL A   1      42.041  29.237  28.801  1.00  0.00     0.037 A 
ATOM     51  C   UNL A   1      47.469  26.256  26.542  1.00  0.00     0.049 A 
ATOM     52  C   UNL A   1      42.350  27.829  28.354  1.00  0.00     0.074 A 
ATOM     53  C   UNL A   1      47.625  24.920  26.229  1.00  0.00     0.029 A 
ATOM     54  N   UNL A   1      46.150  26.429  26.941  1.00  0.00    -0.354 N 
ATOM     55  N   UNL A   1      43.487  27.330  27.925  1.00  0.00    -0.248 NA
ATOM     56  C   UNL A   1      41.246  26.861  28.392  1.00  0.00     0.031 C 
ATOM     57  C   UNL A   1      46.386  24.293  26.389  1.00  0.00     0.029 A 
ATOM     58  C   UNL A   1      45.474  25.226  26.862  1.00  0.00     0.049 A 
ATOM     59  H   UNL A   1      45.757  27.281  27.237  1.00  0.00     0.167 HD
ATOM     60  C   UNL A   1      43.244  25.984  27.673  1.00  0.00     0.074 A 
ATOM     61  C   UNL A   1      41.853  25.748  28.004  1.00  0.00     0.031 C 
ATOM     62  C   UNL A   1      44.089  25.026  27.214  1.00  0.00     0.037 A 
BRANCH  49  63
ATOM     63  C   UNL A   1      49.827  27.005  25.985  1.00  0.00     0.058 A 
ATOM     64  C   UNL A   1      50.171  27.092  24.626  1.00  0.00     0.135 A 
ATOM     65  C   UNL A   1      50.828  26.619  26.890  1.00  0.00     0.135 A 
ATOM     66  F   UNL A   1      49.245  27.423  23.712  1.00  0.00    -0.206 F 
ATOM     67  C   UNL A   1      51.456  26.793  24.181  1.00  0.00     0.059 A 
ATOM     68  C   UNL A   1      52.125  26.341  26.471  1.00  0.00     0.059 A 
ATOM     69  F   UNL A   1      50.548  26.500  28.198  1.00  0.00    -0.206 F 
ATOM     70  C   UNL A   1      52.426  26.421  25.113  1.00  0.00     0.060 A 
BRANCH  70  71
ATOM     71  S   UNL A   1      54.093  26.054  24.523  1.00  0.00     0.124 S 
ATOM     72  O   UNL A   1      53.964  26.332  23.096  1.00  0.00    -0.237 OA
ATOM     73  O   UNL A   1      54.905  26.999  25.282  1.00  0.00    -0.237 OA
ATOM     74  O   UNL A   1      54.276  24.650  24.875  1.00  0.00    -0.744 OA
ENDBRANCH  70  71
ENDBRANCH  49  63
BRANCH  50  75
ATOM     75  C   UNL A   1      40.674  29.625  29.243  1.00  0.00     0.058 A 
ATOM     76  C   UNL A   1      39.616  29.734  28.329  1.00  0.00     0.135 A 
ATOM     77  C   UNL A   1      40.399  29.894  30.593  1.00  0.00     0.135 A 
ATOM     78  F   UNL A   1      39.829  29.498  27.026  1.00  0.00    -0.206 F 
ATOM     79  C   UNL A   1      38.338  30.107  28.734  1.00  0.00     0.059 A 
ATOM     80  C   UNL A   1      39.122  30.242  31.027  1.00  0.00     0.059 A 
ATOM     81  F   UNL A   1      41.372  29.797  31.512  1.00  0.00    -0.206 F 
ATOM     82  C   UNL A   1      38.100  30.355  30.087  1.00  0.00     0.060 A 
BRANCH  82  83
ATOM     83  S   UNL A   1      36.426  30.790  30.608  1.00  0.00     0.124 S 
ATOM     84  O   UNL A   1      36.647  32.075  31.263  1.00  0.00    -0.237 OA
ATOM     85  O   UNL A   1      35.713  30.834  29.335  1.00  0.00    -0.237 OA
ATOM     86  O   UNL A   1      36.052  29.688  31.490  1.00  0.00    -0.744 OA
ENDBRANCH  82  83
ENDBRANCH  50  75
BRANCH  62  87
ATOM     87  C   UNL A   1      43.551  23.628  27.093  1.00  0.00     0.058 A 
ATOM     88  C   UNL A   1      43.351  22.812  28.216  1.00  0.00     0.135 A 
ATOM     89  C   UNL A   1      43.161  23.131  25.839  1.00  0.00     0.135 A 
ATOM     90  F   UNL A   1      43.710  23.240  29.437  1.00  0.00    -0.206 F 
ATOM     91  C   UNL A   1      42.804  21.539  28.097  1.00  0.00     0.059 A 
ATOM     92  C   UNL A   1      42.583  21.874  25.701  1.00  0.00     0.059 A 
ATOM     93  F   UNL A   1      43.318  23.880  24.735  1.00  0.00    -0.206 F 
ATOM     94  C   UNL A   1      42.420  21.081  26.834  1.00  0.00     0.060 A 
BRANCH  94  95
ATOM     95  S   UNL A   1      41.675  19.443  26.699  1.00  0.00     0.124 S 
ATOM     96  O   UNL A   1      40.996  19.535  25.411  1.00  0.00    -0.237 OA
ATOM     97  O   UNL A   1      42.841  18.566  26.740  1.00  0.00    -0.237 OA
ATOM     98  O   UNL A   1      40.801  19.369  27.866  1.00  0.00    -0.744 OA
ENDBRANCH  94  95
ENDBRANCH  62  87
ENDBRANCH  36  37
ENDBRANCH  29  31
ENDBRANCH  28  29
ENDBRANCH  27  28
ENDBRANCH  26  27
ENDBRANCH  25  26
ENDBRANCH  24  25
ENDBRANCH   1  24
TORSDOF 24
ENDMDL
MODEL 3
REMARK VINA RESULT:      -8.8      5.654      6.928
REMARK SMILES CC[C@@](C)(NC(=O)c1cncc(O)c1)C(=O)OCCOCCOCCOC(=O)c1ccc(-c2c3nc(c(-c4c(F)cc(S(=O)(=O)[O-])cc4F)c4ccc([nH]4)c(-c4c(F)cc(S(=O)(=O)[O-])cc4F)c4nc(c(-c5c(F)cc(S(=O)(=O)[O-])cc5F)c5ccc2[nH]5)C=C4)C=C3)cc1
REMARK SMILES IDX 21 1 20 2 19 3 18 4 17 5 15 6 16 7 3 8 4 9 2 10 1 11 5 12
REMARK SMILES IDX 6 13 7 15 8 16 9 17 14 18 10 19 12 20 11 21 13 22 22 24
REMARK SMILES IDX 23 25 24 26 25 27 26 28 27 29 28 30 29 31 30 32 94 33 31 34
REMARK SMILES IDX 93 35 32 36 33 37 34 38 87 39 35 40 92 41 86 42 88 43 36 44
REMARK SMILES IDX 91 45 85 46 84 47 37 49 71 50 50 51 70 52 51 53 54 54 69 55
REMARK SMILES IDX 89 56 52 57 53 58 68 60 90 61 55 62 38 63 39 64 48 65 40 66
REMARK SMILES IDX 41 67 47 68 49 69 42 70 43 71 44 72 45 73 46 74 72 75 73 76
REMARK SMILES IDX 82 77 74 78 75 79 81 80 83 81 76 82 77 83 78 84 79 85 80 86
REMARK SMILES IDX 56 87 57 88 66 89 58 90 59 91 65 92 67 93 60 94 61 95 62 96
REMARK SMILES IDX 63 97 64 98
REMARK H PARENT 5 14 13 23 88 48 54 59
REMARK Flexibility Score: inf
ROOT
ATOM      1  C   UNL A   1      34.550  31.068  27.809  1.00  0.00     0.188 C 
ENDROOT
BRANCH   1   2
ATOM      2  O   UNL A   1      33.208  31.089  27.327  1.00  0.00    -0.376 OA
BRANCH   2   3
ATOM      3  C   UNL A   1      32.730  29.768  26.977  1.00  0.00     0.202 C 
BRANCH   3   4
ATOM      4  C   UNL A   1      33.200  29.229  25.609  1.00  0.00     0.261 C 
BRANCH   4   5
ATOM      5  O   UNL A   1      33.113  27.804  25.569  1.00  0.00    -0.462 OA
BRANCH   5   6
ATOM      6  C   UNL A   1      31.953  27.187  25.274  1.00  0.00     0.331 C 
ATOM      7  O   UNL A   1      30.848  27.651  25.521  1.00  0.00    -0.249 OA
BRANCH   6   8
ATOM      8  C   UNL A   1      32.235  25.841  24.542  1.00  0.00     0.135 C 
ATOM      9  C   UNL A   1      30.916  25.080  24.363  1.00  0.00     0.047 C 
BRANCH   8  10
ATOM     10  C   UNL A   1      32.805  26.151  23.095  1.00  0.00     0.037 C 
ATOM     11  C   UNL A   1      31.941  25.806  21.884  1.00  0.00     0.007 C 
ENDBRANCH   8  10
BRANCH   8  12
ATOM     12  N   UNL A   1      33.246  24.907  25.202  1.00  0.00    -0.336 N 
ATOM     13  C   UNL A   1      33.861  23.708  24.876  1.00  0.00     0.253 C 
ATOM     14  H   UNL A   1      33.535  25.240  26.081  1.00  0.00     0.165 HD
ATOM     15  O   UNL A   1      35.069  23.616  25.107  1.00  0.00    -0.269 OA
BRANCH  13  16
ATOM     16  C   UNL A   1      33.192  22.472  24.390  1.00  0.00     0.061 A 
ATOM     17  C   UNL A   1      33.303  21.259  25.068  1.00  0.00     0.125 A 
ATOM     18  C   UNL A   1      32.627  22.396  23.124  1.00  0.00     0.063 A 
ATOM     19  N   UNL A   1      32.857  20.039  24.649  1.00  0.00    -0.260 NA
ATOM     20  C   UNL A   1      32.153  21.160  22.670  1.00  0.00     0.134 A 
ATOM     21  C   UNL A   1      32.288  20.017  23.443  1.00  0.00     0.157 A 
BRANCH  20  22
ATOM     22  O   UNL A   1      31.543  21.079  21.457  1.00  0.00    -0.506 OA
ATOM     23  H   UNL A   1      31.919  20.556  20.777  1.00  0.00     0.293 HD
ENDBRANCH  20  22
ENDBRANCH  13  16
ENDBRANCH   8  12
ENDBRANCH   6   8
ENDBRANCH   5   6
ENDBRANCH   4   5
ENDBRANCH   3   4
ENDBRANCH   2   3
ENDBRANCH   1   2
BRANCH   1  24
ATOM     24  C   UNL A   1      34.902  31.943  29.030  1.00  0.00     0.188 C 
BRANCH  24  25
ATOM     25  O   UNL A   1      35.399  33.243  28.800  1.00  0.00    -0.376 OA
BRANCH  25  26
ATOM     26  C   UNL A   1      34.590  34.117  28.003  1.00  0.00     0.202 C 
BRANCH  26  27
ATOM     27  C   UNL A   1      33.451  34.852  28.741  1.00  0.00     0.261 C 
BRANCH  27  28
ATOM     28  O   UNL A   1      33.869  35.625  29.883  1.00  0.00    -0.460 OA
BRANCH  28  29
ATOM     29  C   UNL A   1      33.287  35.321  31.071  1.00  0.00     0.338 C 
ATOM     30  O   UNL A   1      32.104  35.335  31.339  1.00  0.00    -0.246 OA
BRANCH  29  31
ATOM     31  C   UNL A   1      34.325  34.644  31.878  1.00  0.00     0.060 A 
ATOM     32  C   UNL A   1      35.575  35.276  32.017  1.00  0.00     0.016 A 
ATOM     33  C   UNL A   1      34.045  33.455  32.547  1.00  0.00     0.016 A 
ATOM     34  C   UNL A   1      36.546  34.729  32.842  1.00  0.00     0.010 A 
ATOM     35  C   UNL A   1      35.053  32.857  33.302  1.00  0.00     0.010 A 
ATOM     36  C   UNL A   1      36.311  33.478  33.418  1.00  0.00    -0.014 A 
BRANCH  36  37
ATOM     37  C   UNL A   1      37.483  32.677  33.816  1.00  0.00     0.031 A 
ATOM     38  C   UNL A   1      38.119  33.033  35.131  1.00  0.00     0.074 A 
ATOM     39  C   UNL A   1      37.928  31.656  33.068  1.00  0.00     0.049 A 
ATOM     40  N   UNL A   1      39.203  32.563  35.683  1.00  0.00    -0.248 NA
ATOM     41  C   UNL A   1      37.430  34.061  35.935  1.00  0.00     0.031 C 
ATOM     42  C   UNL A   1      37.317  31.181  31.828  1.00  0.00     0.029 A 
ATOM     43  N   UNL A   1      39.014  30.840  33.247  1.00  0.00    -0.354 N 
ATOM     44  C   UNL A   1      39.330  33.246  36.887  1.00  0.00     0.074 A 
ATOM     45  C   UNL A   1      38.225  34.167  36.985  1.00  0.00     0.031 C 
ATOM     46  C   UNL A   1      38.059  30.170  31.339  1.00  0.00     0.029 A 
ATOM     47  C   UNL A   1      39.214  29.962  32.210  1.00  0.00     0.049 A 
ATOM     48  H   UNL A   1      39.594  30.880  34.041  1.00  0.00     0.167 HD
ATOM     49  C   UNL A   1      40.295  33.117  37.825  1.00  0.00     0.037 A 
ATOM     50  C   UNL A   1      40.243  29.120  31.984  1.00  0.00     0.037 A 
ATOM     51  C   UNL A   1      41.398  32.206  37.694  1.00  0.00     0.049 A 
ATOM     52  C   UNL A   1      41.361  29.061  32.996  1.00  0.00     0.074 A 
ATOM     53  C   UNL A   1      42.451  31.998  38.563  1.00  0.00     0.029 A 
ATOM     54  N   UNL A   1      41.591  31.358  36.611  1.00  0.00    -0.354 N 
ATOM     55  N   UNL A   1      41.489  29.722  34.124  1.00  0.00    -0.248 NA
ATOM     56  C   UNL A   1      42.473  28.147  32.706  1.00  0.00     0.031 C 
ATOM     57  C   UNL A   1      43.310  31.060  37.981  1.00  0.00     0.029 A 
ATOM     58  C   UNL A   1      42.758  30.638  36.780  1.00  0.00     0.049 A 
ATOM     59  H   UNL A   1      40.985  31.281  35.840  1.00  0.00     0.167 HD
ATOM     60  C   UNL A   1      42.679  29.279  34.694  1.00  0.00     0.074 A 
ATOM     61  C   UNL A   1      43.227  28.291  33.787  1.00  0.00     0.031 C 
ATOM     62  C   UNL A   1      43.267  29.650  35.860  1.00  0.00     0.037 A 
BRANCH  49  63
ATOM     63  C   UNL A   1      40.222  34.016  39.025  1.00  0.00     0.058 A 
ATOM     64  C   UNL A   1      40.826  35.284  39.043  1.00  0.00     0.135 A 
ATOM     65  C   UNL A   1      39.534  33.603  40.176  1.00  0.00     0.135 A 
ATOM     66  F   UNL A   1      41.527  35.716  37.982  1.00  0.00    -0.206 F 
ATOM     67  C   UNL A   1      40.763  36.103  40.166  1.00  0.00     0.059 A 
ATOM     68  C   UNL A   1      39.435  34.416  41.300  1.00  0.00     0.059 A 
ATOM     69  F   UNL A   1      38.955  32.393  40.219  1.00  0.00    -0.206 F 
ATOM     70  C   UNL A   1      40.062  35.660  41.289  1.00  0.00     0.060 A 
BRANCH  70  71
ATOM     71  S   UNL A   1      39.972  36.742  42.732  1.00  0.00     0.124 S 
ATOM     72  O   UNL A   1      38.905  36.110  43.503  1.00  0.00    -0.237 OA
ATOM     73  O   UNL A   1      41.314  36.623  43.293  1.00  0.00    -0.237 OA
ATOM     74  O   UNL A   1      39.646  38.044  42.162  1.00  0.00    -0.744 OA
ENDBRANCH  70  71
ENDBRANCH  49  63
BRANCH  50  75
ATOM     75  C   UNL A   1      40.280  28.301  30.743  1.00  0.00     0.058 A 
ATOM     76  C   UNL A   1      39.415  27.212  30.562  1.00  0.00     0.135 A 
ATOM     77  C   UNL A   1      41.184  28.593  29.709  1.00  0.00     0.135 A 
ATOM     78  F   UNL A   1      38.539  26.885  31.524  1.00  0.00    -0.206 F 
ATOM     79  C   UNL A   1      39.451  26.435  29.408  1.00  0.00     0.059 A 
ATOM     80  C   UNL A   1      41.220  27.848  28.534  1.00  0.00     0.059 A 
ATOM     81  F   UNL A   1      42.029  29.629  29.826  1.00  0.00    -0.206 F 
ATOM     82  C   UNL A   1      40.355  26.764  28.397  1.00  0.00     0.060 A 
BRANCH  82  83
ATOM     83  S   UNL A   1      40.360  25.779  26.883  1.00  0.00     0.124 S 
ATOM     84  O   UNL A   1      38.968  25.351  26.806  1.00  0.00    -0.237 OA
ATOM     85  O   UNL A   1      40.786  26.756  25.886  1.00  0.00    -0.237 OA
ATOM     86  O   UNL A   1      41.329  24.725  27.171  1.00  0.00    -0.744 OA
ENDBRANCH  82  83
ENDBRANCH  50  75
BRANCH  62  87
ATOM     87  C   UNL A   1      44.539  28.950  36.248  1.00  0.00     0.058 A 
ATOM     88  C   UNL A   1      45.800  29.478  35.937  1.00  0.00     0.135 A 
ATOM     89  C   UNL A   1      44.487  27.770  37.008  1.00  0.00     0.135 A 
ATOM     90  F   UNL A   1      45.903  30.602  35.211  1.00  0.00    -0.206 F 
ATOM     91  C   UNL A   1      46.970  28.847  36.347  1.00  0.00     0.059 A 
ATOM     92  C   UNL A   1      45.643  27.140  37.455  1.00  0.00     0.059 A 
ATOM     93  F   UNL A   1      43.303  27.232  37.345  1.00  0.00    -0.206 F 
ATOM     94  C   UNL A   1      46.879  27.680  37.109  1.00  0.00     0.060 A 
BRANCH  94  95
ATOM     95  S   UNL A   1      48.405  26.893  37.667  1.00  0.00     0.124 S 
ATOM     96  O   UNL A   1      48.916  27.882  38.612  1.00  0.00    -0.237 OA
ATOM     97  O   UNL A   1      47.918  25.649  38.253  1.00  0.00    -0.237 OA
ATOM     98  O   UNL A   1      49.178  26.741  36.439  1.00  0.00    -0.744 OA
ENDBRANCH  94  95
ENDBRANCH  62  87
ENDBRANCH  36  37
ENDBRANCH  29  31
ENDBRANCH  28  29
ENDBRANCH  27  28
ENDBRANCH  26  27
ENDBRANCH  25  26
ENDBRANCH  24  25
ENDBRANCH   1  24
TORSDOF 24
ENDMDL
