MODEL 1
REMARK VINA RESULT:      -9.8      0.000      0.000
REMARK SMILES O=C(OCCOCCOCCOC(=O)[C@@H]1CCC[N@@H+](Cc2ccc(F)cc2Cl)C1)c1ccc(-c2c3nc(c(-c4c(F)cc(S(=O)(=O)[O-])cc4F)c4ccc([nH]4)c(-c4c(F)cc(S(=O)(=O)[O-])cc4F)c4nc(c(-c5c(F)cc(S(=O)(=O)[O-])cc5F)c5ccc2[nH]5)C=C4)C=C3)cc1
REMARK SMILES IDX 7 1 6 2 5 3 4 4 3 5 2 6 1 7 30 8 31 9 95 10 32 11 94 12
REMARK SMILES IDX 33 13 34 14 35 15 88 16 36 17 93 18 87 19 89 20 37 21 92 22
REMARK SMILES IDX 86 23 85 24 38 26 72 27 51 28 71 29 52 30 55 31 70 32 90 33
REMARK SMILES IDX 53 34 54 35 69 37 91 38 56 39 39 40 40 41 49 42 41 43 42 44
REMARK SMILES IDX 48 45 50 46 43 47 44 48 45 49 46 50 47 51 73 52 74 53 83 54
REMARK SMILES IDX 75 55 76 56 82 57 84 58 77 59 78 60 79 61 80 62 81 63 57 64
REMARK SMILES IDX 58 65 67 66 59 67 60 68 66 69 68 70 61 71 62 72 63 73 64 74
REMARK SMILES IDX 65 75 8 76 9 77 10 78 11 79 12 80 13 81 14 82 15 83 16 84
REMARK SMILES IDX 29 85 17 86 19 87 18 88 20 90 21 91 22 92 27 93 23 94 26 95
REMARK SMILES IDX 28 96 24 97 25 98
REMARK H PARENT 89 25 55 36 19 89
REMARK Flexibility Score: inf
ROOT
ATOM      1  C   UNL A   1      33.300  27.730  25.670  1.00  0.00     0.188 C 
ENDROOT
BRANCH   1   2
ATOM      2  O   UNL A   1      34.139  28.784  26.141  1.00  0.00    -0.376 OA
BRANCH   2   3
ATOM      3  C   UNL A   1      33.466  30.012  26.431  1.00  0.00     0.202 C 
BRANCH   3   4
ATOM      4  C   UNL A   1      33.735  30.639  27.811  1.00  0.00     0.261 C 
BRANCH   4   5
ATOM      5  O   UNL A   1      35.054  31.193  27.978  1.00  0.00    -0.460 OA
BRANCH   5   6
ATOM      6  C   UNL A   1      35.906  31.067  29.025  1.00  0.00     0.338 C 
ATOM      7  O   UNL A   1      35.533  31.431  30.139  1.00  0.00    -0.246 OA
BRANCH   6   8
ATOM      8  C   UNL A   1      37.287  30.521  28.890  1.00  0.00     0.060 A 
ATOM      9  C   UNL A   1      38.156  30.339  29.960  1.00  0.00     0.016 A 
ATOM     10  C   UNL A   1      37.703  30.067  27.630  1.00  0.00     0.016 A 
ATOM     11  C   UNL A   1      39.440  29.847  29.788  1.00  0.00     0.010 A 
ATOM     12  C   UNL A   1      38.968  29.487  27.459  1.00  0.00     0.010 A 
ATOM     13  C   UNL A   1      39.855  29.397  28.541  1.00  0.00    -0.014 A 
BRANCH  13  14
ATOM     14  C   UNL A   1      41.252  28.936  28.394  1.00  0.00     0.031 A 
ATOM     15  C   UNL A   1      42.354  29.935  28.536  1.00  0.00     0.074 A 
ATOM     16  C   UNL A   1      41.546  27.623  28.308  1.00  0.00     0.049 A 
ATOM     17  N   UNL A   1      43.637  29.762  28.382  1.00  0.00    -0.248 NA
ATOM     18  C   UNL A   1      41.970  31.295  28.954  1.00  0.00     0.031 C 
ATOM     19  C   UNL A   1      40.572  26.534  28.393  1.00  0.00     0.029 A 
ATOM     20  N   UNL A   1      42.746  26.970  28.166  1.00  0.00    -0.354 N 
ATOM     21  C   UNL A   1      44.215  30.986  28.676  1.00  0.00     0.074 A 
ATOM     22  C   UNL A   1      43.146  31.903  29.005  1.00  0.00     0.031 C 
ATOM     23  C   UNL A   1      41.222  25.365  28.307  1.00  0.00     0.029 A 
ATOM     24  C   UNL A   1      42.614  25.607  28.025  1.00  0.00     0.049 A 
ATOM     25  H   UNL A   1      43.616  27.432  28.165  1.00  0.00     0.167 HD
ATOM     26  C   UNL A   1      45.527  31.303  28.673  1.00  0.00     0.037 A 
ATOM     27  C   UNL A   1      43.492  24.666  27.638  1.00  0.00     0.037 A 
ATOM     28  C   UNL A   1      46.572  30.370  28.352  1.00  0.00     0.049 A 
ATOM     29  C   UNL A   1      44.903  25.093  27.414  1.00  0.00     0.074 A 
ATOM     30  C   UNL A   1      47.937  30.591  28.299  1.00  0.00     0.029 A 
ATOM     31  N   UNL A   1      46.367  29.040  28.017  1.00  0.00    -0.354 N 
ATOM     32  N   UNL A   1      45.424  26.282  27.577  1.00  0.00    -0.248 NA
ATOM     33  C   UNL A   1      45.843  24.056  26.976  1.00  0.00     0.031 C 
ATOM     34  C   UNL A   1      48.550  29.413  27.864  1.00  0.00     0.029 A 
ATOM     35  C   UNL A   1      47.575  28.441  27.707  1.00  0.00     0.049 A 
ATOM     36  H   UNL A   1      45.492  28.589  28.002  1.00  0.00     0.167 HD
ATOM     37  C   UNL A   1      46.764  26.137  27.269  1.00  0.00     0.074 A 
ATOM     38  C   UNL A   1      46.970  24.746  26.913  1.00  0.00     0.031 C 
ATOM     39  C   UNL A   1      47.740  27.072  27.303  1.00  0.00     0.037 A 
BRANCH  26  40
ATOM     40  C   UNL A   1      45.895  32.727  28.950  1.00  0.00     0.058 A 
ATOM     41  C   UNL A   1      46.212  33.184  30.237  1.00  0.00     0.135 A 
ATOM     42  C   UNL A   1      45.960  33.641  27.887  1.00  0.00     0.135 A 
ATOM     43  F   UNL A   1      46.120  32.358  31.292  1.00  0.00    -0.206 F 
ATOM     44  C   UNL A   1      46.593  34.503  30.460  1.00  0.00     0.059 A 
ATOM     45  C   UNL A   1      46.360  34.957  28.082  1.00  0.00     0.059 A 
ATOM     46  F   UNL A   1      45.637  33.254  26.643  1.00  0.00    -0.206 F 
ATOM     47  C   UNL A   1      46.675  35.377  29.373  1.00  0.00     0.060 A 
BRANCH  47  48
ATOM     48  S   UNL A   1      47.225  37.070  29.668  1.00  0.00     0.124 S 
ATOM     49  O   UNL A   1      47.616  37.488  28.326  1.00  0.00    -0.237 OA
ATOM     50  O   UNL A   1      46.021  37.697  30.203  1.00  0.00    -0.237 OA
ATOM     51  O   UNL A   1      48.322  36.909  30.619  1.00  0.00    -0.744 OA
ENDBRANCH  47  48
ENDBRANCH  26  40
BRANCH  27  52
ATOM     52  C   UNL A   1      43.091  23.282  27.270  1.00  0.00     0.058 A 
ATOM     53  C   UNL A   1      43.053  22.231  28.193  1.00  0.00     0.135 A 
ATOM     54  C   UNL A   1      42.908  22.968  25.913  1.00  0.00     0.135 A 
ATOM     55  F   UNL A   1      43.242  22.479  29.497  1.00  0.00    -0.206 F 
ATOM     56  C   UNL A   1      42.871  20.909  27.782  1.00  0.00     0.059 A 
ATOM     57  C   UNL A   1      42.738  21.658  25.479  1.00  0.00     0.059 A 
ATOM     58  F   UNL A   1      42.931  23.946  24.993  1.00  0.00    -0.206 F 
ATOM     59  C   UNL A   1      42.737  20.630  26.420  1.00  0.00     0.060 A 
BRANCH  59  60
ATOM     60  S   UNL A   1      42.550  18.919  25.857  1.00  0.00     0.124 S 
ATOM     61  O   UNL A   1      43.018  18.179  27.022  1.00  0.00    -0.237 OA
ATOM     62  O   UNL A   1      41.121  18.825  25.578  1.00  0.00    -0.237 OA
ATOM     63  O   UNL A   1      43.419  18.864  24.686  1.00  0.00    -0.744 OA
ENDBRANCH  59  60
ENDBRANCH  27  52
BRANCH  39  64
ATOM     64  C   UNL A   1      49.108  26.594  26.947  1.00  0.00     0.058 A 
ATOM     65  C   UNL A   1      49.974  26.070  27.917  1.00  0.00     0.135 A 
ATOM     66  C   UNL A   1      49.557  26.680  25.621  1.00  0.00     0.135 A 
ATOM     67  F   UNL A   1      49.592  26.004  29.202  1.00  0.00    -0.206 F 
ATOM     68  C   UNL A   1      51.256  25.656  27.583  1.00  0.00     0.059 A 
ATOM     69  C   UNL A   1      50.822  26.243  25.261  1.00  0.00     0.059 A 
ATOM     70  F   UNL A   1      48.760  27.189  24.668  1.00  0.00    -0.206 F 
ATOM     71  C   UNL A   1      51.666  25.742  26.251  1.00  0.00     0.060 A 
BRANCH  71  72
ATOM     72  S   UNL A   1      53.315  25.156  25.821  1.00  0.00     0.124 S 
ATOM     73  O   UNL A   1      53.048  23.768  25.461  1.00  0.00    -0.237 OA
ATOM     74  O   UNL A   1      53.681  26.041  24.719  1.00  0.00    -0.237 OA
ATOM     75  O   UNL A   1      54.073  25.353  27.053  1.00  0.00    -0.744 OA
ENDBRANCH  71  72
ENDBRANCH  39  64
ENDBRANCH  13  14
ENDBRANCH   6   8
ENDBRANCH   5   6
ENDBRANCH   4   5
ENDBRANCH   3   4
ENDBRANCH   2   3
ENDBRANCH   1   2
BRANCH   1  76
ATOM     76  C   UNL A   1      33.809  26.356  26.101  1.00  0.00     0.188 C 
BRANCH  76  77
ATOM     77  O   UNL A   1      32.996  25.225  25.794  1.00  0.00    -0.376 OA
BRANCH  77  78
ATOM     78  C   UNL A   1      31.916  24.913  26.667  1.00  0.00     0.202 C 
BRANCH  78  79
ATOM     79  C   UNL A   1      31.436  23.455  26.786  1.00  0.00     0.261 C 
BRANCH  79  80
ATOM     80  O   UNL A   1      31.928  22.567  25.779  1.00  0.00    -0.463 OA
BRANCH  80  81
ATOM     81  C   UNL A   1      33.064  21.905  26.146  1.00  0.00     0.314 C 
ATOM     82  O   UNL A   1      33.396  21.709  27.304  1.00  0.00    -0.252 OA
BRANCH  81  83
ATOM     83  C   UNL A   1      33.764  21.348  24.915  1.00  0.00     0.154 C 
ATOM     84  C   UNL A   1      35.286  21.464  25.013  1.00  0.00     0.027 C 
ATOM     85  C   UNL A   1      33.265  22.011  23.643  1.00  0.00     0.277 C 
ATOM     86  C   UNL A   1      35.727  22.920  24.961  1.00  0.00     0.062 C 
ATOM     87  N   UNL A   1      33.713  23.392  23.476  1.00  0.00    -0.330 N 
ATOM     88  C   UNL A   1      35.134  23.644  23.762  1.00  0.00     0.262 C 
ATOM     89  H   UNL A   1      33.210  23.885  24.213  1.00  0.00     0.348 HD
BRANCH  87  90
ATOM     90  C   UNL A   1      33.317  23.970  22.168  1.00  0.00     0.300 C 
BRANCH  90  91
ATOM     91  C   UNL A   1      32.628  25.330  22.255  1.00  0.00     0.025 A 
ATOM     92  C   UNL A   1      33.357  26.519  22.033  1.00  0.00     0.014 A 
ATOM     93  C   UNL A   1      31.307  25.458  22.724  1.00  0.00     0.052 A 
ATOM     94  C   UNL A   1      32.813  27.774  22.293  1.00  0.00     0.040 A 
ATOM     95  C   UNL A   1      30.765  26.718  22.990  1.00  0.00     0.060 A 
ATOM     96  Cl  UNL A   1      30.328  24.084  23.100  1.00  0.00    -0.084 Cl
ATOM     97  C   UNL A   1      31.522  27.861  22.781  1.00  0.00     0.124 A 
ATOM     98  F   UNL A   1      31.011  29.066  23.065  1.00  0.00    -0.207 F 
ENDBRANCH  90  91
ENDBRANCH  87  90
ENDBRANCH  81  83
ENDBRANCH  80  81
ENDBRANCH  79  80
ENDBRANCH  78  79
ENDBRANCH  77  78
ENDBRANCH  76  77
ENDBRANCH   1  76
TORSDOF 22
ENDMDL
MODEL 2
REMARK VINA RESULT:      -9.7      1.778      8.409
REMARK SMILES O=C(OCCOCCOCCOC(=O)[C@@H]1CCC[N@@H+](Cc2ccc(F)cc2Cl)C1)c1ccc(-c2c3nc(c(-c4c(F)cc(S(=O)(=O)[O-])cc4F)c4ccc([nH]4)c(-c4c(F)cc(S(=O)(=O)[O-])cc4F)c4nc(c(-c5c(F)cc(S(=O)(=O)[O-])cc5F)c5ccc2[nH]5)C=C4)C=C3)cc1
REMARK SMILES IDX 7 1 6 2 5 3 4 4 3 5 2 6 1 7 30 8 31 9 95 10 32 11 94 12
REMARK SMILES IDX 33 13 34 14 35 15 88 16 36 17 93 18 87 19 89 20 37 21 92 22
REMARK SMILES IDX 86 23 85 24 38 26 72 27 51 28 71 29 52 30 55 31 70 32 90 33
REMARK SMILES IDX 53 34 54 35 69 37 91 38 56 39 39 40 40 41 49 42 41 43 42 44
REMARK SMILES IDX 48 45 50 46 43 47 44 48 45 49 46 50 47 51 73 52 74 53 83 54
REMARK SMILES IDX 75 55 76 56 82 57 84 58 77 59 78 60 79 61 80 62 81 63 57 64
REMARK SMILES IDX 58 65 67 66 59 67 60 68 66 69 68 70 61 71 62 72 63 73 64 74
REMARK SMILES IDX 65 75 8 76 9 77 10 78 11 79 12 80 13 81 14 82 15 83 16 84
REMARK SMILES IDX 29 85 17 86 19 87 18 88 20 90 21 91 22 92 27 93 23 94 26 95
REMARK SMILES IDX 28 96 24 97 25 98
REMARK H PARENT 89 25 55 36 19 89
REMARK Flexibility Score: inf
ROOT
ATOM      1  C   UNL A   1      35.138  30.041  27.710  1.00  0.00     0.188 C 
ENDROOT
BRANCH   1   2
ATOM      2  O   UNL A   1      34.791  31.424  27.765  1.00  0.00    -0.376 OA
BRANCH   2   3
ATOM      3  C   UNL A   1      35.576  32.211  28.665  1.00  0.00     0.202 C 
BRANCH   3   4
ATOM      4  C   UNL A   1      35.259  32.068  30.165  1.00  0.00     0.261 C 
BRANCH   4   5
ATOM      5  O   UNL A   1      36.208  31.286  30.913  1.00  0.00    -0.460 OA
BRANCH   5   6
ATOM      6  C   UNL A   1      37.434  31.641  31.372  1.00  0.00     0.338 C 
ATOM      7  O   UNL A   1      37.509  32.455  32.290  1.00  0.00    -0.246 OA
BRANCH   6   8
ATOM      8  C   UNL A   1      38.703  31.103  30.804  1.00  0.00     0.060 A 
ATOM      9  C   UNL A   1      39.810  30.756  31.572  1.00  0.00     0.016 A 
ATOM     10  C   UNL A   1      38.756  30.833  29.429  1.00  0.00     0.016 A 
ATOM     11  C   UNL A   1      40.978  30.278  31.002  1.00  0.00     0.010 A 
ATOM     12  C   UNL A   1      39.903  30.269  28.852  1.00  0.00     0.010 A 
ATOM     13  C   UNL A   1      41.034  30.011  29.640  1.00  0.00    -0.014 A 
BRANCH  13  14
ATOM     14  C   UNL A   1      42.320  29.558  29.069  1.00  0.00     0.031 A 
ATOM     15  C   UNL A   1      42.447  28.136  28.627  1.00  0.00     0.074 A 
ATOM     16  C   UNL A   1      43.304  30.436  28.787  1.00  0.00     0.049 A 
ATOM     17  N   UNL A   1      43.495  27.516  28.164  1.00  0.00    -0.248 NA
ATOM     18  C   UNL A   1      41.223  27.316  28.666  1.00  0.00     0.031 C 
ATOM     19  C   UNL A   1      43.212  31.887  28.957  1.00  0.00     0.029 A 
ATOM     20  N   UNL A   1      44.562  30.252  28.266  1.00  0.00    -0.354 N 
ATOM     21  C   UNL A   1      43.065  26.234  27.860  1.00  0.00     0.074 A 
ATOM     22  C   UNL A   1      41.663  26.154  28.204  1.00  0.00     0.031 C 
ATOM     23  C   UNL A   1      44.359  32.444  28.542  1.00  0.00     0.029 A 
ATOM     24  C   UNL A   1      45.306  31.408  28.213  1.00  0.00     0.049 A 
ATOM     25  H   UNL A   1      44.898  29.378  27.960  1.00  0.00     0.167 HD
ATOM     26  C   UNL A   1      43.788  25.222  27.335  1.00  0.00     0.037 A 
ATOM     27  C   UNL A   1      46.618  31.610  28.001  1.00  0.00     0.037 A 
ATOM     28  C   UNL A   1      45.179  25.330  26.992  1.00  0.00     0.049 A 
ATOM     29  C   UNL A   1      47.446  30.423  27.645  1.00  0.00     0.074 A 
ATOM     30  C   UNL A   1      46.015  24.358  26.471  1.00  0.00     0.029 A 
ATOM     31  N   UNL A   1      45.944  26.476  27.148  1.00  0.00    -0.354 N 
ATOM     32  N   UNL A   1      47.058  29.186  27.476  1.00  0.00    -0.248 NA
ATOM     33  C   UNL A   1      48.879  30.660  27.433  1.00  0.00     0.031 C 
ATOM     34  C   UNL A   1      47.300  24.898  26.377  1.00  0.00     0.029 A 
ATOM     35  C   UNL A   1      47.253  26.222  26.780  1.00  0.00     0.049 A 
ATOM     36  H   UNL A   1      45.605  27.342  27.471  1.00  0.00     0.167 HD
ATOM     37  C   UNL A   1      48.200  28.490  27.127  1.00  0.00     0.074 A 
ATOM     38  C   UNL A   1      49.291  29.445  27.108  1.00  0.00     0.031 C 
ATOM     39  C   UNL A   1      48.326  27.178  26.825  1.00  0.00     0.037 A 
BRANCH  26  40
ATOM     40  C   UNL A   1      43.108  23.899  27.175  1.00  0.00     0.058 A 
ATOM     41  C   UNL A   1      42.587  23.466  25.947  1.00  0.00     0.135 A 
ATOM     42  C   UNL A   1      43.010  23.037  28.277  1.00  0.00     0.135 A 
ATOM     43  F   UNL A   1      42.617  24.273  24.875  1.00  0.00    -0.206 F 
ATOM     44  C   UNL A   1      41.999  22.212  25.815  1.00  0.00     0.059 A 
ATOM     45  C   UNL A   1      42.448  21.771  28.164  1.00  0.00     0.059 A 
ATOM     46  F   UNL A   1      43.469  23.421  29.478  1.00  0.00    -0.206 F 
ATOM     47  C   UNL A   1      41.945  21.369  26.928  1.00  0.00     0.060 A 
BRANCH  47  48
ATOM     48  S   UNL A   1      41.231  19.724  26.728  1.00  0.00     0.124 S 
ATOM     49  O   UNL A   1      40.089  20.004  25.864  1.00  0.00    -0.237 OA
ATOM     50  O   UNL A   1      42.328  18.985  26.111  1.00  0.00    -0.237 OA
ATOM     51  O   UNL A   1      40.903  19.329  28.095  1.00  0.00    -0.744 OA
ENDBRANCH  47  48
ENDBRANCH  26  40
BRANCH  27  52
ATOM     52  C   UNL A   1      47.294  32.909  28.263  1.00  0.00     0.058 A 
ATOM     53  C   UNL A   1      47.730  33.294  29.537  1.00  0.00     0.135 A 
ATOM     54  C   UNL A   1      47.350  33.864  27.235  1.00  0.00     0.135 A 
ATOM     55  F   UNL A   1      47.677  32.423  30.554  1.00  0.00    -0.206 F 
ATOM     56  C   UNL A   1      48.174  34.593  29.790  1.00  0.00     0.059 A 
ATOM     57  C   UNL A   1      47.778  35.167  27.466  1.00  0.00     0.059 A 
ATOM     58  F   UNL A   1      46.949  33.535  25.997  1.00  0.00    -0.206 F 
ATOM     59  C   UNL A   1      48.173  35.529  28.752  1.00  0.00     0.060 A 
BRANCH  59  60
ATOM     60  S   UNL A   1      48.698  37.233  29.067  1.00  0.00     0.124 S 
ATOM     61  O   UNL A   1      47.447  37.848  29.491  1.00  0.00    -0.237 OA
ATOM     62  O   UNL A   1      49.711  37.074  30.106  1.00  0.00    -0.237 OA
ATOM     63  O   UNL A   1      49.203  37.665  27.767  1.00  0.00    -0.744 OA
ENDBRANCH  59  60
ENDBRANCH  27  52
BRANCH  39  64
ATOM     64  C   UNL A   1      49.697  26.727  26.448  1.00  0.00     0.058 A 
ATOM     65  C   UNL A   1      50.588  26.221  27.403  1.00  0.00     0.135 A 
ATOM     66  C   UNL A   1      50.122  26.820  25.114  1.00  0.00     0.135 A 
ATOM     67  F   UNL A   1      50.228  26.149  28.695  1.00  0.00    -0.206 F 
ATOM     68  C   UNL A   1      51.872  25.832  27.049  1.00  0.00     0.059 A 
ATOM     69  C   UNL A   1      51.389  26.407  24.734  1.00  0.00     0.059 A 
ATOM     70  F   UNL A   1      49.300  27.312  24.173  1.00  0.00    -0.206 F 
ATOM     71  C   UNL A   1      52.260  25.924  25.710  1.00  0.00     0.060 A 
BRANCH  71  72
ATOM     72  S   UNL A   1      53.912  25.371  25.255  1.00  0.00     0.124 S 
ATOM     73  O   UNL A   1      54.728  26.008  26.284  1.00  0.00    -0.237 OA
ATOM     74  O   UNL A   1      53.789  23.919  25.348  1.00  0.00    -0.237 OA
ATOM     75  O   UNL A   1      54.082  25.894  23.903  1.00  0.00    -0.744 OA
ENDBRANCH  71  72
ENDBRANCH  39  64
ENDBRANCH  13  14
ENDBRANCH   6   8
ENDBRANCH   5   6
ENDBRANCH   4   5
ENDBRANCH   3   4
ENDBRANCH   2   3
ENDBRANCH   1   2
BRANCH   1  76
ATOM     76  C   UNL A   1      34.020  29.192  27.110  1.00  0.00     0.188 C 
BRANCH  76  77
ATOM     77  O   UNL A   1      32.680  29.500  27.491  1.00  0.00    -0.376 OA
BRANCH  77  78
ATOM     78  C   UNL A   1      31.720  28.449  27.488  1.00  0.00     0.202 C 
BRANCH  78  79
ATOM     79  C   UNL A   1      32.025  27.148  26.722  1.00  0.00     0.261 C 
BRANCH  79  80
ATOM     80  O   UNL A   1      30.888  26.495  26.152  1.00  0.00    -0.463 OA
BRANCH  80  81
ATOM     81  C   UNL A   1      30.964  25.132  26.198  1.00  0.00     0.314 C 
ATOM     82  O   UNL A   1      31.272  24.500  27.196  1.00  0.00    -0.252 OA
BRANCH  81  83
ATOM     83  C   UNL A   1      30.487  24.538  24.882  1.00  0.00     0.154 C 
ATOM     84  C   UNL A   1      31.557  23.669  24.218  1.00  0.00     0.027 C 
ATOM     85  C   UNL A   1      30.013  25.617  23.923  1.00  0.00     0.277 C 
ATOM     86  C   UNL A   1      32.730  24.515  23.744  1.00  0.00     0.062 C 
ATOM     87  N   UNL A   1      31.092  26.425  23.357  1.00  0.00    -0.330 N 
ATOM     88  C   UNL A   1      32.270  25.682  22.885  1.00  0.00     0.262 C 
ATOM     89  H   UNL A   1      31.426  26.954  24.162  1.00  0.00     0.348 HD
BRANCH  87  90
ATOM     90  C   UNL A   1      30.612  27.384  22.330  1.00  0.00     0.300 C 
BRANCH  90  91
ATOM     91  C   UNL A   1      29.741  28.515  22.872  1.00  0.00     0.025 A 
ATOM     92  C   UNL A   1      28.387  28.624  22.487  1.00  0.00     0.014 A 
ATOM     93  C   UNL A   1      30.288  29.572  23.622  1.00  0.00     0.052 A 
ATOM     94  C   UNL A   1      27.621  29.743  22.804  1.00  0.00     0.040 A 
ATOM     95  C   UNL A   1      29.520  30.696  23.935  1.00  0.00     0.060 A 
ATOM     96  Cl  UNL A   1      31.950  29.595  24.102  1.00  0.00    -0.084 Cl
ATOM     97  C   UNL A   1      28.200  30.776  23.517  1.00  0.00     0.124 A 
ATOM     98  F   UNL A   1      27.475  31.868  23.792  1.00  0.00    -0.207 F 
ENDBRANCH  90  91
ENDBRANCH  87  90
ENDBRANCH  81  83
ENDBRANCH  80  81
ENDBRANCH  79  80
ENDBRANCH  78  79
ENDBRANCH  77  78
ENDBRANCH  76  77
ENDBRANCH   1  76
TORSDOF 22
ENDMDL
MODEL 3
REMARK VINA RESULT:      -9.7      6.341     10.964
REMARK SMILES O=C(OCCOCCOCCOC(=O)[C@@H]1CCC[N@@H+](Cc2ccc(F)cc2Cl)C1)c1ccc(-c2c3nc(c(-c4c(F)cc(S(=O)(=O)[O-])cc4F)c4ccc([nH]4)c(-c4c(F)cc(S(=O)(=O)[O-])cc4F)c4nc(c(-c5c(F)cc(S(=O)(=O)[O-])cc5F)c5ccc2[nH]5)C=C4)C=C3)cc1
REMARK SMILES IDX 7 1 6 2 5 3 4 4 3 5 2 6 1 7 30 8 31 9 95 10 32 11 94 12
REMARK SMILES IDX 33 13 34 14 35 15 88 16 36 17 93 18 87 19 89 20 37 21 92 22
REMARK SMILES IDX 86 23 85 24 38 26 72 27 51 28 71 29 52 30 55 31 70 32 90 33
REMARK SMILES IDX 53 34 54 35 69 37 91 38 56 39 39 40 40 41 49 42 41 43 42 44
REMARK SMILES IDX 48 45 50 46 43 47 44 48 45 49 46 50 47 51 73 52 74 53 83 54
REMARK SMILES IDX 75 55 76 56 82 57 84 58 77 59 78 60 79 61 80 62 81 63 57 64
REMARK SMILES IDX 58 65 67 66 59 67 60 68 66 69 68 70 61 71 62 72 63 73 64 74
REMARK SMILES IDX 65 75 8 76 9 77 10 78 11 79 12 80 13 81 14 82 15 83 16 84
REMARK SMILES IDX 29 85 17 86 19 87 18 88 20 90 21 91 22 92 27 93 23 94 26 95
REMARK SMILES IDX 28 96 24 97 25 98
REMARK H PARENT 89 25 55 36 19 89
REMARK Flexibility Score: inf
ROOT
ATOM      1  C   UNL A   1      41.310  21.290  26.659  1.00  0.00     0.188 C 
ENDROOT
BRANCH   1   2
ATOM      2  O   UNL A   1      42.561  21.849  27.063  1.00  0.00    -0.376 OA
BRANCH   2   3
ATOM      3  C   UNL A   1      43.476  22.117  25.998  1.00  0.00     0.202 C 
BRANCH   3   4
ATOM      4  C   UNL A   1      43.658  23.593  25.599  1.00  0.00     0.261 C 
BRANCH   4   5
ATOM      5  O   UNL A   1      42.496  24.422  25.793  1.00  0.00    -0.460 OA
BRANCH   5   6
ATOM      6  C   UNL A   1      42.400  25.774  25.773  1.00  0.00     0.338 C 
ATOM      7  O   UNL A   1      42.578  26.365  24.710  1.00  0.00    -0.246 OA
BRANCH   6   8
ATOM      8  C   UNL A   1      42.102  26.587  26.987  1.00  0.00     0.060 A 
ATOM      9  C   UNL A   1      42.696  27.813  27.264  1.00  0.00     0.016 A 
ATOM     10  C   UNL A   1      41.091  26.144  27.853  1.00  0.00     0.016 A 
ATOM     11  C   UNL A   1      42.407  28.527  28.415  1.00  0.00     0.010 A 
ATOM     12  C   UNL A   1      40.728  26.900  28.977  1.00  0.00     0.010 A 
ATOM     13  C   UNL A   1      41.406  28.091  29.275  1.00  0.00    -0.014 A 
BRANCH  13  14
ATOM     14  C   UNL A   1      41.174  28.853  30.520  1.00  0.00     0.031 A 
ATOM     15  C   UNL A   1      40.063  29.853  30.550  1.00  0.00     0.074 A 
ATOM     16  C   UNL A   1      41.825  28.542  31.659  1.00  0.00     0.049 A 
ATOM     17  N   UNL A   1      39.728  30.671  31.508  1.00  0.00    -0.248 NA
ATOM     18  C   UNL A   1      39.183  29.906  29.369  1.00  0.00     0.031 C 
ATOM     19  C   UNL A   1      42.765  27.431  31.816  1.00  0.00     0.029 A 
ATOM     20  N   UNL A   1      41.776  29.101  32.913  1.00  0.00    -0.354 N 
ATOM     21  C   UNL A   1      38.606  31.342  31.048  1.00  0.00     0.074 A 
ATOM     22  C   UNL A   1      38.320  30.849  29.718  1.00  0.00     0.031 C 
ATOM     23  C   UNL A   1      43.189  27.400  33.087  1.00  0.00     0.029 A 
ATOM     24  C   UNL A   1      42.674  28.544  33.795  1.00  0.00     0.049 A 
ATOM     25  H   UNL A   1      41.158  29.829  33.157  1.00  0.00     0.167 HD
ATOM     26  C   UNL A   1      37.883  32.281  31.692  1.00  0.00     0.037 A 
ATOM     27  C   UNL A   1      43.095  28.948  35.006  1.00  0.00     0.037 A 
ATOM     28  C   UNL A   1      38.181  32.748  33.018  1.00  0.00     0.049 A 
ATOM     29  C   UNL A   1      42.431  30.143  35.600  1.00  0.00     0.074 A 
ATOM     30  C   UNL A   1      37.524  33.714  33.759  1.00  0.00     0.029 A 
ATOM     31  N   UNL A   1      39.233  32.290  33.797  1.00  0.00    -0.354 N 
ATOM     32  N   UNL A   1      41.447  30.852  35.108  1.00  0.00    -0.248 NA
ATOM     33  C   UNL A   1      42.915  30.579  36.915  1.00  0.00     0.031 C 
ATOM     34  C   UNL A   1      38.220  33.887  34.959  1.00  0.00     0.029 A 
ATOM     35  C   UNL A   1      39.273  32.988  34.991  1.00  0.00     0.049 A 
ATOM     36  H   UNL A   1      39.857  31.574  33.540  1.00  0.00     0.167 HD
ATOM     37  C   UNL A   1      41.184  31.819  36.059  1.00  0.00     0.074 A 
ATOM     38  C   UNL A   1      42.110  31.603  37.154  1.00  0.00     0.031 C 
ATOM     39  C   UNL A   1      40.240  32.787  36.035  1.00  0.00     0.037 A 
BRANCH  26  40
ATOM     40  C   UNL A   1      36.754  32.917  30.943  1.00  0.00     0.058 A 
ATOM     41  C   UNL A   1      35.413  32.580  31.178  1.00  0.00     0.135 A 
ATOM     42  C   UNL A   1      37.031  33.912  29.993  1.00  0.00     0.135 A 
ATOM     43  F   UNL A   1      35.100  31.604  32.045  1.00  0.00    -0.206 F 
ATOM     44  C   UNL A   1      34.380  33.219  30.500  1.00  0.00     0.059 A 
ATOM     45  C   UNL A   1      36.014  34.578  29.320  1.00  0.00     0.059 A 
ATOM     46  F   UNL A   1      38.301  34.246  29.716  1.00  0.00    -0.206 F 
ATOM     47  C   UNL A   1      34.692  34.224  29.581  1.00  0.00     0.060 A 
BRANCH  47  48
ATOM     48  S   UNL A   1      33.340  35.083  28.750  1.00  0.00     0.124 S 
ATOM     49  O   UNL A   1      32.765  34.011  27.944  1.00  0.00    -0.237 OA
ATOM     50  O   UNL A   1      32.528  35.537  29.874  1.00  0.00    -0.237 OA
ATOM     51  O   UNL A   1      34.017  36.137  28.001  1.00  0.00    -0.744 OA
ENDBRANCH  47  48
ENDBRANCH  26  40
BRANCH  27  52
ATOM     52  C   UNL A   1      44.283  28.370  35.689  1.00  0.00     0.058 A 
ATOM     53  C   UNL A   1      45.597  28.714  35.349  1.00  0.00     0.135 A 
ATOM     54  C   UNL A   1      44.096  27.311  36.593  1.00  0.00     0.135 A 
ATOM     55  F   UNL A   1      45.824  29.706  34.476  1.00  0.00    -0.206 F 
ATOM     56  C   UNL A   1      46.688  28.011  35.863  1.00  0.00     0.059 A 
ATOM     57  C   UNL A   1      45.168  26.588  37.107  1.00  0.00     0.059 A 
ATOM     58  F   UNL A   1      42.854  26.951  36.951  1.00  0.00    -0.206 F 
ATOM     59  C   UNL A   1      46.461  26.934  36.724  1.00  0.00     0.060 A 
BRANCH  59  60
ATOM     60  S   UNL A   1      47.857  25.975  37.364  1.00  0.00     0.124 S 
ATOM     61  O   UNL A   1      48.871  26.223  36.346  1.00  0.00    -0.237 OA
ATOM     62  O   UNL A   1      48.102  26.589  38.665  1.00  0.00    -0.237 OA
ATOM     63  O   UNL A   1      47.328  24.615  37.406  1.00  0.00    -0.744 OA
ENDBRANCH  59  60
ENDBRANCH  27  52
BRANCH  39  64
ATOM     64  C   UNL A   1      40.180  33.665  37.240  1.00  0.00     0.058 A 
ATOM     65  C   UNL A   1      39.298  33.397  38.296  1.00  0.00     0.135 A 
ATOM     66  C   UNL A   1      41.008  34.794  37.325  1.00  0.00     0.135 A 
ATOM     67  F   UNL A   1      38.467  32.345  38.234  1.00  0.00    -0.206 F 
ATOM     68  C   UNL A   1      39.227  34.236  39.399  1.00  0.00     0.059 A 
ATOM     69  C   UNL A   1      40.975  35.627  38.432  1.00  0.00     0.059 A 
ATOM     70  F   UNL A   1      41.856  35.090  36.327  1.00  0.00    -0.206 F 
ATOM     71  C   UNL A   1      40.075  35.345  39.459  1.00  0.00     0.060 A 
BRANCH  71  72
ATOM     72  S   UNL A   1      40.008  36.399  40.918  1.00  0.00     0.124 S 
ATOM     73  O   UNL A   1      40.646  37.617  40.430  1.00  0.00    -0.237 OA
ATOM     74  O   UNL A   1      38.572  36.490  41.169  1.00  0.00    -0.237 OA
ATOM     75  O   UNL A   1      40.765  35.646  41.913  1.00  0.00    -0.744 OA
ENDBRANCH  71  72
ENDBRANCH  39  64
ENDBRANCH  13  14
ENDBRANCH   6   8
ENDBRANCH   5   6
ENDBRANCH   4   5
ENDBRANCH   3   4
ENDBRANCH   2   3
ENDBRANCH   1   2
BRANCH   1  76
ATOM     76  C   UNL A   1      40.128  22.142  27.116  1.00  0.00     0.188 C 
BRANCH  76  77
ATOM     77  O   UNL A   1      38.952  22.128  26.309  1.00  0.00    -0.376 OA
BRANCH  77  78
ATOM     78  C   UNL A   1      38.255  23.353  26.112  1.00  0.00     0.202 C 
BRANCH  78  79
ATOM     79  C   UNL A   1      36.811  23.324  25.578  1.00  0.00     0.261 C 
BRANCH  79  80
ATOM     80  O   UNL A   1      35.922  22.442  26.269  1.00  0.00    -0.463 OA
BRANCH  80  81
ATOM     81  C   UNL A   1      35.495  21.394  25.506  1.00  0.00     0.314 C 
ATOM     82  O   UNL A   1      36.188  20.824  24.680  1.00  0.00    -0.252 OA
BRANCH  81  83
ATOM     83  C   UNL A   1      34.096  20.974  25.933  1.00  0.00     0.154 C 
ATOM     84  C   UNL A   1      33.270  20.439  24.763  1.00  0.00     0.027 C 
ATOM     85  C   UNL A   1      33.360  22.111  26.622  1.00  0.00     0.277 C 
ATOM     86  C   UNL A   1      32.948  21.546  23.769  1.00  0.00     0.062 C 
ATOM     87  N   UNL A   1      32.942  23.182  25.721  1.00  0.00    -0.330 N 
ATOM     88  C   UNL A   1      32.326  22.752  24.456  1.00  0.00     0.262 C 
ATOM     89  H   UNL A   1      33.827  23.606  25.445  1.00  0.00     0.348 HD
BRANCH  87  90
ATOM     90  C   UNL A   1      32.117  24.214  26.398  1.00  0.00     0.300 C 
BRANCH  90  91
ATOM     91  C   UNL A   1      32.305  25.632  25.864  1.00  0.00     0.025 A 
ATOM     92  C   UNL A   1      33.595  26.195  25.765  1.00  0.00     0.014 A 
ATOM     93  C   UNL A   1      31.208  26.479  25.621  1.00  0.00     0.052 A 
ATOM     94  C   UNL A   1      33.789  27.542  25.469  1.00  0.00     0.040 A 
ATOM     95  C   UNL A   1      31.403  27.831  25.329  1.00  0.00     0.060 A 
ATOM     96  Cl  UNL A   1      29.574  25.933  25.773  1.00  0.00    -0.084 Cl
ATOM     97  C   UNL A   1      32.687  28.352  25.264  1.00  0.00     0.124 A 
ATOM     98  F   UNL A   1      32.870  29.655  25.014  1.00  0.00    -0.207 F 
ENDBRANCH  90  91
ENDBRANCH  87  90
ENDBRANCH  81  83
ENDBRANCH  80  81
ENDBRANCH  79  80
ENDBRANCH  78  79
ENDBRANCH  77  78
ENDBRANCH  76  77
ENDBRANCH   1  76
TORSDOF 22
ENDMDL
