MODEL 1
REMARK VINA RESULT:     -10.2      0.000      0.000
REMARK SMILES C[C@H]1CCC[C@@](NC(=O)N2CCO[C@H](C#N)C2)(C(=O)OCCOCCOCCOC(=O)c2ccc(-c3c4nc(c(-c5c(F)cc(S(=O)(=O)[O-])cc5F)c5ccc([nH]5)c(-c5c(F)cc(S(=O)(=O)[O-])cc5F)c5nc(c(-c6c(F)cc(S(=O)(=O)[O-])cc6F)c6ccc3[nH]6)C=C5)C=C4)cc2)C1
REMARK SMILES IDX 24 1 23 2 22 3 21 4 20 5 18 6 19 7 6 8 1 9 2 10 3 11 98 12
REMARK SMILES IDX 4 13 5 14 7 15 8 16 9 18 10 19 11 20 17 21 12 22 14 23 13 24
REMARK SMILES IDX 15 25 16 26 25 27 26 28 27 29 28 30 29 31 30 32 31 33 32 34
REMARK SMILES IDX 33 35 97 36 34 37 96 38 35 39 36 40 37 41 90 42 38 43 95 44
REMARK SMILES IDX 89 45 91 46 39 47 94 48 88 49 87 50 40 52 74 53 53 54 73 55
REMARK SMILES IDX 54 56 57 57 72 58 92 59 55 60 56 61 71 63 93 64 58 65 41 66
REMARK SMILES IDX 42 67 51 68 43 69 44 70 50 71 52 72 45 73 46 74 47 75 48 76
REMARK SMILES IDX 49 77 75 78 76 79 85 80 77 81 78 82 84 83 86 84 79 85 80 86
REMARK SMILES IDX 81 87 82 88 83 89 59 90 60 91 69 92 61 93 62 94 68 95 70 96
REMARK SMILES IDX 63 97 64 98 65 99 66 100 67 101
REMARK H PARENT 7 17 91 51 57 62
REMARK Flexibility Score: inf
ROOT
ATOM      1  C   UNL A   1      40.315  19.957  26.327  1.00  0.00     0.188 C 
ENDROOT
BRANCH   1   2
ATOM      2  O   UNL A   1      39.252  20.631  25.684  1.00  0.00    -0.376 OA
BRANCH   2   3
ATOM      3  C   UNL A   1      38.982  21.924  26.188  1.00  0.00     0.202 C 
BRANCH   3   4
ATOM      4  C   UNL A   1      37.892  22.768  25.492  1.00  0.00     0.261 C 
BRANCH   4   5
ATOM      5  O   UNL A   1      36.912  22.224  24.569  1.00  0.00    -0.461 OA
BRANCH   5   6
ATOM      6  C   UNL A   1      35.845  21.448  24.886  1.00  0.00     0.331 C 
ATOM      7  O   UNL A   1      35.926  20.270  25.204  1.00  0.00    -0.249 OA
BRANCH   6   8
ATOM      8  C   UNL A   1      34.495  22.203  24.712  1.00  0.00     0.139 C 
ATOM      9  C   UNL A   1      34.033  26.075  25.430  1.00  0.00     0.008 C 
ATOM     10  C   UNL A   1      33.693  24.704  24.839  1.00  0.00    -0.011 C 
ATOM     11  C   UNL A   1      33.641  24.779  23.316  1.00  0.00     0.003 C 
ATOM     12  C   UNL A   1      34.723  23.647  25.274  1.00  0.00     0.044 C 
ATOM     13  C   UNL A   1      33.204  23.435  22.754  1.00  0.00     0.003 C 
ATOM     14  C   UNL A   1      34.103  22.276  23.200  1.00  0.00     0.040 C 
BRANCH   8  15
ATOM     15  N   UNL A   1      33.446  21.560  25.561  1.00  0.00    -0.322 N 
ATOM     16  C   UNL A   1      32.433  20.732  25.186  1.00  0.00     0.318 C 
ATOM     17  H   UNL A   1      33.492  21.765  26.523  1.00  0.00     0.166 HD
ATOM     18  O   UNL A   1      31.285  21.038  25.506  1.00  0.00    -0.249 OA
BRANCH  16  19
ATOM     19  N   UNL A   1      32.710  19.562  24.515  1.00  0.00    -0.319 N 
ATOM     20  C   UNL A   1      32.044  19.331  23.229  1.00  0.00     0.150 C 
ATOM     21  C   UNL A   1      33.121  18.290  25.166  1.00  0.00     0.169 C 
ATOM     22  C   UNL A   1      32.821  18.367  22.319  1.00  0.00     0.183 C 
ATOM     23  C   UNL A   1      33.986  17.485  24.185  1.00  0.00     0.240 C 
ATOM     24  O   UNL A   1      33.221  17.164  22.997  1.00  0.00    -0.360 OA
BRANCH  23  25
ATOM     25  C   UNL A   1      34.611  16.289  24.775  1.00  0.00     0.096 C 
ATOM     26  N   UNL A   1      35.180  15.379  25.209  1.00  0.00    -0.195 NA
ENDBRANCH  23  25
ENDBRANCH  16  19
ENDBRANCH   8  15
ENDBRANCH   6   8
ENDBRANCH   5   6
ENDBRANCH   4   5
ENDBRANCH   3   4
ENDBRANCH   2   3
ENDBRANCH   1   2
BRANCH   1  27
ATOM     27  C   UNL A   1      41.013  20.833  27.373  1.00  0.00     0.188 C 
BRANCH  27  28
ATOM     28  O   UNL A   1      42.399  21.108  27.271  1.00  0.00    -0.376 OA
BRANCH  28  29
ATOM     29  C   UNL A   1      42.899  21.676  26.070  1.00  0.00     0.202 C 
BRANCH  29  30
ATOM     30  C   UNL A   1      42.327  22.981  25.469  1.00  0.00     0.261 C 
BRANCH  30  31
ATOM     31  O   UNL A   1      43.113  24.182  25.557  1.00  0.00    -0.460 OA
BRANCH  31  32
ATOM     32  C   UNL A   1      43.817  24.375  26.703  1.00  0.00     0.338 C 
ATOM     33  O   UNL A   1      44.941  23.964  26.933  1.00  0.00    -0.246 OA
BRANCH  32  34
ATOM     34  C   UNL A   1      43.123  25.406  27.531  1.00  0.00     0.060 A 
ATOM     35  C   UNL A   1      43.438  26.765  27.329  1.00  0.00     0.016 A 
ATOM     36  C   UNL A   1      42.157  25.056  28.473  1.00  0.00     0.016 A 
ATOM     37  C   UNL A   1      42.815  27.765  28.073  1.00  0.00     0.010 A 
ATOM     38  C   UNL A   1      41.583  26.055  29.270  1.00  0.00     0.010 A 
ATOM     39  C   UNL A   1      41.944  27.407  29.103  1.00  0.00    -0.014 A 
BRANCH  39  40
ATOM     40  C   UNL A   1      41.673  28.386  30.184  1.00  0.00     0.031 A 
ATOM     41  C   UNL A   1      42.538  28.304  31.416  1.00  0.00     0.074 A 
ATOM     42  C   UNL A   1      40.736  29.344  30.075  1.00  0.00     0.049 A 
ATOM     43  N   UNL A   1      42.440  28.947  32.549  1.00  0.00    -0.248 NA
ATOM     44  C   UNL A   1      43.668  27.357  31.360  1.00  0.00     0.031 C 
ATOM     45  C   UNL A   1      39.892  29.578  28.903  1.00  0.00     0.029 A 
ATOM     46  N   UNL A   1      40.324  30.292  30.980  1.00  0.00    -0.354 N 
ATOM     47  C   UNL A   1      43.485  28.480  33.338  1.00  0.00     0.074 A 
ATOM     48  C   UNL A   1      44.184  27.472  32.573  1.00  0.00     0.031 C 
ATOM     49  C   UNL A   1      39.035  30.578  29.179  1.00  0.00     0.029 A 
ATOM     50  C   UNL A   1      39.242  31.027  30.556  1.00  0.00     0.049 A 
ATOM     51  H   UNL A   1      40.763  30.431  31.851  1.00  0.00     0.167 HD
ATOM     52  C   UNL A   1      43.838  28.863  34.586  1.00  0.00     0.037 A 
ATOM     53  C   UNL A   1      38.483  31.922  31.221  1.00  0.00     0.037 A 
ATOM     54  C   UNL A   1      43.134  29.862  35.344  1.00  0.00     0.049 A 
ATOM     55  C   UNL A   1      38.830  32.258  32.654  1.00  0.00     0.074 A 
ATOM     56  C   UNL A   1      43.393  30.312  36.625  1.00  0.00     0.029 A 
ATOM     57  N   UNL A   1      42.030  30.568  34.887  1.00  0.00    -0.354 N 
ATOM     58  N   UNL A   1      39.814  31.804  33.397  1.00  0.00    -0.248 NA
ATOM     59  C   UNL A   1      37.968  33.232  33.340  1.00  0.00     0.031 C 
ATOM     60  C   UNL A   1      42.415  31.251  36.964  1.00  0.00     0.029 A 
ATOM     61  C   UNL A   1      41.588  31.439  35.869  1.00  0.00     0.049 A 
ATOM     62  H   UNL A   1      41.622  30.465  33.997  1.00  0.00     0.167 HD
ATOM     63  C   UNL A   1      39.709  32.466  34.619  1.00  0.00     0.074 A 
ATOM     64  C   UNL A   1      38.578  33.362  34.510  1.00  0.00     0.031 C 
ATOM     65  C   UNL A   1      40.475  32.344  35.731  1.00  0.00     0.037 A 
BRANCH  52  66
ATOM     66  C   UNL A   1      45.027  28.195  35.219  1.00  0.00     0.058 A 
ATOM     67  C   UNL A   1      44.897  27.012  35.965  1.00  0.00     0.135 A 
ATOM     68  C   UNL A   1      46.321  28.709  35.027  1.00  0.00     0.135 A 
ATOM     69  F   UNL A   1      43.682  26.493  36.203  1.00  0.00    -0.206 F 
ATOM     70  C   UNL A   1      46.005  26.366  36.501  1.00  0.00     0.059 A 
ATOM     71  C   UNL A   1      47.446  28.061  35.528  1.00  0.00     0.059 A 
ATOM     72  F   UNL A   1      46.502  29.843  34.332  1.00  0.00    -0.206 F 
ATOM     73  C   UNL A   1      47.277  26.892  36.267  1.00  0.00     0.060 A 
BRANCH  73  74
ATOM     74  S   UNL A   1      48.706  26.010  36.930  1.00  0.00     0.124 S 
ATOM     75  O   UNL A   1      49.807  26.859  36.484  1.00  0.00    -0.237 OA
ATOM     76  O   UNL A   1      48.438  26.023  38.364  1.00  0.00    -0.237 OA
ATOM     77  O   UNL A   1      48.626  24.701  36.289  1.00  0.00    -0.744 OA
ENDBRANCH  73  74
ENDBRANCH  52  66
BRANCH  53  78
ATOM     78  C   UNL A   1      37.287  32.534  30.574  1.00  0.00     0.058 A 
ATOM     79  C   UNL A   1      37.404  33.630  29.705  1.00  0.00     0.135 A 
ATOM     80  C   UNL A   1      35.992  32.069  30.858  1.00  0.00     0.135 A 
ATOM     81  F   UNL A   1      38.615  34.124  29.407  1.00  0.00    -0.206 F 
ATOM     82  C   UNL A   1      36.285  34.268  29.177  1.00  0.00     0.059 A 
ATOM     83  C   UNL A   1      34.860  32.665  30.312  1.00  0.00     0.059 A 
ATOM     84  F   UNL A   1      35.819  31.019  31.677  1.00  0.00    -0.206 F 
ATOM     85  C   UNL A   1      35.016  33.778  29.489  1.00  0.00     0.060 A 
BRANCH  85  86
ATOM     86  S   UNL A   1      33.571  34.612  28.795  1.00  0.00     0.124 S 
ATOM     87  O   UNL A   1      34.165  35.833  28.263  1.00  0.00    -0.237 OA
ATOM     88  O   UNL A   1      33.107  33.644  27.807  1.00  0.00    -0.237 OA
ATOM     89  O   UNL A   1      32.697  34.788  29.951  1.00  0.00    -0.744 OA
ENDBRANCH  85  86
ENDBRANCH  53  78
BRANCH  65  90
ATOM     90  C   UNL A   1      40.166  33.244  36.900  1.00  0.00     0.058 A 
ATOM     91  C   UNL A   1      40.862  34.441  37.124  1.00  0.00     0.135 A 
ATOM     92  C   UNL A   1      39.112  32.927  37.774  1.00  0.00     0.135 A 
ATOM     93  F   UNL A   1      41.880  34.792  36.324  1.00  0.00    -0.206 F 
ATOM     94  C   UNL A   1      40.545  35.277  38.191  1.00  0.00     0.059 A 
ATOM     95  C   UNL A   1      38.753  33.766  38.824  1.00  0.00     0.059 A 
ATOM     96  F   UNL A   1      38.402  31.801  37.599  1.00  0.00    -0.206 F 
ATOM     97  C   UNL A   1      39.485  34.933  39.032  1.00  0.00     0.060 A 
BRANCH  97  98
ATOM     98  S   UNL A   1      39.063  36.046  40.390  1.00  0.00     0.124 S 
ATOM     99  O   UNL A   1      38.626  37.237  39.669  1.00  0.00    -0.237 OA
ATOM    100  O   UNL A   1      38.014  35.304  41.084  1.00  0.00    -0.237 OA
ATOM    101  O   UNL A   1      40.317  36.182  41.123  1.00  0.00    -0.744 OA
ENDBRANCH  97  98
ENDBRANCH  65  90
ENDBRANCH  39  40
ENDBRANCH  32  34
ENDBRANCH  31  32
ENDBRANCH  30  31
ENDBRANCH  29  30
ENDBRANCH  28  29
ENDBRANCH  27  28
ENDBRANCH   1  27
TORSDOF 23
ENDMDL
MODEL 2
REMARK VINA RESULT:     -10.0      1.294      8.127
REMARK SMILES C[C@H]1CCC[C@@](NC(=O)N2CCO[C@H](C#N)C2)(C(=O)OCCOCCOCCOC(=O)c2ccc(-c3c4nc(c(-c5c(F)cc(S(=O)(=O)[O-])cc5F)c5ccc([nH]5)c(-c5c(F)cc(S(=O)(=O)[O-])cc5F)c5nc(c(-c6c(F)cc(S(=O)(=O)[O-])cc6F)c6ccc3[nH]6)C=C5)C=C4)cc2)C1
REMARK SMILES IDX 24 1 23 2 22 3 21 4 20 5 18 6 19 7 6 8 1 9 2 10 3 11 98 12
REMARK SMILES IDX 4 13 5 14 7 15 8 16 9 18 10 19 11 20 17 21 12 22 14 23 13 24
REMARK SMILES IDX 15 25 16 26 25 27 26 28 27 29 28 30 29 31 30 32 31 33 32 34
REMARK SMILES IDX 33 35 97 36 34 37 96 38 35 39 36 40 37 41 90 42 38 43 95 44
REMARK SMILES IDX 89 45 91 46 39 47 94 48 88 49 87 50 40 52 74 53 53 54 73 55
REMARK SMILES IDX 54 56 57 57 72 58 92 59 55 60 56 61 71 63 93 64 58 65 41 66
REMARK SMILES IDX 42 67 51 68 43 69 44 70 50 71 52 72 45 73 46 74 47 75 48 76
REMARK SMILES IDX 49 77 75 78 76 79 85 80 77 81 78 82 84 83 86 84 79 85 80 86
REMARK SMILES IDX 81 87 82 88 83 89 59 90 60 91 69 92 61 93 62 94 68 95 70 96
REMARK SMILES IDX 63 97 64 98 65 99 66 100 67 101
REMARK H PARENT 7 17 91 51 57 62
REMARK Flexibility Score: inf
ROOT
ATOM      1  C   UNL A   1      39.687  22.629  26.565  1.00  0.00     0.188 C 
ENDROOT
BRANCH   1   2
ATOM      2  O   UNL A   1      38.355  22.895  26.174  1.00  0.00    -0.376 OA
BRANCH   2   3
ATOM      3  C   UNL A   1      37.765  21.897  25.365  1.00  0.00     0.202 C 
BRANCH   3   4
ATOM      4  C   UNL A   1      37.049  22.333  24.068  1.00  0.00     0.261 C 
BRANCH   4   5
ATOM      5  O   UNL A   1      35.694  22.850  24.025  1.00  0.00    -0.461 OA
BRANCH   5   6
ATOM      6  C   UNL A   1      35.165  23.802  24.835  1.00  0.00     0.331 C 
ATOM      7  O   UNL A   1      35.606  24.082  25.940  1.00  0.00    -0.249 OA
BRANCH   6   8
ATOM      8  C   UNL A   1      33.877  24.436  24.234  1.00  0.00     0.139 C 
ATOM      9  C   UNL A   1      33.414  28.328  23.636  1.00  0.00     0.008 C 
ATOM     10  C   UNL A   1      33.131  26.835  23.456  1.00  0.00    -0.011 C 
ATOM     11  C   UNL A   1      33.308  26.431  21.996  1.00  0.00     0.003 C 
ATOM     12  C   UNL A   1      34.056  25.987  24.347  1.00  0.00     0.044 C 
ATOM     13  C   UNL A   1      32.925  24.969  21.821  1.00  0.00     0.003 C 
ATOM     14  C   UNL A   1      33.716  24.026  22.734  1.00  0.00     0.040 C 
BRANCH   8  15
ATOM     15  N   UNL A   1      32.696  24.067  25.073  1.00  0.00    -0.322 N 
ATOM     16  C   UNL A   1      31.839  23.019  24.928  1.00  0.00     0.318 C 
ATOM     17  H   UNL A   1      32.512  24.663  25.835  1.00  0.00     0.166 HD
ATOM     18  O   UNL A   1      30.634  23.261  24.864  1.00  0.00    -0.249 OA
BRANCH  16  19
ATOM     19  N   UNL A   1      32.322  21.730  24.910  1.00  0.00    -0.319 N 
ATOM     20  C   UNL A   1      33.200  21.308  26.006  1.00  0.00     0.150 C 
ATOM     21  C   UNL A   1      32.540  20.925  23.680  1.00  0.00     0.169 C 
ATOM     22  C   UNL A   1      33.193  19.786  26.225  1.00  0.00     0.183 C 
ATOM     23  C   UNL A   1      32.388  19.436  24.023  1.00  0.00     0.240 C 
ATOM     24  O   UNL A   1      33.381  19.049  25.005  1.00  0.00    -0.360 OA
BRANCH  23  25
ATOM     25  C   UNL A   1      32.397  18.543  22.852  1.00  0.00     0.096 C 
ATOM     26  N   UNL A   1      32.390  17.774  21.987  1.00  0.00    -0.195 NA
ENDBRANCH  23  25
ENDBRANCH  16  19
ENDBRANCH   8  15
ENDBRANCH   6   8
ENDBRANCH   5   6
ENDBRANCH   4   5
ENDBRANCH   3   4
ENDBRANCH   2   3
ENDBRANCH   1   2
BRANCH   1  27
ATOM     27  C   UNL A   1      40.121  21.200  26.219  1.00  0.00     0.188 C 
BRANCH  27  28
ATOM     28  O   UNL A   1      41.494  20.854  26.186  1.00  0.00    -0.376 OA
BRANCH  28  29
ATOM     29  C   UNL A   1      42.404  21.581  26.998  1.00  0.00     0.202 C 
BRANCH  29  30
ATOM     30  C   UNL A   1      43.206  22.790  26.465  1.00  0.00     0.261 C 
BRANCH  30  31
ATOM     31  O   UNL A   1      43.493  23.876  27.362  1.00  0.00    -0.460 OA
BRANCH  31  32
ATOM     32  C   UNL A   1      43.539  25.123  26.824  1.00  0.00     0.338 C 
ATOM     33  O   UNL A   1      43.830  25.398  25.673  1.00  0.00    -0.246 OA
BRANCH  32  34
ATOM     34  C   UNL A   1      42.904  26.086  27.773  1.00  0.00     0.060 A 
ATOM     35  C   UNL A   1      43.506  27.346  27.969  1.00  0.00     0.016 A 
ATOM     36  C   UNL A   1      41.721  25.776  28.443  1.00  0.00     0.016 A 
ATOM     37  C   UNL A   1      42.950  28.280  28.841  1.00  0.00     0.010 A 
ATOM     38  C   UNL A   1      41.201  26.687  29.373  1.00  0.00     0.010 A 
ATOM     39  C   UNL A   1      41.839  27.921  29.606  1.00  0.00    -0.014 A 
BRANCH  39  40
ATOM     40  C   UNL A   1      41.550  28.682  30.847  1.00  0.00     0.031 A 
ATOM     41  C   UNL A   1      40.407  29.664  30.800  1.00  0.00     0.074 A 
ATOM     42  C   UNL A   1      42.233  28.489  31.989  1.00  0.00     0.049 A 
ATOM     43  N   UNL A   1      40.020  30.538  31.690  1.00  0.00    -0.248 NA
ATOM     44  C   UNL A   1      39.591  29.658  29.571  1.00  0.00     0.031 C 
ATOM     45  C   UNL A   1      43.305  27.514  32.184  1.00  0.00     0.029 A 
ATOM     46  N   UNL A   1      42.134  29.127  33.202  1.00  0.00    -0.354 N 
ATOM     47  C   UNL A   1      38.927  31.188  31.129  1.00  0.00     0.074 A 
ATOM     48  C   UNL A   1      38.731  30.636  29.807  1.00  0.00     0.031 C 
ATOM     49  C   UNL A   1      43.791  27.648  33.432  1.00  0.00     0.029 A 
ATOM     50  C   UNL A   1      43.094  28.742  34.108  1.00  0.00     0.049 A 
ATOM     51  H   UNL A   1      41.441  29.798  33.403  1.00  0.00     0.167 HD
ATOM     52  C   UNL A   1      38.147  32.151  31.670  1.00  0.00     0.037 A 
ATOM     53  C   UNL A   1      43.400  29.249  35.320  1.00  0.00     0.037 A 
ATOM     54  C   UNL A   1      38.351  32.699  32.983  1.00  0.00     0.049 A 
ATOM     55  C   UNL A   1      42.583  30.399  35.863  1.00  0.00     0.074 A 
ATOM     56  C   UNL A   1      37.633  33.693  33.621  1.00  0.00     0.029 A 
ATOM     57  N   UNL A   1      39.348  32.297  33.861  1.00  0.00    -0.354 N 
ATOM     58  N   UNL A   1      41.557  31.015  35.322  1.00  0.00    -0.248 NA
ATOM     59  C   UNL A   1      42.961  30.923  37.184  1.00  0.00     0.031 C 
ATOM     60  C   UNL A   1      38.227  33.931  34.864  1.00  0.00     0.029 A 
ATOM     61  C   UNL A   1      39.272  33.036  35.030  1.00  0.00     0.049 A 
ATOM     62  H   UNL A   1      40.010  31.592  33.680  1.00  0.00     0.167 HD
ATOM     63  C   UNL A   1      41.147  31.968  36.252  1.00  0.00     0.074 A 
ATOM     64  C   UNL A   1      42.023  31.836  37.396  1.00  0.00     0.031 C 
ATOM     65  C   UNL A   1      40.139  32.871  36.170  1.00  0.00     0.037 A 
BRANCH  52  66
ATOM     66  C   UNL A   1      37.011  32.686  30.842  1.00  0.00     0.058 A 
ATOM     67  C   UNL A   1      35.694  32.231  31.018  1.00  0.00     0.135 A 
ATOM     68  C   UNL A   1      37.230  33.709  29.905  1.00  0.00     0.135 A 
ATOM     69  F   UNL A   1      35.431  31.235  31.879  1.00  0.00    -0.206 F 
ATOM     70  C   UNL A   1      34.637  32.767  30.291  1.00  0.00     0.059 A 
ATOM     71  C   UNL A   1      36.183  34.282  29.189  1.00  0.00     0.059 A 
ATOM     72  F   UNL A   1      38.471  34.173  29.689  1.00  0.00    -0.206 F 
ATOM     73  C   UNL A   1      34.890  33.801  29.387  1.00  0.00     0.060 A 
BRANCH  73  74
ATOM     74  S   UNL A   1      33.496  34.517  28.490  1.00  0.00     0.124 S 
ATOM     75  O   UNL A   1      34.125  35.665  27.842  1.00  0.00    -0.237 OA
ATOM     76  O   UNL A   1      33.106  33.426  27.605  1.00  0.00    -0.237 OA
ATOM     77  O   UNL A   1      32.541  34.840  29.546  1.00  0.00    -0.744 OA
ENDBRANCH  73  74
ENDBRANCH  52  66
BRANCH  53  78
ATOM     78  C   UNL A   1      44.560  28.719  36.095  1.00  0.00     0.058 A 
ATOM     79  C   UNL A   1      45.862  29.196  35.883  1.00  0.00     0.135 A 
ATOM     80  C   UNL A   1      44.394  27.679  37.025  1.00  0.00     0.135 A 
ATOM     81  F   UNL A   1      46.081  30.179  34.997  1.00  0.00    -0.206 F 
ATOM     82  C   UNL A   1      46.960  28.636  36.530  1.00  0.00     0.059 A 
ATOM     83  C   UNL A   1      45.472  27.130  37.714  1.00  0.00     0.059 A 
ATOM     84  F   UNL A   1      43.170  27.187  37.275  1.00  0.00    -0.206 F 
ATOM     85  C   UNL A   1      46.754  27.601  37.443  1.00  0.00     0.060 A 
BRANCH  85  86
ATOM     86  S   UNL A   1      48.187  26.886  38.279  1.00  0.00     0.124 S 
ATOM     87  O   UNL A   1      48.336  27.779  39.422  1.00  0.00    -0.237 OA
ATOM     88  O   UNL A   1      47.721  25.536  38.580  1.00  0.00    -0.237 OA
ATOM     89  O   UNL A   1      49.240  26.970  37.272  1.00  0.00    -0.744 OA
ENDBRANCH  85  86
ENDBRANCH  53  78
BRANCH  65  90
ATOM     90  C   UNL A   1      39.879  33.746  37.369  1.00  0.00     0.058 A 
ATOM     91  C   UNL A   1      38.976  33.379  38.379  1.00  0.00     0.135 A 
ATOM     92  C   UNL A   1      40.594  34.944  37.536  1.00  0.00     0.135 A 
ATOM     93  F   UNL A   1      38.263  32.247  38.270  1.00  0.00    -0.206 F 
ATOM     94  C   UNL A   1      38.768  34.183  39.495  1.00  0.00     0.059 A 
ATOM     95  C   UNL A   1      40.431  35.745  38.662  1.00  0.00     0.059 A 
ATOM     96  F   UNL A   1      41.481  35.338  36.609  1.00  0.00    -0.206 F 
ATOM     97  C   UNL A   1      39.505  35.361  39.630  1.00  0.00     0.060 A 
BRANCH  97  98
ATOM     98  S   UNL A   1      39.251  36.375  41.103  1.00  0.00     0.124 S 
ATOM     99  O   UNL A   1      38.272  35.583  41.841  1.00  0.00    -0.237 OA
ATOM    100  O   UNL A   1      40.592  36.425  41.679  1.00  0.00    -0.237 OA
ATOM    101  O   UNL A   1      38.758  37.640  40.567  1.00  0.00    -0.744 OA
ENDBRANCH  97  98
ENDBRANCH  65  90
ENDBRANCH  39  40
ENDBRANCH  32  34
ENDBRANCH  31  32
ENDBRANCH  30  31
ENDBRANCH  29  30
ENDBRANCH  28  29
ENDBRANCH  27  28
ENDBRANCH   1  27
TORSDOF 23
ENDMDL
MODEL 3
REMARK VINA RESULT:     -10.0      5.905     11.529
REMARK SMILES C[C@H]1CCC[C@@](NC(=O)N2CCO[C@H](C#N)C2)(C(=O)OCCOCCOCCOC(=O)c2ccc(-c3c4nc(c(-c5c(F)cc(S(=O)(=O)[O-])cc5F)c5ccc([nH]5)c(-c5c(F)cc(S(=O)(=O)[O-])cc5F)c5nc(c(-c6c(F)cc(S(=O)(=O)[O-])cc6F)c6ccc3[nH]6)C=C5)C=C4)cc2)C1
REMARK SMILES IDX 24 1 23 2 22 3 21 4 20 5 18 6 19 7 6 8 1 9 2 10 3 11 98 12
REMARK SMILES IDX 4 13 5 14 7 15 8 16 9 18 10 19 11 20 17 21 12 22 14 23 13 24
REMARK SMILES IDX 15 25 16 26 25 27 26 28 27 29 28 30 29 31 30 32 31 33 32 34
REMARK SMILES IDX 33 35 97 36 34 37 96 38 35 39 36 40 37 41 90 42 38 43 95 44
REMARK SMILES IDX 89 45 91 46 39 47 94 48 88 49 87 50 40 52 74 53 53 54 73 55
REMARK SMILES IDX 54 56 57 57 72 58 92 59 55 60 56 61 71 63 93 64 58 65 41 66
REMARK SMILES IDX 42 67 51 68 43 69 44 70 50 71 52 72 45 73 46 74 47 75 48 76
REMARK SMILES IDX 49 77 75 78 76 79 85 80 77 81 78 82 84 83 86 84 79 85 80 86
REMARK SMILES IDX 81 87 82 88 83 89 59 90 60 91 69 92 61 93 62 94 68 95 70 96
REMARK SMILES IDX 63 97 64 98 65 99 66 100 67 101
REMARK H PARENT 7 17 91 51 57 62
REMARK Flexibility Score: inf
ROOT
ATOM      1  C   UNL A   1      35.287  32.048  28.066  1.00  0.00     0.188 C 
ENDROOT
BRANCH   1   2
ATOM      2  O   UNL A   1      34.383  31.218  27.365  1.00  0.00    -0.376 OA
BRANCH   2   3
ATOM      3  C   UNL A   1      34.621  29.832  27.507  1.00  0.00     0.202 C 
BRANCH   3   4
ATOM      4  C   UNL A   1      33.508  28.850  27.079  1.00  0.00     0.261 C 
BRANCH   4   5
ATOM      5  O   UNL A   1      33.759  27.528  26.535  1.00  0.00    -0.461 OA
BRANCH   5   6
ATOM      6  C   UNL A   1      33.559  27.128  25.254  1.00  0.00     0.331 C 
ATOM      7  O   UNL A   1      34.080  27.658  24.283  1.00  0.00    -0.249 OA
BRANCH   6   8
ATOM      8  C   UNL A   1      32.518  25.975  25.153  1.00  0.00     0.139 C 
ATOM      9  C   UNL A   1      28.800  26.476  23.873  1.00  0.00     0.008 C 
ATOM     10  C   UNL A   1      30.076  25.705  24.218  1.00  0.00    -0.011 C 
ATOM     11  C   UNL A   1      30.614  24.986  22.984  1.00  0.00     0.003 C 
ATOM     12  C   UNL A   1      31.153  26.647  24.783  1.00  0.00     0.044 C 
ATOM     13  C   UNL A   1      31.822  24.146  23.369  1.00  0.00     0.003 C 
ATOM     14  C   UNL A   1      32.934  24.962  24.037  1.00  0.00     0.040 C 
BRANCH   8  15
ATOM     15  N   UNL A   1      32.346  25.335  26.493  1.00  0.00    -0.322 N 
ATOM     16  C   UNL A   1      32.255  24.012  26.803  1.00  0.00     0.318 C 
ATOM     17  H   UNL A   1      32.288  25.954  27.256  1.00  0.00     0.166 HD
ATOM     18  O   UNL A   1      31.280  23.635  27.451  1.00  0.00    -0.249 OA
BRANCH  16  19
ATOM     19  N   UNL A   1      33.261  23.147  26.438  1.00  0.00    -0.319 N 
ATOM     20  C   UNL A   1      32.929  21.726  26.292  1.00  0.00     0.150 C 
ATOM     21  C   UNL A   1      34.703  23.354  26.732  1.00  0.00     0.169 C 
ATOM     22  C   UNL A   1      33.889  20.982  25.351  1.00  0.00     0.183 C 
ATOM     23  C   UNL A   1      35.540  22.657  25.649  1.00  0.00     0.240 C 
ATOM     24  O   UNL A   1      35.272  21.232  25.656  1.00  0.00    -0.360 OA
BRANCH  23  25
ATOM     25  C   UNL A   1      36.982  22.944  25.722  1.00  0.00     0.096 C 
ATOM     26  N   UNL A   1      38.103  23.195  25.863  1.00  0.00    -0.195 NA
ENDBRANCH  23  25
ENDBRANCH  16  19
ENDBRANCH   8  15
ENDBRANCH   6   8
ENDBRANCH   5   6
ENDBRANCH   4   5
ENDBRANCH   3   4
ENDBRANCH   2   3
ENDBRANCH   1   2
BRANCH   1  27
ATOM     27  C   UNL A   1      34.896  32.224  29.538  1.00  0.00     0.188 C 
BRANCH  27  28
ATOM     28  O   UNL A   1      35.652  33.069  30.386  1.00  0.00    -0.376 OA
BRANCH  28  29
ATOM     29  C   UNL A   1      36.427  32.485  31.423  1.00  0.00     0.202 C 
BRANCH  29  30
ATOM     30  C   UNL A   1      36.032  31.155  32.103  1.00  0.00     0.261 C 
BRANCH  30  31
ATOM     31  O   UNL A   1      36.521  29.923  31.546  1.00  0.00    -0.460 OA
BRANCH  31  32
ATOM     32  C   UNL A   1      37.442  29.240  32.275  1.00  0.00     0.338 C 
ATOM     33  O   UNL A   1      37.205  28.412  33.137  1.00  0.00    -0.246 OA
BRANCH  32  34
ATOM     34  C   UNL A   1      38.791  29.444  31.666  1.00  0.00     0.060 A 
ATOM     35  C   UNL A   1      38.877  29.773  30.298  1.00  0.00     0.016 A 
ATOM     36  C   UNL A   1      39.955  29.345  32.425  1.00  0.00     0.016 A 
ATOM     37  C   UNL A   1      40.112  29.977  29.685  1.00  0.00     0.010 A 
ATOM     38  C   UNL A   1      41.199  29.480  31.794  1.00  0.00     0.010 A 
ATOM     39  C   UNL A   1      41.280  29.753  30.414  1.00  0.00    -0.014 A 
BRANCH  39  40
ATOM     40  C   UNL A   1      42.541  29.486  29.678  1.00  0.00     0.031 A 
ATOM     41  C   UNL A   1      42.713  28.108  29.089  1.00  0.00     0.074 A 
ATOM     42  C   UNL A   1      43.483  30.427  29.491  1.00  0.00     0.049 A 
ATOM     43  N   UNL A   1      43.755  27.571  28.512  1.00  0.00    -0.248 NA
ATOM     44  C   UNL A   1      41.545  27.212  29.171  1.00  0.00     0.031 C 
ATOM     45  C   UNL A   1      43.397  31.815  29.940  1.00  0.00     0.029 A 
ATOM     46  N   UNL A   1      44.713  30.344  28.885  1.00  0.00    -0.354 N 
ATOM     47  C   UNL A   1      43.372  26.280  28.170  1.00  0.00     0.074 A 
ATOM     48  C   UNL A   1      42.016  26.096  28.636  1.00  0.00     0.031 C 
ATOM     49  C   UNL A   1      44.546  32.444  29.629  1.00  0.00     0.029 A 
ATOM     50  C   UNL A   1      45.461  31.493  28.996  1.00  0.00     0.049 A 
ATOM     51  H   UNL A   1      45.029  29.538  28.415  1.00  0.00     0.167 HD
ATOM     52  C   UNL A   1      44.082  25.333  27.516  1.00  0.00     0.037 A 
ATOM     53  C   UNL A   1      46.747  31.730  28.666  1.00  0.00     0.037 A 
ATOM     54  C   UNL A   1      45.433  25.521  27.060  1.00  0.00     0.049 A 
ATOM     55  C   UNL A   1      47.558  30.622  28.033  1.00  0.00     0.074 A 
ATOM     56  C   UNL A   1      46.252  24.620  26.406  1.00  0.00     0.029 A 
ATOM     57  N   UNL A   1      46.162  26.691  27.211  1.00  0.00    -0.354 N 
ATOM     58  N   UNL A   1      47.192  29.400  27.722  1.00  0.00    -0.248 NA
ATOM     59  C   UNL A   1      48.959  30.925  27.699  1.00  0.00     0.031 C 
ATOM     60  C   UNL A   1      47.496  25.227  26.208  1.00  0.00     0.029 A 
ATOM     61  C   UNL A   1      47.429  26.529  26.676  1.00  0.00     0.049 A 
ATOM     62  H   UNL A   1      45.829  27.514  27.636  1.00  0.00     0.167 HD
ATOM     63  C   UNL A   1      48.302  28.806  27.124  1.00  0.00     0.074 A 
ATOM     64  C   UNL A   1      49.346  29.808  27.101  1.00  0.00     0.031 C 
ATOM     65  C   UNL A   1      48.447  27.549  26.638  1.00  0.00     0.037 A 
BRANCH  52  66
ATOM     66  C   UNL A   1      43.422  24.005  27.264  1.00  0.00     0.058 A 
ATOM     67  C   UNL A   1      42.951  23.646  25.991  1.00  0.00     0.135 A 
ATOM     68  C   UNL A   1      43.313  23.055  28.293  1.00  0.00     0.135 A 
ATOM     69  F   UNL A   1      43.004  24.525  24.977  1.00  0.00    -0.206 F 
ATOM     70  C   UNL A   1      42.393  22.396  25.749  1.00  0.00     0.059 A 
ATOM     71  C   UNL A   1      42.786  21.787  28.066  1.00  0.00     0.059 A 
ATOM     72  F   UNL A   1      43.737  23.350  29.533  1.00  0.00    -0.206 F 
ATOM     73  C   UNL A   1      42.325  21.469  26.790  1.00  0.00     0.060 A 
BRANCH  73  74
ATOM     74  S   UNL A   1      41.643  19.835  26.441  1.00  0.00     0.124 S 
ATOM     75  O   UNL A   1      42.354  19.476  25.217  1.00  0.00    -0.237 OA
ATOM     76  O   UNL A   1      42.018  19.083  27.634  1.00  0.00    -0.237 OA
ATOM     77  O   UNL A   1      40.214  20.087  26.284  1.00  0.00    -0.744 OA
ENDBRANCH  73  74
ENDBRANCH  52  66
BRANCH  53  78
ATOM     78  C   UNL A   1      47.379  33.047  28.968  1.00  0.00     0.058 A 
ATOM     79  C   UNL A   1      47.406  34.081  28.020  1.00  0.00     0.135 A 
ATOM     80  C   UNL A   1      48.023  33.276  30.195  1.00  0.00     0.135 A 
ATOM     81  F   UNL A   1      46.818  33.913  26.826  1.00  0.00    -0.206 F 
ATOM     82  C   UNL A   1      48.081  35.275  28.259  1.00  0.00     0.059 A 
ATOM     83  C   UNL A   1      48.671  34.476  30.472  1.00  0.00     0.059 A 
ATOM     84  F   UNL A   1      48.025  32.326  31.143  1.00  0.00    -0.206 F 
ATOM     85  C   UNL A   1      48.713  35.462  29.490  1.00  0.00     0.060 A 
BRANCH  85  86
ATOM     86  S   UNL A   1      49.582  37.017  29.789  1.00  0.00     0.124 S 
ATOM     87  O   UNL A   1      48.475  37.963  29.862  1.00  0.00    -0.237 OA
ATOM     88  O   UNL A   1      50.271  36.743  31.046  1.00  0.00    -0.237 OA
ATOM     89  O   UNL A   1      50.447  37.148  28.621  1.00  0.00    -0.744 OA
ENDBRANCH  85  86
ENDBRANCH  53  78
BRANCH  65  90
ATOM     90  C   UNL A   1      49.756  27.196  25.980  1.00  0.00     0.058 A 
ATOM     91  C   UNL A   1      50.879  26.793  26.719  1.00  0.00     0.135 A 
ATOM     92  C   UNL A   1      49.865  27.205  24.578  1.00  0.00     0.135 A 
ATOM     93  F   UNL A   1      50.833  26.769  28.060  1.00  0.00    -0.206 F 
ATOM     94  C   UNL A   1      52.072  26.441  26.095  1.00  0.00     0.059 A 
ATOM     95  C   UNL A   1      51.035  26.821  23.932  1.00  0.00     0.059 A 
ATOM     96  F   UNL A   1      48.818  27.568  23.820  1.00  0.00    -0.206 F 
ATOM     97  C   UNL A   1      52.138  26.453  24.700  1.00  0.00     0.060 A 
BRANCH  97  98
ATOM     98  S   UNL A   1      53.681  25.959  23.904  1.00  0.00     0.124 S 
ATOM     99  O   UNL A   1      53.771  24.553  24.284  1.00  0.00    -0.237 OA
ATOM    100  O   UNL A   1      53.401  26.219  22.495  1.00  0.00    -0.237 OA
ATOM    101  O   UNL A   1      54.676  26.837  24.512  1.00  0.00    -0.744 OA
ENDBRANCH  97  98
ENDBRANCH  65  90
ENDBRANCH  39  40
ENDBRANCH  32  34
ENDBRANCH  31  32
ENDBRANCH  30  31
ENDBRANCH  29  30
ENDBRANCH  28  29
ENDBRANCH  27  28
ENDBRANCH   1  27
TORSDOF 23
ENDMDL
