MODEL 1
REMARK VINA RESULT:     -11.8      0.000      0.000
REMARK SMILES Cc1cccc(-c2ncc(C[NH+]3CCC4(CC3)NC(=O)C[C@H]4C(=O)OCCOCCOCCOC(=O)c3ccc(-c4c5nc(c(-c6c(F)cc(S(=O)(=O)[O-])cc6F)c6ccc([nH]6)c(-c6c(F)cc(S(=O)(=O)[O-])cc6F)c6nc(c(-c7c(F)cc(S(=O)(=O)[O-])cc7F)c7ccc4[nH]7)C=C6)C=C5)cc3)cn2)c1
REMARK SMILES IDX 29 1 28 2 27 3 26 4 25 5 23 6 24 7 22 8 12 9 13 10 17 11
REMARK SMILES IDX 14 13 16 14 15 15 18 16 19 17 21 19 20 20 11 21 10 22 7 23
REMARK SMILES IDX 8 24 104 25 9 26 103 27 6 28 1 29 2 30 3 31 105 32 4 33 5 34
REMARK SMILES IDX 30 35 31 36 32 37 33 38 34 39 35 40 36 41 37 42 38 43 102 44
REMARK SMILES IDX 39 45 101 46 40 47 41 48 42 49 95 50 43 51 100 52 94 53
REMARK SMILES IDX 96 54 44 55 99 56 93 57 92 58 45 60 79 61 58 62 78 63 59 64
REMARK SMILES IDX 62 65 77 66 97 67 60 68 61 69 76 71 98 72 63 73 46 74 47 75
REMARK SMILES IDX 56 76 48 77 49 78 55 79 57 80 50 81 51 82 52 83 53 84 54 85
REMARK SMILES IDX 80 86 81 87 90 88 82 89 83 90 89 91 91 92 84 93 85 94 86 95
REMARK SMILES IDX 87 96 88 97 64 98 65 99 74 100 66 101 67 102 73 103 75 104
REMARK SMILES IDX 68 105 69 106 70 107 71 108 72 109
REMARK H PARENT 12 12 18 18 96 59 62 70
REMARK Flexibility Score: inf
ROOT
ATOM      1  C   UNL A   1      38.131  29.424  30.159  1.00  0.00     0.188 C 
ENDROOT
BRANCH   1   2
ATOM      2  O   UNL A   1      37.361  29.016  28.997  1.00  0.00    -0.376 OA
BRANCH   2   3
ATOM      3  C   UNL A   1      36.821  29.730  27.848  1.00  0.00     0.202 C 
BRANCH   3   4
ATOM      4  C   UNL A   1      35.273  29.758  26.941  1.00  0.00     0.261 C 
BRANCH   4   5
ATOM      5  O   UNL A   1      33.704  28.781  26.708  1.00  0.00    -0.463 OA
BRANCH   5   6
ATOM      6  C   UNL A   1      32.213  28.721  26.261  1.00  0.00     0.311 C 
ATOM      7  O   UNL A   1      31.180  28.969  26.913  1.00  0.00    -0.252 OA
BRANCH   6   8
ATOM      8  C   UNL A   1      31.826  28.660  24.852  1.00  0.00     0.134 C 
ATOM      9  N   UNL A   1      34.150  24.402  23.601  1.00  0.00    -0.331 N 
ATOM     10  C   UNL A   1      34.070  25.855  22.753  1.00  0.00     0.264 C 
ATOM     11  C   UNL A   1      33.811  24.803  25.455  1.00  0.00     0.264 C 
ATOM     12  H   UNL A   1      35.039  23.903  23.638  1.00  0.00     0.348 HD
ATOM     13  C   UNL A   1      32.708  27.059  22.841  1.00  0.00     0.091 C 
ATOM     14  C   UNL A   1      31.940  25.969  25.825  1.00  0.00     0.091 C 
ATOM     15  C   UNL A   1      31.619  27.267  24.359  1.00  0.00     0.064 C 
ATOM     16  N   UNL A   1      30.278  27.415  23.849  1.00  0.00    -0.349 N 
ATOM     17  C   UNL A   1      29.798  28.716  23.787  1.00  0.00     0.221 C 
ATOM     18  H   UNL A   1      29.737  26.642  23.563  1.00  0.00     0.164 HD
ATOM     19  C   UNL A   1      30.803  29.640  24.364  1.00  0.00     0.117 C 
ATOM     20  O   UNL A   1      28.738  29.057  23.293  1.00  0.00    -0.275 OA
BRANCH   9  21
ATOM     21  C   UNL A   1      33.012  23.362  22.728  1.00  0.00     0.302 C 
BRANCH  21  22
ATOM     22  C   UNL A   1      32.312  21.895  23.192  1.00  0.00     0.043 A 
ATOM     23  C   UNL A   1      32.447  19.216  24.103  1.00  0.00     0.159 A 
ATOM     24  N   UNL A   1      32.308  20.219  24.999  1.00  0.00    -0.236 NA
ATOM     25  N   UNL A   1      32.226  19.444  22.800  1.00  0.00    -0.236 NA
ATOM     26  C   UNL A   1      32.140  21.510  24.516  1.00  0.00     0.124 A 
ATOM     27  C   UNL A   1      32.113  20.766  22.396  1.00  0.00     0.124 A 
BRANCH  23  28
ATOM     28  C   UNL A   1      32.843  17.826  24.564  1.00  0.00     0.019 A 
ATOM     29  C   UNL A   1      36.045  15.798  25.448  1.00  0.00     0.044 C 
ATOM     30  C   UNL A   1      34.587  16.135  25.240  1.00  0.00    -0.050 A 
ATOM     31  C   UNL A   1      33.600  15.255  25.646  1.00  0.00     0.003 A 
ATOM     32  C   UNL A   1      34.183  17.377  24.697  1.00  0.00     0.015 A 
ATOM     33  C   UNL A   1      32.261  15.600  25.451  1.00  0.00     0.001 A 
ATOM     34  C   UNL A   1      31.892  16.854  24.909  1.00  0.00     0.012 A 
ENDBRANCH  23  28
ENDBRANCH  21  22
ENDBRANCH   9  21
ENDBRANCH   6   8
ENDBRANCH   5   6
ENDBRANCH   4   5
ENDBRANCH   3   4
ENDBRANCH   2   3
ENDBRANCH   1   2
BRANCH   1  35
ATOM     35  C   UNL A   1      37.682  29.161  31.606  1.00  0.00     0.188 C 
BRANCH  35  36
ATOM     36  O   UNL A   1      36.372  29.640  31.829  1.00  0.00    -0.376 OA
BRANCH  36  37
ATOM     37  C   UNL A   1      36.059  30.979  31.449  1.00  0.00     0.202 C 
BRANCH  37  38
ATOM     38  C   UNL A   1      36.108  32.147  32.470  1.00  0.00     0.261 C 
BRANCH  38  39
ATOM     39  O   UNL A   1      37.130  32.381  33.568  1.00  0.00    -0.460 OA
BRANCH  39  40
ATOM     40  C   UNL A   1      37.945  32.256  34.658  1.00  0.00     0.338 C 
ATOM     41  O   UNL A   1      37.352  31.940  35.680  1.00  0.00    -0.246 OA
BRANCH  40  42
ATOM     42  C   UNL A   1      39.555  32.560  34.587  1.00  0.00     0.060 A 
ATOM     43  C   UNL A   1      40.559  33.646  33.461  1.00  0.00     0.016 A 
ATOM     44  C   UNL A   1      39.925  31.034  34.517  1.00  0.00     0.016 A 
ATOM     45  C   UNL A   1      41.691  32.712  32.137  1.00  0.00     0.010 A 
ATOM     46  C   UNL A   1      40.883  30.340  33.352  1.00  0.00     0.010 A 
ATOM     47  C   UNL A   1      41.940  30.944  32.219  1.00  0.00    -0.014 A 
BRANCH  47  48
ATOM     48  C   UNL A   1      43.477  29.840  32.098  1.00  0.00     0.031 A 
ATOM     49  C   UNL A   1      43.749  28.236  31.074  1.00  0.00     0.074 A 
ATOM     50  C   UNL A   1      44.637  30.234  32.647  1.00  0.00     0.049 A 
ATOM     51  N   UNL A   1      43.920  27.012  31.553  1.00  0.00    -0.248 NA
ATOM     52  C   UNL A   1      43.195  27.870  29.535  1.00  0.00     0.031 C 
ATOM     53  C   UNL A   1      45.981  29.703  32.415  1.00  0.00     0.029 A 
ATOM     54  N   UNL A   1      44.856  31.284  33.523  1.00  0.00    -0.354 N 
ATOM     55  C   UNL A   1      43.680  26.064  30.501  1.00  0.00     0.074 A 
ATOM     56  C   UNL A   1      42.766  26.629  29.611  1.00  0.00     0.031 C 
ATOM     57  C   UNL A   1      46.793  30.175  33.383  1.00  0.00     0.029 A 
ATOM     58  C   UNL A   1      45.942  30.900  34.317  1.00  0.00     0.049 A 
ATOM     59  H   UNL A   1      44.350  32.128  33.576  1.00  0.00     0.167 HD
ATOM     60  C   UNL A   1      44.628  25.192  30.038  1.00  0.00     0.037 A 
ATOM     61  C   UNL A   1      45.641  30.542  35.596  1.00  0.00     0.037 A 
ATOM     62  C   UNL A   1      45.785  25.438  30.856  1.00  0.00     0.049 A 
ATOM     63  C   UNL A   1      45.865  29.051  35.731  1.00  0.00     0.074 A 
ATOM     64  C   UNL A   1      46.867  26.288  30.707  1.00  0.00     0.029 A 
ATOM     65  N   UNL A   1      45.604  25.245  32.206  1.00  0.00    -0.354 N 
ATOM     66  N   UNL A   1      45.714  28.166  34.772  1.00  0.00    -0.248 NA
ATOM     67  C   UNL A   1      46.523  28.495  36.907  1.00  0.00     0.031 C 
ATOM     68  C   UNL A   1      47.300  26.642  32.022  1.00  0.00     0.029 A 
ATOM     69  C   UNL A   1      46.474  26.013  32.942  1.00  0.00     0.049 A 
ATOM     70  H   UNL A   1      44.936  24.636  32.595  1.00  0.00     0.167 HD
ATOM     71  C   UNL A   1      46.285  26.979  35.158  1.00  0.00     0.074 A 
ATOM     72  C   UNL A   1      46.772  27.242  36.500  1.00  0.00     0.031 C 
ATOM     73  C   UNL A   1      46.415  25.861  34.382  1.00  0.00     0.037 A 
BRANCH  60  74
ATOM     74  C   UNL A   1      44.624  24.475  28.667  1.00  0.00     0.058 A 
ATOM     75  C   UNL A   1      43.747  23.393  28.458  1.00  0.00     0.135 A 
ATOM     76  C   UNL A   1      45.418  24.786  27.525  1.00  0.00     0.135 A 
ATOM     77  F   UNL A   1      42.889  23.008  29.414  1.00  0.00    -0.206 F 
ATOM     78  C   UNL A   1      43.684  22.661  27.263  1.00  0.00     0.059 A 
ATOM     79  C   UNL A   1      45.421  24.026  26.340  1.00  0.00     0.059 A 
ATOM     80  F   UNL A   1      46.188  25.882  27.470  1.00  0.00    -0.206 F 
ATOM     81  C   UNL A   1      44.533  22.974  26.209  1.00  0.00     0.060 A 
BRANCH  81  82
ATOM     82  S   UNL A   1      44.394  22.040  24.668  1.00  0.00     0.124 S 
ATOM     83  O   UNL A   1      43.978  20.723  25.139  1.00  0.00    -0.237 OA
ATOM     84  O   UNL A   1      43.382  22.802  23.943  1.00  0.00    -0.237 OA
ATOM     85  O   UNL A   1      45.741  22.097  24.106  1.00  0.00    -0.744 OA
ENDBRANCH  81  82
ENDBRANCH  60  74
BRANCH  61  86
ATOM     86  C   UNL A   1      44.551  31.443  36.140  1.00  0.00     0.058 A 
ATOM     87  C   UNL A   1      43.282  30.833  36.339  1.00  0.00     0.135 A 
ATOM     88  C   UNL A   1      44.804  32.599  36.899  1.00  0.00     0.135 A 
ATOM     89  F   UNL A   1      42.970  29.709  35.670  1.00  0.00    -0.206 F 
ATOM     90  C   UNL A   1      42.393  31.243  37.334  1.00  0.00     0.059 A 
ATOM     91  C   UNL A   1      43.911  33.040  37.895  1.00  0.00     0.059 A 
ATOM     92  F   UNL A   1      45.968  33.249  36.770  1.00  0.00    -0.206 F 
ATOM     93  C   UNL A   1      42.741  32.317  38.143  1.00  0.00     0.060 A 
BRANCH  93  94
ATOM     94  S   UNL A   1      41.686  32.669  39.575  1.00  0.00     0.124 S 
ATOM     95  O   UNL A   1      40.346  32.442  39.040  1.00  0.00    -0.237 OA
ATOM     96  O   UNL A   1      42.153  31.665  40.531  1.00  0.00    -0.237 OA
ATOM     97  O   UNL A   1      41.997  34.057  39.884  1.00  0.00    -0.744 OA
ENDBRANCH  93  94
ENDBRANCH  61  86
BRANCH  73  98
ATOM     98  C   UNL A   1      46.484  24.444  34.935  1.00  0.00     0.058 A 
ATOM     99  C   UNL A   1      45.389  23.791  35.518  1.00  0.00     0.135 A 
ATOM    100  C   UNL A   1      47.625  23.617  34.718  1.00  0.00     0.135 A 
ATOM    101  F   UNL A   1      44.192  24.381  35.642  1.00  0.00    -0.206 F 
ATOM    102  C   UNL A   1      45.464  22.483  35.981  1.00  0.00     0.059 A 
ATOM    103  C   UNL A   1      47.668  22.271  35.043  1.00  0.00     0.059 A 
ATOM    104  F   UNL A   1      48.762  24.074  34.174  1.00  0.00    -0.206 F 
ATOM    105  C   UNL A   1      46.609  21.735  35.744  1.00  0.00     0.060 A 
BRANCH 105 106
ATOM    106  S   UNL A   1      46.735  20.076  36.404  1.00  0.00     0.124 S 
ATOM    107  O   UNL A   1      46.524  19.281  35.198  1.00  0.00    -0.237 OA
ATOM    108  O   UNL A   1      48.088  20.051  36.951  1.00  0.00    -0.237 OA
ATOM    109  O   UNL A   1      45.663  20.023  37.393  1.00  0.00    -0.744 OA
ENDBRANCH 105 106
ENDBRANCH  73  98
ENDBRANCH  47  48
ENDBRANCH  40  42
ENDBRANCH  39  40
ENDBRANCH  38  39
ENDBRANCH  37  38
ENDBRANCH  36  37
ENDBRANCH  35  36
ENDBRANCH   1  35
TORSDOF 23
ENDMDL
MODEL 2
REMARK VINA RESULT:     -11.7      6.545      8.895
REMARK SMILES Cc1cccc(-c2ncc(C[NH+]3CCC4(CC3)NC(=O)C[C@H]4C(=O)OCCOCCOCCOC(=O)c3ccc(-c4c5nc(c(-c6c(F)cc(S(=O)(=O)[O-])cc6F)c6ccc([nH]6)c(-c6c(F)cc(S(=O)(=O)[O-])cc6F)c6nc(c(-c7c(F)cc(S(=O)(=O)[O-])cc7F)c7ccc4[nH]7)C=C6)C=C5)cc3)cn2)c1
REMARK SMILES IDX 29 1 28 2 27 3 26 4 25 5 23 6 24 7 22 8 12 9 13 10 17 11
REMARK SMILES IDX 14 13 16 14 15 15 18 16 19 17 21 19 20 20 11 21 10 22 7 23
REMARK SMILES IDX 8 24 104 25 9 26 103 27 6 28 1 29 2 30 3 31 105 32 4 33 5 34
REMARK SMILES IDX 30 35 31 36 32 37 33 38 34 39 35 40 36 41 37 42 38 43 102 44
REMARK SMILES IDX 39 45 101 46 40 47 41 48 42 49 95 50 43 51 100 52 94 53
REMARK SMILES IDX 96 54 44 55 99 56 93 57 92 58 45 60 79 61 58 62 78 63 59 64
REMARK SMILES IDX 62 65 77 66 97 67 60 68 61 69 76 71 98 72 63 73 46 74 47 75
REMARK SMILES IDX 56 76 48 77 49 78 55 79 57 80 50 81 51 82 52 83 53 84 54 85
REMARK SMILES IDX 80 86 81 87 90 88 82 89 83 90 89 91 91 92 84 93 85 94 86 95
REMARK SMILES IDX 87 96 88 97 64 98 65 99 74 100 66 101 67 102 73 103 75 104
REMARK SMILES IDX 68 105 69 106 70 107 71 108 72 109
REMARK H PARENT 12 12 18 18 96 59 62 70
REMARK Flexibility Score: inf
ROOT
ATOM      1  C   UNL A   1      38.110  29.046  30.633  1.00  0.00     0.188 C 
ENDROOT
BRANCH   1   2
ATOM      2  O   UNL A   1      37.207  28.952  29.499  1.00  0.00    -0.376 OA
BRANCH   2   3
ATOM      3  C   UNL A   1      36.879  29.847  28.397  1.00  0.00     0.202 C 
BRANCH   3   4
ATOM      4  C   UNL A   1      35.434  30.204  27.395  1.00  0.00     0.261 C 
BRANCH   4   5
ATOM      5  O   UNL A   1      33.927  29.385  26.668  1.00  0.00    -0.463 OA
BRANCH   5   6
ATOM      6  C   UNL A   1      32.416  29.442  26.296  1.00  0.00     0.311 C 
ATOM      7  O   UNL A   1      31.445  29.822  26.979  1.00  0.00    -0.252 OA
BRANCH   6   8
ATOM      8  C   UNL A   1      31.952  29.339  24.913  1.00  0.00     0.134 C 
ATOM      9  N   UNL A   1      33.883  24.857  23.784  1.00  0.00    -0.331 N 
ATOM     10  C   UNL A   1      33.867  26.267  22.863  1.00  0.00     0.264 C 
ATOM     11  C   UNL A   1      33.673  25.377  25.627  1.00  0.00     0.264 C 
ATOM     12  H   UNL A   1      34.734  24.294  23.805  1.00  0.00     0.348 HD
ATOM     13  C   UNL A   1      32.606  27.576  22.951  1.00  0.00     0.091 C 
ATOM     14  C   UNL A   1      31.916  26.700  26.025  1.00  0.00     0.091 C 
ATOM     15  C   UNL A   1      31.616  27.943  24.507  1.00  0.00     0.064 C 
ATOM     16  N   UNL A   1      30.265  28.168  24.056  1.00  0.00    -0.349 N 
ATOM     17  C   UNL A   1      29.880  29.497  23.946  1.00  0.00     0.221 C 
ATOM     18  H   UNL A   1      29.654  27.425  23.839  1.00  0.00     0.164 HD
ATOM     19  C   UNL A   1      30.980  30.369  24.423  1.00  0.00     0.117 C 
ATOM     20  O   UNL A   1      28.824  29.893  23.486  1.00  0.00    -0.275 OA
BRANCH   9  21
ATOM     21  C   UNL A   1      32.628  23.865  23.025  1.00  0.00     0.302 C 
BRANCH  21  22
ATOM     22  C   UNL A   1      32.107  22.302  23.404  1.00  0.00     0.043 A 
ATOM     23  C   UNL A   1      32.557  19.620  24.195  1.00  0.00     0.159 A 
ATOM     24  N   UNL A   1      32.276  20.553  25.132  1.00  0.00    -0.236 NA
ATOM     25  N   UNL A   1      32.334  19.881  22.899  1.00  0.00    -0.236 NA
ATOM     26  C   UNL A   1      31.958  21.835  24.704  1.00  0.00     0.124 A 
ATOM     27  C   UNL A   1      32.065  21.197  22.552  1.00  0.00     0.124 A 
BRANCH  23  28
ATOM     28  C   UNL A   1      33.114  18.268  24.602  1.00  0.00     0.019 A 
ATOM     29  C   UNL A   1      31.890  14.885  26.087  1.00  0.00     0.044 C 
ATOM     30  C   UNL A   1      32.811  15.937  25.515  1.00  0.00    -0.050 A 
ATOM     31  C   UNL A   1      34.115  15.620  25.181  1.00  0.00     0.003 A 
ATOM     32  C   UNL A   1      32.358  17.248  25.236  1.00  0.00     0.015 A 
ATOM     33  C   UNL A   1      34.939  16.611  24.645  1.00  0.00     0.001 A 
ATOM     34  C   UNL A   1      34.451  17.911  24.373  1.00  0.00     0.012 A 
ENDBRANCH  23  28
ENDBRANCH  21  22
ENDBRANCH   9  21
ENDBRANCH   6   8
ENDBRANCH   5   6
ENDBRANCH   4   5
ENDBRANCH   3   4
ENDBRANCH   2   3
ENDBRANCH   1   2
BRANCH   1  35
ATOM     35  C   UNL A   1      37.706  28.676  32.069  1.00  0.00     0.188 C 
BRANCH  35  36
ATOM     36  O   UNL A   1      37.464  29.831  32.845  1.00  0.00    -0.376 OA
BRANCH  36  37
ATOM     37  C   UNL A   1      36.516  30.787  32.373  1.00  0.00     0.202 C 
BRANCH  37  38
ATOM     38  C   UNL A   1      36.203  32.084  33.166  1.00  0.00     0.261 C 
BRANCH  38  39
ATOM     39  O   UNL A   1      37.190  33.065  33.772  1.00  0.00    -0.460 OA
BRANCH  39  40
ATOM     40  C   UNL A   1      38.283  33.843  34.031  1.00  0.00     0.338 C 
ATOM     41  O   UNL A   1      38.008  34.933  34.513  1.00  0.00    -0.246 OA
BRANCH  40  42
ATOM     42  C   UNL A   1      39.808  33.359  33.668  1.00  0.00     0.060 A 
ATOM     43  C   UNL A   1      41.466  33.940  34.273  1.00  0.00     0.016 A 
ATOM     44  C   UNL A   1      39.584  33.534  32.121  1.00  0.00     0.016 A 
ATOM     45  C   UNL A   1      42.554  34.965  32.979  1.00  0.00     0.010 A 
ATOM     46  C   UNL A   1      40.556  34.427  31.114  1.00  0.00     0.010 A 
ATOM     47  C   UNL A   1      42.083  35.070  31.257  1.00  0.00    -0.014 A 
BRANCH  47  48
ATOM     48  C   UNL A   1      43.039  34.863  29.633  1.00  0.00     0.031 A 
ATOM     49  C   UNL A   1      44.224  33.451  29.087  1.00  0.00     0.074 A 
ATOM     50  C   UNL A   1      42.802  35.686  28.600  1.00  0.00     0.049 A 
ATOM     51  N   UNL A   1      45.531  33.549  28.886  1.00  0.00    -0.248 NA
ATOM     52  C   UNL A   1      44.101  31.807  29.385  1.00  0.00     0.031 C 
ATOM     53  C   UNL A   1      43.186  35.520  27.197  1.00  0.00     0.029 A 
ATOM     54  N   UNL A   1      42.078  36.866  28.595  1.00  0.00    -0.354 N 
ATOM     55  C   UNL A   1      46.103  32.232  28.894  1.00  0.00     0.074 A 
ATOM     56  C   UNL A   1      45.315  31.425  29.717  1.00  0.00     0.031 C 
ATOM     57  C   UNL A   1      43.019  36.704  26.572  1.00  0.00     0.029 A 
ATOM     58  C   UNL A   1      42.657  37.666  27.604  1.00  0.00     0.049 A 
ATOM     59  H   UNL A   1      41.312  37.096  29.171  1.00  0.00     0.167 HD
ATOM     60  C   UNL A   1      46.750  31.681  27.821  1.00  0.00     0.037 A 
ATOM     61  C   UNL A   1      43.414  38.707  28.053  1.00  0.00     0.037 A 
ATOM     62  C   UNL A   1      46.738  32.709  26.816  1.00  0.00     0.049 A 
ATOM     63  C   UNL A   1      44.862  38.408  27.728  1.00  0.00     0.074 A 
ATOM     64  C   UNL A   1      45.849  33.007  25.799  1.00  0.00     0.029 A 
ATOM     65  N   UNL A   1      47.356  33.887  27.171  1.00  0.00    -0.354 N 
ATOM     66  N   UNL A   1      45.401  37.212  27.668  1.00  0.00    -0.248 NA
ATOM     67  C   UNL A   1      45.740  39.445  27.200  1.00  0.00     0.031 C 
ATOM     68  C   UNL A   1      45.917  34.418  25.587  1.00  0.00     0.029 A 
ATOM     69  C   UNL A   1      46.833  34.954  26.481  1.00  0.00     0.049 A 
ATOM     70  H   UNL A   1      48.080  33.956  27.835  1.00  0.00     0.167 HD
ATOM     71  C   UNL A   1      46.628  37.299  27.061  1.00  0.00     0.074 A 
ATOM     72  C   UNL A   1      46.790  38.716  26.793  1.00  0.00     0.031 C 
ATOM     73  C   UNL A   1      47.438  36.247  26.731  1.00  0.00     0.037 A 
BRANCH  60  74
ATOM     74  C   UNL A   1      46.993  30.174  27.571  1.00  0.00     0.058 A 
ATOM     75  C   UNL A   1      46.001  29.415  26.920  1.00  0.00     0.135 A 
ATOM     76  C   UNL A   1      48.148  29.414  27.915  1.00  0.00     0.135 A 
ATOM     77  F   UNL A   1      44.873  29.991  26.478  1.00  0.00    -0.206 F 
ATOM     78  C   UNL A   1      46.112  28.039  26.670  1.00  0.00     0.059 A 
ATOM     79  C   UNL A   1      48.256  28.022  27.735  1.00  0.00     0.059 A 
ATOM     80  F   UNL A   1      49.264  29.989  28.386  1.00  0.00    -0.206 F 
ATOM     81  C   UNL A   1      47.237  27.343  27.090  1.00  0.00     0.060 A 
BRANCH  81  82
ATOM     82  S   UNL A   1      47.369  25.581  26.711  1.00  0.00     0.124 S 
ATOM     83  O   UNL A   1      46.241  25.020  27.449  1.00  0.00    -0.237 OA
ATOM     84  O   UNL A   1      47.241  25.574  25.258  1.00  0.00    -0.237 OA
ATOM     85  O   UNL A   1      48.686  25.214  27.224  1.00  0.00    -0.744 OA
ENDBRANCH  81  82
ENDBRANCH  60  74
BRANCH  61  86
ATOM     86  C   UNL A   1      42.769  39.320  29.280  1.00  0.00     0.058 A 
ATOM     87  C   UNL A   1      43.476  39.151  30.503  1.00  0.00     0.135 A 
ATOM     88  C   UNL A   1      41.876  40.403  29.230  1.00  0.00     0.135 A 
ATOM     89  F   UNL A   1      44.369  38.153  30.625  1.00  0.00    -0.206 F 
ATOM     90  C   UNL A   1      43.423  40.081  31.542  1.00  0.00     0.059 A 
ATOM     91  C   UNL A   1      41.794  41.343  30.276  1.00  0.00     0.059 A 
ATOM     92  F   UNL A   1      41.158  40.635  28.123  1.00  0.00    -0.206 F 
ATOM     93  C   UNL A   1      42.616  41.204  31.396  1.00  0.00     0.060 A 
BRANCH  93  94
ATOM     94  S   UNL A   1      42.756  42.508  32.649  1.00  0.00     0.124 S 
ATOM     95  O   UNL A   1      41.864  42.027  33.701  1.00  0.00    -0.237 OA
ATOM     96  O   UNL A   1      44.183  42.451  32.966  1.00  0.00    -0.237 OA
ATOM     97  O   UNL A   1      42.291  43.694  31.945  1.00  0.00    -0.744 OA
ENDBRANCH  93  94
ENDBRANCH  61  86
BRANCH  73  98
ATOM     98  C   UNL A   1      48.954  36.339  26.623  1.00  0.00     0.058 A 
ATOM     99  C   UNL A   1      49.617  36.780  25.470  1.00  0.00     0.135 A 
ATOM    100  C   UNL A   1      49.791  36.164  27.764  1.00  0.00     0.135 A 
ATOM    101  F   UNL A   1      48.956  37.145  24.363  1.00  0.00    -0.206 F 
ATOM    102  C   UNL A   1      51.001  36.893  25.407  1.00  0.00     0.059 A 
ATOM    103  C   UNL A   1      51.154  36.411  27.758  1.00  0.00     0.059 A 
ATOM    104  F   UNL A   1      49.326  35.744  28.950  1.00  0.00    -0.206 F 
ATOM    105  C   UNL A   1      51.759  36.701  26.554  1.00  0.00     0.060 A 
BRANCH 105 106
ATOM    106  S   UNL A   1      53.545  36.774  26.456  1.00  0.00     0.124 S 
ATOM    107  O   UNL A   1      53.918  36.061  27.674  1.00  0.00    -0.237 OA
ATOM    108  O   UNL A   1      53.825  36.078  25.204  1.00  0.00    -0.237 OA
ATOM    109  O   UNL A   1      53.826  38.206  26.449  1.00  0.00    -0.744 OA
ENDBRANCH 105 106
ENDBRANCH  73  98
ENDBRANCH  47  48
ENDBRANCH  40  42
ENDBRANCH  39  40
ENDBRANCH  38  39
ENDBRANCH  37  38
ENDBRANCH  36  37
ENDBRANCH  35  36
ENDBRANCH   1  35
TORSDOF 23
ENDMDL
MODEL 3
REMARK VINA RESULT:     -11.4      7.058     10.608
REMARK SMILES Cc1cccc(-c2ncc(C[NH+]3CCC4(CC3)NC(=O)C[C@H]4C(=O)OCCOCCOCCOC(=O)c3ccc(-c4c5nc(c(-c6c(F)cc(S(=O)(=O)[O-])cc6F)c6ccc([nH]6)c(-c6c(F)cc(S(=O)(=O)[O-])cc6F)c6nc(c(-c7c(F)cc(S(=O)(=O)[O-])cc7F)c7ccc4[nH]7)C=C6)C=C5)cc3)cn2)c1
REMARK SMILES IDX 29 1 28 2 27 3 26 4 25 5 23 6 24 7 22 8 12 9 13 10 17 11
REMARK SMILES IDX 14 13 16 14 15 15 18 16 19 17 21 19 20 20 11 21 10 22 7 23
REMARK SMILES IDX 8 24 104 25 9 26 103 27 6 28 1 29 2 30 3 31 105 32 4 33 5 34
REMARK SMILES IDX 30 35 31 36 32 37 33 38 34 39 35 40 36 41 37 42 38 43 102 44
REMARK SMILES IDX 39 45 101 46 40 47 41 48 42 49 95 50 43 51 100 52 94 53
REMARK SMILES IDX 96 54 44 55 99 56 93 57 92 58 45 60 79 61 58 62 78 63 59 64
REMARK SMILES IDX 62 65 77 66 97 67 60 68 61 69 76 71 98 72 63 73 46 74 47 75
REMARK SMILES IDX 56 76 48 77 49 78 55 79 57 80 50 81 51 82 52 83 53 84 54 85
REMARK SMILES IDX 80 86 81 87 90 88 82 89 83 90 89 91 91 92 84 93 85 94 86 95
REMARK SMILES IDX 87 96 88 97 64 98 65 99 74 100 66 101 67 102 73 103 75 104
REMARK SMILES IDX 68 105 69 106 70 107 71 108 72 109
REMARK H PARENT 12 12 18 18 96 59 62 70
REMARK Flexibility Score: inf
ROOT
ATOM      1  C   UNL A   1      39.746  29.179  32.467  1.00  0.00     0.188 C 
ENDROOT
BRANCH   1   2
ATOM      2  O   UNL A   1      41.131  29.112  32.034  1.00  0.00    -0.376 OA
BRANCH   2   3
ATOM      3  C   UNL A   1      41.939  28.077  31.402  1.00  0.00     0.202 C 
BRANCH   3   4
ATOM      4  C   UNL A   1      42.726  27.831  29.809  1.00  0.00     0.261 C 
BRANCH   4   5
ATOM      5  O   UNL A   1      42.997  26.529  28.504  1.00  0.00    -0.463 OA
BRANCH   5   6
ATOM      6  C   UNL A   1      43.348  26.153  27.034  1.00  0.00     0.311 C 
ATOM      7  O   UNL A   1      43.677  26.891  26.084  1.00  0.00    -0.252 OA
BRANCH   6   8
ATOM      8  C   UNL A   1      43.653  24.780  26.634  1.00  0.00     0.134 C 
ATOM      9  N   UNL A   1      39.080  22.798  27.141  1.00  0.00    -0.331 N 
ATOM     10  C   UNL A   1      40.568  22.164  27.611  1.00  0.00     0.264 C 
ATOM     11  C   UNL A   1      39.291  24.708  27.006  1.00  0.00     0.264 C 
ATOM     12  H   UNL A   1      38.285  22.704  27.774  1.00  0.00     0.348 HD
ATOM     13  C   UNL A   1      42.167  22.512  26.813  1.00  0.00     0.091 C 
ATOM     14  C   UNL A   1      41.001  25.366  25.725  1.00  0.00     0.091 C 
ATOM     15  C   UNL A   1      42.533  24.117  25.905  1.00  0.00     0.064 C 
ATOM     16  N   UNL A   1      43.249  23.728  24.715  1.00  0.00    -0.349 N 
ATOM     17  C   UNL A   1      44.628  23.878  24.767  1.00  0.00     0.221 C 
ATOM     18  H   UNL A   1      42.789  23.378  23.917  1.00  0.00     0.164 HD
ATOM     19  C   UNL A   1      45.007  24.504  26.055  1.00  0.00     0.117 C 
ATOM     20  O   UNL A   1      45.413  23.511  23.911  1.00  0.00    -0.275 OA
BRANCH   9  21
ATOM     21  C   UNL A   1      38.690  21.873  25.682  1.00  0.00     0.302 C 
BRANCH  21  22
ATOM     22  C   UNL A   1      37.225  21.732  24.850  1.00  0.00     0.043 A 
ATOM     23  C   UNL A   1      34.648  22.648  24.114  1.00  0.00     0.159 A 
ATOM     24  N   UNL A   1      35.713  22.958  23.339  1.00  0.00    -0.236 NA
ATOM     25  N   UNL A   1      34.750  21.684  25.040  1.00  0.00    -0.236 NA
ATOM     26  C   UNL A   1      36.943  22.408  23.669  1.00  0.00     0.124 A 
ATOM     27  C   UNL A   1      36.023  21.221  25.340  1.00  0.00     0.124 A 
BRANCH  23  28
ATOM     28  C   UNL A   1      33.330  23.379  23.934  1.00  0.00     0.019 A 
ATOM     29  C   UNL A   1      31.699  26.007  21.571  1.00  0.00     0.044 C 
ATOM     30  C   UNL A   1      31.860  25.011  22.697  1.00  0.00    -0.050 A 
ATOM     31  C   UNL A   1      30.766  24.617  23.445  1.00  0.00     0.003 A 
ATOM     32  C   UNL A   1      33.104  24.399  22.974  1.00  0.00     0.015 A 
ATOM     33  C   UNL A   1      30.944  23.688  24.471  1.00  0.00     0.001 A 
ATOM     34  C   UNL A   1      32.203  23.091  24.718  1.00  0.00     0.012 A 
ENDBRANCH  23  28
ENDBRANCH  21  22
ENDBRANCH   9  21
ENDBRANCH   6   8
ENDBRANCH   5   6
ENDBRANCH   4   5
ENDBRANCH   3   4
ENDBRANCH   2   3
ENDBRANCH   1   2
BRANCH   1  35
ATOM     35  C   UNL A   1      38.764  30.263  31.996  1.00  0.00     0.188 C 
BRANCH  35  36
ATOM     36  O   UNL A   1      37.689  30.406  32.901  1.00  0.00    -0.376 OA
BRANCH  36  37
ATOM     37  C   UNL A   1      36.968  31.638  32.919  1.00  0.00     0.202 C 
BRANCH  37  38
ATOM     38  C   UNL A   1      37.640  32.968  33.355  1.00  0.00     0.261 C 
BRANCH  38  39
ATOM     39  O   UNL A   1      38.929  33.146  34.137  1.00  0.00    -0.460 OA
BRANCH  39  40
ATOM     40  C   UNL A   1      40.022  32.959  34.936  1.00  0.00     0.338 C 
ATOM     41  O   UNL A   1      39.747  32.564  36.060  1.00  0.00    -0.246 OA
BRANCH  40  42
ATOM     42  C   UNL A   1      41.545  33.293  34.428  1.00  0.00     0.060 A 
ATOM     43  C   UNL A   1      42.584  34.829  34.559  1.00  0.00     0.016 A 
ATOM     44  C   UNL A   1      41.242  32.839  32.953  1.00  0.00     0.016 A 
ATOM     45  C   UNL A   1      42.874  35.828  32.879  1.00  0.00     0.010 A 
ATOM     46  C   UNL A   1      41.516  33.760  31.599  1.00  0.00     0.010 A 
ATOM     47  C   UNL A   1      42.406  35.134  31.299  1.00  0.00    -0.014 A 
BRANCH  47  48
ATOM     48  C   UNL A   1      43.287  34.995  29.627  1.00  0.00     0.031 A 
ATOM     49  C   UNL A   1      44.537  33.669  29.013  1.00  0.00     0.074 A 
ATOM     50  C   UNL A   1      42.940  35.800  28.611  1.00  0.00     0.049 A 
ATOM     51  N   UNL A   1      45.822  33.858  28.744  1.00  0.00    -0.248 NA
ATOM     52  C   UNL A   1      44.543  32.020  29.310  1.00  0.00     0.031 C 
ATOM     53  C   UNL A   1      43.261  35.662  27.189  1.00  0.00     0.029 A 
ATOM     54  N   UNL A   1      42.137  36.928  28.649  1.00  0.00    -0.354 N 
ATOM     55  C   UNL A   1      46.483  32.583  28.717  1.00  0.00     0.074 A 
ATOM     56  C   UNL A   1      45.797  31.723  29.576  1.00  0.00     0.031 C 
ATOM     57  C   UNL A   1      42.980  36.832  26.579  1.00  0.00     0.029 A 
ATOM     58  C   UNL A   1      42.607  37.767  27.633  1.00  0.00     0.049 A 
ATOM     59  H   UNL A   1      41.388  37.103  29.265  1.00  0.00     0.167 HD
ATOM     60  C   UNL A   1      47.110  32.080  27.609  1.00  0.00     0.037 A 
ATOM     61  C   UNL A   1      43.312  38.857  28.047  1.00  0.00     0.037 A 
ATOM     62  C   UNL A   1      46.974  33.106  26.611  1.00  0.00     0.049 A 
ATOM     63  C   UNL A   1      44.759  38.660  27.645  1.00  0.00     0.074 A 
ATOM     64  C   UNL A   1      46.015  33.342  25.643  1.00  0.00     0.029 A 
ATOM     65  N   UNL A   1      47.527  34.323  26.939  1.00  0.00    -0.354 N 
ATOM     66  N   UNL A   1      45.375  37.504  27.552  1.00  0.00    -0.248 NA
ATOM     67  C   UNL A   1      45.534  39.755  27.077  1.00  0.00     0.031 C 
ATOM     68  C   UNL A   1      45.974  34.754  25.434  1.00  0.00     0.029 A 
ATOM     69  C   UNL A   1      46.897  35.352  26.282  1.00  0.00     0.049 A 
ATOM     70  H   UNL A   1      48.278  34.441  27.564  1.00  0.00     0.167 HD
ATOM     71  C   UNL A   1      46.560  37.676  26.883  1.00  0.00     0.074 A 
ATOM     72  C   UNL A   1      46.609  39.102  26.613  1.00  0.00     0.031 C 
ATOM     73  C   UNL A   1      47.422  36.684  26.505  1.00  0.00     0.037 A 
BRANCH  60  74
ATOM     74  C   UNL A   1      47.443  30.593  27.340  1.00  0.00     0.058 A 
ATOM     75  C   UNL A   1      48.718  30.100  27.684  1.00  0.00     0.135 A 
ATOM     76  C   UNL A   1      46.589  29.602  26.777  1.00  0.00     0.135 A 
ATOM     77  F   UNL A   1      49.624  30.890  28.279  1.00  0.00    -0.206 F 
ATOM     78  C   UNL A   1      49.127  28.778  27.458  1.00  0.00     0.059 A 
ATOM     79  C   UNL A   1      46.998  28.288  26.479  1.00  0.00     0.059 A 
ATOM     80  F   UNL A   1      45.289  29.833  26.542  1.00  0.00    -0.206 F 
ATOM     81  C   UNL A   1      48.268  27.877  26.843  1.00  0.00     0.060 A 
BRANCH  81  82
ATOM     82  S   UNL A   1      48.811  26.170  26.609  1.00  0.00     0.124 S 
ATOM     83  O   UNL A   1      50.265  26.299  26.648  1.00  0.00    -0.237 OA
ATOM     84  O   UNL A   1      48.204  25.499  27.753  1.00  0.00    -0.237 OA
ATOM     85  O   UNL A   1      48.260  25.807  25.306  1.00  0.00    -0.744 OA
ENDBRANCH  81  82
ENDBRANCH  60  74
BRANCH  61  86
ATOM     86  C   UNL A   1      42.692  39.423  29.308  1.00  0.00     0.058 A 
ATOM     87  C   UNL A   1      43.440  39.242  30.504  1.00  0.00     0.135 A 
ATOM     88  C   UNL A   1      41.771  40.484  29.313  1.00  0.00     0.135 A 
ATOM     89  F   UNL A   1      44.361  38.264  30.573  1.00  0.00    -0.206 F 
ATOM     90  C   UNL A   1      43.397  40.144  31.567  1.00  0.00     0.059 A 
ATOM     91  C   UNL A   1      41.698  41.395  30.385  1.00  0.00     0.059 A 
ATOM     92  F   UNL A   1      41.012  40.725  28.235  1.00  0.00    -0.206 F 
ATOM     93  C   UNL A   1      42.559  41.249  31.476  1.00  0.00     0.060 A 
BRANCH  93  94
ATOM     94  S   UNL A   1      42.706  42.525  32.756  1.00  0.00     0.124 S 
ATOM     95  O   UNL A   1      42.200  43.713  32.073  1.00  0.00    -0.237 OA
ATOM     96  O   UNL A   1      41.832  41.987  33.800  1.00  0.00    -0.237 OA
ATOM     97  O   UNL A   1      44.132  42.543  33.045  1.00  0.00    -0.744 OA
ENDBRANCH  93  94
ENDBRANCH  61  86
BRANCH  73  98
ATOM     98  C   UNL A   1      48.920  36.880  26.320  1.00  0.00     0.058 A 
ATOM     99  C   UNL A   1      49.596  36.561  25.134  1.00  0.00     0.135 A 
ATOM    100  C   UNL A   1      49.701  37.587  27.280  1.00  0.00     0.135 A 
ATOM    101  F   UNL A   1      48.965  36.041  24.072  1.00  0.00    -0.206 F 
ATOM    102  C   UNL A   1      50.958  36.785  24.972  1.00  0.00     0.059 A 
ATOM    103  C   UNL A   1      51.023  37.946  27.076  1.00  0.00     0.059 A 
ATOM    104  F   UNL A   1      49.218  37.970  28.472  1.00  0.00    -0.206 F 
ATOM    105  C   UNL A   1      51.663  37.472  25.951  1.00  0.00     0.060 A 
BRANCH 105 106
ATOM    106  S   UNL A   1      53.430  37.696  25.777  1.00  0.00     0.124 S 
ATOM    107  O   UNL A   1      53.561  39.116  26.086  1.00  0.00    -0.237 OA
ATOM    108  O   UNL A   1      53.968  36.778  26.778  1.00  0.00    -0.237 OA
ATOM    109  O   UNL A   1      53.684  37.322  24.390  1.00  0.00    -0.744 OA
ENDBRANCH 105 106
ENDBRANCH  73  98
ENDBRANCH  47  48
ENDBRANCH  40  42
ENDBRANCH  39  40
ENDBRANCH  38  39
ENDBRANCH  37  38
ENDBRANCH  36  37
ENDBRANCH  35  36
ENDBRANCH   1  35
TORSDOF 23
ENDMDL
