MODEL 1
REMARK VINA RESULT:      -9.6      0.000      0.000
REMARK SMILES COc1cc2c(CC(=O)OCCOCCOCCOC(=O)c3ccc(-c4c5nc(c(-c6c(F)cc(S(=O)(=O)[O-])cc6F)c6ccc([nH]6)c(-c6c(F)cc(S(=O)(=O)[O-])cc6F)c6nc(c(-c7c(F)cc(S(=O)(=O)[O-])cc7F)c7ccc4[nH]7)C=C6)C=C5)cc3)c(C)n(C(=O)c3ccc(Cl)cc3)c2cc1Cl
REMARK SMILES IDX 14 1 13 2 12 3 11 4 10 5 8 6 9 7 7 8 6 9 3 10 4 11 102 12
REMARK SMILES IDX 5 13 101 14 103 15 100 16 88 17 90 18 89 19 2 20 1 21 91 22
REMARK SMILES IDX 92 23 93 24 94 25 99 26 95 27 98 28 96 29 97 30 15 31 16 32
REMARK SMILES IDX 17 33 18 34 19 35 20 36 21 37 22 38 23 39 87 40 24 41 86 42
REMARK SMILES IDX 25 43 26 44 27 45 80 46 28 47 85 48 79 49 81 50 29 51 84 52
REMARK SMILES IDX 78 53 77 54 30 56 64 57 43 58 63 59 44 60 47 61 62 62 82 63
REMARK SMILES IDX 45 64 46 65 61 67 83 68 48 69 31 70 32 71 41 72 33 73 34 74
REMARK SMILES IDX 40 75 42 76 35 77 36 78 37 79 38 80 39 81 65 82 66 83 75 84
REMARK SMILES IDX 67 85 68 86 74 87 76 88 69 89 70 90 71 91 72 92 73 93 49 94
REMARK SMILES IDX 50 95 59 96 51 97 52 98 58 99 60 100 53 101 54 102 55 103
REMARK SMILES IDX 56 104 57 105
REMARK H PARENT 81 55 47 66
REMARK Flexibility Score: inf
ROOT
ATOM      1  C   UNL A   1      34.380  32.272  27.917  1.00  0.00     0.188 C 
ENDROOT
BRANCH   1   2
ATOM      2  O   UNL A   1      33.559  31.130  27.868  1.00  0.00    -0.376 OA
BRANCH   2   3
ATOM      3  C   UNL A   1      34.093  29.995  27.202  1.00  0.00     0.202 C 
BRANCH   3   4
ATOM      4  C   UNL A   1      33.108  29.144  26.381  1.00  0.00     0.261 C 
BRANCH   4   5
ATOM      5  O   UNL A   1      32.213  28.384  27.245  1.00  0.00    -0.463 OA
BRANCH   5   6
ATOM      6  C   UNL A   1      31.604  27.310  26.672  1.00  0.00     0.310 C 
ATOM      7  O   UNL A   1      30.741  27.435  25.808  1.00  0.00    -0.252 OA
BRANCH   6   8
ATOM      8  C   UNL A   1      32.257  25.954  26.961  1.00  0.00     0.160 C 
BRANCH   8   9
ATOM      9  C   UNL A   1      32.845  25.018  25.935  1.00  0.00    -0.008 A 
ATOM     10  C   UNL A   1      33.050  26.202  22.213  1.00  0.00     0.138 A 
ATOM     11  C   UNL A   1      33.077  26.324  23.617  1.00  0.00     0.058 A 
ATOM     12  C   UNL A   1      33.009  24.939  21.663  1.00  0.00     0.085 A 
ATOM     13  C   UNL A   1      33.039  25.229  24.513  1.00  0.00     0.008 A 
ATOM     14  C   UNL A   1      32.989  23.826  22.508  1.00  0.00     0.051 A 
ATOM     15  Cl  UNL A   1      33.114  24.648  19.964  1.00  0.00    -0.080 Cl
ATOM     16  C   UNL A   1      33.085  23.974  23.918  1.00  0.00     0.058 A 
ATOM     17  C   UNL A   1      32.893  23.639  26.131  1.00  0.00     0.028 A 
ATOM     18  N   UNL A   1      33.318  23.053  24.947  1.00  0.00    -0.280 N 
ATOM     19  C   UNL A   1      32.498  22.897  27.368  1.00  0.00     0.065 C 
BRANCH  10  20
ATOM     20  O   UNL A   1      33.159  27.364  21.489  1.00  0.00    -0.495 OA
ATOM     21  C   UNL A   1      33.960  28.386  22.101  1.00  0.00     0.278 C 
ENDBRANCH  10  20
BRANCH  18  22
ATOM     22  C   UNL A   1      33.956  21.791  24.783  1.00  0.00     0.262 C 
ATOM     23  O   UNL A   1      33.314  20.772  24.723  1.00  0.00    -0.268 OA
BRANCH  22  24
ATOM     24  C   UNL A   1      35.432  21.699  24.785  1.00  0.00     0.040 A 
ATOM     25  C   UNL A   1      36.022  20.429  24.822  1.00  0.00     0.015 A 
ATOM     26  C   UNL A   1      36.176  22.860  25.001  1.00  0.00     0.015 A 
ATOM     27  C   UNL A   1      37.372  20.317  25.152  1.00  0.00     0.021 A 
ATOM     28  C   UNL A   1      37.524  22.737  25.343  1.00  0.00     0.021 A 
ATOM     29  C   UNL A   1      38.109  21.468  25.430  1.00  0.00     0.041 A 
ATOM     30  Cl  UNL A   1      39.744  21.321  25.945  1.00  0.00    -0.084 Cl
ENDBRANCH  22  24
ENDBRANCH  18  22
ENDBRANCH   8   9
ENDBRANCH   6   8
ENDBRANCH   5   6
ENDBRANCH   4   5
ENDBRANCH   3   4
ENDBRANCH   2   3
ENDBRANCH   1   2
BRANCH   1  31
ATOM     31  C   UNL A   1      35.896  32.060  27.979  1.00  0.00     0.188 C 
BRANCH  31  32
ATOM     32  O   UNL A   1      36.651  32.457  29.095  1.00  0.00    -0.376 OA
BRANCH  32  33
ATOM     33  C   UNL A   1      36.187  32.013  30.357  1.00  0.00     0.202 C 
BRANCH  33  34
ATOM     34  C   UNL A   1      36.542  32.838  31.623  1.00  0.00     0.261 C 
BRANCH  34  35
ATOM     35  O   UNL A   1      36.152  32.210  32.879  1.00  0.00    -0.460 OA
BRANCH  35  36
ATOM     36  C   UNL A   1      37.088  32.224  33.881  1.00  0.00     0.338 C 
ATOM     37  O   UNL A   1      36.857  32.523  35.043  1.00  0.00    -0.246 OA
BRANCH  36  38
ATOM     38  C   UNL A   1      38.317  31.449  33.473  1.00  0.00     0.060 A 
ATOM     39  C   UNL A   1      39.506  31.980  32.985  1.00  0.00     0.016 A 
ATOM     40  C   UNL A   1      38.181  30.058  33.449  1.00  0.00     0.016 A 
ATOM     41  C   UNL A   1      40.457  31.125  32.366  1.00  0.00     0.010 A 
ATOM     42  C   UNL A   1      39.082  29.214  32.789  1.00  0.00     0.010 A 
ATOM     43  C   UNL A   1      40.221  29.741  32.195  1.00  0.00    -0.014 A 
BRANCH  43  44
ATOM     44  C   UNL A   1      41.297  28.792  31.806  1.00  0.00     0.031 A 
ATOM     45  C   UNL A   1      42.073  28.403  32.986  1.00  0.00     0.074 A 
ATOM     46  C   UNL A   1      41.644  28.185  30.643  1.00  0.00     0.049 A 
ATOM     47  N   UNL A   1      43.069  29.093  33.427  1.00  0.00    -0.248 NA
ATOM     48  C   UNL A   1      41.623  27.332  33.874  1.00  0.00     0.031 C 
ATOM     49  C   UNL A   1      41.052  28.369  29.340  1.00  0.00     0.029 A 
ATOM     50  N   UNL A   1      42.639  27.268  30.365  1.00  0.00    -0.354 N 
ATOM     51  C   UNL A   1      43.578  28.349  34.466  1.00  0.00     0.074 A 
ATOM     52  C   UNL A   1      42.510  27.467  34.868  1.00  0.00     0.031 C 
ATOM     53  C   UNL A   1      41.491  27.446  28.450  1.00  0.00     0.029 A 
ATOM     54  C   UNL A   1      42.600  26.733  29.068  1.00  0.00     0.049 A 
ATOM     55  H   UNL A   1      43.321  27.009  31.026  1.00  0.00     0.167 HD
ATOM     56  C   UNL A   1      44.923  28.311  34.656  1.00  0.00     0.037 A 
ATOM     57  C   UNL A   1      43.571  26.104  28.346  1.00  0.00     0.037 A 
ATOM     58  C   UNL A   1      45.593  29.340  33.875  1.00  0.00     0.049 A 
ATOM     59  C   UNL A   1      44.862  26.604  28.861  1.00  0.00     0.074 A 
ATOM     60  C   UNL A   1      45.466  30.714  33.758  1.00  0.00     0.029 A 
ATOM     61  N   UNL A   1      46.279  28.940  32.751  1.00  0.00    -0.354 N 
ATOM     62  N   UNL A   1      45.290  27.823  28.683  1.00  0.00    -0.248 NA
ATOM     63  C   UNL A   1      45.500  25.864  29.933  1.00  0.00     0.031 C 
ATOM     64  C   UNL A   1      45.691  31.007  32.379  1.00  0.00     0.029 A 
ATOM     65  C   UNL A   1      46.007  29.816  31.727  1.00  0.00     0.049 A 
ATOM     66  H   UNL A   1      46.870  28.154  32.691  1.00  0.00     0.167 HD
ATOM     67  C   UNL A   1      45.901  28.151  29.882  1.00  0.00     0.074 A 
ATOM     68  C   UNL A   1      46.100  26.875  30.563  1.00  0.00     0.031 C 
ATOM     69  C   UNL A   1      45.946  29.442  30.323  1.00  0.00     0.037 A 
BRANCH  56  70
ATOM     70  C   UNL A   1      45.647  27.111  35.215  1.00  0.00     0.058 A 
ATOM     71  C   UNL A   1      46.517  27.294  36.305  1.00  0.00     0.135 A 
ATOM     72  C   UNL A   1      45.712  25.845  34.587  1.00  0.00     0.135 A 
ATOM     73  F   UNL A   1      46.550  28.463  36.965  1.00  0.00    -0.206 F 
ATOM     74  C   UNL A   1      47.431  26.318  36.699  1.00  0.00     0.059 A 
ATOM     75  C   UNL A   1      46.567  24.837  35.005  1.00  0.00     0.059 A 
ATOM     76  F   UNL A   1      45.029  25.547  33.477  1.00  0.00    -0.206 F 
ATOM     77  C   UNL A   1      47.454  25.097  36.032  1.00  0.00     0.060 A 
BRANCH  77  78
ATOM     78  S   UNL A   1      48.705  23.879  36.460  1.00  0.00     0.124 S 
ATOM     79  O   UNL A   1      49.844  24.737  36.764  1.00  0.00    -0.237 OA
ATOM     80  O   UNL A   1      48.088  23.204  37.596  1.00  0.00    -0.237 OA
ATOM     81  O   UNL A   1      48.821  23.077  35.246  1.00  0.00    -0.744 OA
ENDBRANCH  77  78
ENDBRANCH  56  70
BRANCH  57  82
ATOM     82  C   UNL A   1      43.467  24.929  27.429  1.00  0.00     0.058 A 
ATOM     83  C   UNL A   1      43.823  25.012  26.065  1.00  0.00     0.135 A 
ATOM     84  C   UNL A   1      43.275  23.628  27.929  1.00  0.00     0.135 A 
ATOM     85  F   UNL A   1      44.027  26.208  25.491  1.00  0.00    -0.206 F 
ATOM     86  C   UNL A   1      44.048  23.877  25.270  1.00  0.00     0.059 A 
ATOM     87  C   UNL A   1      43.494  22.481  27.156  1.00  0.00     0.059 A 
ATOM     88  F   UNL A   1      42.948  23.436  29.217  1.00  0.00    -0.206 F 
ATOM     89  C   UNL A   1      43.909  22.611  25.835  1.00  0.00     0.060 A 
BRANCH  89  90
ATOM     90  S   UNL A   1      44.382  21.151  24.871  1.00  0.00     0.124 S 
ATOM     91  O   UNL A   1      44.441  21.683  23.513  1.00  0.00    -0.237 OA
ATOM     92  O   UNL A   1      45.665  20.789  25.467  1.00  0.00    -0.237 OA
ATOM     93  O   UNL A   1      43.295  20.208  25.125  1.00  0.00    -0.744 OA
ENDBRANCH  89  90
ENDBRANCH  57  82
BRANCH  69  94
ATOM     94  C   UNL A   1      45.703  30.552  29.320  1.00  0.00     0.058 A 
ATOM     95  C   UNL A   1      46.670  31.073  28.442  1.00  0.00     0.135 A 
ATOM     96  C   UNL A   1      44.388  31.016  29.154  1.00  0.00     0.135 A 
ATOM     97  F   UNL A   1      47.935  30.637  28.475  1.00  0.00    -0.206 F 
ATOM     98  C   UNL A   1      46.350  32.015  27.456  1.00  0.00     0.059 A 
ATOM     99  C   UNL A   1      44.039  31.932  28.160  1.00  0.00     0.059 A 
ATOM    100  F   UNL A   1      43.405  30.536  29.933  1.00  0.00    -0.206 F 
ATOM    101  C   UNL A   1      45.026  32.429  27.315  1.00  0.00     0.060 A 
BRANCH 101 102
ATOM    102  S   UNL A   1      44.593  33.557  25.968  1.00  0.00     0.124 S 
ATOM    103  O   UNL A   1      43.920  32.672  25.024  1.00  0.00    -0.237 OA
ATOM    104  O   UNL A   1      43.741  34.535  26.638  1.00  0.00    -0.237 OA
ATOM    105  O   UNL A   1      45.887  34.073  25.525  1.00  0.00    -0.744 OA
ENDBRANCH 101 102
ENDBRANCH  69  94
ENDBRANCH  43  44
ENDBRANCH  36  38
ENDBRANCH  35  36
ENDBRANCH  34  35
ENDBRANCH  33  34
ENDBRANCH  32  33
ENDBRANCH  31  32
ENDBRANCH   1  31
TORSDOF 24
ENDMDL
MODEL 2
REMARK VINA RESULT:      -8.5      5.787     14.267
REMARK SMILES COc1cc2c(CC(=O)OCCOCCOCCOC(=O)c3ccc(-c4c5nc(c(-c6c(F)cc(S(=O)(=O)[O-])cc6F)c6ccc([nH]6)c(-c6c(F)cc(S(=O)(=O)[O-])cc6F)c6nc(c(-c7c(F)cc(S(=O)(=O)[O-])cc7F)c7ccc4[nH]7)C=C6)C=C5)cc3)c(C)n(C(=O)c3ccc(Cl)cc3)c2cc1Cl
REMARK SMILES IDX 14 1 13 2 12 3 11 4 10 5 8 6 9 7 7 8 6 9 3 10 4 11 102 12
REMARK SMILES IDX 5 13 101 14 103 15 100 16 88 17 90 18 89 19 2 20 1 21 91 22
REMARK SMILES IDX 92 23 93 24 94 25 99 26 95 27 98 28 96 29 97 30 15 31 16 32
REMARK SMILES IDX 17 33 18 34 19 35 20 36 21 37 22 38 23 39 87 40 24 41 86 42
REMARK SMILES IDX 25 43 26 44 27 45 80 46 28 47 85 48 79 49 81 50 29 51 84 52
REMARK SMILES IDX 78 53 77 54 30 56 64 57 43 58 63 59 44 60 47 61 62 62 82 63
REMARK SMILES IDX 45 64 46 65 61 67 83 68 48 69 31 70 32 71 41 72 33 73 34 74
REMARK SMILES IDX 40 75 42 76 35 77 36 78 37 79 38 80 39 81 65 82 66 83 75 84
REMARK SMILES IDX 67 85 68 86 74 87 76 88 69 89 70 90 71 91 72 92 73 93 49 94
REMARK SMILES IDX 50 95 59 96 51 97 52 98 58 99 60 100 53 101 54 102 55 103
REMARK SMILES IDX 56 104 57 105
REMARK H PARENT 81 55 47 66
REMARK Flexibility Score: inf
ROOT
ATOM      1  C   UNL A   1      46.657  26.157  25.689  1.00  0.00     0.188 C 
ENDROOT
BRANCH   1   2
ATOM      2  O   UNL A   1      48.029  25.921  25.891  1.00  0.00    -0.376 OA
BRANCH   2   3
ATOM      3  C   UNL A   1      48.881  26.144  24.777  1.00  0.00     0.202 C 
BRANCH   3   4
ATOM      4  C   UNL A   1      50.226  26.839  25.058  1.00  0.00     0.261 C 
BRANCH   4   5
ATOM      5  O   UNL A   1      50.075  28.288  25.109  1.00  0.00    -0.463 OA
BRANCH   5   6
ATOM      6  C   UNL A   1      50.481  28.887  26.262  1.00  0.00     0.310 C 
ATOM      7  O   UNL A   1      50.092  28.508  27.363  1.00  0.00    -0.252 OA
BRANCH   6   8
ATOM      8  C   UNL A   1      51.655  29.860  26.118  1.00  0.00     0.160 C 
BRANCH   8   9
ATOM      9  C   UNL A   1      51.641  31.156  25.346  1.00  0.00    -0.008 A 
ATOM     10  C   UNL A   1      53.221  31.228  21.769  1.00  0.00     0.138 A 
ATOM     11  C   UNL A   1      52.525  30.689  22.871  1.00  0.00     0.058 A 
ATOM     12  C   UNL A   1      53.538  32.569  21.784  1.00  0.00     0.085 A 
ATOM     13  C   UNL A   1      52.146  31.430  24.015  1.00  0.00     0.008 A 
ATOM     14  C   UNL A   1      53.168  33.346  22.885  1.00  0.00     0.051 A 
ATOM     15  Cl  UNL A   1      54.260  33.381  20.441  1.00  0.00    -0.080 Cl
ATOM     16  C   UNL A   1      52.408  32.794  23.951  1.00  0.00     0.058 A 
ATOM     17  C   UNL A   1      51.526  32.394  25.978  1.00  0.00     0.028 A 
ATOM     18  N   UNL A   1      51.725  33.381  25.023  1.00  0.00    -0.280 N 
ATOM     19  C   UNL A   1      51.292  32.636  27.435  1.00  0.00     0.065 C 
BRANCH  10  20
ATOM     20  O   UNL A   1      53.454  30.383  20.711  1.00  0.00    -0.495 OA
ATOM     21  C   UNL A   1      54.215  29.209  21.030  1.00  0.00     0.278 C 
ENDBRANCH  10  20
BRANCH  18  22
ATOM     22  C   UNL A   1      51.261  34.726  25.055  1.00  0.00     0.262 C 
ATOM     23  O   UNL A   1      50.210  35.035  24.551  1.00  0.00    -0.268 OA
BRANCH  22  24
ATOM     24  C   UNL A   1      52.113  35.793  25.625  1.00  0.00     0.040 A 
ATOM     25  C   UNL A   1      51.659  37.116  25.562  1.00  0.00     0.015 A 
ATOM     26  C   UNL A   1      53.430  35.485  25.972  1.00  0.00     0.015 A 
ATOM     27  C   UNL A   1      52.561  38.155  25.784  1.00  0.00     0.021 A 
ATOM     28  C   UNL A   1      54.329  36.532  26.181  1.00  0.00     0.021 A 
ATOM     29  C   UNL A   1      53.894  37.858  26.071  1.00  0.00     0.041 A 
ATOM     30  Cl  UNL A   1      55.029  39.141  26.234  1.00  0.00    -0.084 Cl
ENDBRANCH  22  24
ENDBRANCH  18  22
ENDBRANCH   8   9
ENDBRANCH   6   8
ENDBRANCH   5   6
ENDBRANCH   4   5
ENDBRANCH   3   4
ENDBRANCH   2   3
ENDBRANCH   1   2
BRANCH   1  31
ATOM     31  C   UNL A   1      45.836  25.055  25.011  1.00  0.00     0.188 C 
BRANCH  31  32
ATOM     32  O   UNL A   1      44.539  24.731  25.442  1.00  0.00    -0.376 OA
BRANCH  32  33
ATOM     33  C   UNL A   1      43.911  23.647  24.783  1.00  0.00     0.202 C 
BRANCH  33  34
ATOM     34  C   UNL A   1      43.720  22.310  25.549  1.00  0.00     0.261 C 
BRANCH  34  35
ATOM     35  O   UNL A   1      42.342  22.026  25.929  1.00  0.00    -0.460 OA
BRANCH  35  36
ATOM     36  C   UNL A   1      42.053  22.104  27.267  1.00  0.00     0.338 C 
ATOM     37  O   UNL A   1      42.373  21.267  28.097  1.00  0.00    -0.246 OA
BRANCH  36  38
ATOM     38  C   UNL A   1      41.661  23.512  27.646  1.00  0.00     0.060 A 
ATOM     39  C   UNL A   1      40.720  24.310  27.005  1.00  0.00     0.016 A 
ATOM     40  C   UNL A   1      42.431  24.111  28.648  1.00  0.00     0.016 A 
ATOM     41  C   UNL A   1      40.671  25.702  27.284  1.00  0.00     0.010 A 
ATOM     42  C   UNL A   1      42.433  25.490  28.887  1.00  0.00     0.010 A 
ATOM     43  C   UNL A   1      41.578  26.321  28.174  1.00  0.00    -0.014 A 
BRANCH  43  44
ATOM     44  C   UNL A   1      41.377  27.702  28.685  1.00  0.00     0.031 A 
ATOM     45  C   UNL A   1      42.370  28.604  28.096  1.00  0.00     0.074 A 
ATOM     46  C   UNL A   1      40.458  28.282  29.497  1.00  0.00     0.049 A 
ATOM     47  N   UNL A   1      43.548  28.769  28.592  1.00  0.00    -0.248 NA
ATOM     48  C   UNL A   1      42.167  29.200  26.776  1.00  0.00     0.031 C 
ATOM     49  C   UNL A   1      39.371  27.643  30.200  1.00  0.00     0.029 A 
ATOM     50  N   UNL A   1      40.306  29.596  29.895  1.00  0.00    -0.354 N 
ATOM     51  C   UNL A   1      44.118  29.754  27.820  1.00  0.00     0.074 A 
ATOM     52  C   UNL A   1      43.367  29.762  26.589  1.00  0.00     0.031 C 
ATOM     53  C   UNL A   1      38.516  28.546  30.738  1.00  0.00     0.029 A 
ATOM     54  C   UNL A   1      39.133  29.860  30.620  1.00  0.00     0.049 A 
ATOM     55  H   UNL A   1      40.969  30.293  29.686  1.00  0.00     0.167 HD
ATOM     56  C   UNL A   1      44.927  30.674  28.410  1.00  0.00     0.037 A 
ATOM     57  C   UNL A   1      38.823  30.902  31.443  1.00  0.00     0.037 A 
ATOM     58  C   UNL A   1      45.294  30.262  29.757  1.00  0.00     0.049 A 
ATOM     59  C   UNL A   1      40.104  31.408  31.974  1.00  0.00     0.074 A 
ATOM     60  C   UNL A   1      45.873  29.132  30.309  1.00  0.00     0.029 A 
ATOM     61  N   UNL A   1      44.686  30.909  30.808  1.00  0.00    -0.354 N 
ATOM     62  N   UNL A   1      40.850  30.750  32.818  1.00  0.00    -0.248 NA
ATOM     63  C   UNL A   1      40.766  32.477  31.251  1.00  0.00     0.031 C 
ATOM     64  C   UNL A   1      45.219  28.934  31.562  1.00  0.00     0.029 A 
ATOM     65  C   UNL A   1      44.318  29.981  31.752  1.00  0.00     0.049 A 
ATOM     66  H   UNL A   1      44.539  31.881  30.874  1.00  0.00     0.167 HD
ATOM     67  C   UNL A   1      42.146  31.005  32.402  1.00  0.00     0.074 A 
ATOM     68  C   UNL A   1      42.035  32.159  31.514  1.00  0.00     0.031 C 
ATOM     69  C   UNL A   1      43.146  30.098  32.606  1.00  0.00     0.037 A 
BRANCH  56  70
ATOM     70  C   UNL A   1      45.047  32.099  27.932  1.00  0.00     0.058 A 
ATOM     71  C   UNL A   1      46.292  32.550  27.456  1.00  0.00     0.135 A 
ATOM     72  C   UNL A   1      44.073  33.103  28.141  1.00  0.00     0.135 A 
ATOM     73  F   UNL A   1      47.294  31.684  27.237  1.00  0.00    -0.206 F 
ATOM     74  C   UNL A   1      46.570  33.902  27.266  1.00  0.00     0.059 A 
ATOM     75  C   UNL A   1      44.308  34.447  27.896  1.00  0.00     0.059 A 
ATOM     76  F   UNL A   1      42.879  32.856  28.688  1.00  0.00    -0.206 F 
ATOM     77  C   UNL A   1      45.572  34.843  27.502  1.00  0.00     0.060 A 
BRANCH  77  78
ATOM     78  S   UNL A   1      45.958  36.593  27.369  1.00  0.00     0.124 S 
ATOM     79  O   UNL A   1      46.421  36.678  25.988  1.00  0.00    -0.237 OA
ATOM     80  O   UNL A   1      44.666  37.207  27.652  1.00  0.00    -0.237 OA
ATOM     81  O   UNL A   1      46.980  36.789  28.393  1.00  0.00    -0.744 OA
ENDBRANCH  77  78
ENDBRANCH  56  70
BRANCH  57  82
ATOM     82  C   UNL A   1      37.533  31.640  31.603  1.00  0.00     0.058 A 
ATOM     83  C   UNL A   1      36.895  31.768  32.856  1.00  0.00     0.135 A 
ATOM     84  C   UNL A   1      37.036  32.469  30.579  1.00  0.00     0.135 A 
ATOM     85  F   UNL A   1      37.294  31.020  33.897  1.00  0.00    -0.206 F 
ATOM     86  C   UNL A   1      35.883  32.709  33.097  1.00  0.00     0.059 A 
ATOM     87  C   UNL A   1      36.028  33.416  30.797  1.00  0.00     0.059 A 
ATOM     88  F   UNL A   1      37.581  32.436  29.353  1.00  0.00    -0.206 F 
ATOM     89  C   UNL A   1      35.475  33.552  32.066  1.00  0.00     0.060 A 
BRANCH  89  90
ATOM     90  S   UNL A   1      34.308  34.893  32.422  1.00  0.00     0.124 S 
ATOM     91  O   UNL A   1      34.064  35.448  31.094  1.00  0.00    -0.237 OA
ATOM     92  O   UNL A   1      33.189  34.178  33.027  1.00  0.00    -0.237 OA
ATOM     93  O   UNL A   1      35.053  35.760  33.332  1.00  0.00    -0.744 OA
ENDBRANCH  89  90
ENDBRANCH  57  82
BRANCH  69  94
ATOM     94  C   UNL A   1      42.931  29.013  33.641  1.00  0.00     0.058 A 
ATOM     95  C   UNL A   1      43.080  29.180  35.030  1.00  0.00     0.135 A 
ATOM     96  C   UNL A   1      42.420  27.779  33.209  1.00  0.00     0.135 A 
ATOM     97  F   UNL A   1      43.490  30.348  35.542  1.00  0.00    -0.206 F 
ATOM     98  C   UNL A   1      42.749  28.171  35.941  1.00  0.00     0.059 A 
ATOM     99  C   UNL A   1      42.055  26.767  34.099  1.00  0.00     0.059 A 
ATOM    100  F   UNL A   1      42.217  27.560  31.899  1.00  0.00    -0.206 F 
ATOM    101  C   UNL A   1      42.224  26.970  35.466  1.00  0.00     0.060 A 
BRANCH 101 102
ATOM    102  S   UNL A   1      41.689  25.710  36.649  1.00  0.00     0.124 S 
ATOM    103  O   UNL A   1      40.668  26.415  37.416  1.00  0.00    -0.237 OA
ATOM    104  O   UNL A   1      41.204  24.645  35.776  1.00  0.00    -0.237 OA
ATOM    105  O   UNL A   1      42.911  25.391  37.384  1.00  0.00    -0.744 OA
ENDBRANCH 101 102
ENDBRANCH  69  94
ENDBRANCH  43  44
ENDBRANCH  36  38
ENDBRANCH  35  36
ENDBRANCH  34  35
ENDBRANCH  33  34
ENDBRANCH  32  33
ENDBRANCH  31  32
ENDBRANCH   1  31
TORSDOF 24
ENDMDL
MODEL 3
REMARK VINA RESULT:      -8.5      5.443     10.136
REMARK SMILES COc1cc2c(CC(=O)OCCOCCOCCOC(=O)c3ccc(-c4c5nc(c(-c6c(F)cc(S(=O)(=O)[O-])cc6F)c6ccc([nH]6)c(-c6c(F)cc(S(=O)(=O)[O-])cc6F)c6nc(c(-c7c(F)cc(S(=O)(=O)[O-])cc7F)c7ccc4[nH]7)C=C6)C=C5)cc3)c(C)n(C(=O)c3ccc(Cl)cc3)c2cc1Cl
REMARK SMILES IDX 14 1 13 2 12 3 11 4 10 5 8 6 9 7 7 8 6 9 3 10 4 11 102 12
REMARK SMILES IDX 5 13 101 14 103 15 100 16 88 17 90 18 89 19 2 20 1 21 91 22
REMARK SMILES IDX 92 23 93 24 94 25 99 26 95 27 98 28 96 29 97 30 15 31 16 32
REMARK SMILES IDX 17 33 18 34 19 35 20 36 21 37 22 38 23 39 87 40 24 41 86 42
REMARK SMILES IDX 25 43 26 44 27 45 80 46 28 47 85 48 79 49 81 50 29 51 84 52
REMARK SMILES IDX 78 53 77 54 30 56 64 57 43 58 63 59 44 60 47 61 62 62 82 63
REMARK SMILES IDX 45 64 46 65 61 67 83 68 48 69 31 70 32 71 41 72 33 73 34 74
REMARK SMILES IDX 40 75 42 76 35 77 36 78 37 79 38 80 39 81 65 82 66 83 75 84
REMARK SMILES IDX 67 85 68 86 74 87 76 88 69 89 70 90 71 91 72 92 73 93 49 94
REMARK SMILES IDX 50 95 59 96 51 97 52 98 58 99 60 100 53 101 54 102 55 103
REMARK SMILES IDX 56 104 57 105
REMARK H PARENT 81 55 47 66
REMARK Flexibility Score: inf
ROOT
ATOM      1  C   UNL A   1      44.538  24.570  31.414  1.00  0.00     0.188 C 
ENDROOT
BRANCH   1   2
ATOM      2  O   UNL A   1      44.833  24.031  30.147  1.00  0.00    -0.376 OA
BRANCH   2   3
ATOM      3  C   UNL A   1      43.784  24.056  29.189  1.00  0.00     0.202 C 
BRANCH   3   4
ATOM      4  C   UNL A   1      43.158  22.702  28.809  1.00  0.00     0.261 C 
BRANCH   4   5
ATOM      5  O   UNL A   1      41.704  22.790  28.742  1.00  0.00    -0.463 OA
BRANCH   5   6
ATOM      6  C   UNL A   1      41.116  22.108  27.722  1.00  0.00     0.310 C 
ATOM      7  O   UNL A   1      40.676  20.970  27.867  1.00  0.00    -0.252 OA
BRANCH   6   8
ATOM      8  C   UNL A   1      40.784  22.942  26.480  1.00  0.00     0.160 C 
BRANCH   8   9
ATOM      9  C   UNL A   1      41.499  24.194  26.037  1.00  0.00    -0.008 A 
ATOM     10  C   UNL A   1      45.213  23.914  24.844  1.00  0.00     0.138 A 
ATOM     11  C   UNL A   1      43.873  23.513  25.024  1.00  0.00     0.058 A 
ATOM     12  C   UNL A   1      45.562  25.205  25.173  1.00  0.00     0.085 A 
ATOM     13  C   UNL A   1      42.855  24.345  25.547  1.00  0.00     0.008 A 
ATOM     14  C   UNL A   1      44.587  26.070  25.677  1.00  0.00     0.051 A 
ATOM     15  Cl  UNL A   1      47.131  25.862  24.871  1.00  0.00    -0.080 Cl
ATOM     16  C   UNL A   1      43.230  25.662  25.784  1.00  0.00     0.058 A 
ATOM     17  C   UNL A   1      41.093  25.463  26.448  1.00  0.00     0.028 A 
ATOM     18  N   UNL A   1      42.049  26.375  26.024  1.00  0.00    -0.280 N 
ATOM     19  C   UNL A   1      39.880  25.797  27.256  1.00  0.00     0.065 C 
BRANCH  10  20
ATOM     20  O   UNL A   1      46.059  23.001  24.263  1.00  0.00    -0.495 OA
ATOM     21  C   UNL A   1      46.019  21.686  24.838  1.00  0.00     0.278 C 
ENDBRANCH  10  20
BRANCH  18  22
ATOM     22  C   UNL A   1      41.874  27.767  25.783  1.00  0.00     0.262 C 
ATOM     23  O   UNL A   1      42.167  28.258  24.721  1.00  0.00    -0.268 OA
BRANCH  22  24
ATOM     24  C   UNL A   1      41.421  28.659  26.873  1.00  0.00     0.040 A 
ATOM     25  C   UNL A   1      42.313  28.949  27.914  1.00  0.00     0.015 A 
ATOM     26  C   UNL A   1      40.064  28.973  26.962  1.00  0.00     0.015 A 
ATOM     27  C   UNL A   1      41.823  29.502  29.095  1.00  0.00     0.021 A 
ATOM     28  C   UNL A   1      39.580  29.516  28.153  1.00  0.00     0.021 A 
ATOM     29  C   UNL A   1      40.457  29.763  29.215  1.00  0.00     0.041 A 
ATOM     30  Cl  UNL A   1      39.836  30.342  30.712  1.00  0.00    -0.084 Cl
ENDBRANCH  22  24
ENDBRANCH  18  22
ENDBRANCH   8   9
ENDBRANCH   6   8
ENDBRANCH   5   6
ENDBRANCH   4   5
ENDBRANCH   3   4
ENDBRANCH   2   3
ENDBRANCH   1   2
BRANCH   1  31
ATOM     31  C   UNL A   1      44.141  23.598  32.529  1.00  0.00     0.188 C 
BRANCH  31  32
ATOM     32  O   UNL A   1      44.920  23.449  33.689  1.00  0.00    -0.376 OA
BRANCH  32  33
ATOM     33  C   UNL A   1      44.240  23.003  34.847  1.00  0.00     0.202 C 
BRANCH  33  34
ATOM     34  C   UNL A   1      42.885  23.659  35.225  1.00  0.00     0.261 C 
BRANCH  34  35
ATOM     35  O   UNL A   1      43.000  25.009  35.763  1.00  0.00    -0.460 OA
BRANCH  35  36
ATOM     36  C   UNL A   1      42.049  25.909  35.353  1.00  0.00     0.338 C 
ATOM     37  O   UNL A   1      41.005  26.134  35.946  1.00  0.00    -0.246 OA
BRANCH  36  38
ATOM     38  C   UNL A   1      42.622  26.859  34.330  1.00  0.00     0.060 A 
ATOM     39  C   UNL A   1      41.960  27.383  33.226  1.00  0.00     0.016 A 
ATOM     40  C   UNL A   1      43.993  27.113  34.433  1.00  0.00     0.016 A 
ATOM     41  C   UNL A   1      42.704  28.020  32.196  1.00  0.00     0.010 A 
ATOM     42  C   UNL A   1      44.744  27.684  33.399  1.00  0.00     0.010 A 
ATOM     43  C   UNL A   1      44.114  28.111  32.237  1.00  0.00    -0.014 A 
BRANCH  43  44
ATOM     44  C   UNL A   1      44.883  28.998  31.325  1.00  0.00     0.031 A 
ATOM     45  C   UNL A   1      45.767  28.198  30.474  1.00  0.00     0.074 A 
ATOM     46  C   UNL A   1      44.879  30.333  31.084  1.00  0.00     0.049 A 
ATOM     47  N   UNL A   1      46.947  27.829  30.841  1.00  0.00    -0.248 NA
ATOM     48  C   UNL A   1      45.279  27.571  29.246  1.00  0.00     0.031 C 
ATOM     49  C   UNL A   1      44.107  31.350  31.758  1.00  0.00     0.029 A 
ATOM     50  N   UNL A   1      45.596  31.090  30.179  1.00  0.00    -0.354 N 
ATOM     51  C   UNL A   1      47.475  27.198  29.739  1.00  0.00     0.074 A 
ATOM     52  C   UNL A   1      46.342  26.822  28.930  1.00  0.00     0.031 C 
ATOM     53  C   UNL A   1      44.177  32.544  31.120  1.00  0.00     0.029 A 
ATOM     54  C   UNL A   1      45.211  32.438  30.101  1.00  0.00     0.049 A 
ATOM     55  H   UNL A   1      46.321  30.712  29.629  1.00  0.00     0.167 HD
ATOM     56  C   UNL A   1      48.796  27.353  29.458  1.00  0.00     0.037 A 
ATOM     57  C   UNL A   1      45.883  33.518  29.611  1.00  0.00     0.037 A 
ATOM     58  C   UNL A   1      49.507  27.945  30.582  1.00  0.00     0.049 A 
ATOM     59  C   UNL A   1      47.321  33.205  29.736  1.00  0.00     0.074 A 
ATOM     60  C   UNL A   1      49.643  27.633  31.924  1.00  0.00     0.029 A 
ATOM     61  N   UNL A   1      49.878  29.266  30.476  1.00  0.00    -0.354 N 
ATOM     62  N   UNL A   1      47.949  33.126  30.877  1.00  0.00    -0.248 NA
ATOM     63  C   UNL A   1      47.981  32.573  28.610  1.00  0.00     0.031 C 
ATOM     64  C   UNL A   1      49.666  28.883  32.612  1.00  0.00     0.029 A 
ATOM     65  C   UNL A   1      49.606  29.903  31.663  1.00  0.00     0.049 A 
ATOM     66  H   UNL A   1      50.274  29.687  29.678  1.00  0.00     0.167 HD
ATOM     67  C   UNL A   1      48.824  32.065  30.713  1.00  0.00     0.074 A 
ATOM     68  C   UNL A   1      48.880  31.843  29.271  1.00  0.00     0.031 C 
ATOM     69  C   UNL A   1      49.212  31.298  31.775  1.00  0.00     0.037 A 
BRANCH  56  70
ATOM     70  C   UNL A   1      49.349  27.348  28.055  1.00  0.00     0.058 A 
ATOM     71  C   UNL A   1      50.435  26.504  27.759  1.00  0.00     0.135 A 
ATOM     72  C   UNL A   1      49.026  28.298  27.058  1.00  0.00     0.135 A 
ATOM     73  F   UNL A   1      50.838  25.575  28.641  1.00  0.00    -0.206 F 
ATOM     74  C   UNL A   1      51.185  26.637  26.592  1.00  0.00     0.059 A 
ATOM     75  C   UNL A   1      49.718  28.405  25.861  1.00  0.00     0.059 A 
ATOM     76  F   UNL A   1      48.093  29.241  27.226  1.00  0.00    -0.206 F 
ATOM     77  C   UNL A   1      50.823  27.601  25.656  1.00  0.00     0.060 A 
BRANCH  77  78
ATOM     78  S   UNL A   1      51.852  27.853  24.204  1.00  0.00     0.124 S 
ATOM     79  O   UNL A   1      51.737  26.558  23.544  1.00  0.00    -0.237 OA
ATOM     80  O   UNL A   1      51.180  28.970  23.551  1.00  0.00    -0.237 OA
ATOM     81  O   UNL A   1      53.162  28.160  24.772  1.00  0.00    -0.744 OA
ENDBRANCH  77  78
ENDBRANCH  56  70
BRANCH  57  82
ATOM     82  C   UNL A   1      45.374  34.680  28.820  1.00  0.00     0.058 A 
ATOM     83  C   UNL A   1      44.241  34.575  27.984  1.00  0.00     0.135 A 
ATOM     84  C   UNL A   1      45.823  35.989  29.077  1.00  0.00     0.135 A 
ATOM     85  F   UNL A   1      43.736  33.370  27.677  1.00  0.00    -0.206 F 
ATOM     86  C   UNL A   1      43.555  35.697  27.496  1.00  0.00     0.059 A 
ATOM     87  C   UNL A   1      45.153  37.124  28.602  1.00  0.00     0.059 A 
ATOM     88  F   UNL A   1      46.883  36.200  29.871  1.00  0.00    -0.206 F 
ATOM     89  C   UNL A   1      44.002  36.972  27.836  1.00  0.00     0.060 A 
BRANCH  89  90
ATOM     90  S   UNL A   1      43.011  38.417  27.370  1.00  0.00     0.124 S 
ATOM     91  O   UNL A   1      41.943  37.815  26.578  1.00  0.00    -0.237 OA
ATOM     92  O   UNL A   1      42.614  38.952  28.668  1.00  0.00    -0.237 OA
ATOM     93  O   UNL A   1      43.951  39.246  26.620  1.00  0.00    -0.744 OA
ENDBRANCH  89  90
ENDBRANCH  57  82
BRANCH  69  94
ATOM     94  C   UNL A   1      49.021  31.856  33.170  1.00  0.00     0.058 A 
ATOM     95  C   UNL A   1      47.906  31.613  33.992  1.00  0.00     0.135 A 
ATOM     96  C   UNL A   1      50.086  32.563  33.750  1.00  0.00     0.135 A 
ATOM     97  F   UNL A   1      46.874  30.883  33.552  1.00  0.00    -0.206 F 
ATOM     98  C   UNL A   1      47.847  32.059  35.318  1.00  0.00     0.059 A 
ATOM     99  C   UNL A   1      50.064  32.993  35.078  1.00  0.00     0.059 A 
ATOM    100  F   UNL A   1      51.200  32.802  33.037  1.00  0.00    -0.206 F 
ATOM    101  C   UNL A   1      48.938  32.739  35.857  1.00  0.00     0.060 A 
BRANCH 101 102
ATOM    102  S   UNL A   1      48.909  33.213  37.603  1.00  0.00     0.124 S 
ATOM    103  O   UNL A   1      50.278  33.661  37.828  1.00  0.00    -0.237 OA
ATOM    104  O   UNL A   1      47.888  34.257  37.628  1.00  0.00    -0.237 OA
ATOM    105  O   UNL A   1      48.538  31.976  38.287  1.00  0.00    -0.744 OA
ENDBRANCH 101 102
ENDBRANCH  69  94
ENDBRANCH  43  44
ENDBRANCH  36  38
ENDBRANCH  35  36
ENDBRANCH  34  35
ENDBRANCH  33  34
ENDBRANCH  32  33
ENDBRANCH  31  32
ENDBRANCH   1  31
TORSDOF 24
ENDMDL
