MODEL 1
REMARK VINA RESULT:     -12.0      0.000      0.000
REMARK SMILES Cc1cccc(OCC(=O)Nc2cc(C(=O)OCCOCCOCCOC(=O)c3ccc(-c4c5nc(c(-c6c(F)cc(S(=O)(=O)[O-])cc6F)c6ccc([nH]6)c(-c6c(F)cc(S(=O)(=O)[O-])cc6F)c6nc(c(-c7c(F)cc(S(=O)(=O)[O-])cc7F)c7ccc4[nH]7)C=C6)C=C5)cc3)c(Cl)cc2Cl)c1
REMARK SMILES IDX 21 1 20 2 19 3 18 4 17 5 15 6 16 7 14 8 12 9 13 10 98 11
REMARK SMILES IDX 97 12 99 13 95 14 96 15 11 16 9 17 10 18 8 20 7 21 6 22 1 23
REMARK SMILES IDX 2 24 3 25 100 26 4 27 5 28 22 29 23 30 24 31 25 32 26 33
REMARK SMILES IDX 27 34 28 35 29 36 30 37 94 38 31 39 93 40 32 41 33 42 34 43
REMARK SMILES IDX 87 44 35 45 92 46 86 47 88 48 36 49 91 50 85 51 84 52 37 54
REMARK SMILES IDX 71 55 50 56 70 57 51 58 54 59 69 60 89 61 52 62 53 63 68 65
REMARK SMILES IDX 90 66 55 67 38 68 39 69 48 70 40 71 41 72 47 73 49 74 42 75
REMARK SMILES IDX 43 76 44 77 45 78 46 79 72 80 73 81 82 82 74 83 75 84 81 85
REMARK SMILES IDX 83 86 76 87 77 88 78 89 79 90 80 91 56 92 57 93 66 94 58 95
REMARK SMILES IDX 59 96 65 97 67 98 60 99 61 100 62 101 63 102 64 103
REMARK H PARENT 11 19 88 53 54 64
REMARK Flexibility Score: inf
ROOT
ATOM      1  C   UNL A   1      33.764  28.624  24.394  1.00  0.00     0.188 C 
ENDROOT
BRANCH   1   2
ATOM      2  O   UNL A   1      33.002  29.350  23.428  1.00  0.00    -0.376 OA
BRANCH   2   3
ATOM      3  C   UNL A   1      31.952  28.670  22.751  1.00  0.00     0.202 C 
BRANCH   3   4
ATOM      4  C   UNL A   1      31.465  27.223  23.120  1.00  0.00     0.261 C 
BRANCH   4   5
ATOM      5  O   UNL A   1      31.015  26.717  24.514  1.00  0.00    -0.460 OA
BRANCH   5   6
ATOM      6  C   UNL A   1      30.675  25.731  25.488  1.00  0.00     0.339 C 
ATOM      7  O   UNL A   1      30.221  26.104  26.573  1.00  0.00    -0.246 OA
BRANCH   6   8
ATOM      8  C   UNL A   1      31.191  23.892  25.361  1.00  0.00     0.080 A 
ATOM      9  C   UNL A   1      31.963  22.549  23.583  1.00  0.00     0.061 A 
ATOM     10  C   UNL A   1      31.040  23.484  24.053  1.00  0.00     0.045 A 
ATOM     11  C   UNL A   1      32.068  21.343  24.255  1.00  0.00     0.066 A 
ATOM     12  C   UNL A   1      32.001  21.429  25.606  1.00  0.00     0.044 A 
ATOM     13  Cl  UNL A   1      32.778  19.949  23.541  1.00  0.00    -0.082 Cl
ATOM     14  C   UNL A   1      31.820  22.719  26.151  1.00  0.00     0.057 A 
ATOM     15  Cl  UNL A   1      32.758  22.536  27.679  1.00  0.00    -0.083 Cl
BRANCH   9  16
ATOM     16  N   UNL A   1      33.238  23.017  23.131  1.00  0.00    -0.322 N 
ATOM     17  C   UNL A   1      34.566  22.739  23.478  1.00  0.00     0.262 C 
ATOM     18  O   UNL A   1      35.368  23.096  22.592  1.00  0.00    -0.271 OA
ATOM     19  H   UNL A   1      33.164  23.688  22.414  1.00  0.00     0.170 HD
BRANCH  17  20
ATOM     20  C   UNL A   1      35.284  22.015  25.034  1.00  0.00     0.329 C 
BRANCH  20  21
ATOM     21  O   UNL A   1      37.079  22.646  25.975  1.00  0.00    -0.484 OA
BRANCH  21  22
ATOM     22  C   UNL A   1      38.690  22.168  26.020  1.00  0.00     0.120 A 
ATOM     23  C   UNL A   1      41.772  22.423  28.397  1.00  0.00     0.044 C 
ATOM     24  C   UNL A   1      40.770  21.870  27.417  1.00  0.00    -0.047 A 
ATOM     25  C   UNL A   1      40.798  20.532  27.055  1.00  0.00     0.003 A 
ATOM     26  C   UNL A   1      39.737  22.678  26.887  1.00  0.00     0.049 A 
ATOM     27  C   UNL A   1      39.904  20.072  26.075  1.00  0.00     0.004 A 
ATOM     28  C   UNL A   1      38.909  20.910  25.496  1.00  0.00     0.046 A 
ENDBRANCH  21  22
ENDBRANCH  20  21
ENDBRANCH  17  20
ENDBRANCH   9  16
ENDBRANCH   6   8
ENDBRANCH   5   6
ENDBRANCH   4   5
ENDBRANCH   3   4
ENDBRANCH   2   3
ENDBRANCH   1   2
BRANCH   1  29
ATOM     29  C   UNL A   1      33.348  28.675  25.834  1.00  0.00     0.188 C 
BRANCH  29  30
ATOM     30  O   UNL A   1      34.083  29.711  26.479  1.00  0.00    -0.376 OA
BRANCH  30  31
ATOM     31  C   UNL A   1      33.404  30.347  27.540  1.00  0.00     0.202 C 
BRANCH  31  32
ATOM     32  C   UNL A   1      33.975  31.728  27.923  1.00  0.00     0.261 C 
BRANCH  32  33
ATOM     33  O   UNL A   1      34.369  31.978  29.314  1.00  0.00    -0.460 OA
BRANCH  33  34
ATOM     34  C   UNL A   1      35.265  32.955  29.752  1.00  0.00     0.338 C 
ATOM     35  O   UNL A   1      34.899  34.106  29.937  1.00  0.00    -0.246 OA
BRANCH  34  36
ATOM     36  C   UNL A   1      36.477  32.389  30.405  1.00  0.00     0.060 A 
ATOM     37  C   UNL A   1      37.404  32.753  31.395  1.00  0.00     0.016 A 
ATOM     38  C   UNL A   1      36.521  31.086  30.161  1.00  0.00     0.016 A 
ATOM     39  C   UNL A   1      38.656  31.986  31.666  1.00  0.00     0.010 A 
ATOM     40  C   UNL A   1      37.671  30.416  30.479  1.00  0.00     0.010 A 
ATOM     41  C   UNL A   1      38.944  30.782  31.020  1.00  0.00    -0.014 A 
BRANCH  41  42
ATOM     42  C   UNL A   1      40.454  29.777  31.017  1.00  0.00     0.031 A 
ATOM     43  C   UNL A   1      40.932  28.307  29.932  1.00  0.00     0.074 A 
ATOM     44  C   UNL A   1      41.478  30.304  31.755  1.00  0.00     0.049 A 
ATOM     45  N   UNL A   1      42.320  27.603  30.248  1.00  0.00    -0.248 NA
ATOM     46  C   UNL A   1      40.055  27.185  28.426  1.00  0.00     0.031 C 
ATOM     47  C   UNL A   1      42.903  29.967  31.755  1.00  0.00     0.029 A 
ATOM     48  N   UNL A   1      41.430  31.360  32.678  1.00  0.00    -0.354 N 
ATOM     49  C   UNL A   1      42.755  26.258  29.131  1.00  0.00     0.074 A 
ATOM     50  C   UNL A   1      41.214  25.956  28.022  1.00  0.00     0.031 C 
ATOM     51  C   UNL A   1      43.522  30.596  32.771  1.00  0.00     0.029 A 
ATOM     52  C   UNL A   1      42.487  31.207  33.578  1.00  0.00     0.049 A 
ATOM     53  H   UNL A   1      40.764  32.086  32.689  1.00  0.00     0.167 HD
ATOM     54  C   UNL A   1      44.025  25.793  29.209  1.00  0.00     0.037 A 
ATOM     55  C   UNL A   1      42.239  31.009  34.897  1.00  0.00     0.037 A 
ATOM     56  C   UNL A   1      44.644  26.347  30.418  1.00  0.00     0.049 A 
ATOM     57  C   UNL A   1      42.760  29.631  35.246  1.00  0.00     0.074 A 
ATOM     58  C   UNL A   1      45.536  27.380  30.655  1.00  0.00     0.029 A 
ATOM     59  N   UNL A   1      44.074  26.062  31.673  1.00  0.00    -0.354 N 
ATOM     60  N   UNL A   1      42.924  28.682  34.349  1.00  0.00    -0.248 NA
ATOM     61  C   UNL A   1      43.336  29.271  36.536  1.00  0.00     0.031 C 
ATOM     62  C   UNL A   1      45.478  27.717  32.045  1.00  0.00     0.029 A 
ATOM     63  C   UNL A   1      44.554  26.895  32.681  1.00  0.00     0.049 A 
ATOM     64  H   UNL A   1      43.408  25.352  31.822  1.00  0.00     0.167 HD
ATOM     65  C   UNL A   1      43.726  27.698  34.849  1.00  0.00     0.074 A 
ATOM     66  C   UNL A   1      43.915  28.091  36.241  1.00  0.00     0.031 C 
ATOM     67  C   UNL A   1      44.237  26.661  34.106  1.00  0.00     0.037 A 
BRANCH  54  68
ATOM     68  C   UNL A   1      44.670  25.087  28.042  1.00  0.00     0.058 A 
ATOM     69  C   UNL A   1      44.923  25.749  26.826  1.00  0.00     0.135 A 
ATOM     70  C   UNL A   1      44.989  23.714  28.033  1.00  0.00     0.135 A 
ATOM     71  F   UNL A   1      44.732  27.070  26.707  1.00  0.00    -0.206 F 
ATOM     72  C   UNL A   1      45.384  25.082  25.679  1.00  0.00     0.059 A 
ATOM     73  C   UNL A   1      45.361  23.008  26.886  1.00  0.00     0.059 A 
ATOM     74  F   UNL A   1      45.042  23.016  29.172  1.00  0.00    -0.206 F 
ATOM     75  C   UNL A   1      45.575  23.705  25.709  1.00  0.00     0.060 A 
BRANCH  75  76
ATOM     76  S   UNL A   1      46.161  22.844  24.234  1.00  0.00     0.124 S 
ATOM     77  O   UNL A   1      47.180  23.752  23.717  1.00  0.00    -0.237 OA
ATOM     78  O   UNL A   1      46.654  21.592  24.796  1.00  0.00    -0.237 OA
ATOM     79  O   UNL A   1      44.962  22.729  23.406  1.00  0.00    -0.744 OA
ENDBRANCH  75  76
ENDBRANCH  54  68
BRANCH  55  80
ATOM     80  C   UNL A   1      41.092  31.868  35.364  1.00  0.00     0.058 A 
ATOM     81  C   UNL A   1      39.837  31.210  35.478  1.00  0.00     0.135 A 
ATOM     82  C   UNL A   1      41.237  33.022  36.148  1.00  0.00     0.135 A 
ATOM     83  F   UNL A   1      39.594  30.112  34.742  1.00  0.00    -0.206 F 
ATOM     84  C   UNL A   1      38.878  31.551  36.437  1.00  0.00     0.059 A 
ATOM     85  C   UNL A   1      40.257  33.411  37.094  1.00  0.00     0.059 A 
ATOM     86  F   UNL A   1      42.386  33.713  36.120  1.00  0.00    -0.206 F 
ATOM     87  C   UNL A   1      39.120  32.623  37.285  1.00  0.00     0.060 A 
BRANCH  87  88
ATOM     88  S   UNL A   1      37.996  32.837  38.702  1.00  0.00     0.124 S 
ATOM     89  O   UNL A   1      38.515  31.874  39.664  1.00  0.00    -0.237 OA
ATOM     90  O   UNL A   1      38.203  34.244  39.045  1.00  0.00    -0.237 OA
ATOM     91  O   UNL A   1      36.685  32.510  38.161  1.00  0.00    -0.744 OA
ENDBRANCH  87  88
ENDBRANCH  55  80
BRANCH  67  92
ATOM     92  C   UNL A   1      44.615  25.334  34.735  1.00  0.00     0.058 A 
ATOM     93  C   UNL A   1      43.869  24.153  34.554  1.00  0.00     0.135 A 
ATOM     94  C   UNL A   1      45.849  25.166  35.410  1.00  0.00     0.135 A 
ATOM     95  F   UNL A   1      42.754  24.122  33.812  1.00  0.00    -0.206 F 
ATOM     96  C   UNL A   1      44.261  22.930  35.086  1.00  0.00     0.059 A 
ATOM     97  C   UNL A   1      46.306  23.933  35.860  1.00  0.00     0.059 A 
ATOM     98  F   UNL A   1      46.681  26.190  35.642  1.00  0.00    -0.206 F 
ATOM     99  C   UNL A   1      45.485  22.827  35.732  1.00  0.00     0.060 A 
BRANCH  99 100
ATOM    100  S   UNL A   1      46.009  21.229  36.359  1.00  0.00     0.124 S 
ATOM    101  O   UNL A   1      45.066  20.338  35.691  1.00  0.00    -0.237 OA
ATOM    102  O   UNL A   1      47.391  21.149  35.899  1.00  0.00    -0.237 OA
ATOM    103  O   UNL A   1      45.843  21.362  37.803  1.00  0.00    -0.744 OA
ENDBRANCH  99 100
ENDBRANCH  67  92
ENDBRANCH  41  42
ENDBRANCH  34  36
ENDBRANCH  33  34
ENDBRANCH  32  33
ENDBRANCH  31  32
ENDBRANCH  30  31
ENDBRANCH  29  30
ENDBRANCH   1  29
TORSDOF 24
ENDMDL
MODEL 2
REMARK VINA RESULT:     -11.8      2.396      4.024
REMARK SMILES Cc1cccc(OCC(=O)Nc2cc(C(=O)OCCOCCOCCOC(=O)c3ccc(-c4c5nc(c(-c6c(F)cc(S(=O)(=O)[O-])cc6F)c6ccc([nH]6)c(-c6c(F)cc(S(=O)(=O)[O-])cc6F)c6nc(c(-c7c(F)cc(S(=O)(=O)[O-])cc7F)c7ccc4[nH]7)C=C6)C=C5)cc3)c(Cl)cc2Cl)c1
REMARK SMILES IDX 21 1 20 2 19 3 18 4 17 5 15 6 16 7 14 8 12 9 13 10 98 11
REMARK SMILES IDX 97 12 99 13 95 14 96 15 11 16 9 17 10 18 8 20 7 21 6 22 1 23
REMARK SMILES IDX 2 24 3 25 100 26 4 27 5 28 22 29 23 30 24 31 25 32 26 33
REMARK SMILES IDX 27 34 28 35 29 36 30 37 94 38 31 39 93 40 32 41 33 42 34 43
REMARK SMILES IDX 87 44 35 45 92 46 86 47 88 48 36 49 91 50 85 51 84 52 37 54
REMARK SMILES IDX 71 55 50 56 70 57 51 58 54 59 69 60 89 61 52 62 53 63 68 65
REMARK SMILES IDX 90 66 55 67 38 68 39 69 48 70 40 71 41 72 47 73 49 74 42 75
REMARK SMILES IDX 43 76 44 77 45 78 46 79 72 80 73 81 82 82 74 83 75 84 81 85
REMARK SMILES IDX 83 86 76 87 77 88 78 89 79 90 80 91 56 92 57 93 66 94 58 95
REMARK SMILES IDX 59 96 65 97 67 98 60 99 61 100 62 101 63 102 64 103
REMARK H PARENT 11 19 88 53 54 64
REMARK Flexibility Score: inf
ROOT
ATOM      1  C   UNL A   1      34.322  34.016  28.809  1.00  0.00     0.188 C 
ENDROOT
BRANCH   1   2
ATOM      2  O   UNL A   1      34.578  33.144  27.707  1.00  0.00    -0.376 OA
BRANCH   2   3
ATOM      3  C   UNL A   1      35.502  32.078  27.893  1.00  0.00     0.202 C 
BRANCH   3   4
ATOM      4  C   UNL A   1      35.079  30.596  28.198  1.00  0.00     0.261 C 
BRANCH   4   5
ATOM      5  O   UNL A   1      34.353  29.617  27.240  1.00  0.00    -0.460 OA
BRANCH   5   6
ATOM      6  C   UNL A   1      33.239  29.101  26.513  1.00  0.00     0.339 C 
ATOM      7  O   UNL A   1      32.101  29.362  26.910  1.00  0.00    -0.246 OA
BRANCH   6   8
ATOM      8  C   UNL A   1      33.388  27.752  25.163  1.00  0.00     0.080 A 
ATOM      9  C   UNL A   1      33.666  25.412  25.240  1.00  0.00     0.061 A 
ATOM     10  C   UNL A   1      34.058  26.671  25.696  1.00  0.00     0.045 A 
ATOM     11  C   UNL A   1      33.739  25.159  23.881  1.00  0.00     0.066 A 
ATOM     12  C   UNL A   1      33.351  26.184  23.084  1.00  0.00     0.044 A 
ATOM     13  Cl  UNL A   1      33.757  23.564  23.239  1.00  0.00    -0.082 Cl
ATOM     14  C   UNL A   1      32.943  27.371  23.731  1.00  0.00     0.057 A 
ATOM     15  Cl  UNL A   1      31.682  27.929  22.570  1.00  0.00    -0.083 Cl
BRANCH   9  16
ATOM     16  N   UNL A   1      32.516  24.799  25.833  1.00  0.00    -0.322 N 
ATOM     17  C   UNL A   1      32.312  23.687  26.659  1.00  0.00     0.262 C 
ATOM     18  O   UNL A   1      31.204  23.724  27.232  1.00  0.00    -0.271 OA
ATOM     19  H   UNL A   1      31.679  25.266  25.609  1.00  0.00     0.170 HD
BRANCH  17  20
ATOM     20  C   UNL A   1      33.372  22.187  26.952  1.00  0.00     0.329 C 
BRANCH  20  21
ATOM     21  O   UNL A   1      34.360  21.060  25.448  1.00  0.00    -0.484 OA
BRANCH  21  22
ATOM     22  C   UNL A   1      34.144  19.596  24.651  1.00  0.00     0.120 A 
ATOM     23  C   UNL A   1      35.206  15.860  25.014  1.00  0.00     0.044 C 
ATOM     24  C   UNL A   1      34.371  17.084  24.741  1.00  0.00    -0.047 A 
ATOM     25  C   UNL A   1      33.015  16.972  24.478  1.00  0.00     0.003 A 
ATOM     26  C   UNL A   1      34.927  18.383  24.806  1.00  0.00     0.049 A 
ATOM     27  C   UNL A   1      32.286  18.125  24.143  1.00  0.00     0.004 A 
ATOM     28  C   UNL A   1      32.871  19.424  24.146  1.00  0.00     0.046 A 
ENDBRANCH  21  22
ENDBRANCH  20  21
ENDBRANCH  17  20
ENDBRANCH   9  16
ENDBRANCH   6   8
ENDBRANCH   5   6
ENDBRANCH   4   5
ENDBRANCH   3   4
ENDBRANCH   2   3
ENDBRANCH   1   2
BRANCH   1  29
ATOM     29  C   UNL A   1      34.721  33.581  30.187  1.00  0.00     0.188 C 
BRANCH  29  30
ATOM     30  O   UNL A   1      33.714  34.003  31.102  1.00  0.00    -0.376 OA
BRANCH  30  31
ATOM     31  C   UNL A   1      34.190  34.383  32.375  1.00  0.00     0.202 C 
BRANCH  31  32
ATOM     32  C   UNL A   1      34.744  33.219  33.222  1.00  0.00     0.261 C 
BRANCH  32  33
ATOM     33  O   UNL A   1      36.192  32.993  33.267  1.00  0.00    -0.460 OA
BRANCH  33  34
ATOM     34  C   UNL A   1      37.180  33.976  33.183  1.00  0.00     0.338 C 
ATOM     35  O   UNL A   1      37.014  35.079  33.682  1.00  0.00    -0.246 OA
BRANCH  34  36
ATOM     36  C   UNL A   1      38.533  33.426  32.898  1.00  0.00     0.060 A 
ATOM     37  C   UNL A   1      39.727  33.837  32.284  1.00  0.00     0.016 A 
ATOM     38  C   UNL A   1      38.730  32.364  33.670  1.00  0.00     0.016 A 
ATOM     39  C   UNL A   1      40.864  32.910  32.002  1.00  0.00     0.010 A 
ATOM     40  C   UNL A   1      39.818  31.577  33.406  1.00  0.00     0.010 A 
ATOM     41  C   UNL A   1      40.862  31.581  32.428  1.00  0.00    -0.014 A 
BRANCH  41  42
ATOM     42  C   UNL A   1      42.000  30.220  32.050  1.00  0.00     0.031 A 
ATOM     43  C   UNL A   1      41.822  28.793  30.824  1.00  0.00     0.074 A 
ATOM     44  C   UNL A   1      43.255  30.381  32.567  1.00  0.00     0.049 A 
ATOM     45  N   UNL A   1      42.993  27.721  30.796  1.00  0.00    -0.248 NA
ATOM     46  C   UNL A   1      40.385  28.101  29.501  1.00  0.00     0.031 C 
ATOM     47  C   UNL A   1      44.500  29.683  32.239  1.00  0.00     0.029 A 
ATOM     48  N   UNL A   1      43.689  31.313  33.521  1.00  0.00    -0.354 N 
ATOM     49  C   UNL A   1      42.803  26.430  29.555  1.00  0.00     0.074 A 
ATOM     50  C   UNL A   1      41.050  26.658  28.799  1.00  0.00     0.031 C 
ATOM     51  C   UNL A   1      45.460  30.020  33.120  1.00  0.00     0.029 A 
ATOM     52  C   UNL A   1      44.819  30.796  34.160  1.00  0.00     0.049 A 
ATOM     53  H   UNL A   1      43.268  32.183  33.710  1.00  0.00     0.167 HD
ATOM     54  C   UNL A   1      43.882  25.641  29.332  1.00  0.00     0.037 A 
ATOM     55  C   UNL A   1      44.793  30.537  35.491  1.00  0.00     0.037 A 
ATOM     56  C   UNL A   1      44.859  25.887  30.398  1.00  0.00     0.049 A 
ATOM     57  C   UNL A   1      44.969  29.043  35.659  1.00  0.00     0.074 A 
ATOM     58  C   UNL A   1      46.032  26.619  30.477  1.00  0.00     0.029 A 
ATOM     59  N   UNL A   1      44.495  25.636  31.734  1.00  0.00    -0.354 N 
ATOM     60  N   UNL A   1      44.679  28.181  34.708  1.00  0.00    -0.248 NA
ATOM     61  C   UNL A   1      45.667  28.415  36.773  1.00  0.00     0.031 C 
ATOM     62  C   UNL A   1      46.350  26.816  31.859  1.00  0.00     0.029 A 
ATOM     63  C   UNL A   1      45.379  26.206  32.647  1.00  0.00     0.049 A 
ATOM     64  H   UNL A   1      43.701  25.115  31.995  1.00  0.00     0.167 HD
ATOM     65  C   UNL A   1      45.258  26.975  34.976  1.00  0.00     0.074 A 
ATOM     66  C   UNL A   1      45.823  27.161  36.309  1.00  0.00     0.031 C 
ATOM     67  C   UNL A   1      45.301  25.921  34.096  1.00  0.00     0.037 A 
BRANCH  54  68
ATOM     68  C   UNL A   1      44.058  24.913  28.023  1.00  0.00     0.058 A 
ATOM     69  C   UNL A   1      43.617  23.588  27.848  1.00  0.00     0.135 A 
ATOM     70  C   UNL A   1      44.741  25.448  26.911  1.00  0.00     0.135 A 
ATOM     71  F   UNL A   1      42.895  22.972  28.794  1.00  0.00    -0.206 F 
ATOM     72  C   UNL A   1      43.898  22.839  26.694  1.00  0.00     0.059 A 
ATOM     73  C   UNL A   1      45.113  24.701  25.791  1.00  0.00     0.059 A 
ATOM     74  F   UNL A   1      44.994  26.758  26.829  1.00  0.00    -0.206 F 
ATOM     75  C   UNL A   1      44.671  23.393  25.680  1.00  0.00     0.060 A 
BRANCH  75  76
ATOM     76  S   UNL A   1      45.039  22.430  24.198  1.00  0.00     0.124 S 
ATOM     77  O   UNL A   1      43.799  22.529  23.435  1.00  0.00    -0.237 OA
ATOM     78  O   UNL A   1      46.181  23.152  23.649  1.00  0.00    -0.237 OA
ATOM     79  O   UNL A   1      45.336  21.098  24.721  1.00  0.00    -0.744 OA
ENDBRANCH  75  76
ENDBRANCH  54  68
BRANCH  55  80
ATOM     80  C   UNL A   1      44.049  31.617  36.236  1.00  0.00     0.058 A 
ATOM     81  C   UNL A   1      42.698  31.318  36.562  1.00  0.00     0.135 A 
ATOM     82  C   UNL A   1      44.660  32.585  37.044  1.00  0.00     0.135 A 
ATOM     83  F   UNL A   1      42.019  30.423  35.824  1.00  0.00    -0.206 F 
ATOM     84  C   UNL A   1      42.066  31.793  37.716  1.00  0.00     0.059 A 
ATOM     85  C   UNL A   1      44.021  33.113  38.193  1.00  0.00     0.059 A 
ATOM     86  F   UNL A   1      45.937  32.934  36.825  1.00  0.00    -0.206 F 
ATOM     87  C   UNL A   1      42.756  32.649  38.562  1.00  0.00     0.060 A 
BRANCH  87  88
ATOM     88  S   UNL A   1      42.014  32.994  40.190  1.00  0.00     0.124 S 
ATOM     89  O   UNL A   1      40.741  33.604  39.831  1.00  0.00    -0.237 OA
ATOM     90  O   UNL A   1      41.930  31.657  40.775  1.00  0.00    -0.237 OA
ATOM     91  O   UNL A   1      42.965  33.897  40.822  1.00  0.00    -0.744 OA
ENDBRANCH  87  88
ENDBRANCH  55  80
BRANCH  67  92
ATOM     92  C   UNL A   1      45.411  24.484  34.569  1.00  0.00     0.058 A 
ATOM     93  C   UNL A   1      44.297  23.702  34.930  1.00  0.00     0.135 A 
ATOM     94  C   UNL A   1      46.641  23.785  34.511  1.00  0.00     0.135 A 
ATOM     95  F   UNL A   1      43.047  24.182  34.889  1.00  0.00    -0.206 F 
ATOM     96  C   UNL A   1      44.408  22.367  35.302  1.00  0.00     0.059 A 
ATOM     97  C   UNL A   1      46.756  22.426  34.781  1.00  0.00     0.059 A 
ATOM     98  F   UNL A   1      47.788  24.385  34.165  1.00  0.00    -0.206 F 
ATOM     99  C   UNL A   1      45.640  21.735  35.218  1.00  0.00     0.060 A 
BRANCH  99 100
ATOM    100  S   UNL A   1      45.758  19.995  35.642  1.00  0.00     0.124 S 
ATOM    101  O   UNL A   1      44.601  19.451  34.937  1.00  0.00    -0.237 OA
ATOM    102  O   UNL A   1      47.061  19.627  35.099  1.00  0.00    -0.237 OA
ATOM    103  O   UNL A   1      45.671  19.995  37.099  1.00  0.00    -0.744 OA
ENDBRANCH  99 100
ENDBRANCH  67  92
ENDBRANCH  41  42
ENDBRANCH  34  36
ENDBRANCH  33  34
ENDBRANCH  32  33
ENDBRANCH  31  32
ENDBRANCH  30  31
ENDBRANCH  29  30
ENDBRANCH   1  29
TORSDOF 24
ENDMDL
MODEL 3
REMARK VINA RESULT:     -11.4      2.501      4.091
REMARK SMILES Cc1cccc(OCC(=O)Nc2cc(C(=O)OCCOCCOCCOC(=O)c3ccc(-c4c5nc(c(-c6c(F)cc(S(=O)(=O)[O-])cc6F)c6ccc([nH]6)c(-c6c(F)cc(S(=O)(=O)[O-])cc6F)c6nc(c(-c7c(F)cc(S(=O)(=O)[O-])cc7F)c7ccc4[nH]7)C=C6)C=C5)cc3)c(Cl)cc2Cl)c1
REMARK SMILES IDX 21 1 20 2 19 3 18 4 17 5 15 6 16 7 14 8 12 9 13 10 98 11
REMARK SMILES IDX 97 12 99 13 95 14 96 15 11 16 9 17 10 18 8 20 7 21 6 22 1 23
REMARK SMILES IDX 2 24 3 25 100 26 4 27 5 28 22 29 23 30 24 31 25 32 26 33
REMARK SMILES IDX 27 34 28 35 29 36 30 37 94 38 31 39 93 40 32 41 33 42 34 43
REMARK SMILES IDX 87 44 35 45 92 46 86 47 88 48 36 49 91 50 85 51 84 52 37 54
REMARK SMILES IDX 71 55 50 56 70 57 51 58 54 59 69 60 89 61 52 62 53 63 68 65
REMARK SMILES IDX 90 66 55 67 38 68 39 69 48 70 40 71 41 72 47 73 49 74 42 75
REMARK SMILES IDX 43 76 44 77 45 78 46 79 72 80 73 81 82 82 74 83 75 84 81 85
REMARK SMILES IDX 83 86 76 87 77 88 78 89 79 90 80 91 56 92 57 93 66 94 58 95
REMARK SMILES IDX 59 96 65 97 67 98 60 99 61 100 62 101 63 102 64 103
REMARK H PARENT 11 19 88 53 54 64
REMARK Flexibility Score: inf
ROOT
ATOM      1  C   UNL A   1      35.465  33.618  29.093  1.00  0.00     0.188 C 
ENDROOT
BRANCH   1   2
ATOM      2  O   UNL A   1      35.432  33.064  27.776  1.00  0.00    -0.376 OA
BRANCH   2   3
ATOM      3  C   UNL A   1      35.433  31.648  27.642  1.00  0.00     0.202 C 
BRANCH   3   4
ATOM      4  C   UNL A   1      34.133  30.766  27.657  1.00  0.00     0.261 C 
BRANCH   4   5
ATOM      5  O   UNL A   1      33.300  30.311  26.432  1.00  0.00    -0.460 OA
BRANCH   5   6
ATOM      6  C   UNL A   1      32.136  30.238  25.610  1.00  0.00     0.339 C 
ATOM      7  O   UNL A   1      31.160  30.934  25.903  1.00  0.00    -0.246 OA
BRANCH   6   8
ATOM      8  C   UNL A   1      31.858  28.887  24.283  1.00  0.00     0.080 A 
ATOM      9  C   UNL A   1      31.776  26.532  24.366  1.00  0.00     0.061 A 
ATOM     10  C   UNL A   1      32.426  27.713  24.728  1.00  0.00     0.045 A 
ATOM     11  C   UNL A   1      31.593  26.275  23.018  1.00  0.00     0.066 A 
ATOM     12  C   UNL A   1      31.249  27.352  22.269  1.00  0.00     0.044 A 
ATOM     13  Cl  UNL A   1      31.261  24.699  22.416  1.00  0.00    -0.082 Cl
ATOM     14  C   UNL A   1      31.139  28.586  22.946  1.00  0.00     0.057 A 
ATOM     15  Cl  UNL A   1      29.813  29.340  21.985  1.00  0.00    -0.083 Cl
BRANCH   9  16
ATOM     16  N   UNL A   1      30.653  26.107  25.144  1.00  0.00    -0.322 N 
ATOM     17  C   UNL A   1      30.438  25.093  26.086  1.00  0.00     0.262 C 
ATOM     18  O   UNL A   1      29.423  25.304  26.781  1.00  0.00    -0.271 OA
ATOM     19  H   UNL A   1      29.848  26.649  24.979  1.00  0.00     0.170 HD
BRANCH  17  20
ATOM     20  C   UNL A   1      31.361  23.506  26.388  1.00  0.00     0.329 C 
BRANCH  20  21
ATOM     21  O   UNL A   1      33.035  22.822  25.278  1.00  0.00    -0.484 OA
BRANCH  21  22
ATOM     22  C   UNL A   1      34.552  23.398  24.837  1.00  0.00     0.120 A 
ATOM     23  C   UNL A   1      38.052  24.011  26.447  1.00  0.00     0.044 C 
ATOM     24  C   UNL A   1      36.989  23.627  25.451  1.00  0.00    -0.047 A 
ATOM     25  C   UNL A   1      37.326  22.992  24.266  1.00  0.00     0.003 A 
ATOM     26  C   UNL A   1      35.617  23.842  25.719  1.00  0.00     0.049 A 
ATOM     27  C   UNL A   1      36.320  22.726  23.323  1.00  0.00     0.004 A 
ATOM     28  C   UNL A   1      34.946  23.008  23.574  1.00  0.00     0.046 A 
ENDBRANCH  21  22
ENDBRANCH  20  21
ENDBRANCH  17  20
ENDBRANCH   9  16
ENDBRANCH   6   8
ENDBRANCH   5   6
ENDBRANCH   4   5
ENDBRANCH   3   4
ENDBRANCH   2   3
ENDBRANCH   1   2
BRANCH   1  29
ATOM     29  C   UNL A   1      35.387  32.695  30.271  1.00  0.00     0.188 C 
BRANCH  29  30
ATOM     30  O   UNL A   1      34.333  33.137  31.121  1.00  0.00    -0.376 OA
BRANCH  30  31
ATOM     31  C   UNL A   1      34.618  33.075  32.501  1.00  0.00     0.202 C 
BRANCH  31  32
ATOM     32  C   UNL A   1      35.834  32.196  32.862  1.00  0.00     0.261 C 
BRANCH  32  33
ATOM     33  O   UNL A   1      36.908  32.765  33.683  1.00  0.00    -0.460 OA
BRANCH  33  34
ATOM     34  C   UNL A   1      37.825  33.737  33.280  1.00  0.00     0.338 C 
ATOM     35  O   UNL A   1      37.720  34.895  33.657  1.00  0.00    -0.246 OA
BRANCH  34  36
ATOM     36  C   UNL A   1      39.115  33.167  32.806  1.00  0.00     0.060 A 
ATOM     37  C   UNL A   1      40.026  33.358  31.755  1.00  0.00     0.016 A 
ATOM     38  C   UNL A   1      39.666  32.480  33.800  1.00  0.00     0.016 A 
ATOM     39  C   UNL A   1      41.166  32.433  31.481  1.00  0.00     0.010 A 
ATOM     40  C   UNL A   1      40.743  31.688  33.508  1.00  0.00     0.010 A 
ATOM     41  C   UNL A   1      41.471  31.361  32.321  1.00  0.00    -0.014 A 
BRANCH  41  42
ATOM     42  C   UNL A   1      42.649  29.997  32.112  1.00  0.00     0.031 A 
ATOM     43  C   UNL A   1      42.551  28.466  31.010  1.00  0.00     0.074 A 
ATOM     44  C   UNL A   1      43.877  30.230  32.666  1.00  0.00     0.049 A 
ATOM     45  N   UNL A   1      43.741  27.421  31.126  1.00  0.00    -0.248 NA
ATOM     46  C   UNL A   1      41.187  27.630  29.693  1.00  0.00     0.031 C 
ATOM     47  C   UNL A   1      45.148  29.533  32.453  1.00  0.00     0.029 A 
ATOM     48  N   UNL A   1      44.252  31.250  33.553  1.00  0.00    -0.354 N 
ATOM     49  C   UNL A   1      43.630  26.023  29.995  1.00  0.00     0.074 A 
ATOM     50  C   UNL A   1      41.908  26.147  29.149  1.00  0.00     0.031 C 
ATOM     51  C   UNL A   1      46.062  29.966  33.341  1.00  0.00     0.029 A 
ATOM     52  C   UNL A   1      45.362  30.816  34.281  1.00  0.00     0.049 A 
ATOM     53  H   UNL A   1      43.807  32.124  33.646  1.00  0.00     0.167 HD
ATOM     54  C   UNL A   1      44.732  25.242  29.888  1.00  0.00     0.037 A 
ATOM     55  C   UNL A   1      45.282  30.673  35.628  1.00  0.00     0.037 A 
ATOM     56  C   UNL A   1      45.656  25.601  30.969  1.00  0.00     0.049 A 
ATOM     57  C   UNL A   1      45.476  29.203  35.933  1.00  0.00     0.074 A 
ATOM     58  C   UNL A   1      46.811  26.362  31.033  1.00  0.00     0.029 A 
ATOM     59  N   UNL A   1      45.237  25.458  32.306  1.00  0.00    -0.354 N 
ATOM     60  N   UNL A   1      45.245  28.255  35.050  1.00  0.00    -0.248 NA
ATOM     61  C   UNL A   1      46.136  28.689  37.126  1.00  0.00     0.031 C 
ATOM     62  C   UNL A   1      47.063  26.685  32.405  1.00  0.00     0.029 A 
ATOM     63  C   UNL A   1      46.070  26.125  33.201  1.00  0.00     0.049 A 
ATOM     64  H   UNL A   1      44.442  24.945  32.577  1.00  0.00     0.167 HD
ATOM     65  C   UNL A   1      45.833  27.090  35.447  1.00  0.00     0.074 A 
ATOM     66  C   UNL A   1      46.335  27.403  36.781  1.00  0.00     0.031 C 
ATOM     67  C   UNL A   1      45.933  25.965  34.665  1.00  0.00     0.037 A 
BRANCH  54  68
ATOM     68  C   UNL A   1      44.978  24.407  28.657  1.00  0.00     0.058 A 
ATOM     69  C   UNL A   1      45.980  24.739  27.726  1.00  0.00     0.135 A 
ATOM     70  C   UNL A   1      44.191  23.296  28.289  1.00  0.00     0.135 A 
ATOM     71  F   UNL A   1      46.848  25.730  27.972  1.00  0.00    -0.206 F 
ATOM     72  C   UNL A   1      46.134  24.068  26.502  1.00  0.00     0.059 A 
ATOM     73  C   UNL A   1      44.261  22.669  27.043  1.00  0.00     0.059 A 
ATOM     74  F   UNL A   1      43.377  22.711  29.175  1.00  0.00    -0.206 F 
ATOM     75  C   UNL A   1      45.252  23.051  26.154  1.00  0.00     0.060 A 
BRANCH  75  76
ATOM     76  S   UNL A   1      45.443  22.191  24.579  1.00  0.00     0.124 S 
ATOM     77  O   UNL A   1      45.783  23.275  23.662  1.00  0.00    -0.237 OA
ATOM     78  O   UNL A   1      46.520  21.254  24.879  1.00  0.00    -0.237 OA
ATOM     79  O   UNL A   1      44.132  21.586  24.357  1.00  0.00    -0.744 OA
ENDBRANCH  75  76
ENDBRANCH  54  68
BRANCH  55  80
ATOM     80  C   UNL A   1      44.486  31.796  36.243  1.00  0.00     0.058 A 
ATOM     81  C   UNL A   1      45.143  33.056  36.296  1.00  0.00     0.135 A 
ATOM     82  C   UNL A   1      43.086  31.848  36.275  1.00  0.00     0.135 A 
ATOM     83  F   UNL A   1      46.486  33.106  36.301  1.00  0.00    -0.206 F 
ATOM     84  C   UNL A   1      44.467  34.276  36.189  1.00  0.00     0.059 A 
ATOM     85  C   UNL A   1      42.381  33.076  36.213  1.00  0.00     0.059 A 
ATOM     86  F   UNL A   1      42.371  30.714  36.222  1.00  0.00    -0.206 F 
ATOM     87  C   UNL A   1      43.083  34.277  36.089  1.00  0.00     0.060 A 
BRANCH  87  88
ATOM     88  S   UNL A   1      42.277  35.850  35.648  1.00  0.00     0.124 S 
ATOM     89  O   UNL A   1      43.371  36.607  35.053  1.00  0.00    -0.237 OA
ATOM     90  O   UNL A   1      41.237  35.409  34.718  1.00  0.00    -0.237 OA
ATOM     91  O   UNL A   1      41.801  36.368  36.922  1.00  0.00    -0.744 OA
ENDBRANCH  87  88
ENDBRANCH  55  80
BRANCH  67  92
ATOM     92  C   UNL A   1      46.048  24.577  35.266  1.00  0.00     0.058 A 
ATOM     93  C   UNL A   1      44.933  23.799  35.634  1.00  0.00     0.135 A 
ATOM     94  C   UNL A   1      47.295  23.908  35.335  1.00  0.00     0.135 A 
ATOM     95  F   UNL A   1      43.677  24.241  35.485  1.00  0.00    -0.206 F 
ATOM     96  C   UNL A   1      45.052  22.505  36.126  1.00  0.00     0.059 A 
ATOM     97  C   UNL A   1      47.424  22.582  35.728  1.00  0.00     0.059 A 
ATOM     98  F   UNL A   1      48.446  24.507  35.000  1.00  0.00    -0.206 F 
ATOM     99  C   UNL A   1      46.301  21.900  36.164  1.00  0.00     0.060 A 
BRANCH  99 100
ATOM    100  S   UNL A   1      46.433  20.207  36.742  1.00  0.00     0.124 S 
ATOM    101  O   UNL A   1      45.940  20.334  38.110  1.00  0.00    -0.237 OA
ATOM    102  O   UNL A   1      45.559  19.490  35.819  1.00  0.00    -0.237 OA
ATOM    103  O   UNL A   1      47.855  19.912  36.605  1.00  0.00    -0.744 OA
ENDBRANCH  99 100
ENDBRANCH  67  92
ENDBRANCH  41  42
ENDBRANCH  34  36
ENDBRANCH  33  34
ENDBRANCH  32  33
ENDBRANCH  31  32
ENDBRANCH  30  31
ENDBRANCH  29  30
ENDBRANCH   1  29
TORSDOF 24
ENDMDL
