MODEL 1
REMARK VINA RESULT:     -11.2      0.000      0.000
REMARK SMILES O=C(OCCOCCOCCOC(=O)[C@H]1Cc2c([nH]c3ccccc23)[C@@H](c2ccc(OC(F)(F)F)cc2)[NH2+]1)c1ccc(-c2c3nc(c(-c4c(F)cc(S(=O)(=O)[O-])cc4F)c4ccc([nH]4)c(-c4c(F)cc(S(=O)(=O)[O-])cc4F)c4nc(c(-c5c(F)cc(S(=O)(=O)[O-])cc5F)c5ccc2[nH]5)C=C4)C=C3)cc1
REMARK SMILES IDX 7 1 6 2 5 3 4 4 3 5 2 6 1 7 39 8 40 9 104 10 41 11 103 12
REMARK SMILES IDX 42 13 43 14 44 15 97 16 45 17 102 18 96 19 98 20 46 21
REMARK SMILES IDX 101 22 95 23 94 24 47 26 81 27 60 28 80 29 61 30 64 31 79 32
REMARK SMILES IDX 99 33 62 34 63 35 78 37 100 38 65 39 48 40 49 41 58 42 50 43
REMARK SMILES IDX 51 44 57 45 59 46 52 47 53 48 54 49 55 50 56 51 82 52 83 53
REMARK SMILES IDX 92 54 84 55 85 56 91 57 93 58 86 59 87 60 88 61 89 62 90 63
REMARK SMILES IDX 66 64 67 65 76 66 68 67 69 68 75 69 77 70 70 71 71 72 72 73
REMARK SMILES IDX 73 74 74 75 8 76 9 77 10 78 11 79 12 80 13 81 14 82 15 83
REMARK SMILES IDX 16 84 38 85 17 86 26 87 18 90 25 91 19 92 20 93 24 94 21 96
REMARK SMILES IDX 23 97 22 98 27 99 28 100 37 101 29 102 36 103 30 104 31 105
REMARK SMILES IDX 32 106 33 107 34 108 35 109
REMARK H PARENT 98 25 64 36 38 88 38 89 19 95
REMARK Flexibility Score: inf
ROOT
ATOM      1  C   UNL A   1      40.947  20.365  26.513  1.00  0.00     0.188 C 
ENDROOT
BRANCH   1   2
ATOM      2  O   UNL A   1      41.961  20.994  25.741  1.00  0.00    -0.376 OA
BRANCH   2   3
ATOM      3  C   UNL A   1      43.005  21.684  26.426  1.00  0.00     0.202 C 
BRANCH   3   4
ATOM      4  C   UNL A   1      42.853  23.165  26.823  1.00  0.00     0.261 C 
BRANCH   4   5
ATOM      5  O   UNL A   1      41.646  23.830  26.426  1.00  0.00    -0.460 OA
BRANCH   5   6
ATOM      6  C   UNL A   1      41.366  25.141  26.267  1.00  0.00     0.338 C 
ATOM      7  O   UNL A   1      41.334  25.597  25.125  1.00  0.00    -0.246 OA
BRANCH   6   8
ATOM      8  C   UNL A   1      41.124  26.075  27.396  1.00  0.00     0.060 A 
ATOM      9  C   UNL A   1      40.140  25.938  28.379  1.00  0.00     0.016 A 
ATOM     10  C   UNL A   1      42.069  27.087  27.557  1.00  0.00     0.016 A 
ATOM     11  C   UNL A   1      40.008  26.856  29.430  1.00  0.00     0.010 A 
ATOM     12  C   UNL A   1      41.994  27.951  28.648  1.00  0.00     0.010 A 
ATOM     13  C   UNL A   1      40.937  27.877  29.580  1.00  0.00    -0.014 A 
BRANCH  13  14
ATOM     14  C   UNL A   1      40.810  28.969  30.588  1.00  0.00     0.031 A 
ATOM     15  C   UNL A   1      41.633  28.820  31.826  1.00  0.00     0.074 A 
ATOM     16  C   UNL A   1      39.960  30.011  30.484  1.00  0.00     0.049 A 
ATOM     17  N   UNL A   1      41.488  29.392  32.986  1.00  0.00    -0.248 NA
ATOM     18  C   UNL A   1      42.750  27.860  31.751  1.00  0.00     0.031 C 
ATOM     19  C   UNL A   1      39.209  30.350  29.291  1.00  0.00     0.029 A 
ATOM     20  N   UNL A   1      39.523  30.942  31.408  1.00  0.00    -0.354 N 
ATOM     21  C   UNL A   1      42.479  28.844  33.782  1.00  0.00     0.074 A 
ATOM     22  C   UNL A   1      43.136  27.812  33.012  1.00  0.00     0.031 C 
ATOM     23  C   UNL A   1      38.332  31.321  29.583  1.00  0.00     0.029 A 
ATOM     24  C   UNL A   1      38.447  31.688  30.966  1.00  0.00     0.049 A 
ATOM     25  H   UNL A   1      39.937  31.061  32.293  1.00  0.00     0.167 HD
ATOM     26  C   UNL A   1      42.841  29.219  35.026  1.00  0.00     0.037 A 
ATOM     27  C   UNL A   1      37.600  32.545  31.573  1.00  0.00     0.037 A 
ATOM     28  C   UNL A   1      42.183  30.279  35.736  1.00  0.00     0.049 A 
ATOM     29  C   UNL A   1      37.897  32.841  32.999  1.00  0.00     0.074 A 
ATOM     30  C   UNL A   1      42.473  30.791  36.982  1.00  0.00     0.029 A 
ATOM     31  N   UNL A   1      41.093  30.993  35.246  1.00  0.00    -0.354 N 
ATOM     32  N   UNL A   1      38.816  32.294  33.756  1.00  0.00    -0.248 NA
ATOM     33  C   UNL A   1      37.110  33.895  33.639  1.00  0.00     0.031 C 
ATOM     34  C   UNL A   1      41.530  31.784  37.268  1.00  0.00     0.029 A 
ATOM     35  C   UNL A   1      40.686  31.932  36.174  1.00  0.00     0.049 A 
ATOM     36  H   UNL A   1      40.673  30.850  34.366  1.00  0.00     0.167 HD
ATOM     37  C   UNL A   1      38.782  32.995  34.943  1.00  0.00     0.074 A 
ATOM     38  C   UNL A   1      37.707  33.967  34.822  1.00  0.00     0.031 C 
ATOM     39  C   UNL A   1      39.605  32.875  36.011  1.00  0.00     0.037 A 
BRANCH  26  40
ATOM     40  C   UNL A   1      43.974  28.454  35.645  1.00  0.00     0.058 A 
ATOM     41  C   UNL A   1      43.746  27.372  36.516  1.00  0.00     0.135 A 
ATOM     42  C   UNL A   1      45.296  28.883  35.467  1.00  0.00     0.135 A 
ATOM     43  F   UNL A   1      42.495  26.942  36.752  1.00  0.00    -0.206 F 
ATOM     44  C   UNL A   1      44.781  26.795  37.244  1.00  0.00     0.059 A 
ATOM     45  C   UNL A   1      46.350  28.295  36.156  1.00  0.00     0.059 A 
ATOM     46  F   UNL A   1      45.567  29.918  34.656  1.00  0.00    -0.206 F 
ATOM     47  C   UNL A   1      46.079  27.275  37.067  1.00  0.00     0.060 A 
BRANCH  47  48
ATOM     48  S   UNL A   1      47.400  26.566  38.070  1.00  0.00     0.124 S 
ATOM     49  O   UNL A   1      48.332  26.111  37.045  1.00  0.00    -0.237 OA
ATOM     50  O   UNL A   1      47.837  27.707  38.864  1.00  0.00    -0.237 OA
ATOM     51  O   UNL A   1      46.722  25.507  38.819  1.00  0.00    -0.744 OA
ENDBRANCH  47  48
ENDBRANCH  26  40
BRANCH  27  52
ATOM     52  C   UNL A   1      36.466  33.199  30.840  1.00  0.00     0.058 A 
ATOM     53  C   UNL A   1      35.128  32.870  31.105  1.00  0.00     0.135 A 
ATOM     54  C   UNL A   1      36.683  34.213  29.895  1.00  0.00     0.135 A 
ATOM     55  F   UNL A   1      34.846  31.866  31.949  1.00  0.00    -0.206 F 
ATOM     56  C   UNL A   1      34.062  33.553  30.510  1.00  0.00     0.059 A 
ATOM     57  C   UNL A   1      35.642  34.941  29.319  1.00  0.00     0.059 A 
ATOM     58  F   UNL A   1      37.926  34.503  29.497  1.00  0.00    -0.206 F 
ATOM     59  C   UNL A   1      34.328  34.606  29.634  1.00  0.00     0.060 A 
BRANCH  59  60
ATOM     60  S   UNL A   1      32.969  35.573  28.929  1.00  0.00     0.124 S 
ATOM     61  O   UNL A   1      32.376  34.615  28.005  1.00  0.00    -0.237 OA
ATOM     62  O   UNL A   1      32.166  35.912  30.098  1.00  0.00    -0.237 OA
ATOM     63  O   UNL A   1      33.664  36.702  28.315  1.00  0.00    -0.744 OA
ENDBRANCH  59  60
ENDBRANCH  27  52
BRANCH  39  64
ATOM     64  C   UNL A   1      39.411  33.872  37.104  1.00  0.00     0.058 A 
ATOM     65  C   UNL A   1      38.666  33.570  38.250  1.00  0.00     0.135 A 
ATOM     66  C   UNL A   1      40.061  35.112  37.026  1.00  0.00     0.135 A 
ATOM     67  F   UNL A   1      38.008  32.404  38.344  1.00  0.00    -0.206 F 
ATOM     68  C   UNL A   1      38.583  34.470  39.301  1.00  0.00     0.059 A 
ATOM     69  C   UNL A   1      40.017  36.013  38.078  1.00  0.00     0.059 A 
ATOM     70  F   UNL A   1      40.777  35.436  35.937  1.00  0.00    -0.206 F 
ATOM     71  C   UNL A   1      39.278  35.680  39.212  1.00  0.00     0.060 A 
BRANCH  71  72
ATOM     72  S   UNL A   1      39.254  36.788  40.632  1.00  0.00     0.124 S 
ATOM     73  O   UNL A   1      40.676  36.913  40.928  1.00  0.00    -0.237 OA
ATOM     74  O   UNL A   1      38.610  37.978  40.083  1.00  0.00    -0.237 OA
ATOM     75  O   UNL A   1      38.467  36.055  41.619  1.00  0.00    -0.744 OA
ENDBRANCH  71  72
ENDBRANCH  39  64
ENDBRANCH  13  14
ENDBRANCH   6   8
ENDBRANCH   5   6
ENDBRANCH   4   5
ENDBRANCH   3   4
ENDBRANCH   2   3
ENDBRANCH   1   2
BRANCH   1  76
ATOM     76  C   UNL A   1      39.969  19.488  25.729  1.00  0.00     0.188 C 
BRANCH  76  77
ATOM     77  O   UNL A   1      38.683  20.006  25.429  1.00  0.00    -0.376 OA
BRANCH  77  78
ATOM     78  C   UNL A   1      38.531  21.418  25.389  1.00  0.00     0.202 C 
BRANCH  78  79
ATOM     79  C   UNL A   1      37.360  22.052  24.615  1.00  0.00     0.261 C 
BRANCH  79  80
ATOM     80  O   UNL A   1      37.280  23.482  24.575  1.00  0.00    -0.459 OA
BRANCH  80  81
ATOM     81  C   UNL A   1      36.919  24.051  25.760  1.00  0.00     0.365 C 
ATOM     82  O   UNL A   1      37.702  24.291  26.677  1.00  0.00    -0.245 OA
BRANCH  81  83
ATOM     83  C   UNL A   1      35.405  24.177  25.940  1.00  0.00     0.298 C 
ATOM     84  C   UNL A   1      34.685  25.061  24.897  1.00  0.00     0.115 C 
ATOM     85  N   UNL A   1      34.933  22.784  25.958  1.00  0.00    -0.323 N 
ATOM     86  C   UNL A   1      33.212  24.916  25.098  1.00  0.00    -0.006 A 
ATOM     87  C   UNL A   1      33.497  22.548  26.109  1.00  0.00     0.262 C 
ATOM     88  H   UNL A   1      35.401  22.314  26.734  1.00  0.00     0.347 HD
ATOM     89  H   UNL A   1      35.153  22.427  25.029  1.00  0.00     0.347 HD
ATOM     90  C   UNL A   1      32.698  23.730  25.605  1.00  0.00     0.083 A 
ATOM     91  C   UNL A   1      32.122  25.781  24.781  1.00  0.00     0.003 A 
ATOM     92  N   UNL A   1      31.333  23.890  25.690  1.00  0.00    -0.353 N 
ATOM     93  C   UNL A   1      30.955  25.082  25.092  1.00  0.00     0.046 A 
ATOM     94  C   UNL A   1      31.997  27.058  24.193  1.00  0.00     0.010 A 
ATOM     95  H   UNL A   1      30.715  23.251  26.115  1.00  0.00     0.166 HD
ATOM     96  C   UNL A   1      29.685  25.575  24.746  1.00  0.00     0.026 A 
ATOM     97  C   UNL A   1      30.735  27.525  23.792  1.00  0.00     0.001 A 
ATOM     98  C   UNL A   1      29.597  26.773  24.036  1.00  0.00     0.002 A 
BRANCH  87  99
ATOM     99  C   UNL A   1      33.280  21.178  25.465  1.00  0.00     0.016 A 
ATOM    100  C   UNL A   1      33.073  20.008  26.203  1.00  0.00     0.014 A 
ATOM    101  C   UNL A   1      33.054  21.092  24.082  1.00  0.00     0.014 A 
ATOM    102  C   UNL A   1      32.871  18.770  25.581  1.00  0.00     0.047 A 
ATOM    103  C   UNL A   1      32.746  19.871  23.459  1.00  0.00     0.047 A 
ATOM    104  C   UNL A   1      32.694  18.697  24.203  1.00  0.00     0.129 A 
BRANCH 104 105
ATOM    105  O   UNL A   1      32.541  17.441  23.695  1.00  0.00    -0.406 OA
BRANCH 105 106
ATOM    106  C   UNL A   1      33.690  16.614  23.712  1.00  0.00     0.573 C 
ATOM    107  F   UNL A   1      34.774  17.295  24.152  1.00  0.00    -0.132 F 
ATOM    108  F   UNL A   1      33.530  15.503  24.460  1.00  0.00    -0.132 F 
ATOM    109  F   UNL A   1      33.954  16.218  22.442  1.00  0.00    -0.132 F 
ENDBRANCH 105 106
ENDBRANCH 104 105
ENDBRANCH  87  99
ENDBRANCH  81  83
ENDBRANCH  80  81
ENDBRANCH  79  80
ENDBRANCH  78  79
ENDBRANCH  77  78
ENDBRANCH  76  77
ENDBRANCH   1  76
TORSDOF 23
ENDMDL
MODEL 2
REMARK VINA RESULT:     -10.5      6.001      9.384
REMARK SMILES O=C(OCCOCCOCCOC(=O)[C@H]1Cc2c([nH]c3ccccc23)[C@@H](c2ccc(OC(F)(F)F)cc2)[NH2+]1)c1ccc(-c2c3nc(c(-c4c(F)cc(S(=O)(=O)[O-])cc4F)c4ccc([nH]4)c(-c4c(F)cc(S(=O)(=O)[O-])cc4F)c4nc(c(-c5c(F)cc(S(=O)(=O)[O-])cc5F)c5ccc2[nH]5)C=C4)C=C3)cc1
REMARK SMILES IDX 7 1 6 2 5 3 4 4 3 5 2 6 1 7 39 8 40 9 104 10 41 11 103 12
REMARK SMILES IDX 42 13 43 14 44 15 97 16 45 17 102 18 96 19 98 20 46 21
REMARK SMILES IDX 101 22 95 23 94 24 47 26 81 27 60 28 80 29 61 30 64 31 79 32
REMARK SMILES IDX 99 33 62 34 63 35 78 37 100 38 65 39 48 40 49 41 58 42 50 43
REMARK SMILES IDX 51 44 57 45 59 46 52 47 53 48 54 49 55 50 56 51 82 52 83 53
REMARK SMILES IDX 92 54 84 55 85 56 91 57 93 58 86 59 87 60 88 61 89 62 90 63
REMARK SMILES IDX 66 64 67 65 76 66 68 67 69 68 75 69 77 70 70 71 71 72 72 73
REMARK SMILES IDX 73 74 74 75 8 76 9 77 10 78 11 79 12 80 13 81 14 82 15 83
REMARK SMILES IDX 16 84 38 85 17 86 26 87 18 90 25 91 19 92 20 93 24 94 21 96
REMARK SMILES IDX 23 97 22 98 27 99 28 100 37 101 29 102 36 103 30 104 31 105
REMARK SMILES IDX 32 106 33 107 34 108 35 109
REMARK H PARENT 98 25 64 36 38 88 38 89 19 95
REMARK Flexibility Score: inf
ROOT
ATOM      1  C   UNL A   1      36.262  21.356  24.924  1.00  0.00     0.188 C 
ENDROOT
BRANCH   1   2
ATOM      2  O   UNL A   1      37.591  21.169  25.392  1.00  0.00    -0.376 OA
BRANCH   2   3
ATOM      3  C   UNL A   1      38.307  20.013  24.957  1.00  0.00     0.202 C 
BRANCH   3   4
ATOM      4  C   UNL A   1      39.429  19.402  25.818  1.00  0.00     0.261 C 
BRANCH   4   5
ATOM      5  O   UNL A   1      40.704  20.058  25.796  1.00  0.00    -0.460 OA
BRANCH   5   6
ATOM      6  C   UNL A   1      41.588  20.315  26.783  1.00  0.00     0.338 C 
ATOM      7  O   UNL A   1      41.934  19.389  27.515  1.00  0.00    -0.246 OA
BRANCH   6   8
ATOM      8  C   UNL A   1      42.145  21.664  27.059  1.00  0.00     0.060 A 
ATOM      9  C   UNL A   1      42.856  22.041  28.201  1.00  0.00     0.016 A 
ATOM     10  C   UNL A   1      42.072  22.575  26.006  1.00  0.00     0.016 A 
ATOM     11  C   UNL A   1      43.374  23.334  28.360  1.00  0.00     0.010 A 
ATOM     12  C   UNL A   1      42.660  23.834  26.125  1.00  0.00     0.010 A 
ATOM     13  C   UNL A   1      43.284  24.250  27.320  1.00  0.00    -0.014 A 
BRANCH  13  14
ATOM     14  C   UNL A   1      43.694  25.679  27.439  1.00  0.00     0.031 A 
ATOM     15  C   UNL A   1      45.091  26.000  27.019  1.00  0.00     0.074 A 
ATOM     16  C   UNL A   1      42.924  26.654  27.964  1.00  0.00     0.049 A 
ATOM     17  N   UNL A   1      45.825  27.033  27.316  1.00  0.00    -0.248 NA
ATOM     18  C   UNL A   1      45.764  24.992  26.179  1.00  0.00     0.031 C 
ATOM     19  C   UNL A   1      41.517  26.515  28.284  1.00  0.00     0.029 A 
ATOM     20  N   UNL A   1      43.220  27.935  28.391  1.00  0.00    -0.354 N 
ATOM     21  C   UNL A   1      47.049  26.786  26.720  1.00  0.00     0.074 A 
ATOM     22  C   UNL A   1      46.998  25.459  26.150  1.00  0.00     0.031 C 
ATOM     23  C   UNL A   1      41.106  27.602  28.952  1.00  0.00     0.029 A 
ATOM     24  C   UNL A   1      42.197  28.522  29.111  1.00  0.00     0.049 A 
ATOM     25  H   UNL A   1      44.075  28.384  28.201  1.00  0.00     0.167 HD
ATOM     26  C   UNL A   1      48.099  27.627  26.610  1.00  0.00     0.037 A 
ATOM     27  C   UNL A   1      42.112  29.642  29.858  1.00  0.00     0.037 A 
ATOM     28  C   UNL A   1      48.088  28.953  27.159  1.00  0.00     0.049 A 
ATOM     29  C   UNL A   1      43.326  30.498  29.874  1.00  0.00     0.074 A 
ATOM     30  C   UNL A   1      49.062  29.925  27.085  1.00  0.00     0.029 A 
ATOM     31  N   UNL A   1      47.031  29.492  27.887  1.00  0.00    -0.354 N 
ATOM     32  N   UNL A   1      44.493  30.243  29.335  1.00  0.00    -0.248 NA
ATOM     33  C   UNL A   1      43.214  31.802  30.528  1.00  0.00     0.031 C 
ATOM     34  C   UNL A   1      48.616  31.036  27.808  1.00  0.00     0.029 A 
ATOM     35  C   UNL A   1      47.337  30.780  28.285  1.00  0.00     0.049 A 
ATOM     36  H   UNL A   1      46.187  29.024  28.090  1.00  0.00     0.167 HD
ATOM     37  C   UNL A   1      45.237  31.392  29.505  1.00  0.00     0.074 A 
ATOM     38  C   UNL A   1      44.405  32.320  30.253  1.00  0.00     0.031 C 
ATOM     39  C   UNL A   1      46.477  31.665  29.034  1.00  0.00     0.037 A 
BRANCH  26  40
ATOM     40  C   UNL A   1      49.301  27.095  25.887  1.00  0.00     0.058 A 
ATOM     41  C   UNL A   1      50.366  26.483  26.573  1.00  0.00     0.135 A 
ATOM     42  C   UNL A   1      49.447  27.310  24.509  1.00  0.00     0.135 A 
ATOM     43  F   UNL A   1      50.294  26.285  27.900  1.00  0.00    -0.206 F 
ATOM     44  C   UNL A   1      51.561  26.174  25.933  1.00  0.00     0.059 A 
ATOM     45  C   UNL A   1      50.620  26.974  23.842  1.00  0.00     0.059 A 
ATOM     46  F   UNL A   1      48.467  27.900  23.808  1.00  0.00    -0.206 F 
ATOM     47  C   UNL A   1      51.682  26.437  24.568  1.00  0.00     0.060 A 
BRANCH  47  48
ATOM     48  S   UNL A   1      53.262  26.098  23.767  1.00  0.00     0.124 S 
ATOM     49  O   UNL A   1      53.606  24.801  24.337  1.00  0.00    -0.237 OA
ATOM     50  O   UNL A   1      52.903  26.095  22.354  1.00  0.00    -0.237 OA
ATOM     51  O   UNL A   1      54.103  27.216  24.195  1.00  0.00    -0.744 OA
ENDBRANCH  47  48
ENDBRANCH  26  40
BRANCH  27  52
ATOM     52  C   UNL A   1      40.854  30.025  30.581  1.00  0.00     0.058 A 
ATOM     53  C   UNL A   1      40.763  29.981  31.980  1.00  0.00     0.135 A 
ATOM     54  C   UNL A   1      39.725  30.503  29.897  1.00  0.00     0.135 A 
ATOM     55  F   UNL A   1      41.779  29.476  32.695  1.00  0.00    -0.206 F 
ATOM     56  C   UNL A   1      39.635  30.444  32.667  1.00  0.00     0.059 A 
ATOM     57  C   UNL A   1      38.605  31.011  30.556  1.00  0.00     0.059 A 
ATOM     58  F   UNL A   1      39.684  30.464  28.561  1.00  0.00    -0.206 F 
ATOM     59  C   UNL A   1      38.568  30.980  31.946  1.00  0.00     0.060 A 
BRANCH  59  60
ATOM     60  S   UNL A   1      37.141  31.679  32.814  1.00  0.00     0.124 S 
ATOM     61  O   UNL A   1      37.328  33.106  32.586  1.00  0.00    -0.237 OA
ATOM     62  O   UNL A   1      36.007  31.068  32.130  1.00  0.00    -0.237 OA
ATOM     63  O   UNL A   1      37.346  31.223  34.187  1.00  0.00    -0.744 OA
ENDBRANCH  59  60
ENDBRANCH  27  52
BRANCH  39  64
ATOM     64  C   UNL A   1      46.974  33.053  29.261  1.00  0.00     0.058 A 
ATOM     65  C   UNL A   1      47.756  33.381  30.374  1.00  0.00     0.135 A 
ATOM     66  C   UNL A   1      46.727  34.038  28.293  1.00  0.00     0.135 A 
ATOM     67  F   UNL A   1      47.988  32.471  31.333  1.00  0.00    -0.206 F 
ATOM     68  C   UNL A   1      48.296  34.650  30.514  1.00  0.00     0.059 A 
ATOM     69  C   UNL A   1      47.282  35.303  28.397  1.00  0.00     0.059 A 
ATOM     70  F   UNL A   1      45.974  33.758  27.217  1.00  0.00    -0.206 F 
ATOM     71  C   UNL A   1      48.068  35.597  29.511  1.00  0.00     0.060 A 
BRANCH  71  72
ATOM     72  S   UNL A   1      48.871  37.203  29.651  1.00  0.00     0.124 S 
ATOM     73  O   UNL A   1      47.848  37.981  30.342  1.00  0.00    -0.237 OA
ATOM     74  O   UNL A   1      50.063  36.884  30.430  1.00  0.00    -0.237 OA
ATOM     75  O   UNL A   1      49.118  37.580  28.263  1.00  0.00    -0.744 OA
ENDBRANCH  71  72
ENDBRANCH  39  64
ENDBRANCH  13  14
ENDBRANCH   6   8
ENDBRANCH   5   6
ENDBRANCH   4   5
ENDBRANCH   3   4
ENDBRANCH   2   3
ENDBRANCH   1   2
BRANCH   1  76
ATOM     76  C   UNL A   1      35.420  22.360  25.712  1.00  0.00     0.188 C 
BRANCH  76  77
ATOM     77  O   UNL A   1      34.750  21.915  26.881  1.00  0.00    -0.376 OA
BRANCH  77  78
ATOM     78  C   UNL A   1      33.865  22.822  27.522  1.00  0.00     0.202 C 
BRANCH  78  79
ATOM     79  C   UNL A   1      32.644  23.382  26.767  1.00  0.00     0.261 C 
BRANCH  79  80
ATOM     80  O   UNL A   1      32.771  24.668  26.151  1.00  0.00    -0.459 OA
BRANCH  80  81
ATOM     81  C   UNL A   1      32.672  24.645  24.791  1.00  0.00     0.365 C 
ATOM     82  O   UNL A   1      33.050  23.711  24.087  1.00  0.00    -0.245 OA
BRANCH  81  83
ATOM     83  C   UNL A   1      32.239  25.984  24.189  1.00  0.00     0.298 C 
ATOM     84  C   UNL A   1      30.743  26.332  24.356  1.00  0.00     0.115 C 
ATOM     85  N   UNL A   1      33.146  26.962  24.810  1.00  0.00    -0.323 N 
ATOM     86  C   UNL A   1      30.536  27.738  23.894  1.00  0.00    -0.006 A 
ATOM     87  C   UNL A   1      32.987  28.371  24.447  1.00  0.00     0.262 C 
ATOM     88  H   UNL A   1      34.099  26.691  24.565  1.00  0.00     0.347 HD
ATOM     89  H   UNL A   1      32.918  26.928  25.803  1.00  0.00     0.347 HD
ATOM     90  C   UNL A   1      31.570  28.658  24.001  1.00  0.00     0.083 A 
ATOM     91  C   UNL A   1      29.381  28.412  23.397  1.00  0.00     0.003 A 
ATOM     92  N   UNL A   1      31.099  29.849  23.494  1.00  0.00    -0.353 N 
ATOM     93  C   UNL A   1      29.742  29.749  23.227  1.00  0.00     0.046 A 
ATOM     94  C   UNL A   1      28.042  28.046  23.141  1.00  0.00     0.010 A 
ATOM     95  H   UNL A   1      31.646  30.654  23.343  1.00  0.00     0.166 HD
ATOM     96  C   UNL A   1      28.793  30.735  22.909  1.00  0.00     0.026 A 
ATOM     97  C   UNL A   1      27.081  29.037  22.882  1.00  0.00     0.001 A 
ATOM     98  C   UNL A   1      27.450  30.370  22.802  1.00  0.00     0.002 A 
BRANCH  87  99
ATOM     99  C   UNL A   1      33.554  29.126  25.649  1.00  0.00     0.016 A 
ATOM    100  C   UNL A   1      32.853  30.131  26.324  1.00  0.00     0.014 A 
ATOM    101  C   UNL A   1      34.730  28.666  26.262  1.00  0.00     0.014 A 
ATOM    102  C   UNL A   1      33.400  30.799  27.427  1.00  0.00     0.047 A 
ATOM    103  C   UNL A   1      35.234  29.261  27.432  1.00  0.00     0.047 A 
ATOM    104  C   UNL A   1      34.590  30.357  27.995  1.00  0.00     0.129 A 
BRANCH 104 105
ATOM    105  O   UNL A   1      35.054  31.099  29.041  1.00  0.00    -0.406 OA
BRANCH 105 106
ATOM    106  C   UNL A   1      35.365  32.452  28.761  1.00  0.00     0.573 C 
ATOM    107  F   UNL A   1      34.248  33.216  28.749  1.00  0.00    -0.132 F 
ATOM    108  F   UNL A   1      36.256  32.979  29.626  1.00  0.00    -0.132 F 
ATOM    109  F   UNL A   1      35.909  32.520  27.520  1.00  0.00    -0.132 F 
ENDBRANCH 105 106
ENDBRANCH 104 105
ENDBRANCH  87  99
ENDBRANCH  81  83
ENDBRANCH  80  81
ENDBRANCH  79  80
ENDBRANCH  78  79
ENDBRANCH  77  78
ENDBRANCH  76  77
ENDBRANCH   1  76
TORSDOF 23
ENDMDL
MODEL 3
REMARK VINA RESULT:     -10.5      3.439      5.275
REMARK SMILES O=C(OCCOCCOCCOC(=O)[C@H]1Cc2c([nH]c3ccccc23)[C@@H](c2ccc(OC(F)(F)F)cc2)[NH2+]1)c1ccc(-c2c3nc(c(-c4c(F)cc(S(=O)(=O)[O-])cc4F)c4ccc([nH]4)c(-c4c(F)cc(S(=O)(=O)[O-])cc4F)c4nc(c(-c5c(F)cc(S(=O)(=O)[O-])cc5F)c5ccc2[nH]5)C=C4)C=C3)cc1
REMARK SMILES IDX 7 1 6 2 5 3 4 4 3 5 2 6 1 7 39 8 40 9 104 10 41 11 103 12
REMARK SMILES IDX 42 13 43 14 44 15 97 16 45 17 102 18 96 19 98 20 46 21
REMARK SMILES IDX 101 22 95 23 94 24 47 26 81 27 60 28 80 29 61 30 64 31 79 32
REMARK SMILES IDX 99 33 62 34 63 35 78 37 100 38 65 39 48 40 49 41 58 42 50 43
REMARK SMILES IDX 51 44 57 45 59 46 52 47 53 48 54 49 55 50 56 51 82 52 83 53
REMARK SMILES IDX 92 54 84 55 85 56 91 57 93 58 86 59 87 60 88 61 89 62 90 63
REMARK SMILES IDX 66 64 67 65 76 66 68 67 69 68 75 69 77 70 70 71 71 72 72 73
REMARK SMILES IDX 73 74 74 75 8 76 9 77 10 78 11 79 12 80 13 81 14 82 15 83
REMARK SMILES IDX 16 84 38 85 17 86 26 87 18 90 25 91 19 92 20 93 24 94 21 96
REMARK SMILES IDX 23 97 22 98 27 99 28 100 37 101 29 102 36 103 30 104 31 105
REMARK SMILES IDX 32 106 33 107 34 108 35 109
REMARK H PARENT 98 25 64 36 38 88 38 89 19 95
REMARK Flexibility Score: inf
ROOT
ATOM      1  C   UNL A   1      36.779  19.739  24.996  1.00  0.00     0.188 C 
ENDROOT
BRANCH   1   2
ATOM      2  O   UNL A   1      38.152  19.701  24.630  1.00  0.00    -0.376 OA
BRANCH   2   3
ATOM      3  C   UNL A   1      39.125  19.553  25.664  1.00  0.00     0.202 C 
BRANCH   3   4
ATOM      4  C   UNL A   1      40.043  20.723  26.065  1.00  0.00     0.261 C 
BRANCH   4   5
ATOM      5  O   UNL A   1      41.453  20.464  26.114  1.00  0.00    -0.460 OA
BRANCH   5   6
ATOM      6  C   UNL A   1      42.512  21.285  25.954  1.00  0.00     0.338 C 
ATOM      7  O   UNL A   1      43.399  20.950  25.170  1.00  0.00    -0.246 OA
BRANCH   6   8
ATOM      8  C   UNL A   1      42.687  22.558  26.698  1.00  0.00     0.060 A 
ATOM      9  C   UNL A   1      43.128  23.771  26.160  1.00  0.00     0.016 A 
ATOM     10  C   UNL A   1      42.221  22.561  28.012  1.00  0.00     0.016 A 
ATOM     11  C   UNL A   1      43.231  24.933  26.935  1.00  0.00     0.010 A 
ATOM     12  C   UNL A   1      42.241  23.736  28.762  1.00  0.00     0.010 A 
ATOM     13  C   UNL A   1      42.785  24.932  28.250  1.00  0.00    -0.014 A 
BRANCH  13  14
ATOM     14  C   UNL A   1      42.966  26.080  29.186  1.00  0.00     0.031 A 
ATOM     15  C   UNL A   1      44.118  25.982  30.132  1.00  0.00     0.074 A 
ATOM     16  C   UNL A   1      42.127  27.131  29.277  1.00  0.00     0.049 A 
ATOM     17  N   UNL A   1      44.325  26.619  31.248  1.00  0.00    -0.248 NA
ATOM     18  C   UNL A   1      45.160  24.997  29.787  1.00  0.00     0.031 C 
ATOM     19  C   UNL A   1      41.057  27.420  28.341  1.00  0.00     0.029 A 
ATOM     20  N   UNL A   1      41.985  28.120  30.233  1.00  0.00    -0.354 N 
ATOM     21  C   UNL A   1      45.505  26.095  31.745  1.00  0.00     0.074 A 
ATOM     22  C   UNL A   1      45.902  25.010  30.878  1.00  0.00     0.031 C 
ATOM     23  C   UNL A   1      40.309  28.423  28.822  1.00  0.00     0.029 A 
ATOM     24  C   UNL A   1      40.830  28.863  30.086  1.00  0.00     0.049 A 
ATOM     25  H   UNL A   1      42.643  28.279  30.948  1.00  0.00     0.167 HD
ATOM     26  C   UNL A   1      46.221  26.531  32.803  1.00  0.00     0.037 A 
ATOM     27  C   UNL A   1      40.203  29.769  30.865  1.00  0.00     0.037 A 
ATOM     28  C   UNL A   1      45.806  27.641  33.613  1.00  0.00     0.049 A 
ATOM     29  C   UNL A   1      40.910  30.136  32.119  1.00  0.00     0.074 A 
ATOM     30  C   UNL A   1      46.453  28.215  34.686  1.00  0.00     0.029 A 
ATOM     31  N   UNL A   1      44.622  28.349  33.426  1.00  0.00    -0.354 N 
ATOM     32  N   UNL A   1      42.009  29.613  32.602  1.00  0.00    -0.248 NA
ATOM     33  C   UNL A   1      40.351  31.239  32.901  1.00  0.00     0.031 C 
ATOM     34  C   UNL A   1      45.640  29.241  35.179  1.00  0.00     0.029 A 
ATOM     35  C   UNL A   1      44.511  29.346  34.377  1.00  0.00     0.049 A 
ATOM     36  H   UNL A   1      43.959  28.167  32.720  1.00  0.00     0.167 HD
ATOM     37  C   UNL A   1      42.331  30.378  33.703  1.00  0.00     0.074 A 
ATOM     38  C   UNL A   1      41.272  31.364  33.848  1.00  0.00     0.031 C 
ATOM     39  C   UNL A   1      43.433  30.301  34.485  1.00  0.00     0.037 A 
BRANCH  26  40
ATOM     40  C   UNL A   1      47.484  25.778  33.104  1.00  0.00     0.058 A 
ATOM     41  C   UNL A   1      48.691  26.064  32.441  1.00  0.00     0.135 A 
ATOM     42  C   UNL A   1      47.458  24.677  33.971  1.00  0.00     0.135 A 
ATOM     43  F   UNL A   1      48.763  27.086  31.571  1.00  0.00    -0.206 F 
ATOM     44  C   UNL A   1      49.804  25.240  32.570  1.00  0.00     0.059 A 
ATOM     45  C   UNL A   1      48.571  23.862  34.144  1.00  0.00     0.059 A 
ATOM     46  F   UNL A   1      46.329  24.353  34.620  1.00  0.00    -0.206 F 
ATOM     47  C   UNL A   1      49.728  24.132  33.415  1.00  0.00     0.060 A 
BRANCH  47  48
ATOM     48  S   UNL A   1      51.154  23.033  33.517  1.00  0.00     0.124 S 
ATOM     49  O   UNL A   1      51.501  23.136  34.929  1.00  0.00    -0.237 OA
ATOM     50  O   UNL A   1      50.596  21.755  33.092  1.00  0.00    -0.237 OA
ATOM     51  O   UNL A   1      52.111  23.636  32.588  1.00  0.00    -0.744 OA
ENDBRANCH  47  48
ENDBRANCH  26  40
BRANCH  27  52
ATOM     52  C   UNL A   1      38.905  30.404  30.463  1.00  0.00     0.058 A 
ATOM     53  C   UNL A   1      37.675  29.759  30.661  1.00  0.00     0.135 A 
ATOM     54  C   UNL A   1      38.851  31.699  29.924  1.00  0.00     0.135 A 
ATOM     55  F   UNL A   1      37.652  28.496  31.113  1.00  0.00    -0.206 F 
ATOM     56  C   UNL A   1      36.454  30.389  30.395  1.00  0.00     0.059 A 
ATOM     57  C   UNL A   1      37.649  32.367  29.690  1.00  0.00     0.059 A 
ATOM     58  F   UNL A   1      39.979  32.334  29.592  1.00  0.00    -0.206 F 
ATOM     59  C   UNL A   1      36.449  31.704  29.931  1.00  0.00     0.060 A 
BRANCH  59  60
ATOM     60  S   UNL A   1      34.883  32.577  29.676  1.00  0.00     0.124 S 
ATOM     61  O   UNL A   1      34.343  32.612  31.029  1.00  0.00    -0.237 OA
ATOM     62  O   UNL A   1      35.307  33.860  29.126  1.00  0.00    -0.237 OA
ATOM     63  O   UNL A   1      34.182  31.708  28.734  1.00  0.00    -0.744 OA
ENDBRANCH  59  60
ENDBRANCH  27  52
BRANCH  39  64
ATOM     64  C   UNL A   1      43.575  31.359  35.527  1.00  0.00     0.058 A 
ATOM     65  C   UNL A   1      44.207  32.578  35.254  1.00  0.00     0.135 A 
ATOM     66  C   UNL A   1      42.984  31.169  36.785  1.00  0.00     0.135 A 
ATOM     67  F   UNL A   1      44.806  32.782  34.071  1.00  0.00    -0.206 F 
ATOM     68  C   UNL A   1      44.237  33.590  36.201  1.00  0.00     0.059 A 
ATOM     69  C   UNL A   1      42.976  32.177  37.734  1.00  0.00     0.059 A 
ATOM     70  F   UNL A   1      42.377  30.009  37.081  1.00  0.00    -0.206 F 
ATOM     71  C   UNL A   1      43.603  33.386  37.431  1.00  0.00     0.060 A 
BRANCH  71  72
ATOM     72  S   UNL A   1      43.552  34.750  38.605  1.00  0.00     0.124 S 
ATOM     73  O   UNL A   1      44.473  34.283  39.635  1.00  0.00    -0.237 OA
ATOM     74  O   UNL A   1      44.019  35.871  37.795  1.00  0.00    -0.237 OA
ATOM     75  O   UNL A   1      42.147  34.808  38.996  1.00  0.00    -0.744 OA
ENDBRANCH  71  72
ENDBRANCH  39  64
ENDBRANCH  13  14
ENDBRANCH   6   8
ENDBRANCH   5   6
ENDBRANCH   4   5
ENDBRANCH   3   4
ENDBRANCH   2   3
ENDBRANCH   1   2
BRANCH   1  76
ATOM     76  C   UNL A   1      36.034  18.407  24.902  1.00  0.00     0.188 C 
BRANCH  76  77
ATOM     77  O   UNL A   1      34.783  18.373  24.233  1.00  0.00    -0.376 OA
BRANCH  77  78
ATOM     78  C   UNL A   1      33.608  18.505  25.020  1.00  0.00     0.202 C 
BRANCH  78  79
ATOM     79  C   UNL A   1      32.966  19.889  25.233  1.00  0.00     0.261 C 
BRANCH  79  80
ATOM     80  O   UNL A   1      31.776  20.195  24.498  1.00  0.00    -0.459 OA
BRANCH  80  81
ATOM     81  C   UNL A   1      31.990  20.461  23.178  1.00  0.00     0.365 C 
ATOM     82  O   UNL A   1      32.151  19.598  22.317  1.00  0.00    -0.245 OA
BRANCH  81  83
ATOM     83  C   UNL A   1      32.228  21.944  22.886  1.00  0.00     0.298 C 
ATOM     84  C   UNL A   1      31.245  22.920  23.572  1.00  0.00     0.115 C 
ATOM     85  N   UNL A   1      33.633  22.159  23.263  1.00  0.00    -0.323 N 
ATOM     86  C   UNL A   1      31.734  24.313  23.343  1.00  0.00    -0.006 A 
ATOM     87  C   UNL A   1      34.185  23.506  23.111  1.00  0.00     0.262 C 
ATOM     88  H   UNL A   1      34.201  21.532  22.691  1.00  0.00     0.347 HD
ATOM     89  H   UNL A   1      33.658  21.985  24.267  1.00  0.00     0.347 HD
ATOM     90  C   UNL A   1      33.093  24.550  23.190  1.00  0.00     0.083 A 
ATOM     91  C   UNL A   1      31.052  25.565  23.324  1.00  0.00     0.003 A 
ATOM     92  N   UNL A   1      33.242  25.904  22.986  1.00  0.00    -0.353 N 
ATOM     93  C   UNL A   1      32.029  26.550  23.174  1.00  0.00     0.046 A 
ATOM     94  C   UNL A   1      29.712  25.978  23.492  1.00  0.00     0.010 A 
ATOM     95  H   UNL A   1      34.085  26.349  22.740  1.00  0.00     0.166 HD
ATOM     96  C   UNL A   1      31.724  27.917  23.286  1.00  0.00     0.026 A 
ATOM     97  C   UNL A   1      29.413  27.339  23.663  1.00  0.00     0.001 A 
ATOM     98  C   UNL A   1      30.415  28.293  23.595  1.00  0.00     0.002 A 
BRANCH  87  99
ATOM     99  C   UNL A   1      35.328  23.550  24.125  1.00  0.00     0.016 A 
ATOM    100  C   UNL A   1      35.126  23.634  25.507  1.00  0.00     0.014 A 
ATOM    101  C   UNL A   1      36.639  23.277  23.702  1.00  0.00     0.014 A 
ATOM    102  C   UNL A   1      36.197  23.667  26.408  1.00  0.00     0.047 A 
ATOM    103  C   UNL A   1      37.708  23.201  24.611  1.00  0.00     0.047 A 
ATOM    104  C   UNL A   1      37.495  23.437  25.965  1.00  0.00     0.129 A 
BRANCH 104 105
ATOM    105  O   UNL A   1      38.467  23.527  26.918  1.00  0.00    -0.406 OA
BRANCH 105 106
ATOM    106  C   UNL A   1      39.026  24.811  27.123  1.00  0.00     0.573 C 
ATOM    107  F   UNL A   1      40.090  25.015  26.310  1.00  0.00    -0.132 F 
ATOM    108  F   UNL A   1      38.136  25.810  26.948  1.00  0.00    -0.132 F 
ATOM    109  F   UNL A   1      39.479  24.884  28.400  1.00  0.00    -0.132 F 
ENDBRANCH 105 106
ENDBRANCH 104 105
ENDBRANCH  87  99
ENDBRANCH  81  83
ENDBRANCH  80  81
ENDBRANCH  79  80
ENDBRANCH  78  79
ENDBRANCH  77  78
ENDBRANCH  76  77
ENDBRANCH   1  76
TORSDOF 23
ENDMDL
