MODEL 1
REMARK VINA RESULT:     -10.3      0.000      0.000
REMARK SMILES O=C(OCCOCCOCCOC(=O)[C@@H]1CS[C@H](c2ncc(-c3ccccc3)s2)[NH2+]1)c1ccc(-c2c3nc(c(-c4c(F)cc(S(=O)(=O)[O-])cc4F)c4ccc([nH]4)c(-c4c(F)cc(S(=O)(=O)[O-])cc4F)c4nc(c(-c5c(F)cc(S(=O)(=O)[O-])cc5F)c5ccc2[nH]5)C=C4)C=C3)cc1
REMARK SMILES IDX 7 1 6 2 5 3 4 4 3 5 2 6 1 7 31 8 32 9 96 10 33 11 95 12
REMARK SMILES IDX 34 13 35 14 36 15 89 16 37 17 94 18 88 19 90 20 38 21 93 22
REMARK SMILES IDX 87 23 86 24 39 26 73 27 52 28 72 29 53 30 56 31 71 32 91 33
REMARK SMILES IDX 54 34 55 35 70 37 92 38 57 39 40 40 41 41 50 42 42 43 43 44
REMARK SMILES IDX 49 45 51 46 44 47 45 48 46 49 47 50 48 51 74 52 75 53 84 54
REMARK SMILES IDX 76 55 77 56 83 57 85 58 78 59 79 60 80 61 81 62 82 63 58 64
REMARK SMILES IDX 59 65 68 66 60 67 61 68 67 69 69 70 62 71 63 72 64 73 65 74
REMARK SMILES IDX 66 75 8 76 9 77 10 78 11 79 12 80 13 81 14 82 15 83 16 84
REMARK SMILES IDX 30 85 17 86 18 87 19 90 20 91 29 92 21 93 22 94 23 95 24 96
REMARK SMILES IDX 28 97 25 98 27 99 26 100
REMARK H PARENT 90 25 56 36 30 88 30 89
REMARK Flexibility Score: inf
ROOT
ATOM      1  C   UNL A   1      35.173  33.386  28.314  1.00  0.00     0.188 C 
ENDROOT
BRANCH   1   2
ATOM      2  O   UNL A   1      34.247  33.282  29.394  1.00  0.00    -0.376 OA
BRANCH   2   3
ATOM      3  C   UNL A   1      34.776  32.613  30.543  1.00  0.00     0.202 C 
BRANCH   3   4
ATOM      4  C   UNL A   1      35.884  33.365  31.304  1.00  0.00     0.261 C 
BRANCH   4   5
ATOM      5  O   UNL A   1      36.958  32.514  31.748  1.00  0.00    -0.460 OA
BRANCH   5   6
ATOM      6  C   UNL A   1      37.076  31.167  31.598  1.00  0.00     0.338 C 
ATOM      7  O   UNL A   1      36.194  30.443  32.057  1.00  0.00    -0.246 OA
BRANCH   6   8
ATOM      8  C   UNL A   1      38.232  30.522  30.904  1.00  0.00     0.060 A 
ATOM      9  C   UNL A   1      39.187  29.738  31.545  1.00  0.00     0.016 A 
ATOM     10  C   UNL A   1      38.347  30.680  29.512  1.00  0.00     0.016 A 
ATOM     11  C   UNL A   1      40.302  29.260  30.882  1.00  0.00     0.010 A 
ATOM     12  C   UNL A   1      39.436  30.137  28.813  1.00  0.00     0.010 A 
ATOM     13  C   UNL A   1      40.447  29.470  29.513  1.00  0.00    -0.014 A 
BRANCH  13  14
ATOM     14  C   UNL A   1      41.749  29.098  28.923  1.00  0.00     0.031 A 
ATOM     15  C   UNL A   1      42.873  30.090  28.998  1.00  0.00     0.074 A 
ATOM     16  C   UNL A   1      41.963  27.822  28.545  1.00  0.00     0.049 A 
ATOM     17  N   UNL A   1      44.116  29.955  28.629  1.00  0.00    -0.248 NA
ATOM     18  C   UNL A   1      42.561  31.402  29.595  1.00  0.00     0.031 C 
ATOM     19  C   UNL A   1      40.949  26.765  28.559  1.00  0.00     0.029 A 
ATOM     20  N   UNL A   1      43.099  27.179  28.135  1.00  0.00    -0.354 N 
ATOM     21  C   UNL A   1      44.732  31.161  28.938  1.00  0.00     0.074 A 
ATOM     22  C   UNL A   1      43.724  32.027  29.505  1.00  0.00     0.031 C 
ATOM     23  C   UNL A   1      41.514  25.599  28.211  1.00  0.00     0.029 A 
ATOM     24  C   UNL A   1      42.913  25.838  27.883  1.00  0.00     0.049 A 
ATOM     25  H   UNL A   1      43.966  27.632  28.031  1.00  0.00     0.167 HD
ATOM     26  C   UNL A   1      46.028  31.508  28.768  1.00  0.00     0.037 A 
ATOM     27  C   UNL A   1      43.774  24.920  27.409  1.00  0.00     0.037 A 
ATOM     28  C   UNL A   1      47.007  30.627  28.191  1.00  0.00     0.049 A 
ATOM     29  C   UNL A   1      45.185  25.360  27.136  1.00  0.00     0.074 A 
ATOM     30  C   UNL A   1      48.324  30.889  27.866  1.00  0.00     0.029 A 
ATOM     31  N   UNL A   1      46.766  29.299  27.861  1.00  0.00    -0.354 N 
ATOM     32  N   UNL A   1      45.735  26.534  27.349  1.00  0.00    -0.248 NA
ATOM     33  C   UNL A   1      46.092  24.366  26.550  1.00  0.00     0.031 C 
ATOM     34  C   UNL A   1      48.871  29.727  27.309  1.00  0.00     0.029 A 
ATOM     35  C   UNL A   1      47.907  28.729  27.329  1.00  0.00     0.049 A 
ATOM     36  H   UNL A   1      45.908  28.832  27.986  1.00  0.00     0.167 HD
ATOM     37  C   UNL A   1      47.053  26.420  26.927  1.00  0.00     0.074 A 
ATOM     38  C   UNL A   1      47.224  25.051  26.479  1.00  0.00     0.031 C 
ATOM     39  C   UNL A   1      48.032  27.358  26.898  1.00  0.00     0.037 A 
BRANCH  26  40
ATOM     40  C   UNL A   1      46.423  32.903  29.158  1.00  0.00     0.058 A 
ATOM     41  C   UNL A   1      46.903  33.205  30.442  1.00  0.00     0.135 A 
ATOM     42  C   UNL A   1      46.292  33.960  28.243  1.00  0.00     0.135 A 
ATOM     43  F   UNL A   1      47.013  32.239  31.368  1.00  0.00    -0.206 F 
ATOM     44  C   UNL A   1      47.217  34.509  30.813  1.00  0.00     0.059 A 
ATOM     45  C   UNL A   1      46.620  35.268  28.585  1.00  0.00     0.059 A 
ATOM     46  F   UNL A   1      45.822  33.729  27.007  1.00  0.00    -0.206 F 
ATOM     47  C   UNL A   1      47.068  35.535  29.878  1.00  0.00     0.060 A 
BRANCH  47  48
ATOM     48  S   UNL A   1      47.465  37.224  30.378  1.00  0.00     0.124 S 
ATOM     49  O   UNL A   1      48.533  36.996  31.348  1.00  0.00    -0.237 OA
ATOM     50  O   UNL A   1      47.874  37.835  29.118  1.00  0.00    -0.237 OA
ATOM     51  O   UNL A   1      46.209  37.719  30.934  1.00  0.00    -0.744 OA
ENDBRANCH  47  48
ENDBRANCH  26  40
BRANCH  27  52
ATOM     52  C   UNL A   1      43.312  23.537  27.101  1.00  0.00     0.058 A 
ATOM     53  C   UNL A   1      43.033  22.604  28.110  1.00  0.00     0.135 A 
ATOM     54  C   UNL A   1      43.157  23.114  25.769  1.00  0.00     0.135 A 
ATOM     55  F   UNL A   1      43.164  22.951  29.400  1.00  0.00    -0.206 F 
ATOM     56  C   UNL A   1      42.649  21.298  27.813  1.00  0.00     0.059 A 
ATOM     57  C   UNL A   1      42.744  21.827  25.446  1.00  0.00     0.059 A 
ATOM     58  F   UNL A   1      43.393  23.968  24.760  1.00  0.00    -0.206 F 
ATOM     59  C   UNL A   1      42.511  20.918  26.476  1.00  0.00     0.060 A 
BRANCH  59  60
ATOM     60  S   UNL A   1      42.004  19.228  26.091  1.00  0.00     0.124 S 
ATOM     61  O   UNL A   1      40.556  19.371  26.003  1.00  0.00    -0.237 OA
ATOM     62  O   UNL A   1      42.700  18.977  24.833  1.00  0.00    -0.237 OA
ATOM     63  O   UNL A   1      42.496  18.464  27.234  1.00  0.00    -0.744 OA
ENDBRANCH  59  60
ENDBRANCH  27  52
BRANCH  39  64
ATOM     64  C   UNL A   1      49.370  26.917  26.384  1.00  0.00     0.058 A 
ATOM     65  C   UNL A   1      50.320  26.324  27.229  1.00  0.00     0.135 A 
ATOM     66  C   UNL A   1      49.687  27.058  25.024  1.00  0.00     0.135 A 
ATOM     67  F   UNL A   1      50.061  26.175  28.538  1.00  0.00    -0.206 F 
ATOM     68  C   UNL A   1      51.556  25.911  26.748  1.00  0.00     0.059 A 
ATOM     69  C   UNL A   1      50.906  26.626  24.517  1.00  0.00     0.059 A 
ATOM     70  F   UNL A   1      48.804  27.609  24.177  1.00  0.00    -0.206 F 
ATOM     71  C   UNL A   1      51.839  26.068  25.390  1.00  0.00     0.060 A 
BRANCH  71  72
ATOM     72  S   UNL A   1      53.439  25.510  24.771  1.00  0.00     0.124 S 
ATOM     73  O   UNL A   1      53.338  25.848  23.354  1.00  0.00    -0.237 OA
ATOM     74  O   UNL A   1      54.375  26.315  25.550  1.00  0.00    -0.237 OA
ATOM     75  O   UNL A   1      53.441  24.083  25.078  1.00  0.00    -0.744 OA
ENDBRANCH  71  72
ENDBRANCH  39  64
ENDBRANCH  13  14
ENDBRANCH   6   8
ENDBRANCH   5   6
ENDBRANCH   4   5
ENDBRANCH   3   4
ENDBRANCH   2   3
ENDBRANCH   1   2
BRANCH   1  76
ATOM     76  C   UNL A   1      35.493  32.023  27.721  1.00  0.00     0.188 C 
BRANCH  76  77
ATOM     77  O   UNL A   1      34.376  31.216  27.366  1.00  0.00    -0.376 OA
BRANCH  77  78
ATOM     78  C   UNL A   1      34.641  29.825  27.208  1.00  0.00     0.202 C 
BRANCH  78  79
ATOM     79  C   UNL A   1      33.493  28.826  27.458  1.00  0.00     0.261 C 
BRANCH  79  80
ATOM     80  O   UNL A   1      33.414  27.710  26.548  1.00  0.00    -0.459 OA
BRANCH  80  81
ATOM     81  C   UNL A   1      32.138  27.331  26.224  1.00  0.00     0.365 C 
ATOM     82  O   UNL A   1      31.533  26.441  26.799  1.00  0.00    -0.245 OA
BRANCH  81  83
ATOM     83  C   UNL A   1      31.578  28.073  24.985  1.00  0.00     0.304 C 
ATOM     84  C   UNL A   1      30.353  27.464  24.297  1.00  0.00     0.153 C 
ATOM     85  N   UNL A   1      32.694  28.289  24.003  1.00  0.00    -0.317 N 
ATOM     86  S   UNL A   1      30.661  27.651  22.531  1.00  0.00    -0.085 SA
ATOM     87  C   UNL A   1      32.455  27.520  22.776  1.00  0.00     0.303 C 
ATOM     88  H   UNL A   1      33.574  27.987  24.423  1.00  0.00     0.348 HD
ATOM     89  H   UNL A   1      32.740  29.281  23.768  1.00  0.00     0.348 HD
BRANCH  87  90
ATOM     90  C   UNL A   1      32.922  26.058  22.769  1.00  0.00     0.162 A 
ATOM     91  N   UNL A   1      32.465  25.146  21.925  1.00  0.00    -0.242 NA
ATOM     92  S   UNL A   1      34.157  25.464  23.827  1.00  0.00    -0.112 S 
ATOM     93  C   UNL A   1      33.020  23.910  22.195  1.00  0.00     0.132 A 
ATOM     94  C   UNL A   1      33.925  23.870  23.235  1.00  0.00     0.055 A 
BRANCH  94  95
ATOM     95  C   UNL A   1      34.611  22.730  23.838  1.00  0.00    -0.007 A 
ATOM     96  C   UNL A   1      33.882  21.620  24.286  1.00  0.00     0.009 A 
ATOM     97  C   UNL A   1      36.001  22.707  23.980  1.00  0.00     0.009 A 
ATOM     98  C   UNL A   1      34.503  20.538  24.906  1.00  0.00     0.001 A 
ATOM     99  C   UNL A   1      36.632  21.610  24.579  1.00  0.00     0.001 A 
ATOM    100  C   UNL A   1      35.882  20.532  25.054  1.00  0.00     0.000 A 
ENDBRANCH  94  95
ENDBRANCH  87  90
ENDBRANCH  81  83
ENDBRANCH  80  81
ENDBRANCH  79  80
ENDBRANCH  78  79
ENDBRANCH  77  78
ENDBRANCH  76  77
ENDBRANCH   1  76
TORSDOF 22
ENDMDL
MODEL 2
REMARK VINA RESULT:     -10.0      4.790      9.600
REMARK SMILES O=C(OCCOCCOCCOC(=O)[C@@H]1CS[C@H](c2ncc(-c3ccccc3)s2)[NH2+]1)c1ccc(-c2c3nc(c(-c4c(F)cc(S(=O)(=O)[O-])cc4F)c4ccc([nH]4)c(-c4c(F)cc(S(=O)(=O)[O-])cc4F)c4nc(c(-c5c(F)cc(S(=O)(=O)[O-])cc5F)c5ccc2[nH]5)C=C4)C=C3)cc1
REMARK SMILES IDX 7 1 6 2 5 3 4 4 3 5 2 6 1 7 31 8 32 9 96 10 33 11 95 12
REMARK SMILES IDX 34 13 35 14 36 15 89 16 37 17 94 18 88 19 90 20 38 21 93 22
REMARK SMILES IDX 87 23 86 24 39 26 73 27 52 28 72 29 53 30 56 31 71 32 91 33
REMARK SMILES IDX 54 34 55 35 70 37 92 38 57 39 40 40 41 41 50 42 42 43 43 44
REMARK SMILES IDX 49 45 51 46 44 47 45 48 46 49 47 50 48 51 74 52 75 53 84 54
REMARK SMILES IDX 76 55 77 56 83 57 85 58 78 59 79 60 80 61 81 62 82 63 58 64
REMARK SMILES IDX 59 65 68 66 60 67 61 68 67 69 69 70 62 71 63 72 64 73 65 74
REMARK SMILES IDX 66 75 8 76 9 77 10 78 11 79 12 80 13 81 14 82 15 83 16 84
REMARK SMILES IDX 30 85 17 86 18 87 19 90 20 91 29 92 21 93 22 94 23 95 24 96
REMARK SMILES IDX 28 97 25 98 27 99 26 100
REMARK H PARENT 90 25 56 36 30 88 30 89
REMARK Flexibility Score: inf
ROOT
ATOM      1  C   UNL A   1      30.990  26.224  26.433  1.00  0.00     0.188 C 
ENDROOT
BRANCH   1   2
ATOM      2  O   UNL A   1      32.322  26.718  26.304  1.00  0.00    -0.376 OA
BRANCH   2   3
ATOM      3  C   UNL A   1      32.431  28.133  26.480  1.00  0.00     0.202 C 
BRANCH   3   4
ATOM      4  C   UNL A   1      33.835  28.728  26.265  1.00  0.00     0.261 C 
BRANCH   4   5
ATOM      5  O   UNL A   1      33.898  30.151  26.477  1.00  0.00    -0.460 OA
BRANCH   5   6
ATOM      6  C   UNL A   1      34.587  30.824  27.438  1.00  0.00     0.338 C 
ATOM      7  O   UNL A   1      34.198  31.943  27.769  1.00  0.00    -0.246 OA
BRANCH   6   8
ATOM      8  C   UNL A   1      35.802  30.270  28.110  1.00  0.00     0.060 A 
ATOM      9  C   UNL A   1      35.786  29.632  29.347  1.00  0.00     0.016 A 
ATOM     10  C   UNL A   1      37.034  30.359  27.439  1.00  0.00     0.016 A 
ATOM     11  C   UNL A   1      36.952  29.241  29.980  1.00  0.00     0.010 A 
ATOM     12  C   UNL A   1      38.216  29.899  28.039  1.00  0.00     0.010 A 
ATOM     13  C   UNL A   1      38.179  29.386  29.340  1.00  0.00    -0.014 A 
BRANCH  13  14
ATOM     14  C   UNL A   1      39.383  29.125  30.155  1.00  0.00     0.031 A 
ATOM     15  C   UNL A   1      40.402  28.157  29.629  1.00  0.00     0.074 A 
ATOM     16  C   UNL A   1      39.648  29.914  31.215  1.00  0.00     0.049 A 
ATOM     17  N   UNL A   1      41.566  27.836  30.123  1.00  0.00    -0.248 NA
ATOM     18  C   UNL A   1      40.078  27.477  28.361  1.00  0.00     0.031 C 
ATOM     19  C   UNL A   1      38.759  30.966  31.717  1.00  0.00     0.029 A 
ATOM     20  N   UNL A   1      40.747  30.004  32.024  1.00  0.00    -0.354 N 
ATOM     21  C   UNL A   1      42.108  26.915  29.236  1.00  0.00     0.074 A 
ATOM     22  C   UNL A   1      41.141  26.708  28.183  1.00  0.00     0.031 C 
ATOM     23  C   UNL A   1      39.361  31.617  32.722  1.00  0.00     0.029 A 
ATOM     24  C   UNL A   1      40.649  30.987  32.982  1.00  0.00     0.049 A 
ATOM     25  H   UNL A   1      41.534  29.420  31.929  1.00  0.00     0.167 HD
ATOM     26  C   UNL A   1      43.313  26.303  29.296  1.00  0.00     0.037 A 
ATOM     27  C   UNL A   1      41.494  31.316  33.976  1.00  0.00     0.037 A 
ATOM     28  C   UNL A   1      44.252  26.522  30.362  1.00  0.00     0.049 A 
ATOM     29  C   UNL A   1      42.785  30.550  34.077  1.00  0.00     0.074 A 
ATOM     30  C   UNL A   1      45.458  25.891  30.599  1.00  0.00     0.029 A 
ATOM     31  N   UNL A   1      44.085  27.463  31.371  1.00  0.00    -0.354 N 
ATOM     32  N   UNL A   1      43.248  29.613  33.280  1.00  0.00    -0.248 NA
ATOM     33  C   UNL A   1      43.662  30.869  35.209  1.00  0.00     0.031 C 
ATOM     34  C   UNL A   1      46.004  26.427  31.771  1.00  0.00     0.029 A 
ATOM     35  C   UNL A   1      45.161  27.425  32.238  1.00  0.00     0.049 A 
ATOM     36  H   UNL A   1      43.312  28.067  31.457  1.00  0.00     0.167 HD
ATOM     37  C   UNL A   1      44.473  29.234  33.811  1.00  0.00     0.074 A 
ATOM     38  C   UNL A   1      44.692  30.067  34.979  1.00  0.00     0.031 C 
ATOM     39  C   UNL A   1      45.337  28.277  33.387  1.00  0.00     0.037 A 
BRANCH  26  40
ATOM     40  C   UNL A   1      43.636  25.314  28.214  1.00  0.00     0.058 A 
ATOM     41  C   UNL A   1      43.327  23.950  28.341  1.00  0.00     0.135 A 
ATOM     42  C   UNL A   1      44.291  25.729  27.043  1.00  0.00     0.135 A 
ATOM     43  F   UNL A   1      42.735  23.492  29.456  1.00  0.00    -0.206 F 
ATOM     44  C   UNL A   1      43.676  23.030  27.357  1.00  0.00     0.059 A 
ATOM     45  C   UNL A   1      44.630  24.831  26.037  1.00  0.00     0.059 A 
ATOM     46  F   UNL A   1      44.624  27.019  26.878  1.00  0.00    -0.206 F 
ATOM     47  C   UNL A   1      44.332  23.480  26.210  1.00  0.00     0.060 A 
BRANCH  47  48
ATOM     48  S   UNL A   1      44.792  22.272  24.948  1.00  0.00     0.124 S 
ATOM     49  O   UNL A   1      43.587  21.451  24.881  1.00  0.00    -0.237 OA
ATOM     50  O   UNL A   1      45.049  23.117  23.787  1.00  0.00    -0.237 OA
ATOM     51  O   UNL A   1      45.966  21.617  25.517  1.00  0.00    -0.744 OA
ENDBRANCH  47  48
ENDBRANCH  26  40
BRANCH  27  52
ATOM     52  C   UNL A   1      41.119  32.353  34.978  1.00  0.00     0.058 A 
ATOM     53  C   UNL A   1      41.525  33.689  34.852  1.00  0.00     0.135 A 
ATOM     54  C   UNL A   1      40.352  32.013  36.106  1.00  0.00     0.135 A 
ATOM     55  F   UNL A   1      42.260  34.071  33.796  1.00  0.00    -0.206 F 
ATOM     56  C   UNL A   1      41.212  34.643  35.819  1.00  0.00     0.059 A 
ATOM     57  C   UNL A   1      39.999  32.953  37.068  1.00  0.00     0.059 A 
ATOM     58  F   UNL A   1      39.919  30.753  36.272  1.00  0.00    -0.206 F 
ATOM     59  C   UNL A   1      40.450  34.263  36.926  1.00  0.00     0.060 A 
BRANCH  59  60
ATOM     60  S   UNL A   1      40.037  35.501  38.174  1.00  0.00     0.124 S 
ATOM     61  O   UNL A   1      41.220  35.462  39.026  1.00  0.00    -0.237 OA
ATOM     62  O   UNL A   1      39.870  36.706  37.368  1.00  0.00    -0.237 OA
ATOM     63  O   UNL A   1      38.812  34.978  38.770  1.00  0.00    -0.744 OA
ENDBRANCH  59  60
ENDBRANCH  27  52
BRANCH  39  64
ATOM     64  C   UNL A   1      46.596  28.108  34.184  1.00  0.00     0.058 A 
ATOM     65  C   UNL A   1      46.676  27.186  35.238  1.00  0.00     0.135 A 
ATOM     66  C   UNL A   1      47.742  28.851  33.864  1.00  0.00     0.135 A 
ATOM     67  F   UNL A   1      45.602  26.458  35.585  1.00  0.00    -0.206 F 
ATOM     68  C   UNL A   1      47.846  27.028  35.971  1.00  0.00     0.059 A 
ATOM     69  C   UNL A   1      48.930  28.688  34.564  1.00  0.00     0.059 A 
ATOM     70  F   UNL A   1      47.714  29.736  32.855  1.00  0.00    -0.206 F 
ATOM     71  C   UNL A   1      48.967  27.785  35.626  1.00  0.00     0.060 A 
BRANCH  71  72
ATOM     72  S   UNL A   1      50.488  27.557  36.570  1.00  0.00     0.124 S 
ATOM     73  O   UNL A   1      50.138  26.420  37.415  1.00  0.00    -0.237 OA
ATOM     74  O   UNL A   1      51.470  27.291  35.522  1.00  0.00    -0.237 OA
ATOM     75  O   UNL A   1      50.649  28.832  37.263  1.00  0.00    -0.744 OA
ENDBRANCH  71  72
ENDBRANCH  39  64
ENDBRANCH  13  14
ENDBRANCH   6   8
ENDBRANCH   5   6
ENDBRANCH   4   5
ENDBRANCH   3   4
ENDBRANCH   2   3
ENDBRANCH   1   2
BRANCH   1  76
ATOM     76  C   UNL A   1      30.423  25.790  25.090  1.00  0.00     0.188 C 
BRANCH  76  77
ATOM     77  O   UNL A   1      30.131  26.833  24.167  1.00  0.00    -0.376 OA
BRANCH  77  78
ATOM     78  C   UNL A   1      30.764  26.730  22.894  1.00  0.00     0.202 C 
BRANCH  78  79
ATOM     79  C   UNL A   1      31.697  25.530  22.634  1.00  0.00     0.261 C 
BRANCH  79  80
ATOM     80  O   UNL A   1      33.112  25.801  22.705  1.00  0.00    -0.459 OA
BRANCH  80  81
ATOM     81  C   UNL A   1      33.892  24.697  22.929  1.00  0.00     0.365 C 
ATOM     82  O   UNL A   1      33.812  23.671  22.273  1.00  0.00    -0.245 OA
BRANCH  81  83
ATOM     83  C   UNL A   1      34.812  24.843  24.167  1.00  0.00     0.304 C 
ATOM     84  C   UNL A   1      36.075  23.978  24.208  1.00  0.00     0.153 C 
ATOM     85  N   UNL A   1      33.988  24.652  25.409  1.00  0.00    -0.317 N 
ATOM     86  S   UNL A   1      36.208  23.417  25.915  1.00  0.00    -0.085 SA
ATOM     87  C   UNL A   1      34.404  23.436  26.118  1.00  0.00     0.303 C 
ATOM     88  H   UNL A   1      33.005  24.570  25.151  1.00  0.00     0.348 HD
ATOM     89  H   UNL A   1      34.125  25.455  26.023  1.00  0.00     0.348 HD
BRANCH  87  90
ATOM     90  C   UNL A   1      33.770  22.115  25.665  1.00  0.00     0.162 A 
ATOM     91  N   UNL A   1      32.486  21.982  25.365  1.00  0.00    -0.242 NA
ATOM     92  S   UNL A   1      34.688  20.666  25.429  1.00  0.00    -0.112 S 
ATOM     93  C   UNL A   1      32.193  20.669  25.051  1.00  0.00     0.132 A 
ATOM     94  C   UNL A   1      33.254  19.789  25.086  1.00  0.00     0.055 A 
BRANCH  94  95
ATOM     95  C   UNL A   1      33.277  18.339  24.907  1.00  0.00    -0.007 A 
ATOM     96  C   UNL A   1      32.557  17.507  25.774  1.00  0.00     0.009 A 
ATOM     97  C   UNL A   1      34.003  17.744  23.873  1.00  0.00     0.009 A 
ATOM     98  C   UNL A   1      32.595  16.119  25.657  1.00  0.00     0.001 A 
ATOM     99  C   UNL A   1      34.024  16.350  23.735  1.00  0.00     0.001 A 
ATOM    100  C   UNL A   1      33.331  15.538  24.635  1.00  0.00     0.000 A 
ENDBRANCH  94  95
ENDBRANCH  87  90
ENDBRANCH  81  83
ENDBRANCH  80  81
ENDBRANCH  79  80
ENDBRANCH  78  79
ENDBRANCH  77  78
ENDBRANCH  76  77
ENDBRANCH   1  76
TORSDOF 22
ENDMDL
MODEL 3
REMARK VINA RESULT:      -9.8      3.077      9.926
REMARK SMILES O=C(OCCOCCOCCOC(=O)[C@@H]1CS[C@H](c2ncc(-c3ccccc3)s2)[NH2+]1)c1ccc(-c2c3nc(c(-c4c(F)cc(S(=O)(=O)[O-])cc4F)c4ccc([nH]4)c(-c4c(F)cc(S(=O)(=O)[O-])cc4F)c4nc(c(-c5c(F)cc(S(=O)(=O)[O-])cc5F)c5ccc2[nH]5)C=C4)C=C3)cc1
REMARK SMILES IDX 7 1 6 2 5 3 4 4 3 5 2 6 1 7 31 8 32 9 96 10 33 11 95 12
REMARK SMILES IDX 34 13 35 14 36 15 89 16 37 17 94 18 88 19 90 20 38 21 93 22
REMARK SMILES IDX 87 23 86 24 39 26 73 27 52 28 72 29 53 30 56 31 71 32 91 33
REMARK SMILES IDX 54 34 55 35 70 37 92 38 57 39 40 40 41 41 50 42 42 43 43 44
REMARK SMILES IDX 49 45 51 46 44 47 45 48 46 49 47 50 48 51 74 52 75 53 84 54
REMARK SMILES IDX 76 55 77 56 83 57 85 58 78 59 79 60 80 61 81 62 82 63 58 64
REMARK SMILES IDX 59 65 68 66 60 67 61 68 67 69 69 70 62 71 63 72 64 73 65 74
REMARK SMILES IDX 66 75 8 76 9 77 10 78 11 79 12 80 13 81 14 82 15 83 16 84
REMARK SMILES IDX 30 85 17 86 18 87 19 90 20 91 29 92 21 93 22 94 23 95 24 96
REMARK SMILES IDX 28 97 25 98 27 99 26 100
REMARK H PARENT 90 25 56 36 30 88 30 89
REMARK Flexibility Score: inf
ROOT
ATOM      1  C   UNL A   1      34.697  22.218  25.746  1.00  0.00     0.188 C 
ENDROOT
BRANCH   1   2
ATOM      2  O   UNL A   1      35.785  21.384  26.143  1.00  0.00    -0.376 OA
BRANCH   2   3
ATOM      3  C   UNL A   1      36.524  20.841  25.045  1.00  0.00     0.202 C 
BRANCH   3   4
ATOM      4  C   UNL A   1      38.049  21.055  25.094  1.00  0.00     0.261 C 
BRANCH   4   5
ATOM      5  O   UNL A   1      38.447  22.189  25.887  1.00  0.00    -0.460 OA
BRANCH   5   6
ATOM      6  C   UNL A   1      39.705  22.551  26.259  1.00  0.00     0.338 C 
ATOM      7  O   UNL A   1      40.625  21.755  26.079  1.00  0.00    -0.246 OA
BRANCH   6   8
ATOM      8  C   UNL A   1      40.023  23.872  26.883  1.00  0.00     0.060 A 
ATOM      9  C   UNL A   1      39.953  25.088  26.210  1.00  0.00     0.016 A 
ATOM     10  C   UNL A   1      40.376  23.898  28.243  1.00  0.00     0.016 A 
ATOM     11  C   UNL A   1      40.369  26.270  26.796  1.00  0.00     0.010 A 
ATOM     12  C   UNL A   1      40.730  25.102  28.871  1.00  0.00     0.010 A 
ATOM     13  C   UNL A   1      40.779  26.286  28.127  1.00  0.00    -0.014 A 
BRANCH  13  14
ATOM     14  C   UNL A   1      41.386  27.541  28.615  1.00  0.00     0.031 A 
ATOM     15  C   UNL A   1      42.853  27.757  28.384  1.00  0.00     0.074 A 
ATOM     16  C   UNL A   1      40.587  28.539  29.039  1.00  0.00     0.049 A 
ATOM     17  N   UNL A   1      43.581  28.807  28.645  1.00  0.00    -0.248 NA
ATOM     18  C   UNL A   1      43.595  26.653  27.748  1.00  0.00     0.031 C 
ATOM     19  C   UNL A   1      39.131  28.446  29.175  1.00  0.00     0.029 A 
ATOM     20  N   UNL A   1      40.863  29.836  29.378  1.00  0.00    -0.354 N 
ATOM     21  C   UNL A   1      44.864  28.489  28.216  1.00  0.00     0.074 A 
ATOM     22  C   UNL A   1      44.824  27.142  27.698  1.00  0.00     0.031 C 
ATOM     23  C   UNL A   1      38.638  29.641  29.533  1.00  0.00     0.029 A 
ATOM     24  C   UNL A   1      39.747  30.567  29.718  1.00  0.00     0.049 A 
ATOM     25  H   UNL A   1      41.774  30.210  29.378  1.00  0.00     0.167 HD
ATOM     26  C   UNL A   1      45.973  29.262  28.249  1.00  0.00     0.037 A 
ATOM     27  C   UNL A   1      39.643  31.833  30.161  1.00  0.00     0.037 A 
ATOM     28  C   UNL A   1      45.985  30.598  28.780  1.00  0.00     0.049 A 
ATOM     29  C   UNL A   1      40.909  32.637  30.280  1.00  0.00     0.074 A 
ATOM     30  C   UNL A   1      47.058  31.447  28.969  1.00  0.00     0.029 A 
ATOM     31  N   UNL A   1      44.851  31.281  29.201  1.00  0.00    -0.354 N 
ATOM     32  N   UNL A   1      42.134  32.293  29.955  1.00  0.00    -0.248 NA
ATOM     33  C   UNL A   1      40.788  33.991  30.833  1.00  0.00     0.031 C 
ATOM     34  C   UNL A   1      46.577  32.632  29.536  1.00  0.00     0.029 A 
ATOM     35  C   UNL A   1      45.198  32.539  29.657  1.00  0.00     0.049 A 
ATOM     36  H   UNL A   1      43.934  30.922  29.181  1.00  0.00     0.167 HD
ATOM     37  C   UNL A   1      42.931  33.388  30.259  1.00  0.00     0.074 A 
ATOM     38  C   UNL A   1      42.041  34.417  30.764  1.00  0.00     0.031 C 
ATOM     39  C   UNL A   1      44.275  33.533  30.148  1.00  0.00     0.037 A 
BRANCH  26  40
ATOM     40  C   UNL A   1      47.251  28.651  27.750  1.00  0.00     0.058 A 
ATOM     41  C   UNL A   1      48.180  28.062  28.621  1.00  0.00     0.135 A 
ATOM     42  C   UNL A   1      47.565  28.681  26.381  1.00  0.00     0.135 A 
ATOM     43  F   UNL A   1      47.947  28.040  29.944  1.00  0.00    -0.206 F 
ATOM     44  C   UNL A   1      49.386  27.544  28.158  1.00  0.00     0.059 A 
ATOM     45  C   UNL A   1      48.755  28.150  25.893  1.00  0.00     0.059 A 
ATOM     46  F   UNL A   1      46.719  29.247  25.506  1.00  0.00    -0.206 F 
ATOM     47  C   UNL A   1      49.666  27.597  26.791  1.00  0.00     0.060 A 
BRANCH  47  48
ATOM     48  S   UNL A   1      51.241  26.935  26.206  1.00  0.00     0.124 S 
ATOM     49  O   UNL A   1      50.795  25.951  25.224  1.00  0.00    -0.237 OA
ATOM     50  O   UNL A   1      51.895  28.120  25.662  1.00  0.00    -0.237 OA
ATOM     51  O   UNL A   1      51.849  26.385  27.414  1.00  0.00    -0.744 OA
ENDBRANCH  47  48
ENDBRANCH  26  40
BRANCH  27  52
ATOM     52  C   UNL A   1      38.324  32.382  30.584  1.00  0.00     0.058 A 
ATOM     53  C   UNL A   1      37.515  33.127  29.714  1.00  0.00     0.135 A 
ATOM     54  C   UNL A   1      37.853  32.182  31.894  1.00  0.00     0.135 A 
ATOM     55  F   UNL A   1      37.915  33.350  28.452  1.00  0.00    -0.206 F 
ATOM     56  C   UNL A   1      36.306  33.678  30.132  1.00  0.00     0.059 A 
ATOM     57  C   UNL A   1      36.635  32.695  32.325  1.00  0.00     0.059 A 
ATOM     58  F   UNL A   1      38.576  31.463  32.767  1.00  0.00    -0.206 F 
ATOM     59  C   UNL A   1      35.876  33.459  31.443  1.00  0.00     0.060 A 
BRANCH  59  60
ATOM     60  S   UNL A   1      34.305  34.167  31.981  1.00  0.00     0.124 S 
ATOM     61  O   UNL A   1      33.638  34.401  30.705  1.00  0.00    -0.237 OA
ATOM     62  O   UNL A   1      33.752  33.097  32.805  1.00  0.00    -0.237 OA
ATOM     63  O   UNL A   1      34.711  35.364  32.711  1.00  0.00    -0.744 OA
ENDBRANCH  59  60
ENDBRANCH  27  52
BRANCH  39  64
ATOM     64  C   UNL A   1      44.845  34.857  30.562  1.00  0.00     0.058 A 
ATOM     65  C   UNL A   1      44.955  35.922  29.654  1.00  0.00     0.135 A 
ATOM     66  C   UNL A   1      45.250  35.071  31.888  1.00  0.00     0.135 A 
ATOM     67  F   UNL A   1      44.586  35.760  28.373  1.00  0.00    -0.206 F 
ATOM     68  C   UNL A   1      45.478  37.148  30.042  1.00  0.00     0.059 A 
ATOM     69  C   UNL A   1      45.748  36.298  32.303  1.00  0.00     0.059 A 
ATOM     70  F   UNL A   1      45.151  34.085  32.793  1.00  0.00    -0.206 F 
ATOM     71  C   UNL A   1      45.873  37.326  31.370  1.00  0.00     0.060 A 
BRANCH  71  72
ATOM     72  S   UNL A   1      46.531  38.930  31.868  1.00  0.00     0.124 S 
ATOM     73  O   UNL A   1      47.936  38.797  31.496  1.00  0.00    -0.237 OA
ATOM     74  O   UNL A   1      45.745  39.857  31.059  1.00  0.00    -0.237 OA
ATOM     75  O   UNL A   1      46.261  38.975  33.302  1.00  0.00    -0.744 OA
ENDBRANCH  71  72
ENDBRANCH  39  64
ENDBRANCH  13  14
ENDBRANCH   6   8
ENDBRANCH   5   6
ENDBRANCH   4   5
ENDBRANCH   3   4
ENDBRANCH   2   3
ENDBRANCH   1   2
BRANCH   1  76
ATOM     76  C   UNL A   1      34.020  21.692  24.490  1.00  0.00     0.188 C 
BRANCH  76  77
ATOM     77  O   UNL A   1      32.729  21.122  24.667  1.00  0.00    -0.376 OA
BRANCH  77  78
ATOM     78  C   UNL A   1      32.075  21.433  25.894  1.00  0.00     0.202 C 
BRANCH  78  79
ATOM     79  C   UNL A   1      30.822  22.330  25.851  1.00  0.00     0.261 C 
BRANCH  79  80
ATOM     80  O   UNL A   1      31.022  23.715  26.203  1.00  0.00    -0.459 OA
BRANCH  80  81
ATOM     81  C   UNL A   1      31.697  24.449  25.264  1.00  0.00     0.365 C 
ATOM     82  O   UNL A   1      31.482  24.370  24.066  1.00  0.00    -0.245 OA
BRANCH  81  83
ATOM     83  C   UNL A   1      32.833  25.312  25.867  1.00  0.00     0.304 C 
ATOM     84  C   UNL A   1      32.429  26.423  26.840  1.00  0.00     0.153 C 
ATOM     85  N   UNL A   1      33.674  25.857  24.748  1.00  0.00    -0.317 N 
ATOM     86  S   UNL A   1      33.482  27.825  26.421  1.00  0.00    -0.085 SA
ATOM     87  C   UNL A   1      33.553  27.318  24.679  1.00  0.00     0.303 C 
ATOM     88  H   UNL A   1      33.362  25.453  23.865  1.00  0.00     0.348 HD
ATOM     89  H   UNL A   1      34.650  25.614  24.919  1.00  0.00     0.348 HD
BRANCH  87  90
ATOM     90  C   UNL A   1      32.374  27.882  23.877  1.00  0.00     0.162 A 
ATOM     91  N   UNL A   1      31.934  27.350  22.746  1.00  0.00    -0.242 NA
ATOM     92  S   UNL A   1      31.443  29.241  24.408  1.00  0.00    -0.112 S 
ATOM     93  C   UNL A   1      30.904  28.105  22.221  1.00  0.00     0.132 A 
ATOM     94  C   UNL A   1      30.531  29.211  22.956  1.00  0.00     0.055 A 
BRANCH  94  95
ATOM     95  C   UNL A   1      29.563  30.261  22.646  1.00  0.00    -0.007 A 
ATOM     96  C   UNL A   1      29.130  30.459  21.328  1.00  0.00     0.009 A 
ATOM     97  C   UNL A   1      29.039  31.087  23.644  1.00  0.00     0.009 A 
ATOM     98  C   UNL A   1      28.243  31.481  20.994  1.00  0.00     0.001 A 
ATOM     99  C   UNL A   1      28.127  32.098  23.317  1.00  0.00     0.001 A 
ATOM    100  C   UNL A   1      27.740  32.304  21.992  1.00  0.00     0.000 A 
ENDBRANCH  94  95
ENDBRANCH  87  90
ENDBRANCH  81  83
ENDBRANCH  80  81
ENDBRANCH  79  80
ENDBRANCH  78  79
ENDBRANCH  77  78
ENDBRANCH  76  77
ENDBRANCH   1  76
TORSDOF 22
ENDMDL
