MODEL 1
REMARK VINA RESULT:      -8.4      0.000      0.000
REMARK SMILES CS(=O)(=O)c1ccc(/C=C(/C(=O)OCCOCCOCCOC(=O)c2ccc(-c3c4nc(c(-c5c(F)cc(S(=O)(=O)[O-])cc5F)c5ccc([nH]5)c(-c5c(F)cc(S(=O)(=O)[O-])cc5F)c5nc(c(-c6c(F)cc(S(=O)(=O)[O-])cc6F)c6ccc3[nH]6)C=C5)C=C4)cc2)c2cccc(-c3ccc(S(C)(=O)=O)cc3)c2)cc1
REMARK SMILES IDX 17 1 16 2 15 3 14 4 13 5 11 6 12 7 10 8 9 9 8 10 5 11 6 12
REMARK SMILES IDX 108 13 7 14 107 15 2 16 1 17 3 18 4 19 91 20 92 21 106 22
REMARK SMILES IDX 93 23 95 24 94 25 96 26 97 27 105 28 98 29 104 30 99 31
REMARK SMILES IDX 100 32 101 33 102 34 103 35 18 36 19 37 20 38 21 39 22 40
REMARK SMILES IDX 23 41 24 42 25 43 26 44 90 45 27 46 89 47 28 48 29 49 30 50
REMARK SMILES IDX 83 51 31 52 88 53 82 54 84 55 32 56 87 57 81 58 80 59 33 61
REMARK SMILES IDX 67 62 46 63 66 64 47 65 50 66 65 67 85 68 48 69 49 70 64 72
REMARK SMILES IDX 86 73 51 74 34 75 35 76 44 77 36 78 37 79 43 80 45 81 38 82
REMARK SMILES IDX 39 83 40 84 41 85 42 86 68 87 69 88 78 89 70 90 71 91 77 92
REMARK SMILES IDX 79 93 72 94 73 95 74 96 75 97 76 98 52 99 53 100 62 101
REMARK SMILES IDX 54 102 55 103 61 104 63 105 56 106 57 107 58 108 59 109
REMARK SMILES IDX 60 110
REMARK H PARENT 84 60 50 71
REMARK Flexibility Score: inf
ROOT
ATOM      1  C   UNL A   1      39.139  27.883  29.455  1.00  0.00     0.188 C 
ENDROOT
BRANCH   1   2
ATOM      2  O   UNL A   1      39.971  27.562  28.351  1.00  0.00    -0.376 OA
BRANCH   2   3
ATOM      3  C   UNL A   1      41.368  27.635  28.593  1.00  0.00     0.202 C 
BRANCH   3   4
ATOM      4  C   UNL A   1      42.173  28.243  27.438  1.00  0.00     0.261 C 
BRANCH   4   5
ATOM      5  O   UNL A   1      42.431  27.347  26.344  1.00  0.00    -0.460 OA
BRANCH   5   6
ATOM      6  C   UNL A   1      43.707  26.919  26.182  1.00  0.00     0.338 C 
ATOM      7  O   UNL A   1      44.697  27.625  26.282  1.00  0.00    -0.246 OA
BRANCH   6   8
ATOM      8  C   UNL A   1      43.745  25.433  25.956  1.00  0.00     0.067 C 
ATOM      9  C   UNL A   1      44.594  24.921  25.029  1.00  0.00     0.024 C 
BRANCH   9  10
ATOM     10  C   UNL A   1      44.923  23.501  24.745  1.00  0.00    -0.025 A 
ATOM     11  C   UNL A   1      45.307  20.723  24.528  1.00  0.00     0.067 A 
ATOM     12  C   UNL A   1      44.690  21.418  23.491  1.00  0.00     0.021 A 
ATOM     13  C   UNL A   1      45.835  21.412  25.620  1.00  0.00     0.021 A 
ATOM     14  C   UNL A   1      44.527  22.805  23.592  1.00  0.00     0.009 A 
ATOM     15  C   UNL A   1      45.642  22.795  25.722  1.00  0.00     0.009 A 
BRANCH  11  16
ATOM     16  S   UNL A   1      45.379  18.947  24.491  1.00  0.00     0.175 S 
ATOM     17  C   UNL A   1      46.614  18.514  25.694  1.00  0.00     0.163 C 
ATOM     18  O   UNL A   1      45.897  18.563  23.189  1.00  0.00    -0.224 OA
ATOM     19  O   UNL A   1      44.093  18.462  24.950  1.00  0.00    -0.224 OA
ENDBRANCH  11  16
ENDBRANCH   9  10
BRANCH   8  20
ATOM     20  C   UNL A   1      42.878  24.584  26.796  1.00  0.00    -0.010 A 
ATOM     21  C   UNL A   1      43.175  24.393  28.152  1.00  0.00     0.009 A 
ATOM     22  C   UNL A   1      41.677  24.079  26.288  1.00  0.00     0.017 A 
ATOM     23  C   UNL A   1      42.278  23.726  28.985  1.00  0.00     0.001 A 
ATOM     24  C   UNL A   1      40.741  23.450  27.126  1.00  0.00    -0.018 A 
ATOM     25  C   UNL A   1      41.067  23.265  28.477  1.00  0.00     0.009 A 
BRANCH  24  26
ATOM     26  C   UNL A   1      39.419  23.099  26.601  1.00  0.00    -0.018 A 
ATOM     27  C   UNL A   1      38.398  24.064  26.547  1.00  0.00     0.010 A 
ATOM     28  C   UNL A   1      39.170  21.822  26.073  1.00  0.00     0.010 A 
ATOM     29  C   UNL A   1      37.167  23.769  25.965  1.00  0.00     0.021 A 
ATOM     30  C   UNL A   1      37.940  21.516  25.491  1.00  0.00     0.021 A 
ATOM     31  C   UNL A   1      36.948  22.493  25.445  1.00  0.00     0.067 A 
BRANCH  31  32
ATOM     32  S   UNL A   1      35.385  22.139  24.686  1.00  0.00     0.175 S 
ATOM     33  C   UNL A   1      34.224  22.963  25.744  1.00  0.00     0.163 C 
ATOM     34  O   UNL A   1      35.386  22.795  23.393  1.00  0.00    -0.224 OA
ATOM     35  O   UNL A   1      35.153  20.708  24.787  1.00  0.00    -0.224 OA
ENDBRANCH  31  32
ENDBRANCH  24  26
ENDBRANCH   8  20
ENDBRANCH   6   8
ENDBRANCH   5   6
ENDBRANCH   4   5
ENDBRANCH   3   4
ENDBRANCH   2   3
ENDBRANCH   1   2
BRANCH   1  36
ATOM     36  C   UNL A   1      38.282  29.147  29.241  1.00  0.00     0.188 C 
BRANCH  36  37
ATOM     37  O   UNL A   1      37.200  29.450  30.113  1.00  0.00    -0.376 OA
BRANCH  37  38
ATOM     38  C   UNL A   1      37.054  30.772  30.603  1.00  0.00     0.202 C 
BRANCH  38  39
ATOM     39  C   UNL A   1      38.319  31.608  30.819  1.00  0.00     0.261 C 
BRANCH  39  40
ATOM     40  O   UNL A   1      38.475  32.147  32.142  1.00  0.00    -0.460 OA
BRANCH  40  41
ATOM     41  C   UNL A   1      38.722  31.228  33.109  1.00  0.00     0.338 C 
ATOM     42  O   UNL A   1      37.938  30.810  33.943  1.00  0.00    -0.246 OA
BRANCH  41  43
ATOM     43  C   UNL A   1      40.071  30.647  32.921  1.00  0.00     0.060 A 
ATOM     44  C   UNL A   1      40.178  29.252  32.844  1.00  0.00     0.016 A 
ATOM     45  C   UNL A   1      41.217  31.444  32.886  1.00  0.00     0.016 A 
ATOM     46  C   UNL A   1      41.432  28.649  32.757  1.00  0.00     0.010 A 
ATOM     47  C   UNL A   1      42.477  30.836  32.824  1.00  0.00     0.010 A 
ATOM     48  C   UNL A   1      42.592  29.435  32.786  1.00  0.00    -0.014 A 
BRANCH  48  49
ATOM     49  C   UNL A   1      43.912  28.778  32.947  1.00  0.00     0.031 A 
ATOM     50  C   UNL A   1      44.444  28.558  34.337  1.00  0.00     0.074 A 
ATOM     51  C   UNL A   1      44.617  28.356  31.882  1.00  0.00     0.049 A 
ATOM     52  N   UNL A   1      45.563  28.000  34.716  1.00  0.00    -0.248 NA
ATOM     53  C   UNL A   1      43.599  29.031  35.445  1.00  0.00     0.031 C 
ATOM     54  C   UNL A   1      44.205  28.494  30.488  1.00  0.00     0.029 A 
ATOM     55  N   UNL A   1      45.833  27.722  31.812  1.00  0.00    -0.354 N 
ATOM     56  C   UNL A   1      45.561  28.055  36.106  1.00  0.00     0.074 A 
ATOM     57  C   UNL A   1      44.335  28.717  36.500  1.00  0.00     0.031 C 
ATOM     58  C   UNL A   1      45.147  27.949  29.698  1.00  0.00     0.029 A 
ATOM     59  C   UNL A   1      46.250  27.465  30.527  1.00  0.00     0.049 A 
ATOM     60  H   UNL A   1      46.357  27.474  32.607  1.00  0.00     0.167 HD
ATOM     61  C   UNL A   1      46.494  27.598  36.975  1.00  0.00     0.037 A 
ATOM     62  C   UNL A   1      47.399  26.923  30.074  1.00  0.00     0.037 A 
ATOM     63  C   UNL A   1      47.724  26.963  36.583  1.00  0.00     0.049 A 
ATOM     64  C   UNL A   1      48.455  26.486  31.059  1.00  0.00     0.074 A 
ATOM     65  C   UNL A   1      48.730  26.464  37.394  1.00  0.00     0.029 A 
ATOM     66  N   UNL A   1      48.127  26.755  35.274  1.00  0.00    -0.354 N 
ATOM     67  N   UNL A   1      48.422  26.512  32.370  1.00  0.00    -0.248 NA
ATOM     68  C   UNL A   1      49.707  25.951  30.502  1.00  0.00     0.031 C 
ATOM     69  C   UNL A   1      49.761  25.996  36.573  1.00  0.00     0.029 A 
ATOM     70  C   UNL A   1      49.376  26.158  35.252  1.00  0.00     0.049 A 
ATOM     71  H   UNL A   1      47.602  26.996  34.477  1.00  0.00     0.167 HD
ATOM     72  C   UNL A   1      49.637  25.980  32.793  1.00  0.00     0.074 A 
ATOM     73  C   UNL A   1      50.376  25.626  31.599  1.00  0.00     0.031 C 
ATOM     74  C   UNL A   1      50.099  25.801  34.056  1.00  0.00     0.037 A 
BRANCH  61  75
ATOM     75  C   UNL A   1      46.229  27.803  38.439  1.00  0.00     0.058 A 
ATOM     76  C   UNL A   1      45.656  26.795  39.231  1.00  0.00     0.135 A 
ATOM     77  C   UNL A   1      46.573  29.013  39.062  1.00  0.00     0.135 A 
ATOM     78  F   UNL A   1      45.292  25.627  38.680  1.00  0.00    -0.206 F 
ATOM     79  C   UNL A   1      45.408  26.992  40.586  1.00  0.00     0.059 A 
ATOM     80  C   UNL A   1      46.356  29.222  40.419  1.00  0.00     0.059 A 
ATOM     81  F   UNL A   1      47.120  30.009  38.347  1.00  0.00    -0.206 F 
ATOM     82  C   UNL A   1      45.759  28.210  41.170  1.00  0.00     0.060 A 
BRANCH  82  83
ATOM     83  S   UNL A   1      45.427  28.452  42.928  1.00  0.00     0.124 S 
ATOM     84  O   UNL A   1      44.017  28.082  43.009  1.00  0.00    -0.237 OA
ATOM     85  O   UNL A   1      46.363  27.523  43.553  1.00  0.00    -0.237 OA
ATOM     86  O   UNL A   1      45.717  29.866  43.137  1.00  0.00    -0.744 OA
ENDBRANCH  82  83
ENDBRANCH  61  75
BRANCH  62  87
ATOM     87  C   UNL A   1      47.632  26.780  28.612  1.00  0.00     0.058 A 
ATOM     88  C   UNL A   1      48.165  27.835  27.857  1.00  0.00     0.135 A 
ATOM     89  C   UNL A   1      47.310  25.591  27.938  1.00  0.00     0.135 A 
ATOM     90  F   UNL A   1      48.478  28.995  28.453  1.00  0.00    -0.206 F 
ATOM     91  C   UNL A   1      48.355  27.724  26.482  1.00  0.00     0.059 A 
ATOM     92  C   UNL A   1      47.515  25.447  26.569  1.00  0.00     0.059 A 
ATOM     93  F   UNL A   1      46.803  24.550  28.616  1.00  0.00    -0.206 F 
ATOM     94  C   UNL A   1      48.027  26.524  25.849  1.00  0.00     0.060 A 
BRANCH  94  95
ATOM     95  S   UNL A   1      48.320  26.375  24.073  1.00  0.00     0.124 S 
ATOM     96  O   UNL A   1      49.755  26.620  23.992  1.00  0.00    -0.237 OA
ATOM     97  O   UNL A   1      47.890  25.005  23.806  1.00  0.00    -0.237 OA
ATOM     98  O   UNL A   1      47.468  27.415  23.505  1.00  0.00    -0.744 OA
ENDBRANCH  94  95
ENDBRANCH  62  87
BRANCH  74  99
ATOM     99  C   UNL A   1      51.453  25.165  34.223  1.00  0.00     0.058 A 
ATOM    100  C   UNL A   1      51.626  23.773  34.187  1.00  0.00     0.135 A 
ATOM    101  C   UNL A   1      52.601  25.965  34.354  1.00  0.00     0.135 A 
ATOM    102  F   UNL A   1      50.563  22.963  34.068  1.00  0.00    -0.206 F 
ATOM    103  C   UNL A   1      52.888  23.194  34.294  1.00  0.00     0.059 A 
ATOM    104  C   UNL A   1      53.874  25.408  34.436  1.00  0.00     0.059 A 
ATOM    105  F   UNL A   1      52.493  27.302  34.384  1.00  0.00    -0.206 F 
ATOM    106  C   UNL A   1      54.006  24.021  34.415  1.00  0.00     0.060 A 
BRANCH 106 107
ATOM    107  S   UNL A   1      55.642  23.260  34.512  1.00  0.00     0.124 S 
ATOM    108  O   UNL A   1      56.401  24.287  35.217  1.00  0.00    -0.237 OA
ATOM    109  O   UNL A   1      55.374  22.039  35.266  1.00  0.00    -0.237 OA
ATOM    110  O   UNL A   1      56.005  23.059  33.113  1.00  0.00    -0.744 OA
ENDBRANCH 106 107
ENDBRANCH  74  99
ENDBRANCH  48  49
ENDBRANCH  41  43
ENDBRANCH  40  41
ENDBRANCH  39  40
ENDBRANCH  38  39
ENDBRANCH  37  38
ENDBRANCH  36  37
ENDBRANCH   1  36
TORSDOF 25
ENDMDL
MODEL 2
REMARK VINA RESULT:      -8.3      5.420     12.135
REMARK SMILES CS(=O)(=O)c1ccc(/C=C(/C(=O)OCCOCCOCCOC(=O)c2ccc(-c3c4nc(c(-c5c(F)cc(S(=O)(=O)[O-])cc5F)c5ccc([nH]5)c(-c5c(F)cc(S(=O)(=O)[O-])cc5F)c5nc(c(-c6c(F)cc(S(=O)(=O)[O-])cc6F)c6ccc3[nH]6)C=C5)C=C4)cc2)c2cccc(-c3ccc(S(C)(=O)=O)cc3)c2)cc1
REMARK SMILES IDX 17 1 16 2 15 3 14 4 13 5 11 6 12 7 10 8 9 9 8 10 5 11 6 12
REMARK SMILES IDX 108 13 7 14 107 15 2 16 1 17 3 18 4 19 91 20 92 21 106 22
REMARK SMILES IDX 93 23 95 24 94 25 96 26 97 27 105 28 98 29 104 30 99 31
REMARK SMILES IDX 100 32 101 33 102 34 103 35 18 36 19 37 20 38 21 39 22 40
REMARK SMILES IDX 23 41 24 42 25 43 26 44 90 45 27 46 89 47 28 48 29 49 30 50
REMARK SMILES IDX 83 51 31 52 88 53 82 54 84 55 32 56 87 57 81 58 80 59 33 61
REMARK SMILES IDX 67 62 46 63 66 64 47 65 50 66 65 67 85 68 48 69 49 70 64 72
REMARK SMILES IDX 86 73 51 74 34 75 35 76 44 77 36 78 37 79 43 80 45 81 38 82
REMARK SMILES IDX 39 83 40 84 41 85 42 86 68 87 69 88 78 89 70 90 71 91 77 92
REMARK SMILES IDX 79 93 72 94 73 95 74 96 75 97 76 98 52 99 53 100 62 101
REMARK SMILES IDX 54 102 55 103 61 104 63 105 56 106 57 107 58 108 59 109
REMARK SMILES IDX 60 110
REMARK H PARENT 84 60 50 71
REMARK Flexibility Score: inf
ROOT
ATOM      1  C   UNL A   1      45.071  24.598  26.181  1.00  0.00     0.188 C 
ENDROOT
BRANCH   1   2
ATOM      2  O   UNL A   1      45.807  24.733  27.387  1.00  0.00    -0.376 OA
BRANCH   2   3
ATOM      3  C   UNL A   1      46.370  26.014  27.623  1.00  0.00     0.202 C 
BRANCH   3   4
ATOM      4  C   UNL A   1      46.464  26.395  29.105  1.00  0.00     0.261 C 
BRANCH   4   5
ATOM      5  O   UNL A   1      46.239  25.311  30.022  1.00  0.00    -0.460 OA
BRANCH   5   6
ATOM      6  C   UNL A   1      45.130  25.377  30.799  1.00  0.00     0.338 C 
ATOM      7  O   UNL A   1      44.012  25.652  30.397  1.00  0.00    -0.246 OA
BRANCH   6   8
ATOM      8  C   UNL A   1      45.446  24.972  32.212  1.00  0.00     0.067 C 
ATOM      9  C   UNL A   1      44.701  24.008  32.811  1.00  0.00     0.024 C 
BRANCH   9  10
ATOM     10  C   UNL A   1      44.917  23.335  34.117  1.00  0.00    -0.025 A 
ATOM     11  C   UNL A   1      45.726  22.069  36.496  1.00  0.00     0.067 A 
ATOM     12  C   UNL A   1      45.094  23.309  36.553  1.00  0.00     0.021 A 
ATOM     13  C   UNL A   1      45.857  21.404  35.277  1.00  0.00     0.021 A 
ATOM     14  C   UNL A   1      44.668  23.922  35.368  1.00  0.00     0.009 A 
ATOM     15  C   UNL A   1      45.452  22.038  34.097  1.00  0.00     0.009 A 
BRANCH  11  16
ATOM     16  S   UNL A   1      46.415  21.351  37.969  1.00  0.00     0.175 S 
ATOM     17  C   UNL A   1      45.766  22.329  39.302  1.00  0.00     0.163 C 
ATOM     18  O   UNL A   1      47.849  21.579  37.930  1.00  0.00    -0.224 OA
ATOM     19  O   UNL A   1      45.881  20.008  38.074  1.00  0.00    -0.224 OA
ENDBRANCH  11  16
ENDBRANCH   9  10
BRANCH   8  20
ATOM     20  C   UNL A   1      46.596  25.616  32.876  1.00  0.00    -0.010 A 
ATOM     21  C   UNL A   1      47.674  24.845  33.330  1.00  0.00     0.009 A 
ATOM     22  C   UNL A   1      46.690  27.010  32.932  1.00  0.00     0.017 A 
ATOM     23  C   UNL A   1      48.829  25.458  33.811  1.00  0.00     0.001 A 
ATOM     24  C   UNL A   1      47.866  27.642  33.367  1.00  0.00    -0.018 A 
ATOM     25  C   UNL A   1      48.927  26.847  33.823  1.00  0.00     0.009 A 
BRANCH  24  26
ATOM     26  C   UNL A   1      47.998  29.096  33.240  1.00  0.00    -0.018 A 
ATOM     27  C   UNL A   1      47.355  29.777  32.191  1.00  0.00     0.010 A 
ATOM     28  C   UNL A   1      48.699  29.842  34.200  1.00  0.00     0.010 A 
ATOM     29  C   UNL A   1      47.395  31.167  32.112  1.00  0.00     0.021 A 
ATOM     30  C   UNL A   1      48.747  31.234  34.128  1.00  0.00     0.021 A 
ATOM     31  C   UNL A   1      48.097  31.885  33.082  1.00  0.00     0.067 A 
BRANCH  31  32
ATOM     32  S   UNL A   1      48.120  33.655  32.983  1.00  0.00     0.175 S 
ATOM     33  C   UNL A   1      49.630  33.993  32.119  1.00  0.00     0.163 C 
ATOM     34  O   UNL A   1      47.003  34.044  32.143  1.00  0.00    -0.224 OA
ATOM     35  O   UNL A   1      48.243  34.177  34.333  1.00  0.00    -0.224 OA
ENDBRANCH  31  32
ENDBRANCH  24  26
ENDBRANCH   8  20
ENDBRANCH   6   8
ENDBRANCH   5   6
ENDBRANCH   4   5
ENDBRANCH   3   4
ENDBRANCH   2   3
ENDBRANCH   1   2
BRANCH   1  36
ATOM     36  C   UNL A   1      44.579  23.162  25.910  1.00  0.00     0.188 C 
BRANCH  36  37
ATOM     37  O   UNL A   1      43.957  22.399  26.935  1.00  0.00    -0.376 OA
BRANCH  37  38
ATOM     38  C   UNL A   1      43.155  23.058  27.901  1.00  0.00     0.202 C 
BRANCH  38  39
ATOM     39  C   UNL A   1      41.660  23.225  27.608  1.00  0.00     0.261 C 
BRANCH  39  40
ATOM     40  O   UNL A   1      41.343  24.179  26.582  1.00  0.00    -0.460 OA
BRANCH  40  41
ATOM     41  C   UNL A   1      40.195  24.875  26.781  1.00  0.00     0.338 C 
ATOM     42  O   UNL A   1      39.138  24.732  26.193  1.00  0.00    -0.246 OA
BRANCH  41  43
ATOM     43  C   UNL A   1      40.337  25.757  27.961  1.00  0.00     0.060 A 
ATOM     44  C   UNL A   1      39.326  25.722  28.930  1.00  0.00     0.016 A 
ATOM     45  C   UNL A   1      41.403  26.649  28.089  1.00  0.00     0.016 A 
ATOM     46  C   UNL A   1      39.364  26.596  30.016  1.00  0.00     0.010 A 
ATOM     47  C   UNL A   1      41.428  27.543  29.167  1.00  0.00     0.010 A 
ATOM     48  C   UNL A   1      40.396  27.539  30.121  1.00  0.00    -0.014 A 
BRANCH  48  49
ATOM     49  C   UNL A   1      40.293  28.620  31.132  1.00  0.00     0.031 A 
ATOM     50  C   UNL A   1      41.208  28.584  32.325  1.00  0.00     0.074 A 
ATOM     51  C   UNL A   1      39.423  29.636  30.981  1.00  0.00     0.049 A 
ATOM     52  N   UNL A   1      41.301  29.422  33.324  1.00  0.00    -0.248 NA
ATOM     53  C   UNL A   1      42.143  27.449  32.399  1.00  0.00     0.031 C 
ATOM     54  C   UNL A   1      38.496  29.795  29.865  1.00  0.00     0.029 A 
ATOM     55  N   UNL A   1      39.182  30.728  31.778  1.00  0.00    -0.354 N 
ATOM     56  C   UNL A   1      42.302  28.918  34.148  1.00  0.00     0.074 A 
ATOM     57  C   UNL A   1      42.772  27.691  33.539  1.00  0.00     0.031 C 
ATOM     58  C   UNL A   1      37.793  30.928  30.040  1.00  0.00     0.029 A 
ATOM     59  C   UNL A   1      38.186  31.549  31.303  1.00  0.00     0.049 A 
ATOM     60  H   UNL A   1      39.675  30.906  32.611  1.00  0.00     0.167 HD
ATOM     61  C   UNL A   1      42.783  29.428  35.306  1.00  0.00     0.037 A 
ATOM     62  C   UNL A   1      37.642  32.661  31.840  1.00  0.00     0.037 A 
ATOM     63  C   UNL A   1      42.298  30.633  35.925  1.00  0.00     0.049 A 
ATOM     64  C   UNL A   1      38.147  33.171  33.167  1.00  0.00     0.074 A 
ATOM     65  C   UNL A   1      42.729  31.229  37.099  1.00  0.00     0.029 A 
ATOM     66  N   UNL A   1      41.266  31.416  35.434  1.00  0.00    -0.354 N 
ATOM     67  N   UNL A   1      39.118  32.703  33.916  1.00  0.00    -0.248 NA
ATOM     68  C   UNL A   1      37.479  34.357  33.724  1.00  0.00     0.031 C 
ATOM     69  C   UNL A   1      41.923  32.347  37.340  1.00  0.00     0.029 A 
ATOM     70  C   UNL A   1      41.027  32.476  36.292  1.00  0.00     0.049 A 
ATOM     71  H   UNL A   1      40.775  31.243  34.598  1.00  0.00     0.167 HD
ATOM     72  C   UNL A   1      39.189  33.548  35.021  1.00  0.00     0.074 A 
ATOM     73  C   UNL A   1      38.174  34.565  34.834  1.00  0.00     0.031 C 
ATOM     74  C   UNL A   1      40.018  33.488  36.091  1.00  0.00     0.037 A 
BRANCH  61  75
ATOM     75  C   UNL A   1      43.874  28.658  35.996  1.00  0.00     0.058 A 
ATOM     76  C   UNL A   1      45.225  29.010  35.855  1.00  0.00     0.135 A 
ATOM     77  C   UNL A   1      43.560  27.569  36.825  1.00  0.00     0.135 A 
ATOM     78  F   UNL A   1      45.579  30.031  35.059  1.00  0.00    -0.206 F 
ATOM     79  C   UNL A   1      46.231  28.291  36.491  1.00  0.00     0.059 A 
ATOM     80  C   UNL A   1      44.548  26.852  37.490  1.00  0.00     0.059 A 
ATOM     81  F   UNL A   1      42.283  27.190  36.989  1.00  0.00    -0.206 F 
ATOM     82  C   UNL A   1      45.883  27.211  37.305  1.00  0.00     0.060 A 
BRANCH  82  83
ATOM     83  S   UNL A   1      47.199  26.284  38.122  1.00  0.00     0.124 S 
ATOM     84  O   UNL A   1      46.451  25.560  39.145  1.00  0.00    -0.237 OA
ATOM     85  O   UNL A   1      47.731  25.472  37.033  1.00  0.00    -0.237 OA
ATOM     86  O   UNL A   1      48.091  27.327  38.618  1.00  0.00    -0.744 OA
ENDBRANCH  82  83
ENDBRANCH  61  75
BRANCH  62  87
ATOM     87  C   UNL A   1      36.536  33.365  31.138  1.00  0.00     0.058 A 
ATOM     88  C   UNL A   1      35.213  33.268  31.593  1.00  0.00     0.135 A 
ATOM     89  C   UNL A   1      36.777  34.132  29.987  1.00  0.00     0.135 A 
ATOM     90  F   UNL A   1      34.929  32.537  32.682  1.00  0.00    -0.206 F 
ATOM     91  C   UNL A   1      34.165  33.894  30.925  1.00  0.00     0.059 A 
ATOM     92  C   UNL A   1      35.750  34.789  29.317  1.00  0.00     0.059 A 
ATOM     93  F   UNL A   1      38.026  34.261  29.515  1.00  0.00    -0.206 F 
ATOM     94  C   UNL A   1      34.445  34.653  29.788  1.00  0.00     0.060 A 
BRANCH  94  95
ATOM     95  S   UNL A   1      33.084  35.499  28.954  1.00  0.00     0.124 S 
ATOM     96  O   UNL A   1      32.299  35.976  30.085  1.00  0.00    -0.237 OA
ATOM     97  O   UNL A   1      33.786  36.523  28.185  1.00  0.00    -0.237 OA
ATOM     98  O   UNL A   1      32.470  34.440  28.159  1.00  0.00    -0.744 OA
ENDBRANCH  94  95
ENDBRANCH  62  87
BRANCH  74  99
ATOM     99  C   UNL A   1      39.894  34.565  37.136  1.00  0.00     0.058 A 
ATOM    100  C   UNL A   1      40.599  35.775  37.038  1.00  0.00     0.135 A 
ATOM    101  C   UNL A   1      39.007  34.409  38.213  1.00  0.00     0.135 A 
ATOM    102  F   UNL A   1      41.463  35.974  36.030  1.00  0.00    -0.206 F 
ATOM    103  C   UNL A   1      40.442  36.786  37.982  1.00  0.00     0.059 A 
ATOM    104  C   UNL A   1      38.816  35.417  39.154  1.00  0.00     0.059 A 
ATOM    105  F   UNL A   1      38.301  33.276  38.349  1.00  0.00    -0.206 F 
ATOM    106  C   UNL A   1      39.545  36.598  39.035  1.00  0.00     0.060 A 
BRANCH 106 107
ATOM    107  S   UNL A   1      39.320  37.933  40.231  1.00  0.00     0.124 S 
ATOM    108  O   UNL A   1      39.048  37.187  41.455  1.00  0.00    -0.237 OA
ATOM    109  O   UNL A   1      40.607  38.620  40.179  1.00  0.00    -0.237 OA
ATOM    110  O   UNL A   1      38.192  38.685  39.691  1.00  0.00    -0.744 OA
ENDBRANCH 106 107
ENDBRANCH  74  99
ENDBRANCH  48  49
ENDBRANCH  41  43
ENDBRANCH  40  41
ENDBRANCH  39  40
ENDBRANCH  38  39
ENDBRANCH  37  38
ENDBRANCH  36  37
ENDBRANCH   1  36
TORSDOF 25
ENDMDL
MODEL 3
REMARK VINA RESULT:      -8.2      4.809     12.207
REMARK SMILES CS(=O)(=O)c1ccc(/C=C(/C(=O)OCCOCCOCCOC(=O)c2ccc(-c3c4nc(c(-c5c(F)cc(S(=O)(=O)[O-])cc5F)c5ccc([nH]5)c(-c5c(F)cc(S(=O)(=O)[O-])cc5F)c5nc(c(-c6c(F)cc(S(=O)(=O)[O-])cc6F)c6ccc3[nH]6)C=C5)C=C4)cc2)c2cccc(-c3ccc(S(C)(=O)=O)cc3)c2)cc1
REMARK SMILES IDX 17 1 16 2 15 3 14 4 13 5 11 6 12 7 10 8 9 9 8 10 5 11 6 12
REMARK SMILES IDX 108 13 7 14 107 15 2 16 1 17 3 18 4 19 91 20 92 21 106 22
REMARK SMILES IDX 93 23 95 24 94 25 96 26 97 27 105 28 98 29 104 30 99 31
REMARK SMILES IDX 100 32 101 33 102 34 103 35 18 36 19 37 20 38 21 39 22 40
REMARK SMILES IDX 23 41 24 42 25 43 26 44 90 45 27 46 89 47 28 48 29 49 30 50
REMARK SMILES IDX 83 51 31 52 88 53 82 54 84 55 32 56 87 57 81 58 80 59 33 61
REMARK SMILES IDX 67 62 46 63 66 64 47 65 50 66 65 67 85 68 48 69 49 70 64 72
REMARK SMILES IDX 86 73 51 74 34 75 35 76 44 77 36 78 37 79 43 80 45 81 38 82
REMARK SMILES IDX 39 83 40 84 41 85 42 86 68 87 69 88 78 89 70 90 71 91 77 92
REMARK SMILES IDX 79 93 72 94 73 95 74 96 75 97 76 98 52 99 53 100 62 101
REMARK SMILES IDX 54 102 55 103 61 104 63 105 56 106 57 107 58 108 59 109
REMARK SMILES IDX 60 110
REMARK H PARENT 84 60 50 71
REMARK Flexibility Score: inf
ROOT
ATOM      1  C   UNL A   1      46.050  23.907  25.730  1.00  0.00     0.188 C 
ENDROOT
BRANCH   1   2
ATOM      2  O   UNL A   1      46.572  24.340  26.977  1.00  0.00    -0.376 OA
BRANCH   2   3
ATOM      3  C   UNL A   1      46.685  25.746  27.139  1.00  0.00     0.202 C 
BRANCH   3   4
ATOM      4  C   UNL A   1      46.259  26.253  28.522  1.00  0.00     0.261 C 
BRANCH   4   5
ATOM      5  O   UNL A   1      46.154  25.236  29.532  1.00  0.00    -0.460 OA
BRANCH   5   6
ATOM      6  C   UNL A   1      45.075  25.287  30.352  1.00  0.00     0.338 C 
ATOM      7  O   UNL A   1      43.919  25.402  29.978  1.00  0.00    -0.246 OA
BRANCH   6   8
ATOM      8  C   UNL A   1      45.485  25.085  31.784  1.00  0.00     0.067 C 
ATOM      9  C   UNL A   1      44.668  24.397  32.621  1.00  0.00     0.024 C 
BRANCH   9  10
ATOM     10  C   UNL A   1      44.923  23.937  34.010  1.00  0.00    -0.025 A 
ATOM     11  C   UNL A   1      45.802  23.045  36.529  1.00  0.00     0.067 A 
ATOM     12  C   UNL A   1      45.206  24.298  36.409  1.00  0.00     0.021 A 
ATOM     13  C   UNL A   1      45.863  22.188  35.430  1.00  0.00     0.021 A 
ATOM     14  C   UNL A   1      44.745  24.726  35.158  1.00  0.00     0.009 A 
ATOM     15  C   UNL A   1      45.422  22.636  34.180  1.00  0.00     0.009 A 
BRANCH  11  16
ATOM     16  S   UNL A   1      46.537  22.552  38.071  1.00  0.00     0.175 S 
ATOM     17  C   UNL A   1      48.156  21.963  37.639  1.00  0.00     0.163 C 
ATOM     18  O   UNL A   1      45.784  21.410  38.562  1.00  0.00    -0.224 OA
ATOM     19  O   UNL A   1      46.676  23.749  38.875  1.00  0.00    -0.224 OA
ENDBRANCH  11  16
ENDBRANCH   9  10
BRANCH   8  20
ATOM     20  C   UNL A   1      46.797  25.612  32.209  1.00  0.00    -0.010 A 
ATOM     21  C   UNL A   1      46.963  26.981  32.455  1.00  0.00     0.009 A 
ATOM     22  C   UNL A   1      47.847  24.738  32.507  1.00  0.00     0.017 A 
ATOM     23  C   UNL A   1      48.149  27.462  33.008  1.00  0.00     0.001 A 
ATOM     24  C   UNL A   1      49.028  25.201  33.111  1.00  0.00    -0.018 A 
ATOM     25  C   UNL A   1      49.171  26.577  33.340  1.00  0.00     0.009 A 
BRANCH  24  26
ATOM     26  C   UNL A   1      50.028  24.238  33.578  1.00  0.00    -0.018 A 
ATOM     27  C   UNL A   1      50.959  23.689  32.677  1.00  0.00     0.010 A 
ATOM     28  C   UNL A   1      50.129  23.906  34.938  1.00  0.00     0.010 A 
ATOM     29  C   UNL A   1      51.973  22.846  33.125  1.00  0.00     0.021 A 
ATOM     30  C   UNL A   1      51.138  23.060  35.396  1.00  0.00     0.021 A 
ATOM     31  C   UNL A   1      52.051  22.535  34.484  1.00  0.00     0.067 A 
BRANCH  31  32
ATOM     32  S   UNL A   1      53.361  21.479  35.042  1.00  0.00     0.175 S 
ATOM     33  C   UNL A   1      54.410  22.580  35.954  1.00  0.00     0.163 C 
ATOM     34  O   UNL A   1      52.770  20.527  35.964  1.00  0.00    -0.224 OA
ATOM     35  O   UNL A   1      54.093  21.018  33.875  1.00  0.00    -0.224 OA
ENDBRANCH  31  32
ENDBRANCH  24  26
ENDBRANCH   8  20
ENDBRANCH   6   8
ENDBRANCH   5   6
ENDBRANCH   4   5
ENDBRANCH   3   4
ENDBRANCH   2   3
ENDBRANCH   1   2
BRANCH   1  36
ATOM     36  C   UNL A   1      45.560  22.444  25.736  1.00  0.00     0.188 C 
BRANCH  36  37
ATOM     37  O   UNL A   1      44.582  22.006  26.670  1.00  0.00    -0.376 OA
BRANCH  37  38
ATOM     38  C   UNL A   1      43.859  22.968  27.419  1.00  0.00     0.202 C 
BRANCH  38  39
ATOM     39  C   UNL A   1      42.638  23.626  26.768  1.00  0.00     0.261 C 
BRANCH  39  40
ATOM     40  O   UNL A   1      42.903  24.863  26.088  1.00  0.00    -0.460 OA
BRANCH  40  41
ATOM     41  C   UNL A   1      41.867  25.740  26.071  1.00  0.00     0.338 C 
ATOM     42  O   UNL A   1      40.974  25.806  25.245  1.00  0.00    -0.246 OA
BRANCH  41  43
ATOM     43  C   UNL A   1      41.859  26.537  27.318  1.00  0.00     0.060 A 
ATOM     44  C   UNL A   1      40.874  26.251  28.272  1.00  0.00     0.016 A 
ATOM     45  C   UNL A   1      42.755  27.589  27.525  1.00  0.00     0.016 A 
ATOM     46  C   UNL A   1      40.766  27.029  29.424  1.00  0.00     0.010 A 
ATOM     47  C   UNL A   1      42.628  28.386  28.669  1.00  0.00     0.010 A 
ATOM     48  C   UNL A   1      41.618  28.126  29.612  1.00  0.00    -0.014 A 
BRANCH  48  49
ATOM     49  C   UNL A   1      41.333  29.090  30.703  1.00  0.00     0.031 A 
ATOM     50  C   UNL A   1      42.222  29.090  31.917  1.00  0.00     0.074 A 
ATOM     51  C   UNL A   1      40.322  29.973  30.609  1.00  0.00     0.049 A 
ATOM     52  N   UNL A   1      42.168  29.844  32.983  1.00  0.00    -0.248 NA
ATOM     53  C   UNL A   1      43.316  28.106  31.928  1.00  0.00     0.031 C 
ATOM     54  C   UNL A   1      39.402  30.086  29.481  1.00  0.00     0.029 A 
ATOM     55  N   UNL A   1      39.903  30.945  31.484  1.00  0.00    -0.354 N 
ATOM     56  C   UNL A   1      43.217  29.428  33.794  1.00  0.00     0.074 A 
ATOM     57  C   UNL A   1      43.880  28.341  33.103  1.00  0.00     0.031 C 
ATOM     58  C   UNL A   1      38.532  31.082  29.725  1.00  0.00     0.029 A 
ATOM     59  C   UNL A   1      38.804  31.646  31.047  1.00  0.00     0.049 A 
ATOM     60  H   UNL A   1      40.348  31.123  32.343  1.00  0.00     0.167 HD
ATOM     61  C   UNL A   1      43.595  29.904  35.004  1.00  0.00     0.037 A 
ATOM     62  C   UNL A   1      38.087  32.613  31.655  1.00  0.00     0.037 A 
ATOM     63  C   UNL A   1      42.921  30.965  35.704  1.00  0.00     0.049 A 
ATOM     64  C   UNL A   1      38.484  33.078  33.034  1.00  0.00     0.074 A 
ATOM     65  C   UNL A   1      43.234  31.517  36.935  1.00  0.00     0.029 A 
ATOM     66  N   UNL A   1      41.791  31.624  35.247  1.00  0.00    -0.354 N 
ATOM     67  N   UNL A   1      39.501  32.699  33.772  1.00  0.00    -0.248 NA
ATOM     68  C   UNL A   1      37.633  34.099  33.665  1.00  0.00     0.031 C 
ATOM     69  C   UNL A   1      42.264  32.478  37.242  1.00  0.00     0.029 A 
ATOM     70  C   UNL A   1      41.378  32.560  36.180  1.00  0.00     0.049 A 
ATOM     71  H   UNL A   1      41.347  31.451  34.385  1.00  0.00     0.167 HD
ATOM     72  C   UNL A   1      39.422  33.449  34.944  1.00  0.00     0.074 A 
ATOM     73  C   UNL A   1      38.268  34.313  34.809  1.00  0.00     0.031 C 
ATOM     74  C   UNL A   1      40.231  33.422  36.031  1.00  0.00     0.037 A 
BRANCH  61  75
ATOM     75  C   UNL A   1      44.776  29.250  35.663  1.00  0.00     0.058 A 
ATOM     76  C   UNL A   1      46.092  29.649  35.378  1.00  0.00     0.135 A 
ATOM     77  C   UNL A   1      44.589  28.228  36.607  1.00  0.00     0.135 A 
ATOM     78  F   UNL A   1      46.325  30.608  34.469  1.00  0.00    -0.206 F 
ATOM     79  C   UNL A   1      47.182  29.036  35.986  1.00  0.00     0.059 A 
ATOM     80  C   UNL A   1      45.664  27.619  37.245  1.00  0.00     0.059 A 
ATOM     81  F   UNL A   1      43.351  27.807  36.911  1.00  0.00    -0.206 F 
ATOM     82  C   UNL A   1      46.958  28.020  36.917  1.00  0.00     0.060 A 
BRANCH  82  83
ATOM     83  S   UNL A   1      48.383  27.232  37.696  1.00  0.00     0.124 S 
ATOM     84  O   UNL A   1      48.368  25.917  37.062  1.00  0.00    -0.237 OA
ATOM     85  O   UNL A   1      49.479  28.112  37.303  1.00  0.00    -0.237 OA
ATOM     86  O   UNL A   1      48.047  27.248  39.115  1.00  0.00    -0.744 OA
ENDBRANCH  82  83
ENDBRANCH  61  75
BRANCH  62  87
ATOM     87  C   UNL A   1      36.900  33.200  30.978  1.00  0.00     0.058 A 
ATOM     88  C   UNL A   1      35.602  32.770  31.291  1.00  0.00     0.135 A 
ATOM     89  C   UNL A   1      37.041  34.191  29.993  1.00  0.00     0.135 A 
ATOM     90  F   UNL A   1      35.416  31.818  32.217  1.00  0.00    -0.206 F 
ATOM     91  C   UNL A   1      34.486  33.287  30.640  1.00  0.00     0.059 A 
ATOM     92  C   UNL A   1      35.939  34.742  29.347  1.00  0.00     0.059 A 
ATOM     93  F   UNL A   1      38.260  34.641  29.662  1.00  0.00    -0.206 F 
ATOM     94  C   UNL A   1      34.666  34.275  29.670  1.00  0.00     0.060 A 
BRANCH  94  95
ATOM     95  S   UNL A   1      33.208  34.972  28.863  1.00  0.00     0.124 S 
ATOM     96  O   UNL A   1      32.772  33.856  28.032  1.00  0.00    -0.237 OA
ATOM     97  O   UNL A   1      32.352  35.292  30.002  1.00  0.00    -0.237 OA
ATOM     98  O   UNL A   1      33.743  36.125  28.145  1.00  0.00    -0.744 OA
ENDBRANCH  94  95
ENDBRANCH  62  87
BRANCH  74  99
ATOM     99  C   UNL A   1      39.926  34.376  37.155  1.00  0.00     0.058 A 
ATOM    100  C   UNL A   1      39.214  33.971  38.296  1.00  0.00     0.135 A 
ATOM    101  C   UNL A   1      40.411  35.693  37.120  1.00  0.00     0.135 A 
ATOM    102  F   UNL A   1      38.725  32.724  38.379  1.00  0.00    -0.206 F 
ATOM    103  C   UNL A   1      38.978  34.845  39.353  1.00  0.00     0.059 A 
ATOM    104  C   UNL A   1      40.208  36.576  38.176  1.00  0.00     0.059 A 
ATOM    105  F   UNL A   1      41.106  36.130  36.058  1.00  0.00    -0.206 F 
ATOM    106  C   UNL A   1      39.481  36.145  39.285  1.00  0.00     0.060 A 
BRANCH 106 107
ATOM    107  S   UNL A   1      39.203  37.257  40.681  1.00  0.00     0.124 S 
ATOM    108  O   UNL A   1      40.560  37.699  40.979  1.00  0.00    -0.237 OA
ATOM    109  O   UNL A   1      38.318  38.265  40.105  1.00  0.00    -0.237 OA
ATOM    110  O   UNL A   1      38.589  36.393  41.685  1.00  0.00    -0.744 OA
ENDBRANCH 106 107
ENDBRANCH  74  99
ENDBRANCH  48  49
ENDBRANCH  41  43
ENDBRANCH  40  41
ENDBRANCH  39  40
ENDBRANCH  38  39
ENDBRANCH  37  38
ENDBRANCH  36  37
ENDBRANCH   1  36
TORSDOF 25
ENDMDL
