MODEL 1
REMARK VINA RESULT:     -10.2      0.000      0.000
REMARK SMILES O=C(COc1ccccc1Br)Nc1cccc(C(=O)Nc2ccc(C(=O)OCCOCCOCCOC(=O)c3ccc(-c4c5nc(c(-c6c(F)cc(S(=O)(=O)[O-])cc6F)c6ccc([nH]6)c(-c6c(F)cc(S(=O)(=O)[O-])cc6F)c6nc(c(-c7c(F)cc(S(=O)(=O)[O-])cc7F)c7ccc4[nH]7)C=C6)C=C5)cc3)cc2)c1
REMARK SMILES IDX 30 1 29 2 28 3 27 4 25 5 26 6 24 7 21 8 22 9 106 10 23 11
REMARK SMILES IDX 105 12 20 13 18 14 19 15 17 17 13 18 14 19 107 20 15 21
REMARK SMILES IDX 16 22 12 23 1 24 2 25 3 27 4 28 5 29 6 30 10 31 7 32 9 33
REMARK SMILES IDX 11 34 8 35 31 36 32 37 33 38 34 39 35 40 36 41 37 42 38 43
REMARK SMILES IDX 39 44 40 45 104 46 41 47 103 48 42 49 43 50 44 51 97 52
REMARK SMILES IDX 45 53 102 54 96 55 98 56 46 57 101 58 95 59 94 60 47 62
REMARK SMILES IDX 81 63 60 64 80 65 61 66 64 67 79 68 99 69 62 70 63 71 78 73
REMARK SMILES IDX 100 74 65 75 48 76 49 77 58 78 50 79 51 80 57 81 59 82 52 83
REMARK SMILES IDX 53 84 54 85 55 86 56 87 82 88 83 89 92 90 84 91 85 92 91 93
REMARK SMILES IDX 93 94 86 95 87 96 88 97 89 98 90 99 66 100 67 101 76 102
REMARK SMILES IDX 68 103 69 104 75 105 77 106 70 107 71 108 72 109 73 110
REMARK SMILES IDX 74 111
REMARK H PARENT 20 16 12 26 98 61 64 72
REMARK Flexibility Score: inf
ROOT
ATOM      1  O   UNL A   1      36.402  24.220  25.582  1.00  0.00    -0.376 OA
ENDROOT
BRANCH   1   2
ATOM      2  C   UNL A   1      35.246  23.406  25.508  1.00  0.00     0.202 C 
BRANCH   2   3
ATOM      3  C   UNL A   1      34.542  22.698  26.681  1.00  0.00     0.261 C 
BRANCH   3   4
ATOM      4  O   UNL A   1      33.661  23.456  27.513  1.00  0.00    -0.460 OA
BRANCH   4   5
ATOM      5  C   UNL A   1      32.345  23.353  27.183  1.00  0.00     0.338 C 
ATOM      6  O   UNL A   1      31.655  22.361  27.363  1.00  0.00    -0.246 OA
BRANCH   5   7
ATOM      7  C   UNL A   1      31.802  24.648  26.680  1.00  0.00     0.060 A 
ATOM      8  C   UNL A   1      30.812  26.781  25.200  1.00  0.00     0.041 A 
ATOM      9  C   UNL A   1      29.947  25.761  25.598  1.00  0.00     0.027 A 
ATOM     10  C   UNL A   1      32.092  26.869  25.755  1.00  0.00     0.027 A 
ATOM     11  C   UNL A   1      30.453  24.676  26.311  1.00  0.00     0.018 A 
ATOM     12  C   UNL A   1      32.597  25.790  26.491  1.00  0.00     0.018 A 
BRANCH   8  13
ATOM     13  N   UNL A   1      30.400  27.559  24.108  1.00  0.00    -0.322 N 
ATOM     14  C   UNL A   1      30.644  27.398  22.750  1.00  0.00     0.255 C 
ATOM     15  O   UNL A   1      30.169  28.235  21.977  1.00  0.00    -0.269 OA
ATOM     16  H   UNL A   1      29.850  28.341  24.341  1.00  0.00     0.170 HD
BRANCH  14  17
ATOM     17  C   UNL A   1      31.407  26.252  22.156  1.00  0.00     0.042 A 
ATOM     18  C   UNL A   1      32.536  24.107  22.340  1.00  0.00     0.042 A 
ATOM     19  C   UNL A   1      33.136  24.311  21.099  1.00  0.00     0.026 A 
ATOM     20  C   UNL A   1      31.591  25.026  22.794  1.00  0.00     0.040 A 
ATOM     21  C   UNL A   1      32.786  25.421  20.335  1.00  0.00     0.003 A 
ATOM     22  C   UNL A   1      31.952  26.404  20.875  1.00  0.00     0.014 A 
BRANCH  18  23
ATOM     23  N   UNL A   1      32.930  22.981  23.086  1.00  0.00    -0.323 N 
ATOM     24  O   UNL A   1      31.108  21.562  22.776  1.00  0.00    -0.271 OA
ATOM     25  C   UNL A   1      32.201  21.817  23.265  1.00  0.00     0.262 C 
ATOM     26  H   UNL A   1      33.812  23.025  23.523  1.00  0.00     0.170 HD
BRANCH  25  27
ATOM     27  C   UNL A   1      32.945  20.791  24.098  1.00  0.00     0.329 C 
BRANCH  27  28
ATOM     28  O   UNL A   1      32.001  19.815  24.560  1.00  0.00    -0.483 OA
BRANCH  28  29
ATOM     29  C   UNL A   1      32.562  18.563  24.533  1.00  0.00     0.134 A 
ATOM     30  C   UNL A   1      33.029  18.060  25.750  1.00  0.00     0.047 A 
ATOM     31  C   UNL A   1      32.747  17.824  23.355  1.00  0.00     0.060 A 
ATOM     32  C   UNL A   1      33.643  16.808  25.796  1.00  0.00     0.004 A 
ATOM     33  C   UNL A   1      33.311  16.550  23.419  1.00  0.00     0.019 A 
ATOM     34  Br  UNL A   1      32.382  18.482  21.617  1.00  0.00    -0.047 Br
ATOM     35  C   UNL A   1      33.767  16.047  24.636  1.00  0.00     0.001 A 
ENDBRANCH  28  29
ENDBRANCH  27  28
ENDBRANCH  25  27
ENDBRANCH  18  23
ENDBRANCH  14  17
ENDBRANCH   8  13
ENDBRANCH   5   7
ENDBRANCH   4   5
ENDBRANCH   3   4
ENDBRANCH   2   3
ENDBRANCH   1   2
BRANCH   1  36
ATOM     36  C   UNL A   1      37.623  23.713  26.061  1.00  0.00     0.188 C 
BRANCH  36  37
ATOM     37  C   UNL A   1      38.194  22.489  25.316  1.00  0.00     0.188 C 
BRANCH  37  38
ATOM     38  O   UNL A   1      38.817  21.444  26.037  1.00  0.00    -0.376 OA
BRANCH  38  39
ATOM     39  C   UNL A   1      39.912  21.772  26.876  1.00  0.00     0.202 C 
BRANCH  39  40
ATOM     40  C   UNL A   1      41.251  22.304  26.324  1.00  0.00     0.261 C 
BRANCH  40  41
ATOM     41  O   UNL A   1      41.383  23.726  26.165  1.00  0.00    -0.460 OA
BRANCH  41  42
ATOM     42  C   UNL A   1      42.470  24.293  26.752  1.00  0.00     0.338 C 
ATOM     43  O   UNL A   1      43.643  24.054  26.502  1.00  0.00    -0.246 OA
BRANCH  42  44
ATOM     44  C   UNL A   1      42.039  25.431  27.597  1.00  0.00     0.060 A 
ATOM     45  C   UNL A   1      42.839  26.585  27.649  1.00  0.00     0.016 A 
ATOM     46  C   UNL A   1      40.866  25.357  28.348  1.00  0.00     0.016 A 
ATOM     47  C   UNL A   1      42.478  27.660  28.463  1.00  0.00     0.010 A 
ATOM     48  C   UNL A   1      40.525  26.421  29.191  1.00  0.00     0.010 A 
ATOM     49  C   UNL A   1      41.344  27.564  29.276  1.00  0.00    -0.014 A 
BRANCH  49  50
ATOM     50  C   UNL A   1      41.123  28.550  30.365  1.00  0.00     0.031 A 
ATOM     51  C   UNL A   1      41.989  28.456  31.593  1.00  0.00     0.074 A 
ATOM     52  C   UNL A   1      40.181  29.505  30.276  1.00  0.00     0.049 A 
ATOM     53  N   UNL A   1      41.931  29.135  32.708  1.00  0.00    -0.248 NA
ATOM     54  C   UNL A   1      43.063  27.449  31.556  1.00  0.00     0.031 C 
ATOM     55  C   UNL A   1      39.313  29.736  29.124  1.00  0.00     0.029 A 
ATOM     56  N   UNL A   1      39.788  30.453  31.190  1.00  0.00    -0.354 N 
ATOM     57  C   UNL A   1      42.946  28.629  33.512  1.00  0.00     0.074 A 
ATOM     58  C   UNL A   1      43.588  27.568  32.767  1.00  0.00     0.031 C 
ATOM     59  C   UNL A   1      38.475  30.749  29.406  1.00  0.00     0.029 A 
ATOM     60  C   UNL A   1      38.721  31.213  30.772  1.00  0.00     0.049 A 
ATOM     61  H   UNL A   1      40.228  30.577  32.062  1.00  0.00     0.167 HD
ATOM     62  C   UNL A   1      43.313  29.015  34.758  1.00  0.00     0.037 A 
ATOM     63  C   UNL A   1      38.009  32.154  31.427  1.00  0.00     0.037 A 
ATOM     64  C   UNL A   1      42.667  30.069  35.496  1.00  0.00     0.049 A 
ATOM     65  C   UNL A   1      38.385  32.515  32.843  1.00  0.00     0.074 A 
ATOM     66  C   UNL A   1      42.978  30.550  36.756  1.00  0.00     0.029 A 
ATOM     67  N   UNL A   1      41.572  30.796  35.049  1.00  0.00    -0.354 N 
ATOM     68  N   UNL A   1      39.359  32.046  33.587  1.00  0.00    -0.248 NA
ATOM     69  C   UNL A   1      37.563  33.537  33.510  1.00  0.00     0.031 C 
ATOM     70  C   UNL A   1      42.033  31.524  37.097  1.00  0.00     0.029 A 
ATOM     71  C   UNL A   1      41.175  31.700  36.022  1.00  0.00     0.049 A 
ATOM     72  H   UNL A   1      41.142  30.686  34.171  1.00  0.00     0.167 HD
ATOM     73  C   UNL A   1      39.287  32.738  34.794  1.00  0.00     0.074 A 
ATOM     74  C   UNL A   1      38.179  33.662  34.678  1.00  0.00     0.031 C 
ATOM     75  C   UNL A   1      40.073  32.622  35.895  1.00  0.00     0.037 A 
BRANCH  62  76
ATOM     76  C   UNL A   1      44.439  28.263  35.414  1.00  0.00     0.058 A 
ATOM     77  C   UNL A   1      45.787  28.570  35.163  1.00  0.00     0.135 A 
ATOM     78  C   UNL A   1      44.164  27.227  36.321  1.00  0.00     0.135 A 
ATOM     79  F   UNL A   1      46.108  29.539  34.291  1.00  0.00    -0.206 F 
ATOM     80  C   UNL A   1      46.819  27.854  35.760  1.00  0.00     0.059 A 
ATOM     81  C   UNL A   1      45.181  26.519  36.955  1.00  0.00     0.059 A 
ATOM     82  F   UNL A   1      42.894  26.889  36.597  1.00  0.00    -0.206 F 
ATOM     83  C   UNL A   1      46.506  26.829  36.654  1.00  0.00     0.060 A 
BRANCH  83  84
ATOM     84  S   UNL A   1      47.857  25.903  37.413  1.00  0.00     0.124 S 
ATOM     85  O   UNL A   1      47.145  24.765  37.986  1.00  0.00    -0.237 OA
ATOM     86  O   UNL A   1      48.711  25.604  36.268  1.00  0.00    -0.237 OA
ATOM     87  O   UNL A   1      48.415  26.845  38.379  1.00  0.00    -0.744 OA
ENDBRANCH  83  84
ENDBRANCH  62  76
BRANCH  63  88
ATOM     88  C   UNL A   1      36.860  32.820  30.753  1.00  0.00     0.058 A 
ATOM     89  C   UNL A   1      35.566  32.285  30.831  1.00  0.00     0.135 A 
ATOM     90  C   UNL A   1      37.031  34.005  30.021  1.00  0.00     0.135 A 
ATOM     91  F   UNL A   1      35.351  31.143  31.503  1.00  0.00    -0.206 F 
ATOM     92  C   UNL A   1      34.484  32.895  30.203  1.00  0.00     0.059 A 
ATOM     93  C   UNL A   1      35.961  34.650  29.408  1.00  0.00     0.059 A 
ATOM     94  F   UNL A   1      38.249  34.562  29.916  1.00  0.00    -0.206 F 
ATOM     95  C   UNL A   1      34.691  34.083  29.498  1.00  0.00     0.060 A 
BRANCH  95  96
ATOM     96  S   UNL A   1      33.269  34.897  28.739  1.00  0.00     0.124 S 
ATOM     97  O   UNL A   1      32.514  35.326  29.911  1.00  0.00    -0.237 OA
ATOM     98  O   UNL A   1      33.904  35.959  27.964  1.00  0.00    -0.237 OA
ATOM     99  O   UNL A   1      32.654  33.835  27.948  1.00  0.00    -0.744 OA
ENDBRANCH  95  96
ENDBRANCH  63  88
BRANCH  75 100
ATOM    100  C   UNL A   1      39.798  33.545  37.054  1.00  0.00     0.058 A 
ATOM    101  C   UNL A   1      38.893  33.212  38.073  1.00  0.00     0.135 A 
ATOM    102  C   UNL A   1      40.501  34.757  37.176  1.00  0.00     0.135 A 
ATOM    103  F   UNL A   1      38.191  32.069  38.007  1.00  0.00    -0.206 F 
ATOM    104  C   UNL A   1      38.676  34.056  39.159  1.00  0.00     0.059 A 
ATOM    105  C   UNL A   1      40.323  35.600  38.268  1.00  0.00     0.059 A 
ATOM    106  F   UNL A   1      41.389  35.121  36.237  1.00  0.00    -0.206 F 
ATOM    107  C   UNL A   1      39.400  35.247  39.250  1.00  0.00     0.060 A 
BRANCH 107 108
ATOM    108  S   UNL A   1      39.134  36.315  40.682  1.00  0.00     0.124 S 
ATOM    109  O   UNL A   1      40.362  36.101  41.441  1.00  0.00    -0.237 OA
ATOM    110  O   UNL A   1      38.991  37.631  40.068  1.00  0.00    -0.237 OA
ATOM    111  O   UNL A   1      37.920  35.777  41.287  1.00  0.00    -0.744 OA
ENDBRANCH 107 108
ENDBRANCH  75 100
ENDBRANCH  49  50
ENDBRANCH  42  44
ENDBRANCH  41  42
ENDBRANCH  40  41
ENDBRANCH  39  40
ENDBRANCH  38  39
ENDBRANCH  37  38
ENDBRANCH  36  37
ENDBRANCH   1  36
TORSDOF 26
ENDMDL
MODEL 2
REMARK VINA RESULT:      -9.6      6.380      8.812
REMARK SMILES O=C(COc1ccccc1Br)Nc1cccc(C(=O)Nc2ccc(C(=O)OCCOCCOCCOC(=O)c3ccc(-c4c5nc(c(-c6c(F)cc(S(=O)(=O)[O-])cc6F)c6ccc([nH]6)c(-c6c(F)cc(S(=O)(=O)[O-])cc6F)c6nc(c(-c7c(F)cc(S(=O)(=O)[O-])cc7F)c7ccc4[nH]7)C=C6)C=C5)cc3)cc2)c1
REMARK SMILES IDX 30 1 29 2 28 3 27 4 25 5 26 6 24 7 21 8 22 9 106 10 23 11
REMARK SMILES IDX 105 12 20 13 18 14 19 15 17 17 13 18 14 19 107 20 15 21
REMARK SMILES IDX 16 22 12 23 1 24 2 25 3 27 4 28 5 29 6 30 10 31 7 32 9 33
REMARK SMILES IDX 11 34 8 35 31 36 32 37 33 38 34 39 35 40 36 41 37 42 38 43
REMARK SMILES IDX 39 44 40 45 104 46 41 47 103 48 42 49 43 50 44 51 97 52
REMARK SMILES IDX 45 53 102 54 96 55 98 56 46 57 101 58 95 59 94 60 47 62
REMARK SMILES IDX 81 63 60 64 80 65 61 66 64 67 79 68 99 69 62 70 63 71 78 73
REMARK SMILES IDX 100 74 65 75 48 76 49 77 58 78 50 79 51 80 57 81 59 82 52 83
REMARK SMILES IDX 53 84 54 85 55 86 56 87 82 88 83 89 92 90 84 91 85 92 91 93
REMARK SMILES IDX 93 94 86 95 87 96 88 97 89 98 90 99 66 100 67 101 76 102
REMARK SMILES IDX 68 103 69 104 75 105 77 106 70 107 71 108 72 109 73 110
REMARK SMILES IDX 74 111
REMARK H PARENT 20 16 12 26 98 61 64 72
REMARK Flexibility Score: inf
ROOT
ATOM      1  O   UNL A   1      37.843  22.398  25.365  1.00  0.00    -0.376 OA
ENDROOT
BRANCH   1   2
ATOM      2  C   UNL A   1      36.586  21.892  25.776  1.00  0.00     0.202 C 
BRANCH   2   3
ATOM      3  C   UNL A   1      35.689  20.912  24.998  1.00  0.00     0.261 C 
BRANCH   3   4
ATOM      4  O   UNL A   1      34.435  20.526  25.566  1.00  0.00    -0.460 OA
BRANCH   4   5
ATOM      5  C   UNL A   1      33.404  20.485  24.680  1.00  0.00     0.338 C 
ATOM      6  O   UNL A   1      32.961  19.468  24.170  1.00  0.00    -0.246 OA
BRANCH   5   7
ATOM      7  C   UNL A   1      32.787  21.830  24.492  1.00  0.00     0.060 A 
ATOM      8  C   UNL A   1      31.116  24.036  24.240  1.00  0.00     0.041 A 
ATOM      9  C   UNL A   1      31.504  23.610  25.511  1.00  0.00     0.027 A 
ATOM     10  C   UNL A   1      31.761  23.534  23.106  1.00  0.00     0.027 A 
ATOM     11  C   UNL A   1      32.315  22.484  25.636  1.00  0.00     0.018 A 
ATOM     12  C   UNL A   1      32.594  22.415  23.230  1.00  0.00     0.018 A 
BRANCH   8  13
ATOM     13  N   UNL A   1      29.953  24.817  24.172  1.00  0.00    -0.322 N 
ATOM     14  C   UNL A   1      29.803  26.196  24.092  1.00  0.00     0.255 C 
ATOM     15  O   UNL A   1      28.656  26.649  24.051  1.00  0.00    -0.269 OA
ATOM     16  H   UNL A   1      29.111  24.308  24.182  1.00  0.00     0.170 HD
BRANCH  14  17
ATOM     17  C   UNL A   1      30.942  27.168  24.008  1.00  0.00     0.042 A 
ATOM     18  C   UNL A   1      32.346  28.908  24.961  1.00  0.00     0.042 A 
ATOM     19  C   UNL A   1      32.833  29.217  23.692  1.00  0.00     0.026 A 
ATOM     20  C   UNL A   1      31.498  27.812  25.112  1.00  0.00     0.040 A 
ATOM     21  C   UNL A   1      32.469  28.432  22.600  1.00  0.00     0.003 A 
ATOM     22  C   UNL A   1      31.502  27.434  22.752  1.00  0.00     0.014 A 
BRANCH  18  23
ATOM     23  N   UNL A   1      32.727  29.737  26.032  1.00  0.00    -0.323 N 
ATOM     24  O   UNL A   1      34.720  28.733  26.704  1.00  0.00    -0.271 OA
ATOM     25  C   UNL A   1      33.853  29.589  26.825  1.00  0.00     0.262 C 
ATOM     26  H   UNL A   1      32.135  30.497  26.237  1.00  0.00     0.170 HD
BRANCH  25  27
ATOM     27  C   UNL A   1      33.974  30.685  27.866  1.00  0.00     0.329 C 
BRANCH  27  28
ATOM     28  O   UNL A   1      34.605  31.819  27.255  1.00  0.00    -0.483 OA
BRANCH  28  29
ATOM     29  C   UNL A   1      35.669  32.237  28.015  1.00  0.00     0.134 A 
ATOM     30  C   UNL A   1      36.631  31.273  28.328  1.00  0.00     0.047 A 
ATOM     31  C   UNL A   1      35.785  33.533  28.539  1.00  0.00     0.060 A 
ATOM     32  C   UNL A   1      37.724  31.612  29.125  1.00  0.00     0.004 A 
ATOM     33  C   UNL A   1      36.909  33.878  29.289  1.00  0.00     0.019 A 
ATOM     34  Br  UNL A   1      34.443  34.862  28.396  1.00  0.00    -0.047 Br
ATOM     35  C   UNL A   1      37.872  32.917  29.590  1.00  0.00     0.001 A 
ENDBRANCH  28  29
ENDBRANCH  27  28
ENDBRANCH  25  27
ENDBRANCH  18  23
ENDBRANCH  14  17
ENDBRANCH   8  13
ENDBRANCH   5   7
ENDBRANCH   4   5
ENDBRANCH   3   4
ENDBRANCH   2   3
ENDBRANCH   1   2
BRANCH   1  36
ATOM     36  C   UNL A   1      39.014  22.125  26.094  1.00  0.00     0.188 C 
BRANCH  36  37
ATOM     37  C   UNL A   1      39.621  23.307  26.879  1.00  0.00     0.188 C 
BRANCH  37  38
ATOM     38  O   UNL A   1      40.997  23.316  27.199  1.00  0.00    -0.376 OA
BRANCH  38  39
ATOM     39  C   UNL A   1      41.929  23.094  26.153  1.00  0.00     0.202 C 
BRANCH  39  40
ATOM     40  C   UNL A   1      43.117  24.042  25.885  1.00  0.00     0.261 C 
BRANCH  40  41
ATOM     41  O   UNL A   1      43.019  25.384  26.389  1.00  0.00    -0.460 OA
BRANCH  41  42
ATOM     42  C   UNL A   1      44.094  26.185  26.162  1.00  0.00     0.338 C 
ATOM     43  O   UNL A   1      44.949  26.034  25.300  1.00  0.00    -0.246 OA
BRANCH  42  44
ATOM     44  C   UNL A   1      43.971  27.420  26.970  1.00  0.00     0.060 A 
ATOM     45  C   UNL A   1      43.123  28.448  26.523  1.00  0.00     0.016 A 
ATOM     46  C   UNL A   1      44.696  27.575  28.151  1.00  0.00     0.016 A 
ATOM     47  C   UNL A   1      43.012  29.638  27.244  1.00  0.00     0.010 A 
ATOM     48  C   UNL A   1      44.612  28.783  28.853  1.00  0.00     0.010 A 
ATOM     49  C   UNL A   1      43.794  29.831  28.388  1.00  0.00    -0.014 A 
BRANCH  49  50
ATOM     50  C   UNL A   1      43.925  31.187  28.979  1.00  0.00     0.031 A 
ATOM     51  C   UNL A   1      45.040  32.071  28.487  1.00  0.00     0.074 A 
ATOM     52  C   UNL A   1      43.084  31.631  29.929  1.00  0.00     0.049 A 
ATOM     53  N   UNL A   1      45.416  33.250  28.906  1.00  0.00    -0.248 NA
ATOM     54  C   UNL A   1      45.844  31.543  27.371  1.00  0.00     0.031 C 
ATOM     55  C   UNL A   1      41.935  30.897  30.455  1.00  0.00     0.029 A 
ATOM     56  N   UNL A   1      43.080  32.811  30.633  1.00  0.00    -0.354 N 
ATOM     57  C   UNL A   1      46.509  33.599  28.121  1.00  0.00     0.074 A 
ATOM     58  C   UNL A   1      46.751  32.496  27.217  1.00  0.00     0.031 C 
ATOM     59  C   UNL A   1      41.348  31.635  31.414  1.00  0.00     0.029 A 
ATOM     60  C   UNL A   1      42.101  32.877  31.596  1.00  0.00     0.049 A 
ATOM     61  H   UNL A   1      43.720  33.540  30.465  1.00  0.00     0.167 HD
ATOM     62  C   UNL A   1      47.243  34.737  28.148  1.00  0.00     0.037 A 
ATOM     63  C   UNL A   1      41.858  33.817  32.533  1.00  0.00     0.037 A 
ATOM     64  C   UNL A   1      47.000  35.830  29.052  1.00  0.00     0.049 A 
ATOM     65  C   UNL A   1      42.737  35.043  32.597  1.00  0.00     0.074 A 
ATOM     66  C   UNL A   1      47.674  37.035  29.145  1.00  0.00     0.029 A 
ATOM     67  N   UNL A   1      46.016  35.846  30.031  1.00  0.00    -0.354 N 
ATOM     68  N   UNL A   1      43.754  35.373  31.837  1.00  0.00    -0.248 NA
ATOM     69  C   UNL A   1      42.432  36.026  33.648  1.00  0.00     0.031 C 
ATOM     70  C   UNL A   1      47.138  37.755  30.218  1.00  0.00     0.029 A 
ATOM     71  C   UNL A   1      46.086  37.028  30.753  1.00  0.00     0.049 A 
ATOM     72  H   UNL A   1      45.365  35.126  30.189  1.00  0.00     0.167 HD
ATOM     73  C   UNL A   1      44.188  36.615  32.296  1.00  0.00     0.074 A 
ATOM     74  C   UNL A   1      43.319  36.979  33.395  1.00  0.00     0.031 C 
ATOM     75  C   UNL A   1      45.210  37.385  31.842  1.00  0.00     0.037 A 
BRANCH  62  76
ATOM     76  C   UNL A   1      48.405  34.837  27.195  1.00  0.00     0.058 A 
ATOM     77  C   UNL A   1      49.712  34.487  27.574  1.00  0.00     0.135 A 
ATOM     78  C   UNL A   1      48.202  35.275  25.876  1.00  0.00     0.135 A 
ATOM     79  F   UNL A   1      49.966  34.079  28.827  1.00  0.00    -0.206 F 
ATOM     80  C   UNL A   1      50.780  34.603  26.690  1.00  0.00     0.059 A 
ATOM     81  C   UNL A   1      49.251  35.367  24.966  1.00  0.00     0.059 A 
ATOM     82  F   UNL A   1      46.975  35.625  25.460  1.00  0.00    -0.206 F 
ATOM     83  C   UNL A   1      50.540  35.046  25.388  1.00  0.00     0.060 A 
BRANCH  83  84
ATOM     84  S   UNL A   1      51.938  35.199  24.258  1.00  0.00     0.124 S 
ATOM     85  O   UNL A   1      53.062  35.241  25.188  1.00  0.00    -0.237 OA
ATOM     86  O   UNL A   1      51.825  33.983  23.457  1.00  0.00    -0.237 OA
ATOM     87  O   UNL A   1      51.666  36.443  23.545  1.00  0.00    -0.744 OA
ENDBRANCH  83  84
ENDBRANCH  62  76
BRANCH  63  88
ATOM     88  C   UNL A   1      40.736  33.637  33.495  1.00  0.00     0.058 A 
ATOM     89  C   UNL A   1      40.923  32.953  34.705  1.00  0.00     0.135 A 
ATOM     90  C   UNL A   1      39.456  34.146  33.226  1.00  0.00     0.135 A 
ATOM     91  F   UNL A   1      42.123  32.430  35.001  1.00  0.00    -0.206 F 
ATOM     92  C   UNL A   1      39.882  32.773  35.611  1.00  0.00     0.059 A 
ATOM     93  C   UNL A   1      38.406  34.005  34.128  1.00  0.00     0.059 A 
ATOM     94  F   UNL A   1      39.222  34.811  32.084  1.00  0.00    -0.206 F 
ATOM     95  C   UNL A   1      38.627  33.310  35.317  1.00  0.00     0.060 A 
BRANCH  95  96
ATOM     96  S   UNL A   1      37.301  33.123  36.528  1.00  0.00     0.124 S 
ATOM     97  O   UNL A   1      37.686  34.098  37.541  1.00  0.00    -0.237 OA
ATOM     98  O   UNL A   1      36.118  33.456  35.739  1.00  0.00    -0.237 OA
ATOM     99  O   UNL A   1      37.404  31.723  36.929  1.00  0.00    -0.744 OA
ENDBRANCH  95  96
ENDBRANCH  63  88
BRANCH  75 100
ATOM    100  C   UNL A   1      45.425  38.724  32.501  1.00  0.00     0.058 A 
ATOM    101  C   UNL A   1      44.742  39.877  32.086  1.00  0.00     0.135 A 
ATOM    102  C   UNL A   1      46.285  38.837  33.608  1.00  0.00     0.135 A 
ATOM    103  F   UNL A   1      43.912  39.828  31.032  1.00  0.00    -0.206 F 
ATOM    104  C   UNL A   1      44.920  41.100  32.727  1.00  0.00     0.059 A 
ATOM    105  C   UNL A   1      46.454  40.042  34.283  1.00  0.00     0.059 A 
ATOM    106  F   UNL A   1      46.955  37.764  34.057  1.00  0.00    -0.206 F 
ATOM    107  C   UNL A   1      45.777  41.171  33.829  1.00  0.00     0.060 A 
BRANCH 107 108
ATOM    108  S   UNL A   1      45.971  42.756  34.673  1.00  0.00     0.124 S 
ATOM    109  O   UNL A   1      46.389  43.625  33.577  1.00  0.00    -0.237 OA
ATOM    110  O   UNL A   1      44.630  42.997  35.197  1.00  0.00    -0.237 OA
ATOM    111  O   UNL A   1      46.991  42.482  35.680  1.00  0.00    -0.744 OA
ENDBRANCH 107 108
ENDBRANCH  75 100
ENDBRANCH  49  50
ENDBRANCH  42  44
ENDBRANCH  41  42
ENDBRANCH  40  41
ENDBRANCH  39  40
ENDBRANCH  38  39
ENDBRANCH  37  38
ENDBRANCH  36  37
ENDBRANCH   1  36
TORSDOF 26
ENDMDL
MODEL 3
REMARK VINA RESULT:      -9.0      4.745     10.641
REMARK SMILES O=C(COc1ccccc1Br)Nc1cccc(C(=O)Nc2ccc(C(=O)OCCOCCOCCOC(=O)c3ccc(-c4c5nc(c(-c6c(F)cc(S(=O)(=O)[O-])cc6F)c6ccc([nH]6)c(-c6c(F)cc(S(=O)(=O)[O-])cc6F)c6nc(c(-c7c(F)cc(S(=O)(=O)[O-])cc7F)c7ccc4[nH]7)C=C6)C=C5)cc3)cc2)c1
REMARK SMILES IDX 30 1 29 2 28 3 27 4 25 5 26 6 24 7 21 8 22 9 106 10 23 11
REMARK SMILES IDX 105 12 20 13 18 14 19 15 17 17 13 18 14 19 107 20 15 21
REMARK SMILES IDX 16 22 12 23 1 24 2 25 3 27 4 28 5 29 6 30 10 31 7 32 9 33
REMARK SMILES IDX 11 34 8 35 31 36 32 37 33 38 34 39 35 40 36 41 37 42 38 43
REMARK SMILES IDX 39 44 40 45 104 46 41 47 103 48 42 49 43 50 44 51 97 52
REMARK SMILES IDX 45 53 102 54 96 55 98 56 46 57 101 58 95 59 94 60 47 62
REMARK SMILES IDX 81 63 60 64 80 65 61 66 64 67 79 68 99 69 62 70 63 71 78 73
REMARK SMILES IDX 100 74 65 75 48 76 49 77 58 78 50 79 51 80 57 81 59 82 52 83
REMARK SMILES IDX 53 84 54 85 55 86 56 87 82 88 83 89 92 90 84 91 85 92 91 93
REMARK SMILES IDX 93 94 86 95 87 96 88 97 89 98 90 99 66 100 67 101 76 102
REMARK SMILES IDX 68 103 69 104 75 105 77 106 70 107 71 108 72 109 73 110
REMARK SMILES IDX 74 111
REMARK H PARENT 20 16 12 26 98 61 64 72
REMARK Flexibility Score: inf
ROOT
ATOM      1  O   UNL A   1      35.037  22.948  25.088  1.00  0.00    -0.376 OA
ENDROOT
BRANCH   1   2
ATOM      2  C   UNL A   1      34.264  24.002  25.632  1.00  0.00     0.202 C 
BRANCH   2   3
ATOM      3  C   UNL A   1      32.793  23.927  26.082  1.00  0.00     0.261 C 
BRANCH   3   4
ATOM      4  O   UNL A   1      32.037  25.137  26.169  1.00  0.00    -0.460 OA
BRANCH   4   5
ATOM      5  C   UNL A   1      32.335  26.059  25.214  1.00  0.00     0.338 C 
ATOM      6  O   UNL A   1      32.270  25.864  24.010  1.00  0.00    -0.246 OA
BRANCH   5   7
ATOM      7  C   UNL A   1      32.639  27.391  25.812  1.00  0.00     0.060 A 
ATOM      8  C   UNL A   1      32.650  30.019  26.714  1.00  0.00     0.041 A 
ATOM      9  C   UNL A   1      32.008  29.037  27.469  1.00  0.00     0.027 A 
ATOM     10  C   UNL A   1      33.498  29.652  25.664  1.00  0.00     0.027 A 
ATOM     11  C   UNL A   1      31.975  27.726  26.998  1.00  0.00     0.018 A 
ATOM     12  C   UNL A   1      33.484  28.331  25.201  1.00  0.00     0.018 A 
BRANCH   8  13
ATOM     13  N   UNL A   1      32.250  31.344  26.943  1.00  0.00    -0.322 N 
ATOM     14  C   UNL A   1      32.931  32.394  27.546  1.00  0.00     0.255 C 
ATOM     15  O   UNL A   1      32.351  33.480  27.636  1.00  0.00    -0.269 OA
ATOM     16  H   UNL A   1      31.345  31.564  26.627  1.00  0.00     0.170 HD
BRANCH  14  17
ATOM     17  C   UNL A   1      34.340  32.309  28.053  1.00  0.00     0.042 A 
ATOM     18  C   UNL A   1      36.063  31.283  29.427  1.00  0.00     0.042 A 
ATOM     19  C   UNL A   1      36.876  32.402  29.253  1.00  0.00     0.026 A 
ATOM     20  C   UNL A   1      34.859  31.205  28.729  1.00  0.00     0.040 A 
ATOM     21  C   UNL A   1      36.476  33.420  28.389  1.00  0.00     0.003 A 
ATOM     22  C   UNL A   1      35.201  33.390  27.820  1.00  0.00     0.014 A 
BRANCH  18  23
ATOM     23  N   UNL A   1      36.497  30.287  30.320  1.00  0.00    -0.323 N 
ATOM     24  O   UNL A   1      36.457  31.435  32.347  1.00  0.00    -0.271 OA
ATOM     25  C   UNL A   1      36.678  30.429  31.686  1.00  0.00     0.262 C 
ATOM     26  H   UNL A   1      36.692  29.401  29.936  1.00  0.00     0.170 HD
BRANCH  25  27
ATOM     27  C   UNL A   1      37.121  29.138  32.348  1.00  0.00     0.329 C 
BRANCH  27  28
ATOM     28  O   UNL A   1      37.701  28.292  31.344  1.00  0.00    -0.483 OA
BRANCH  28  29
ATOM     29  C   UNL A   1      39.068  28.282  31.464  1.00  0.00     0.134 A 
ATOM     30  C   UNL A   1      39.584  28.463  32.750  1.00  0.00     0.047 A 
ATOM     31  C   UNL A   1      39.939  28.179  30.371  1.00  0.00     0.060 A 
ATOM     32  C   UNL A   1      40.964  28.500  32.947  1.00  0.00     0.004 A 
ATOM     33  C   UNL A   1      41.318  28.160  30.584  1.00  0.00     0.019 A 
ATOM     34  Br  UNL A   1      39.380  28.170  28.561  1.00  0.00    -0.047 Br
ATOM     35  C   UNL A   1      41.829  28.330  31.868  1.00  0.00     0.001 A 
ENDBRANCH  28  29
ENDBRANCH  27  28
ENDBRANCH  25  27
ENDBRANCH  18  23
ENDBRANCH  14  17
ENDBRANCH   8  13
ENDBRANCH   5   7
ENDBRANCH   4   5
ENDBRANCH   3   4
ENDBRANCH   2   3
ENDBRANCH   1   2
BRANCH   1  36
ATOM     36  C   UNL A   1      35.322  21.791  25.835  1.00  0.00     0.188 C 
BRANCH  36  37
ATOM     37  C   UNL A   1      36.417  20.864  25.267  1.00  0.00     0.188 C 
BRANCH  37  38
ATOM     38  O   UNL A   1      37.683  21.389  24.921  1.00  0.00    -0.376 OA
BRANCH  38  39
ATOM     39  C   UNL A   1      38.835  20.633  25.257  1.00  0.00     0.202 C 
BRANCH  39  40
ATOM     40  C   UNL A   1      39.864  21.109  26.304  1.00  0.00     0.261 C 
BRANCH  40  41
ATOM     41  O   UNL A   1      40.562  22.336  26.035  1.00  0.00    -0.460 OA
BRANCH  41  42
ATOM     42  C   UNL A   1      41.916  22.246  25.955  1.00  0.00     0.338 C 
ATOM     43  O   UNL A   1      42.567  21.862  24.993  1.00  0.00    -0.246 OA
BRANCH  42  44
ATOM     44  C   UNL A   1      42.527  22.903  27.134  1.00  0.00     0.060 A 
ATOM     45  C   UNL A   1      41.704  23.618  28.021  1.00  0.00     0.016 A 
ATOM     46  C   UNL A   1      43.902  22.832  27.357  1.00  0.00     0.016 A 
ATOM     47  C   UNL A   1      42.255  24.277  29.121  1.00  0.00     0.010 A 
ATOM     48  C   UNL A   1      44.456  23.523  28.439  1.00  0.00     0.010 A 
ATOM     49  C   UNL A   1      43.641  24.274  29.309  1.00  0.00    -0.014 A 
BRANCH  49  50
ATOM     50  C   UNL A   1      44.263  25.216  30.275  1.00  0.00     0.031 A 
ATOM     51  C   UNL A   1      44.487  26.638  29.834  1.00  0.00     0.074 A 
ATOM     52  C   UNL A   1      44.626  24.828  31.510  1.00  0.00     0.049 A 
ATOM     53  N   UNL A   1      45.089  27.618  30.455  1.00  0.00    -0.248 NA
ATOM     54  C   UNL A   1      43.961  26.998  28.507  1.00  0.00     0.031 C 
ATOM     55  C   UNL A   1      44.419  23.497  32.076  1.00  0.00     0.029 A 
ATOM     56  N   UNL A   1      45.263  25.524  32.509  1.00  0.00    -0.354 N 
ATOM     57  C   UNL A   1      45.032  28.704  29.589  1.00  0.00     0.074 A 
ATOM     58  C   UNL A   1      44.359  28.256  28.390  1.00  0.00     0.031 C 
ATOM     59  C   UNL A   1      44.938  23.466  33.316  1.00  0.00     0.029 A 
ATOM     60  C   UNL A   1      45.547  24.762  33.618  1.00  0.00     0.049 A 
ATOM     61  H   UNL A   1      45.496  26.477  32.437  1.00  0.00     0.167 HD
ATOM     62  C   UNL A   1      45.497  29.963  29.778  1.00  0.00     0.037 A 
ATOM     63  C   UNL A   1      46.241  25.068  34.734  1.00  0.00     0.037 A 
ATOM     64  C   UNL A   1      46.170  30.402  30.972  1.00  0.00     0.049 A 
ATOM     65  C   UNL A   1      46.818  26.454  34.891  1.00  0.00     0.074 A 
ATOM     66  C   UNL A   1      46.660  31.662  31.268  1.00  0.00     0.029 A 
ATOM     67  N   UNL A   1      46.463  29.593  32.061  1.00  0.00    -0.354 N 
ATOM     68  N   UNL A   1      46.741  27.480  34.076  1.00  0.00    -0.248 NA
ATOM     69  C   UNL A   1      47.577  26.724  36.121  1.00  0.00     0.031 C 
ATOM     70  C   UNL A   1      47.302  31.600  32.510  1.00  0.00     0.029 A 
ATOM     71  C   UNL A   1      47.154  30.319  33.018  1.00  0.00     0.049 A 
ATOM     72  H   UNL A   1      46.215  28.644  32.142  1.00  0.00     0.167 HD
ATOM     73  C   UNL A   1      47.411  28.524  34.710  1.00  0.00     0.074 A 
ATOM     74  C   UNL A   1      47.880  28.007  35.978  1.00  0.00     0.031 C 
ATOM     75  C   UNL A   1      47.612  29.797  34.282  1.00  0.00     0.037 A 
BRANCH  62  76
ATOM     76  C   UNL A   1      45.327  30.942  28.647  1.00  0.00     0.058 A 
ATOM     77  C   UNL A   1      46.225  30.999  27.568  1.00  0.00     0.135 A 
ATOM     78  C   UNL A   1      44.237  31.828  28.636  1.00  0.00     0.135 A 
ATOM     79  F   UNL A   1      47.294  30.187  27.536  1.00  0.00    -0.206 F 
ATOM     80  C   UNL A   1      46.069  31.921  26.539  1.00  0.00     0.059 A 
ATOM     81  C   UNL A   1      44.043  32.737  27.600  1.00  0.00     0.059 A 
ATOM     82  F   UNL A   1      43.348  31.820  29.642  1.00  0.00    -0.206 F 
ATOM     83  C   UNL A   1      44.974  32.788  26.565  1.00  0.00     0.060 A 
BRANCH  83  84
ATOM     84  S   UNL A   1      44.791  33.985  25.227  1.00  0.00     0.124 S 
ATOM     85  O   UNL A   1      43.811  34.907  25.793  1.00  0.00    -0.237 OA
ATOM     86  O   UNL A   1      46.146  34.508  25.089  1.00  0.00    -0.237 OA
ATOM     87  O   UNL A   1      44.317  33.176  24.108  1.00  0.00    -0.744 OA
ENDBRANCH  83  84
ENDBRANCH  62  76
BRANCH  63  88
ATOM     88  C   UNL A   1      46.437  24.040  35.793  1.00  0.00     0.058 A 
ATOM     89  C   UNL A   1      47.561  23.201  35.788  1.00  0.00     0.135 A 
ATOM     90  C   UNL A   1      45.507  23.878  36.833  1.00  0.00     0.135 A 
ATOM     91  F   UNL A   1      48.470  23.303  34.806  1.00  0.00    -0.206 F 
ATOM     92  C   UNL A   1      47.754  22.234  36.770  1.00  0.00     0.059 A 
ATOM     93  C   UNL A   1      45.693  22.937  37.841  1.00  0.00     0.059 A 
ATOM     94  F   UNL A   1      44.415  24.656  36.886  1.00  0.00    -0.206 F 
ATOM     95  C   UNL A   1      46.817  22.114  37.798  1.00  0.00     0.060 A 
BRANCH  95  96
ATOM     96  S   UNL A   1      47.111  20.896  39.099  1.00  0.00     0.124 S 
ATOM     97  O   UNL A   1      46.023  19.952  38.871  1.00  0.00    -0.237 OA
ATOM     98  O   UNL A   1      48.451  20.417  38.771  1.00  0.00    -0.237 OA
ATOM     99  O   UNL A   1      47.017  21.683  40.325  1.00  0.00    -0.744 OA
ENDBRANCH  95  96
ENDBRANCH  63  88
BRANCH  75 100
ATOM    100  C   UNL A   1      48.335  30.742  35.207  1.00  0.00     0.058 A 
ATOM    101  C   UNL A   1      49.725  30.925  35.148  1.00  0.00     0.135 A 
ATOM    102  C   UNL A   1      47.613  31.524  36.126  1.00  0.00     0.135 A 
ATOM    103  F   UNL A   1      50.466  30.202  34.292  1.00  0.00    -0.206 F 
ATOM    104  C   UNL A   1      50.377  31.830  35.982  1.00  0.00     0.059 A 
ATOM    105  C   UNL A   1      48.240  32.456  36.947  1.00  0.00     0.059 A 
ATOM    106  F   UNL A   1      46.279  31.400  36.217  1.00  0.00    -0.206 F 
ATOM    107  C   UNL A   1      49.625  32.594  36.876  1.00  0.00     0.060 A 
BRANCH 107 108
ATOM    108  S   UNL A   1      50.479  33.789  37.926  1.00  0.00     0.124 S 
ATOM    109  O   UNL A   1      51.648  34.113  37.114  1.00  0.00    -0.237 OA
ATOM    110  O   UNL A   1      49.488  34.851  38.061  1.00  0.00    -0.237 OA
ATOM    111  O   UNL A   1      50.753  33.036  39.146  1.00  0.00    -0.744 OA
ENDBRANCH 107 108
ENDBRANCH  75 100
ENDBRANCH  49  50
ENDBRANCH  42  44
ENDBRANCH  41  42
ENDBRANCH  40  41
ENDBRANCH  39  40
ENDBRANCH  38  39
ENDBRANCH  37  38
ENDBRANCH  36  37
ENDBRANCH   1  36
TORSDOF 26
ENDMDL
