MODEL 1
REMARK VINA RESULT:     -10.9      0.000      0.000
REMARK SMILES Cc1cc(N2N=C(C(=O)OCCOCCOCCOC(=O)c3ccc(-c4c5nc(c(-c6c(F)cc(S(=O)(=O)[O-])cc6F)c6ccc([nH]6)c(-c6c(F)cc(S(=O)(=O)[O-])cc6F)c6nc(c(-c7c(F)cc(S(=O)(=O)[O-])cc7F)c7ccc4[nH]7)C=C6)C=C5)cc3)C[C@H]2c2ccccc2)c([N+](=O)[O-])cc1C
REMARK SMILES IDX 15 1 14 2 13 3 12 4 11 5 10 6 8 7 9 8 7 9 5 10 6 11 89 12
REMARK SMILES IDX 88 13 4 14 1 15 2 16 3 17 101 18 100 19 102 20 96 21 97 22
REMARK SMILES IDX 98 23 99 24 90 25 91 26 95 27 92 28 94 29 93 30 16 31 17 32
REMARK SMILES IDX 18 33 19 34 20 35 21 36 22 37 23 38 87 39 24 40 86 41 25 42
REMARK SMILES IDX 26 43 27 44 80 45 28 46 85 47 79 48 81 49 29 50 84 51 78 52
REMARK SMILES IDX 77 53 30 55 64 56 43 57 63 58 44 59 47 60 62 61 82 62 45 63
REMARK SMILES IDX 46 64 61 66 83 67 48 68 31 69 32 70 41 71 33 72 34 73 40 74
REMARK SMILES IDX 42 75 35 76 36 77 37 78 38 79 39 80 65 81 66 82 75 83 67 84
REMARK SMILES IDX 68 85 74 86 76 87 69 88 70 89 71 90 72 91 73 92 49 93 50 94
REMARK SMILES IDX 59 95 51 96 52 97 58 98 60 99 53 100 54 101 55 102 56 103
REMARK SMILES IDX 57 104
REMARK H PARENT 81 54 47 65
REMARK Flexibility Score: inf
ROOT
ATOM      1  C   UNL A   1      38.048  21.468  25.430  1.00  0.00     0.188 C 
ENDROOT
BRANCH   1   2
ATOM      2  C   UNL A   1      37.071  22.157  24.454  1.00  0.00     0.188 C 
BRANCH   2   3
ATOM      3  O   UNL A   1      35.679  22.177  24.764  1.00  0.00    -0.376 OA
BRANCH   3   4
ATOM      4  C   UNL A   1      35.169  21.285  25.750  1.00  0.00     0.202 C 
BRANCH   4   5
ATOM      5  C   UNL A   1      33.845  21.655  26.427  1.00  0.00     0.261 C 
BRANCH   5   6
ATOM      6  O   UNL A   1      33.855  22.989  26.960  1.00  0.00    -0.459 OA
BRANCH   6   7
ATOM      7  C   UNL A   1      32.663  23.615  26.962  1.00  0.00     0.354 C 
ATOM      8  O   UNL A   1      31.665  23.313  27.590  1.00  0.00    -0.245 OA
BRANCH   7   9
ATOM      9  C   UNL A   1      32.713  24.823  26.062  1.00  0.00     0.148 C 
ATOM     10  N   UNL A   1      32.101  26.454  24.869  1.00  0.00    -0.250 N 
ATOM     11  N   UNL A   1      31.669  25.552  25.795  1.00  0.00    -0.169 NA
ATOM     12  C   UNL A   1      33.409  26.105  24.293  1.00  0.00     0.144 C 
ATOM     13  C   UNL A   1      34.001  25.269  25.436  1.00  0.00     0.098 C 
BRANCH  10  14
ATOM     14  C   UNL A   1      31.256  27.450  24.404  1.00  0.00     0.138 A 
ATOM     15  C   UNL A   1      27.581  27.571  23.349  1.00  0.00     0.045 C 
ATOM     16  C   UNL A   1      28.973  28.050  23.656  1.00  0.00    -0.046 A 
ATOM     17  C   UNL A   1      29.899  27.137  24.198  1.00  0.00     0.039 A 
ATOM     18  C   UNL A   1      29.379  29.368  23.405  1.00  0.00    -0.041 A 
ATOM     19  C   UNL A   1      30.717  29.717  23.646  1.00  0.00     0.091 A 
ATOM     20  C   UNL A   1      28.437  30.447  22.938  1.00  0.00     0.045 C 
ATOM     21  C   UNL A   1      31.653  28.762  24.103  1.00  0.00     0.294 A 
BRANCH  21  22
ATOM     22  N   UNL A   1      33.052  29.199  24.222  1.00  0.00     0.065 N 
ATOM     23  O   UNL A   1      33.458  29.514  25.351  1.00  0.00    -0.258 OA
ATOM     24  O   UNL A   1      33.755  29.296  23.204  1.00  0.00    -0.258 OA
ENDBRANCH  21  22
ENDBRANCH  10  14
BRANCH  12  25
ATOM     25  C   UNL A   1      33.271  25.357  22.968  1.00  0.00    -0.023 A 
ATOM     26  C   UNL A   1      33.444  23.968  22.840  1.00  0.00     0.006 A 
ATOM     27  C   UNL A   1      32.920  26.080  21.813  1.00  0.00     0.006 A 
ATOM     28  C   UNL A   1      33.279  23.329  21.610  1.00  0.00     0.000 A 
ATOM     29  C   UNL A   1      32.719  25.435  20.591  1.00  0.00     0.000 A 
ATOM     30  C   UNL A   1      32.906  24.061  20.488  1.00  0.00     0.000 A 
ENDBRANCH  12  25
ENDBRANCH   7   9
ENDBRANCH   6   7
ENDBRANCH   5   6
ENDBRANCH   4   5
ENDBRANCH   3   4
ENDBRANCH   2   3
ENDBRANCH   1   2
BRANCH   1  31
ATOM     31  O   UNL A   1      39.043  22.323  25.967  1.00  0.00    -0.376 OA
BRANCH  31  32
ATOM     32  C   UNL A   1      40.129  21.672  26.614  1.00  0.00     0.202 C 
BRANCH  32  33
ATOM     33  C   UNL A   1      41.539  22.069  26.146  1.00  0.00     0.261 C 
BRANCH  33  34
ATOM     34  O   UNL A   1      42.195  23.076  26.935  1.00  0.00    -0.460 OA
BRANCH  34  35
ATOM     35  C   UNL A   1      42.411  24.276  26.347  1.00  0.00     0.338 C 
ATOM     36  O   UNL A   1      42.741  24.472  25.192  1.00  0.00    -0.246 OA
BRANCH  35  37
ATOM     37  C   UNL A   1      42.009  25.327  27.308  1.00  0.00     0.060 A 
ATOM     38  C   UNL A   1      42.784  26.486  27.410  1.00  0.00     0.016 A 
ATOM     39  C   UNL A   1      40.871  25.173  28.105  1.00  0.00     0.016 A 
ATOM     40  C   UNL A   1      42.426  27.489  28.313  1.00  0.00     0.010 A 
ATOM     41  C   UNL A   1      40.530  26.171  29.029  1.00  0.00     0.010 A 
ATOM     42  C   UNL A   1      41.319  27.329  29.152  1.00  0.00    -0.014 A 
BRANCH  42  43
ATOM     43  C   UNL A   1      41.095  28.303  30.253  1.00  0.00     0.031 A 
ATOM     44  C   UNL A   1      41.966  28.223  31.479  1.00  0.00     0.074 A 
ATOM     45  C   UNL A   1      40.169  29.277  30.150  1.00  0.00     0.049 A 
ATOM     46  N   UNL A   1      41.923  28.933  32.577  1.00  0.00    -0.248 NA
ATOM     47  C   UNL A   1      43.032  27.207  31.463  1.00  0.00     0.031 C 
ATOM     48  C   UNL A   1      39.301  29.502  28.995  1.00  0.00     0.029 A 
ATOM     49  N   UNL A   1      39.803  30.260  31.039  1.00  0.00    -0.354 N 
ATOM     50  C   UNL A   1      42.934  28.437  33.390  1.00  0.00     0.074 A 
ATOM     51  C   UNL A   1      43.573  27.361  32.663  1.00  0.00     0.031 C 
ATOM     52  C   UNL A   1      38.490  30.544  29.254  1.00  0.00     0.029 A 
ATOM     53  C   UNL A   1      38.758  31.040  30.603  1.00  0.00     0.049 A 
ATOM     54  H   UNL A   1      40.248  30.393  31.907  1.00  0.00     0.167 HD
ATOM     55  C   UNL A   1      43.299  28.842  34.628  1.00  0.00     0.037 A 
ATOM     56  C   UNL A   1      38.076  32.019  31.232  1.00  0.00     0.037 A 
ATOM     57  C   UNL A   1      42.688  29.935  35.337  1.00  0.00     0.049 A 
ATOM     58  C   UNL A   1      38.471  32.416  32.633  1.00  0.00     0.074 A 
ATOM     59  C   UNL A   1      43.024  30.448  36.579  1.00  0.00     0.029 A 
ATOM     60  N   UNL A   1      41.617  30.681  34.874  1.00  0.00    -0.354 N 
ATOM     61  N   UNL A   1      39.448  31.955  33.379  1.00  0.00    -0.248 NA
ATOM     62  C   UNL A   1      37.670  33.466  33.282  1.00  0.00     0.031 C 
ATOM     63  C   UNL A   1      42.123  31.471  36.889  1.00  0.00     0.029 A 
ATOM     64  C   UNL A   1      41.258  31.629  35.818  1.00  0.00     0.049 A 
ATOM     65  H   UNL A   1      41.175  30.556  34.003  1.00  0.00     0.167 HD
ATOM     66  C   UNL A   1      39.393  32.676  34.569  1.00  0.00     0.074 A 
ATOM     67  C   UNL A   1      38.299  33.614  34.439  1.00  0.00     0.031 C 
ATOM     68  C   UNL A   1      40.176  32.568  35.671  1.00  0.00     0.037 A 
BRANCH  55  69
ATOM     69  C   UNL A   1      44.395  28.086  35.324  1.00  0.00     0.058 A 
ATOM     70  C   UNL A   1      45.738  28.481  35.244  1.00  0.00     0.135 A 
ATOM     71  C   UNL A   1      44.078  26.997  36.154  1.00  0.00     0.135 A 
ATOM     72  F   UNL A   1      46.097  29.503  34.451  1.00  0.00    -0.206 F 
ATOM     73  C   UNL A   1      46.731  27.822  35.963  1.00  0.00     0.059 A 
ATOM     74  C   UNL A   1      45.050  26.338  36.898  1.00  0.00     0.059 A 
ATOM     75  F   UNL A   1      42.807  26.577  36.260  1.00  0.00    -0.206 F 
ATOM     76  C   UNL A   1      46.376  26.757  36.794  1.00  0.00     0.060 A 
BRANCH  76  77
ATOM     77  S   UNL A   1      47.667  25.948  37.763  1.00  0.00     0.124 S 
ATOM     78  O   UNL A   1      47.183  24.571  37.805  1.00  0.00    -0.237 OA
ATOM     79  O   UNL A   1      48.857  26.177  36.950  1.00  0.00    -0.237 OA
ATOM     80  O   UNL A   1      47.635  26.663  39.035  1.00  0.00    -0.744 OA
ENDBRANCH  76  77
ENDBRANCH  55  69
BRANCH  56  81
ATOM     81  C   UNL A   1      36.910  32.675  30.574  1.00  0.00     0.058 A 
ATOM     82  C   UNL A   1      37.077  33.755  29.695  1.00  0.00     0.135 A 
ATOM     83  C   UNL A   1      35.597  32.269  30.865  1.00  0.00     0.135 A 
ATOM     84  F   UNL A   1      38.310  34.191  29.396  1.00  0.00    -0.206 F 
ATOM     85  C   UNL A   1      35.987  34.433  29.156  1.00  0.00     0.059 A 
ATOM     86  C   UNL A   1      34.493  32.912  30.316  1.00  0.00     0.059 A 
ATOM     87  F   UNL A   1      35.380  31.237  31.696  1.00  0.00    -0.206 F 
ATOM     88  C   UNL A   1      34.697  34.007  29.479  1.00  0.00     0.060 A 
BRANCH  88  89
ATOM     89  S   UNL A   1      33.285  34.894  28.783  1.00  0.00     0.124 S 
ATOM     90  O   UNL A   1      32.500  35.178  29.979  1.00  0.00    -0.237 OA
ATOM     91  O   UNL A   1      33.922  36.045  28.151  1.00  0.00    -0.237 OA
ATOM     92  O   UNL A   1      32.702  33.924  27.861  1.00  0.00    -0.744 OA
ENDBRANCH  88  89
ENDBRANCH  56  81
BRANCH  68  93
ATOM     93  C   UNL A   1      39.906  33.512  36.811  1.00  0.00     0.058 A 
ATOM     94  C   UNL A   1      39.037  33.176  37.861  1.00  0.00     0.135 A 
ATOM     95  C   UNL A   1      40.560  34.754  36.876  1.00  0.00     0.135 A 
ATOM     96  F   UNL A   1      38.384  32.003  37.846  1.00  0.00    -0.206 F 
ATOM     97  C   UNL A   1      38.803  34.048  38.919  1.00  0.00     0.059 A 
ATOM     98  C   UNL A   1      40.362  35.629  37.939  1.00  0.00     0.059 A 
ATOM     99  F   UNL A   1      41.413  35.121  35.907  1.00  0.00    -0.206 F 
ATOM    100  C   UNL A   1      39.469  35.274  38.949  1.00  0.00     0.060 A 
BRANCH 100 101
ATOM    101  S   UNL A   1      39.173  36.391  40.337  1.00  0.00     0.124 S 
ATOM    102  O   UNL A   1      38.195  35.638  41.115  1.00  0.00    -0.237 OA
ATOM    103  O   UNL A   1      40.501  36.511  40.933  1.00  0.00    -0.237 OA
ATOM    104  O   UNL A   1      38.669  37.602  39.696  1.00  0.00    -0.744 OA
ENDBRANCH 100 101
ENDBRANCH  68  93
ENDBRANCH  42  43
ENDBRANCH  35  37
ENDBRANCH  34  35
ENDBRANCH  33  34
ENDBRANCH  32  33
ENDBRANCH  31  32
ENDBRANCH   1  31
TORSDOF 23
ENDMDL
MODEL 2
REMARK VINA RESULT:     -10.4      2.497      8.872
REMARK SMILES Cc1cc(N2N=C(C(=O)OCCOCCOCCOC(=O)c3ccc(-c4c5nc(c(-c6c(F)cc(S(=O)(=O)[O-])cc6F)c6ccc([nH]6)c(-c6c(F)cc(S(=O)(=O)[O-])cc6F)c6nc(c(-c7c(F)cc(S(=O)(=O)[O-])cc7F)c7ccc4[nH]7)C=C6)C=C5)cc3)C[C@H]2c2ccccc2)c([N+](=O)[O-])cc1C
REMARK SMILES IDX 15 1 14 2 13 3 12 4 11 5 10 6 8 7 9 8 7 9 5 10 6 11 89 12
REMARK SMILES IDX 88 13 4 14 1 15 2 16 3 17 101 18 100 19 102 20 96 21 97 22
REMARK SMILES IDX 98 23 99 24 90 25 91 26 95 27 92 28 94 29 93 30 16 31 17 32
REMARK SMILES IDX 18 33 19 34 20 35 21 36 22 37 23 38 87 39 24 40 86 41 25 42
REMARK SMILES IDX 26 43 27 44 80 45 28 46 85 47 79 48 81 49 29 50 84 51 78 52
REMARK SMILES IDX 77 53 30 55 64 56 43 57 63 58 44 59 47 60 62 61 82 62 45 63
REMARK SMILES IDX 46 64 61 66 83 67 48 68 31 69 32 70 41 71 33 72 34 73 40 74
REMARK SMILES IDX 42 75 35 76 36 77 37 78 38 79 39 80 65 81 66 82 75 83 67 84
REMARK SMILES IDX 68 85 74 86 76 87 69 88 70 89 71 90 72 91 73 92 49 93 50 94
REMARK SMILES IDX 59 95 51 96 52 97 58 98 60 99 53 100 54 101 55 102 56 103
REMARK SMILES IDX 57 104
REMARK H PARENT 81 54 47 65
REMARK Flexibility Score: inf
ROOT
ATOM      1  C   UNL A   1      30.692  31.186  25.207  1.00  0.00     0.188 C 
ENDROOT
BRANCH   1   2
ATOM      2  C   UNL A   1      29.728  32.231  24.608  1.00  0.00     0.188 C 
BRANCH   2   3
ATOM      3  O   UNL A   1      28.997  31.905  23.427  1.00  0.00    -0.376 OA
BRANCH   3   4
ATOM      4  C   UNL A   1      27.691  31.350  23.544  1.00  0.00     0.202 C 
BRANCH   4   5
ATOM      5  C   UNL A   1      27.459  29.950  22.964  1.00  0.00     0.261 C 
BRANCH   5   6
ATOM      6  O   UNL A   1      28.545  29.053  23.244  1.00  0.00    -0.459 OA
BRANCH   6   7
ATOM      7  C   UNL A   1      29.511  29.012  22.308  1.00  0.00     0.354 C 
ATOM      8  O   UNL A   1      29.570  29.647  21.271  1.00  0.00    -0.245 OA
BRANCH   7   9
ATOM      9  C   UNL A   1      30.595  28.051  22.725  1.00  0.00     0.148 C 
ATOM     10  N   UNL A   1      31.562  26.346  23.509  1.00  0.00    -0.250 N 
ATOM     11  N   UNL A   1      30.352  26.833  23.112  1.00  0.00    -0.169 NA
ATOM     12  C   UNL A   1      32.583  27.395  23.659  1.00  0.00     0.144 C 
ATOM     13  C   UNL A   1      32.040  28.452  22.689  1.00  0.00     0.098 C 
BRANCH  10  14
ATOM     14  C   UNL A   1      31.693  25.029  23.921  1.00  0.00     0.138 A 
ATOM     15  C   UNL A   1      30.163  22.936  26.733  1.00  0.00     0.045 C 
ATOM     16  C   UNL A   1      30.985  23.277  25.521  1.00  0.00    -0.046 A 
ATOM     17  C   UNL A   1      30.879  24.571  24.974  1.00  0.00     0.039 A 
ATOM     18  C   UNL A   1      31.862  22.355  24.932  1.00  0.00    -0.041 A 
ATOM     19  C   UNL A   1      32.652  22.775  23.851  1.00  0.00     0.091 A 
ATOM     20  C   UNL A   1      31.962  20.917  25.369  1.00  0.00     0.045 C 
ATOM     21  C   UNL A   1      32.597  24.105  23.375  1.00  0.00     0.294 A 
BRANCH  21  22
ATOM     22  N   UNL A   1      33.541  24.474  22.310  1.00  0.00     0.065 N 
ATOM     23  O   UNL A   1      33.116  24.477  21.145  1.00  0.00    -0.258 OA
ATOM     24  O   UNL A   1      34.727  24.710  22.592  1.00  0.00    -0.258 OA
ENDBRANCH  21  22
ENDBRANCH  10  14
BRANCH  12  25
ATOM     25  C   UNL A   1      32.707  27.869  25.107  1.00  0.00    -0.023 A 
ATOM     26  C   UNL A   1      31.660  27.788  26.041  1.00  0.00     0.006 A 
ATOM     27  C   UNL A   1      33.939  28.386  25.550  1.00  0.00     0.006 A 
ATOM     28  C   UNL A   1      31.834  28.211  27.361  1.00  0.00     0.000 A 
ATOM     29  C   UNL A   1      34.123  28.773  26.879  1.00  0.00     0.000 A 
ATOM     30  C   UNL A   1      33.068  28.693  27.782  1.00  0.00     0.000 A 
ENDBRANCH  12  25
ENDBRANCH   7   9
ENDBRANCH   6   7
ENDBRANCH   5   6
ENDBRANCH   4   5
ENDBRANCH   3   4
ENDBRANCH   2   3
ENDBRANCH   1   2
BRANCH   1  31
ATOM     31  O   UNL A   1      31.345  31.602  26.394  1.00  0.00    -0.376 OA
BRANCH  31  32
ATOM     32  C   UNL A   1      31.441  33.009  26.584  1.00  0.00     0.202 C 
BRANCH  32  33
ATOM     33  C   UNL A   1      32.706  33.518  27.294  1.00  0.00     0.261 C 
BRANCH  33  34
ATOM     34  O   UNL A   1      32.506  34.039  28.620  1.00  0.00    -0.460 OA
BRANCH  34  35
ATOM     35  C   UNL A   1      33.366  34.995  29.042  1.00  0.00     0.338 C 
ATOM     36  O   UNL A   1      33.174  36.197  29.046  1.00  0.00    -0.246 OA
BRANCH  35  37
ATOM     37  C   UNL A   1      34.526  34.315  29.660  1.00  0.00     0.060 A 
ATOM     38  C   UNL A   1      34.307  33.438  30.727  1.00  0.00     0.016 A 
ATOM     39  C   UNL A   1      35.822  34.537  29.189  1.00  0.00     0.016 A 
ATOM     40  C   UNL A   1      35.387  32.787  31.329  1.00  0.00     0.010 A 
ATOM     41  C   UNL A   1      36.906  33.901  29.814  1.00  0.00     0.010 A 
ATOM     42  C   UNL A   1      36.695  33.036  30.902  1.00  0.00    -0.014 A 
BRANCH  42  43
ATOM     43  C   UNL A   1      37.833  32.509  31.702  1.00  0.00     0.031 A 
ATOM     44  C   UNL A   1      38.622  31.347  31.159  1.00  0.00     0.074 A 
ATOM     45  C   UNL A   1      38.196  33.082  32.866  1.00  0.00     0.049 A 
ATOM     46  N   UNL A   1      39.620  30.696  31.700  1.00  0.00    -0.248 NA
ATOM     47  C   UNL A   1      38.237  30.856  29.825  1.00  0.00     0.031 C 
ATOM     48  C   UNL A   1      37.554  34.247  33.474  1.00  0.00     0.029 A 
ATOM     49  N   UNL A   1      39.197  32.753  33.750  1.00  0.00    -0.354 N 
ATOM     50  C   UNL A   1      39.964  29.705  30.788  1.00  0.00     0.074 A 
ATOM     51  C   UNL A   1      39.068  29.836  29.660  1.00  0.00     0.031 C 
ATOM     52  C   UNL A   1      38.165  34.524  34.640  1.00  0.00     0.029 A 
ATOM     53  C   UNL A   1      39.218  33.539  34.879  1.00  0.00     0.049 A 
ATOM     54  H   UNL A   1      39.838  32.024  33.590  1.00  0.00     0.167 HD
ATOM     55  C   UNL A   1      40.941  28.773  30.882  1.00  0.00     0.037 A 
ATOM     56  C   UNL A   1      39.980  33.453  35.989  1.00  0.00     0.037 A 
ATOM     57  C   UNL A   1      41.857  28.665  31.986  1.00  0.00     0.049 A 
ATOM     58  C   UNL A   1      41.027  32.371  36.089  1.00  0.00     0.074 A 
ATOM     59  C   UNL A   1      42.910  27.780  32.145  1.00  0.00     0.029 A 
ATOM     60  N   UNL A   1      41.829  29.460  33.120  1.00  0.00    -0.354 N 
ATOM     61  N   UNL A   1      41.359  31.458  35.206  1.00  0.00    -0.248 NA
ATOM     62  C   UNL A   1      41.804  32.304  37.337  1.00  0.00     0.031 C 
ATOM     63  C   UNL A   1      43.488  28.007  33.398  1.00  0.00     0.029 A 
ATOM     64  C   UNL A   1      42.826  29.067  33.997  1.00  0.00     0.049 A 
ATOM     65  H   UNL A   1      41.195  30.196  33.280  1.00  0.00     0.167 HD
ATOM     66  C   UNL A   1      42.397  30.729  35.781  1.00  0.00     0.074 A 
ATOM     67  C   UNL A   1      42.650  31.317  37.080  1.00  0.00     0.031 C 
ATOM     68  C   UNL A   1      43.077  29.669  35.282  1.00  0.00     0.037 A 
BRANCH  55  69
ATOM     69  C   UNL A   1      41.063  27.766  29.775  1.00  0.00     0.058 A 
ATOM     70  C   UNL A   1      40.098  26.769  29.565  1.00  0.00     0.135 A 
ATOM     71  C   UNL A   1      42.125  27.856  28.858  1.00  0.00     0.135 A 
ATOM     72  F   UNL A   1      39.075  26.628  30.422  1.00  0.00    -0.206 F 
ATOM     73  C   UNL A   1      40.181  25.897  28.484  1.00  0.00     0.059 A 
ATOM     74  C   UNL A   1      42.215  27.009  27.759  1.00  0.00     0.059 A 
ATOM     75  F   UNL A   1      43.077  28.788  29.019  1.00  0.00    -0.206 F 
ATOM     76  C   UNL A   1      41.238  26.030  27.582  1.00  0.00     0.060 A 
BRANCH  76  77
ATOM     77  S   UNL A   1      41.301  24.927  26.153  1.00  0.00     0.124 S 
ATOM     78  O   UNL A   1      42.414  24.051  26.508  1.00  0.00    -0.237 OA
ATOM     79  O   UNL A   1      39.978  24.311  26.177  1.00  0.00    -0.237 OA
ATOM     80  O   UNL A   1      41.547  25.832  25.035  1.00  0.00    -0.744 OA
ENDBRANCH  76  77
ENDBRANCH  55  69
BRANCH  56  81
ATOM     81  C   UNL A   1      39.761  34.384  37.133  1.00  0.00     0.058 A 
ATOM     82  C   UNL A   1      40.497  35.571  37.262  1.00  0.00     0.135 A 
ATOM     83  C   UNL A   1      38.851  34.068  38.155  1.00  0.00     0.135 A 
ATOM     84  F   UNL A   1      41.391  35.911  36.320  1.00  0.00    -0.206 F 
ATOM     85  C   UNL A   1      40.367  36.393  38.378  1.00  0.00     0.059 A 
ATOM     86  C   UNL A   1      38.682  34.888  39.266  1.00  0.00     0.059 A 
ATOM     87  F   UNL A   1      38.116  32.947  38.079  1.00  0.00    -0.206 F 
ATOM     88  C   UNL A   1      39.460  36.038  39.379  1.00  0.00     0.060 A 
BRANCH  88  89
ATOM     89  S   UNL A   1      39.300  37.104  40.829  1.00  0.00     0.124 S 
ATOM     90  O   UNL A   1      38.623  36.218  41.769  1.00  0.00    -0.237 OA
ATOM     91  O   UNL A   1      40.690  37.419  41.139  1.00  0.00    -0.237 OA
ATOM     92  O   UNL A   1      38.506  38.224  40.334  1.00  0.00    -0.744 OA
ENDBRANCH  88  89
ENDBRANCH  56  81
BRANCH  68  93
ATOM     93  C   UNL A   1      44.186  29.095  36.122  1.00  0.00     0.058 A 
ATOM     94  C   UNL A   1      43.992  27.969  36.936  1.00  0.00     0.135 A 
ATOM     95  C   UNL A   1      45.474  29.655  36.076  1.00  0.00     0.135 A 
ATOM     96  F   UNL A   1      42.780  27.398  37.018  1.00  0.00    -0.206 F 
ATOM     97  C   UNL A   1      45.025  27.436  37.699  1.00  0.00     0.059 A 
ATOM     98  C   UNL A   1      46.529  29.121  36.809  1.00  0.00     0.059 A 
ATOM     99  F   UNL A   1      45.721  30.724  35.303  1.00  0.00    -0.206 F 
ATOM    100  C   UNL A   1      46.291  28.019  37.630  1.00  0.00     0.060 A 
BRANCH 100 101
ATOM    101  S   UNL A   1      47.632  27.308  38.609  1.00  0.00     0.124 S 
ATOM    102  O   UNL A   1      48.609  28.390  38.599  1.00  0.00    -0.237 OA
ATOM    103  O   UNL A   1      46.982  27.052  39.892  1.00  0.00    -0.237 OA
ATOM    104  O   UNL A   1      48.007  26.115  37.856  1.00  0.00    -0.744 OA
ENDBRANCH 100 101
ENDBRANCH  68  93
ENDBRANCH  42  43
ENDBRANCH  35  37
ENDBRANCH  34  35
ENDBRANCH  33  34
ENDBRANCH  32  33
ENDBRANCH  31  32
ENDBRANCH   1  31
TORSDOF 23
ENDMDL
MODEL 3
REMARK VINA RESULT:     -10.4      0.836      7.871
REMARK SMILES Cc1cc(N2N=C(C(=O)OCCOCCOCCOC(=O)c3ccc(-c4c5nc(c(-c6c(F)cc(S(=O)(=O)[O-])cc6F)c6ccc([nH]6)c(-c6c(F)cc(S(=O)(=O)[O-])cc6F)c6nc(c(-c7c(F)cc(S(=O)(=O)[O-])cc7F)c7ccc4[nH]7)C=C6)C=C5)cc3)C[C@H]2c2ccccc2)c([N+](=O)[O-])cc1C
REMARK SMILES IDX 15 1 14 2 13 3 12 4 11 5 10 6 8 7 9 8 7 9 5 10 6 11 89 12
REMARK SMILES IDX 88 13 4 14 1 15 2 16 3 17 101 18 100 19 102 20 96 21 97 22
REMARK SMILES IDX 98 23 99 24 90 25 91 26 95 27 92 28 94 29 93 30 16 31 17 32
REMARK SMILES IDX 18 33 19 34 20 35 21 36 22 37 23 38 87 39 24 40 86 41 25 42
REMARK SMILES IDX 26 43 27 44 80 45 28 46 85 47 79 48 81 49 29 50 84 51 78 52
REMARK SMILES IDX 77 53 30 55 64 56 43 57 63 58 44 59 47 60 62 61 82 62 45 63
REMARK SMILES IDX 46 64 61 66 83 67 48 68 31 69 32 70 41 71 33 72 34 73 40 74
REMARK SMILES IDX 42 75 35 76 36 77 37 78 38 79 39 80 65 81 66 82 75 83 67 84
REMARK SMILES IDX 68 85 74 86 76 87 69 88 70 89 71 90 72 91 73 92 49 93 50 94
REMARK SMILES IDX 59 95 51 96 52 97 58 98 60 99 53 100 54 101 55 102 56 103
REMARK SMILES IDX 57 104
REMARK H PARENT 81 54 47 65
REMARK Flexibility Score: inf
ROOT
ATOM      1  C   UNL A   1      37.679  21.176  25.186  1.00  0.00     0.188 C 
ENDROOT
BRANCH   1   2
ATOM      2  C   UNL A   1      36.383  21.517  24.422  1.00  0.00     0.188 C 
BRANCH   2   3
ATOM      3  O   UNL A   1      35.227  21.916  25.158  1.00  0.00    -0.376 OA
BRANCH   3   4
ATOM      4  C   UNL A   1      35.149  21.623  26.549  1.00  0.00     0.202 C 
BRANCH   4   5
ATOM      5  C   UNL A   1      33.765  21.667  27.208  1.00  0.00     0.261 C 
BRANCH   5   6
ATOM      6  O   UNL A   1      33.404  22.989  27.638  1.00  0.00    -0.459 OA
BRANCH   6   7
ATOM      7  C   UNL A   1      32.259  23.468  27.120  1.00  0.00     0.354 C 
ATOM      8  O   UNL A   1      31.141  22.996  27.221  1.00  0.00    -0.245 OA
BRANCH   7   9
ATOM      9  C   UNL A   1      32.525  24.751  26.374  1.00  0.00     0.148 C 
ATOM     10  N   UNL A   1      32.212  26.580  25.369  1.00  0.00    -0.250 N 
ATOM     11  N   UNL A   1      31.611  25.654  26.167  1.00  0.00    -0.169 NA
ATOM     12  C   UNL A   1      33.481  26.108  24.793  1.00  0.00     0.144 C 
ATOM     13  C   UNL A   1      33.892  25.067  25.843  1.00  0.00     0.098 C 
BRANCH  10  14
ATOM     14  C   UNL A   1      31.544  27.740  25.004  1.00  0.00     0.138 A 
ATOM     15  C   UNL A   1      28.711  28.542  22.562  1.00  0.00     0.045 C 
ATOM     16  C   UNL A   1      29.762  28.755  23.615  1.00  0.00    -0.046 A 
ATOM     17  C   UNL A   1      30.460  27.635  24.111  1.00  0.00     0.039 A 
ATOM     18  C   UNL A   1      30.079  30.030  24.105  1.00  0.00    -0.041 A 
ATOM     19  C   UNL A   1      31.127  30.154  25.030  1.00  0.00     0.091 A 
ATOM     20  C   UNL A   1      29.315  31.272  23.726  1.00  0.00     0.045 C 
ATOM     21  C   UNL A   1      31.875  29.029  25.447  1.00  0.00     0.294 A 
BRANCH  21  22
ATOM     22  N   UNL A   1      33.020  29.278  26.335  1.00  0.00     0.065 N 
ATOM     23  O   UNL A   1      32.800  29.885  27.394  1.00  0.00    -0.258 OA
ATOM     24  O   UNL A   1      34.159  28.935  25.982  1.00  0.00    -0.258 OA
ENDBRANCH  21  22
ENDBRANCH  10  14
BRANCH  12  25
ATOM     25  C   UNL A   1      33.296  25.547  23.383  1.00  0.00    -0.023 A 
ATOM     26  C   UNL A   1      33.285  24.172  23.093  1.00  0.00     0.006 A 
ATOM     27  C   UNL A   1      33.092  26.441  22.317  1.00  0.00     0.006 A 
ATOM     28  C   UNL A   1      33.085  23.709  21.790  1.00  0.00     0.000 A 
ATOM     29  C   UNL A   1      32.856  25.977  21.021  1.00  0.00     0.000 A 
ATOM     30  C   UNL A   1      32.859  24.612  20.757  1.00  0.00     0.000 A 
ENDBRANCH  12  25
ENDBRANCH   7   9
ENDBRANCH   6   7
ENDBRANCH   5   6
ENDBRANCH   4   5
ENDBRANCH   3   4
ENDBRANCH   2   3
ENDBRANCH   1   2
BRANCH   1  31
ATOM     31  O   UNL A   1      38.409  22.303  25.638  1.00  0.00    -0.376 OA
BRANCH  31  32
ATOM     32  C   UNL A   1      39.473  22.026  26.541  1.00  0.00     0.202 C 
BRANCH  32  33
ATOM     33  C   UNL A   1      40.864  22.541  26.136  1.00  0.00     0.261 C 
BRANCH  33  34
ATOM     34  O   UNL A   1      41.471  23.471  27.049  1.00  0.00    -0.460 OA
BRANCH  34  35
ATOM     35  C   UNL A   1      41.840  24.674  26.549  1.00  0.00     0.338 C 
ATOM     36  O   UNL A   1      42.202  24.909  25.411  1.00  0.00    -0.246 OA
BRANCH  35  37
ATOM     37  C   UNL A   1      41.562  25.695  27.584  1.00  0.00     0.060 A 
ATOM     38  C   UNL A   1      42.434  26.780  27.717  1.00  0.00     0.016 A 
ATOM     39  C   UNL A   1      40.446  25.586  28.417  1.00  0.00     0.016 A 
ATOM     40  C   UNL A   1      42.194  27.753  28.689  1.00  0.00     0.010 A 
ATOM     41  C   UNL A   1      40.224  26.553  29.409  1.00  0.00     0.010 A 
ATOM     42  C   UNL A   1      41.110  27.634  29.564  1.00  0.00    -0.014 A 
BRANCH  42  43
ATOM     43  C   UNL A   1      41.008  28.556  30.726  1.00  0.00     0.031 A 
ATOM     44  C   UNL A   1      39.917  29.594  30.733  1.00  0.00     0.074 A 
ATOM     45  C   UNL A   1      41.836  28.444  31.784  1.00  0.00     0.049 A 
ATOM     46  N   UNL A   1      39.666  30.529  31.613  1.00  0.00    -0.248 NA
ATOM     47  C   UNL A   1      38.981  29.572  29.596  1.00  0.00     0.031 C 
ATOM     48  C   UNL A   1      42.895  27.447  31.930  1.00  0.00     0.029 A 
ATOM     49  N   UNL A   1      41.915  29.187  32.939  1.00  0.00    -0.354 N 
ATOM     50  C   UNL A   1      38.563  31.221  31.127  1.00  0.00     0.074 A 
ATOM     51  C   UNL A   1      38.194  30.602  29.872  1.00  0.00     0.031 C 
ATOM     52  C   UNL A   1      43.531  27.652  33.098  1.00  0.00     0.029 A 
ATOM     53  C   UNL A   1      42.946  28.812  33.768  1.00  0.00     0.049 A 
ATOM     54  H   UNL A   1      41.291  29.918  33.152  1.00  0.00     0.167 HD
ATOM     55  C   UNL A   1      37.916  32.274  31.678  1.00  0.00     0.037 A 
ATOM     56  C   UNL A   1      43.386  29.362  34.918  1.00  0.00     0.037 A 
ATOM     57  C   UNL A   1      38.259  32.866  32.943  1.00  0.00     0.049 A 
ATOM     58  C   UNL A   1      42.677  30.568  35.483  1.00  0.00     0.074 A 
ATOM     59  C   UNL A   1      37.629  33.907  33.603  1.00  0.00     0.029 A 
ATOM     60  N   UNL A   1      39.325  32.477  33.738  1.00  0.00    -0.354 N 
ATOM     61  N   UNL A   1      41.618  31.194  35.025  1.00  0.00    -0.248 NA
ATOM     62  C   UNL A   1      43.222  31.146  36.722  1.00  0.00     0.031 C 
ATOM     63  C   UNL A   1      38.343  34.181  34.773  1.00  0.00     0.029 A 
ATOM     64  C   UNL A   1      39.389  33.277  34.867  1.00  0.00     0.049 A 
ATOM     65  H   UNL A   1      39.945  31.741  33.532  1.00  0.00     0.167 HD
ATOM     66  C   UNL A   1      41.358  32.219  35.932  1.00  0.00     0.074 A 
ATOM     67  C   UNL A   1      42.359  32.119  36.973  1.00  0.00     0.031 C 
ATOM     68  C   UNL A   1      40.382  33.159  35.904  1.00  0.00     0.037 A 
BRANCH  55  69
ATOM     69  C   UNL A   1      36.780  32.885  30.908  1.00  0.00     0.058 A 
ATOM     70  C   UNL A   1      35.440  32.663  31.256  1.00  0.00     0.135 A 
ATOM     71  C   UNL A   1      37.047  33.777  29.854  1.00  0.00     0.135 A 
ATOM     72  F   UNL A   1      35.130  31.807  32.242  1.00  0.00    -0.206 F 
ATOM     73  C   UNL A   1      34.402  33.305  30.587  1.00  0.00     0.059 A 
ATOM     74  C   UNL A   1      36.026  34.445  29.186  1.00  0.00     0.059 A 
ATOM     75  F   UNL A   1      38.313  34.018  29.479  1.00  0.00    -0.206 F 
ATOM     76  C   UNL A   1      34.705  34.200  29.559  1.00  0.00     0.060 A 
BRANCH  76  77
ATOM     77  S   UNL A   1      33.350  35.067  28.739  1.00  0.00     0.124 S 
ATOM     78  O   UNL A   1      34.067  36.110  28.011  1.00  0.00    -0.237 OA
ATOM     79  O   UNL A   1      32.760  34.014  27.918  1.00  0.00    -0.237 OA
ATOM     80  O   UNL A   1      32.523  35.531  29.847  1.00  0.00    -0.744 OA
ENDBRANCH  76  77
ENDBRANCH  55  69
BRANCH  56  81
ATOM     81  C   UNL A   1      44.593  28.819  35.605  1.00  0.00     0.058 A 
ATOM     82  C   UNL A   1      45.886  29.229  35.247  1.00  0.00     0.135 A 
ATOM     83  C   UNL A   1      44.475  27.828  36.594  1.00  0.00     0.135 A 
ATOM     84  F   UNL A   1      46.054  30.162  34.297  1.00  0.00    -0.206 F 
ATOM     85  C   UNL A   1      47.018  28.653  35.817  1.00  0.00     0.059 A 
ATOM     86  C   UNL A   1      45.590  27.258  37.198  1.00  0.00     0.059 A 
ATOM     87  F   UNL A   1      43.261  27.403  36.978  1.00  0.00    -0.206 F 
ATOM     88  C   UNL A   1      46.859  27.662  36.787  1.00  0.00     0.060 A 
BRANCH  88  89
ATOM     89  S   UNL A   1      48.332  26.913  37.518  1.00  0.00     0.124 S 
ATOM     90  O   UNL A   1      47.744  25.881  38.365  1.00  0.00    -0.237 OA
ATOM     91  O   UNL A   1      49.054  26.437  36.343  1.00  0.00    -0.237 OA
ATOM     92  O   UNL A   1      48.959  28.026  38.224  1.00  0.00    -0.744 OA
ENDBRANCH  88  89
ENDBRANCH  56  81
BRANCH  68  93
ATOM     93  C   UNL A   1      40.320  34.133  37.049  1.00  0.00     0.058 A 
ATOM     94  C   UNL A   1      40.992  35.365  37.009  1.00  0.00     0.135 A 
ATOM     95  C   UNL A   1      39.542  33.848  38.184  1.00  0.00     0.135 A 
ATOM     96  F   UNL A   1      41.751  35.685  35.950  1.00  0.00    -0.206 F 
ATOM     97  C   UNL A   1      40.919  36.267  38.066  1.00  0.00     0.059 A 
ATOM     98  C   UNL A   1      39.433  34.747  39.239  1.00  0.00     0.059 A 
ATOM     99  F   UNL A   1      38.868  32.690  38.268  1.00  0.00    -0.206 F 
ATOM    100  C   UNL A   1      40.138  35.949  39.178  1.00  0.00     0.060 A 
BRANCH 100 101
ATOM    101  S   UNL A   1      40.034  37.134  40.536  1.00  0.00     0.124 S 
ATOM    102  O   UNL A   1      38.675  36.912  41.016  1.00  0.00    -0.237 OA
ATOM    103  O   UNL A   1      41.102  36.687  41.426  1.00  0.00    -0.237 OA
ATOM    104  O   UNL A   1      40.268  38.419  39.884  1.00  0.00    -0.744 OA
ENDBRANCH 100 101
ENDBRANCH  68  93
ENDBRANCH  42  43
ENDBRANCH  35  37
ENDBRANCH  34  35
ENDBRANCH  33  34
ENDBRANCH  32  33
ENDBRANCH  31  32
ENDBRANCH   1  31
TORSDOF 23
ENDMDL
