MODEL 1
REMARK VINA RESULT:     -10.4      0.000      0.000
REMARK SMILES CC(C)CSc1cc2c(cc1Cl)C=C(C(=O)OCCOCCOCCOC(=O)c1ccc(-c3c4nc(c(-c5c(F)cc(S(=O)(=O)[O-])cc5F)c5ccc([nH]5)c(-c5c(F)cc(S(=O)(=O)[O-])cc5F)c5nc(c(-c6c(F)cc(S(=O)(=O)[O-])cc6F)c6ccc3[nH]6)C=C5)C=C4)cc1)[C@H](C(F)(F)F)O2
REMARK SMILES IDX 21 1 20 2 19 3 18 4 17 5 15 6 16 7 14 8 6 9 7 10 11 11 8 12
REMARK SMILES IDX 10 13 12 14 9 15 100 16 13 17 95 18 5 19 4 20 2 21 1 22 3 23
REMARK SMILES IDX 96 24 97 25 98 26 99 27 22 28 23 29 24 30 25 31 26 32 27 33
REMARK SMILES IDX 28 34 29 35 30 36 94 37 31 38 93 39 32 40 33 41 34 42 87 43
REMARK SMILES IDX 35 44 92 45 86 46 88 47 36 48 91 49 85 50 84 51 37 53 71 54
REMARK SMILES IDX 50 55 70 56 51 57 54 58 69 59 89 60 52 61 53 62 68 64 90 65
REMARK SMILES IDX 55 66 38 67 39 68 48 69 40 70 41 71 47 72 49 73 42 74 43 75
REMARK SMILES IDX 44 76 45 77 46 78 72 79 73 80 82 81 74 82 75 83 81 84 83 85
REMARK SMILES IDX 76 86 77 87 78 88 79 89 80 90 56 91 57 92 66 93 58 94 59 95
REMARK SMILES IDX 65 96 67 97 60 98 61 99 62 100 63 101 64 102
REMARK H PARENT 88 52 54 63
REMARK Flexibility Score: inf
ROOT
ATOM      1  C   UNL A   1      39.948  22.590  26.877  1.00  0.00     0.188 C 
ENDROOT
BRANCH   1   2
ATOM      2  O   UNL A   1      38.609  22.810  26.452  1.00  0.00    -0.376 OA
BRANCH   2   3
ATOM      3  C   UNL A   1      37.943  21.805  25.694  1.00  0.00     0.202 C 
BRANCH   3   4
ATOM      4  C   UNL A   1      36.411  21.776  25.752  1.00  0.00     0.261 C 
BRANCH   4   5
ATOM      5  O   UNL A   1      35.834  23.047  26.114  1.00  0.00    -0.460 OA
BRANCH   5   6
ATOM      6  C   UNL A   1      34.527  23.015  26.449  1.00  0.00     0.338 C 
ATOM      7  O   UNL A   1      34.052  22.514  27.454  1.00  0.00    -0.246 OA
BRANCH   6   8
ATOM      8  C   UNL A   1      33.709  23.781  25.488  1.00  0.00     0.087 C 
ATOM      9  C   UNL A   1      30.658  27.428  23.841  1.00  0.00     0.030 A 
ATOM     10  C   UNL A   1      30.690  26.033  23.694  1.00  0.00     0.063 A 
ATOM     11  C   UNL A   1      31.684  28.054  24.571  1.00  0.00     0.055 A 
ATOM     12  C   UNL A   1      31.723  25.278  24.262  1.00  0.00     0.129 A 
ATOM     13  C   UNL A   1      32.735  27.301  25.106  1.00  0.00     0.033 A 
ATOM     14  Cl  UNL A   1      31.709  29.760  24.863  1.00  0.00    -0.083 Cl
ATOM     15  C   UNL A   1      32.750  25.910  24.962  1.00  0.00     0.019 A 
ATOM     16  O   UNL A   1      31.603  23.919  24.167  1.00  0.00    -0.475 OA
ATOM     17  C   UNL A   1      33.745  25.111  25.656  1.00  0.00     0.027 C 
ATOM     18  C   UNL A   1      32.730  23.086  24.580  1.00  0.00     0.316 C 
BRANCH   9  19
ATOM     19  S   UNL A   1      29.244  28.325  23.206  1.00  0.00    -0.124 SA
BRANCH  19  20
ATOM     20  C   UNL A   1      30.043  29.623  22.194  1.00  0.00     0.078 C 
BRANCH  20  21
ATOM     21  C   UNL A   1      29.233  30.927  22.064  1.00  0.00    -0.007 C 
ATOM     22  C   UNL A   1      28.023  30.779  21.142  1.00  0.00     0.008 C 
ATOM     23  C   UNL A   1      28.740  31.362  23.450  1.00  0.00     0.008 C 
ENDBRANCH  20  21
ENDBRANCH  19  20
ENDBRANCH   9  19
BRANCH  18  24
ATOM     24  C   UNL A   1      33.333  22.456  23.313  1.00  0.00     0.430 C 
ATOM     25  F   UNL A   1      32.641  22.776  22.200  1.00  0.00    -0.167 F 
ATOM     26  F   UNL A   1      34.601  22.903  23.110  1.00  0.00    -0.167 F 
ATOM     27  F   UNL A   1      33.402  21.106  23.393  1.00  0.00    -0.167 F 
ENDBRANCH  18  24
ENDBRANCH   6   8
ENDBRANCH   5   6
ENDBRANCH   4   5
ENDBRANCH   3   4
ENDBRANCH   2   3
ENDBRANCH   1   2
BRANCH   1  28
ATOM     28  C   UNL A   1      40.774  21.476  26.207  1.00  0.00     0.188 C 
BRANCH  28  29
ATOM     29  O   UNL A   1      42.148  21.495  26.550  1.00  0.00    -0.376 OA
BRANCH  29  30
ATOM     30  C   UNL A   1      42.961  22.416  25.843  1.00  0.00     0.202 C 
BRANCH  30  31
ATOM     31  C   UNL A   1      43.838  23.323  26.716  1.00  0.00     0.261 C 
BRANCH  31  32
ATOM     32  O   UNL A   1      43.881  24.705  26.326  1.00  0.00    -0.460 OA
BRANCH  32  33
ATOM     33  C   UNL A   1      42.713  25.301  25.991  1.00  0.00     0.338 C 
ATOM     34  O   UNL A   1      42.004  25.040  25.034  1.00  0.00    -0.246 OA
BRANCH  33  35
ATOM     35  C   UNL A   1      42.342  26.176  27.127  1.00  0.00     0.060 A 
ATOM     36  C   UNL A   1      41.331  25.790  28.010  1.00  0.00     0.016 A 
ATOM     37  C   UNL A   1      42.964  27.424  27.265  1.00  0.00     0.016 A 
ATOM     38  C   UNL A   1      40.950  26.648  29.044  1.00  0.00     0.010 A 
ATOM     39  C   UNL A   1      42.569  28.289  28.291  1.00  0.00     0.010 A 
ATOM     40  C   UNL A   1      41.572  27.899  29.198  1.00  0.00    -0.014 A 
BRANCH  40  41
ATOM     41  C   UNL A   1      41.315  28.702  30.418  1.00  0.00     0.031 A 
ATOM     42  C   UNL A   1      42.141  28.563  31.662  1.00  0.00     0.074 A 
ATOM     43  C   UNL A   1      40.293  29.577  30.379  1.00  0.00     0.049 A 
ATOM     44  N   UNL A   1      42.063  29.246  32.776  1.00  0.00    -0.248 NA
ATOM     45  C   UNL A   1      43.180  27.525  31.661  1.00  0.00     0.031 C 
ATOM     46  C   UNL A   1      39.414  29.782  29.225  1.00  0.00     0.029 A 
ATOM     47  N   UNL A   1      39.822  30.456  31.319  1.00  0.00    -0.354 N 
ATOM     48  C   UNL A   1      43.056  28.743  33.606  1.00  0.00     0.074 A 
ATOM     49  C   UNL A   1      43.696  27.663  32.879  1.00  0.00     0.031 C 
ATOM     50  C   UNL A   1      38.519  30.734  29.521  1.00  0.00     0.029 A 
ATOM     51  C   UNL A   1      38.747  31.194  30.887  1.00  0.00     0.049 A 
ATOM     52  H   UNL A   1      40.216  30.549  32.217  1.00  0.00     0.167 HD
ATOM     53  C   UNL A   1      43.406  29.156  34.849  1.00  0.00     0.037 A 
ATOM     54  C   UNL A   1      38.027  32.141  31.515  1.00  0.00     0.037 A 
ATOM     55  C   UNL A   1      42.743  30.219  35.572  1.00  0.00     0.049 A 
ATOM     56  C   UNL A   1      38.411  32.556  32.906  1.00  0.00     0.074 A 
ATOM     57  C   UNL A   1      43.044  30.724  36.826  1.00  0.00     0.029 A 
ATOM     58  N   UNL A   1      41.640  30.928  35.115  1.00  0.00    -0.354 N 
ATOM     59  N   UNL A   1      39.389  32.109  33.657  1.00  0.00    -0.248 NA
ATOM     60  C   UNL A   1      37.606  33.613  33.529  1.00  0.00     0.031 C 
ATOM     61  C   UNL A   1      42.097  31.704  37.147  1.00  0.00     0.029 A 
ATOM     62  C   UNL A   1      41.237  31.850  36.071  1.00  0.00     0.049 A 
ATOM     63  H   UNL A   1      41.207  30.797  34.241  1.00  0.00     0.167 HD
ATOM     64  C   UNL A   1      39.335  32.848  34.831  1.00  0.00     0.074 A 
ATOM     65  C   UNL A   1      38.232  33.778  34.686  1.00  0.00     0.031 C 
ATOM     66  C   UNL A   1      40.132  32.768  35.925  1.00  0.00     0.037 A 
BRANCH  53  67
ATOM     67  C   UNL A   1      44.564  28.467  35.521  1.00  0.00     0.058 A 
ATOM     68  C   UNL A   1      44.371  27.353  36.353  1.00  0.00     0.135 A 
ATOM     69  C   UNL A   1      45.886  28.871  35.272  1.00  0.00     0.135 A 
ATOM     70  F   UNL A   1      43.129  26.926  36.632  1.00  0.00    -0.206 F 
ATOM     71  C   UNL A   1      45.442  26.679  36.932  1.00  0.00     0.059 A 
ATOM     72  C   UNL A   1      46.976  28.197  35.819  1.00  0.00     0.059 A 
ATOM     73  F   UNL A   1      46.133  29.926  34.478  1.00  0.00    -0.206 F 
ATOM     74  C   UNL A   1      46.743  27.107  36.658  1.00  0.00     0.060 A 
BRANCH  74  75
ATOM     75  S   UNL A   1      48.119  26.213  37.409  1.00  0.00     0.124 S 
ATOM     76  O   UNL A   1      47.479  25.623  38.580  1.00  0.00    -0.237 OA
ATOM     77  O   UNL A   1      48.495  25.277  36.355  1.00  0.00    -0.237 OA
ATOM     78  O   UNL A   1      49.095  27.261  37.691  1.00  0.00    -0.744 OA
ENDBRANCH  74  75
ENDBRANCH  53  67
BRANCH  54  79
ATOM     79  C   UNL A   1      36.900  32.787  30.797  1.00  0.00     0.058 A 
ATOM     80  C   UNL A   1      35.588  32.316  30.949  1.00  0.00     0.135 A 
ATOM     81  C   UNL A   1      37.102  33.927  30.004  1.00  0.00     0.135 A 
ATOM     82  F   UNL A   1      35.348  31.229  31.697  1.00  0.00    -0.206 F 
ATOM     83  C   UNL A   1      34.513  32.954  30.338  1.00  0.00     0.059 A 
ATOM     84  C   UNL A   1      36.041  34.595  29.403  1.00  0.00     0.059 A 
ATOM     85  F   UNL A   1      38.339  34.426  29.847  1.00  0.00    -0.206 F 
ATOM     86  C   UNL A   1      34.750  34.099  29.576  1.00  0.00     0.060 A 
BRANCH  86  87
ATOM     87  S   UNL A   1      33.336  34.962  28.858  1.00  0.00     0.124 S 
ATOM     88  O   UNL A   1      32.987  34.084  27.749  1.00  0.00    -0.237 OA
ATOM     89  O   UNL A   1      32.397  34.987  29.975  1.00  0.00    -0.237 OA
ATOM     90  O   UNL A   1      33.889  36.262  28.486  1.00  0.00    -0.744 OA
ENDBRANCH  86  87
ENDBRANCH  54  79
BRANCH  66  91
ATOM     91  C   UNL A   1      39.859  33.731  37.050  1.00  0.00     0.058 A 
ATOM     92  C   UNL A   1      39.017  33.397  38.122  1.00  0.00     0.135 A 
ATOM     93  C   UNL A   1      40.471  34.995  37.069  1.00  0.00     0.135 A 
ATOM     94  F   UNL A   1      38.399  32.205  38.151  1.00  0.00    -0.206 F 
ATOM     95  C   UNL A   1      38.769  34.291  39.159  1.00  0.00     0.059 A 
ATOM     96  C   UNL A   1      40.259  35.896  38.110  1.00  0.00     0.059 A 
ATOM     97  F   UNL A   1      41.292  35.364  36.073  1.00  0.00    -0.206 F 
ATOM     98  C   UNL A   1      39.395  35.540  39.143  1.00  0.00     0.060 A 
BRANCH  98  99
ATOM     99  S   UNL A   1      39.076  36.685  40.502  1.00  0.00     0.124 S 
ATOM    100  O   UNL A   1      38.632  37.876  39.785  1.00  0.00    -0.237 OA
ATOM    101  O   UNL A   1      38.047  35.986  41.265  1.00  0.00    -0.237 OA
ATOM    102  O   UNL A   1      40.371  36.798  41.164  1.00  0.00    -0.744 OA
ENDBRANCH  98  99
ENDBRANCH  66  91
ENDBRANCH  40  41
ENDBRANCH  33  35
ENDBRANCH  32  33
ENDBRANCH  31  32
ENDBRANCH  30  31
ENDBRANCH  29  30
ENDBRANCH  28  29
ENDBRANCH   1  28
TORSDOF 24
ENDMDL
MODEL 2
REMARK VINA RESULT:      -9.9      1.617      8.161
REMARK SMILES CC(C)CSc1cc2c(cc1Cl)C=C(C(=O)OCCOCCOCCOC(=O)c1ccc(-c3c4nc(c(-c5c(F)cc(S(=O)(=O)[O-])cc5F)c5ccc([nH]5)c(-c5c(F)cc(S(=O)(=O)[O-])cc5F)c5nc(c(-c6c(F)cc(S(=O)(=O)[O-])cc6F)c6ccc3[nH]6)C=C5)C=C4)cc1)[C@H](C(F)(F)F)O2
REMARK SMILES IDX 21 1 20 2 19 3 18 4 17 5 15 6 16 7 14 8 6 9 7 10 11 11 8 12
REMARK SMILES IDX 10 13 12 14 9 15 100 16 13 17 95 18 5 19 4 20 2 21 1 22 3 23
REMARK SMILES IDX 96 24 97 25 98 26 99 27 22 28 23 29 24 30 25 31 26 32 27 33
REMARK SMILES IDX 28 34 29 35 30 36 94 37 31 38 93 39 32 40 33 41 34 42 87 43
REMARK SMILES IDX 35 44 92 45 86 46 88 47 36 48 91 49 85 50 84 51 37 53 71 54
REMARK SMILES IDX 50 55 70 56 51 57 54 58 69 59 89 60 52 61 53 62 68 64 90 65
REMARK SMILES IDX 55 66 38 67 39 68 48 69 40 70 41 71 47 72 49 73 42 74 43 75
REMARK SMILES IDX 44 76 45 77 46 78 72 79 73 80 82 81 74 82 75 83 81 84 83 85
REMARK SMILES IDX 76 86 77 87 78 88 79 89 80 90 56 91 57 92 66 93 58 94 59 95
REMARK SMILES IDX 65 96 67 97 60 98 61 99 62 100 63 101 64 102
REMARK H PARENT 88 52 54 63
REMARK Flexibility Score: inf
ROOT
ATOM      1  C   UNL A   1      37.923  22.948  25.931  1.00  0.00     0.188 C 
ENDROOT
BRANCH   1   2
ATOM      2  O   UNL A   1      36.837  22.309  25.271  1.00  0.00    -0.376 OA
BRANCH   2   3
ATOM      3  C   UNL A   1      36.400  21.032  25.724  1.00  0.00     0.202 C 
BRANCH   3   4
ATOM      4  C   UNL A   1      35.317  20.324  24.903  1.00  0.00     0.261 C 
BRANCH   4   5
ATOM      5  O   UNL A   1      34.116  20.061  25.658  1.00  0.00    -0.460 OA
BRANCH   5   6
ATOM      6  C   UNL A   1      32.960  20.355  25.027  1.00  0.00     0.338 C 
ATOM      7  O   UNL A   1      32.078  19.566  24.731  1.00  0.00    -0.246 OA
BRANCH   6   8
ATOM      8  C   UNL A   1      32.814  21.810  24.826  1.00  0.00     0.087 C 
ATOM      9  C   UNL A   1      33.301  26.267  22.540  1.00  0.00     0.030 A 
ATOM     10  C   UNL A   1      33.486  25.812  23.855  1.00  0.00     0.063 A 
ATOM     11  C   UNL A   1      32.848  25.358  21.568  1.00  0.00     0.055 A 
ATOM     12  C   UNL A   1      33.225  24.479  24.192  1.00  0.00     0.129 A 
ATOM     13  C   UNL A   1      32.551  24.036  21.917  1.00  0.00     0.033 A 
ATOM     14  Cl  UNL A   1      32.643  25.800  19.907  1.00  0.00    -0.083 Cl
ATOM     15  C   UNL A   1      32.750  23.591  23.227  1.00  0.00     0.019 A 
ATOM     16  O   UNL A   1      33.548  24.102  25.467  1.00  0.00    -0.475 OA
ATOM     17  C   UNL A   1      32.605  22.183  23.555  1.00  0.00     0.027 C 
ATOM     18  C   UNL A   1      33.136  22.780  25.932  1.00  0.00     0.316 C 
BRANCH   9  19
ATOM     19  S   UNL A   1      33.777  27.947  22.140  1.00  0.00    -0.124 SA
BRANCH  19  20
ATOM     20  C   UNL A   1      32.345  28.903  22.756  1.00  0.00     0.078 C 
BRANCH  20  21
ATOM     21  C   UNL A   1      31.157  28.046  23.235  1.00  0.00    -0.007 C 
ATOM     22  C   UNL A   1      30.978  28.084  24.753  1.00  0.00     0.008 C 
ATOM     23  C   UNL A   1      29.865  28.549  22.578  1.00  0.00     0.008 C 
ENDBRANCH  20  21
ENDBRANCH  19  20
ENDBRANCH   9  19
BRANCH  18  24
ATOM     24  C   UNL A   1      32.030  22.978  26.982  1.00  0.00     0.430 C 
ATOM     25  F   UNL A   1      30.869  22.392  26.623  1.00  0.00    -0.167 F 
ATOM     26  F   UNL A   1      32.385  22.416  28.167  1.00  0.00    -0.167 F 
ATOM     27  F   UNL A   1      31.783  24.286  27.227  1.00  0.00    -0.167 F 
ENDBRANCH  18  24
ENDBRANCH   6   8
ENDBRANCH   5   6
ENDBRANCH   4   5
ENDBRANCH   3   4
ENDBRANCH   2   3
ENDBRANCH   1   2
BRANCH   1  28
ATOM     28  C   UNL A   1      39.202  22.141  26.225  1.00  0.00     0.188 C 
BRANCH  28  29
ATOM     29  O   UNL A   1      40.013  22.702  27.241  1.00  0.00    -0.376 OA
BRANCH  29  30
ATOM     30  C   UNL A   1      41.293  22.120  27.418  1.00  0.00     0.202 C 
BRANCH  30  31
ATOM     31  C   UNL A   1      42.300  22.973  28.200  1.00  0.00     0.261 C 
BRANCH  31  32
ATOM     32  O   UNL A   1      43.157  23.806  27.404  1.00  0.00    -0.460 OA
BRANCH  32  33
ATOM     33  C   UNL A   1      42.591  24.844  26.745  1.00  0.00     0.338 C 
ATOM     34  O   UNL A   1      42.251  24.873  25.575  1.00  0.00    -0.246 OA
BRANCH  33  35
ATOM     35  C   UNL A   1      42.252  25.862  27.767  1.00  0.00     0.060 A 
ATOM     36  C   UNL A   1      41.021  25.812  28.426  1.00  0.00     0.016 A 
ATOM     37  C   UNL A   1      43.146  26.912  28.013  1.00  0.00     0.016 A 
ATOM     38  C   UNL A   1      40.689  26.809  29.346  1.00  0.00     0.010 A 
ATOM     39  C   UNL A   1      42.804  27.918  28.922  1.00  0.00     0.010 A 
ATOM     40  C   UNL A   1      41.581  27.864  29.609  1.00  0.00    -0.014 A 
BRANCH  40  41
ATOM     41  C   UNL A   1      41.314  28.788  30.737  1.00  0.00     0.031 A 
ATOM     42  C   UNL A   1      40.220  29.812  30.697  1.00  0.00     0.074 A 
ATOM     43  C   UNL A   1      42.104  28.684  31.822  1.00  0.00     0.049 A 
ATOM     44  N   UNL A   1      39.839  30.640  31.637  1.00  0.00    -0.248 NA
ATOM     45  C   UNL A   1      39.458  29.928  29.446  1.00  0.00     0.031 C 
ATOM     46  C   UNL A   1      43.210  27.734  31.960  1.00  0.00     0.029 A 
ATOM     47  N   UNL A   1      42.101  29.371  33.008  1.00  0.00    -0.354 N 
ATOM     48  C   UNL A   1      38.779  31.363  31.107  1.00  0.00     0.074 A 
ATOM     49  C   UNL A   1      38.604  30.903  29.742  1.00  0.00     0.031 C 
ATOM     50  C   UNL A   1      43.771  27.889  33.167  1.00  0.00     0.029 A 
ATOM     51  C   UNL A   1      43.079  28.958  33.880  1.00  0.00     0.049 A 
ATOM     52  H   UNL A   1      41.461  30.090  33.214  1.00  0.00     0.167 HD
ATOM     53  C   UNL A   1      38.016  32.308  31.711  1.00  0.00     0.037 A 
ATOM     54  C   UNL A   1      43.384  29.386  35.120  1.00  0.00     0.037 A 
ATOM     55  C   UNL A   1      38.217  32.775  33.065  1.00  0.00     0.049 A 
ATOM     56  C   UNL A   1      42.548  30.460  35.753  1.00  0.00     0.074 A 
ATOM     57  C   UNL A   1      37.479  33.711  33.771  1.00  0.00     0.029 A 
ATOM     58  N   UNL A   1      39.234  32.354  33.912  1.00  0.00    -0.354 N 
ATOM     59  N   UNL A   1      41.512  31.094  35.259  1.00  0.00    -0.248 NA
ATOM     60  C   UNL A   1      42.911  30.865  37.116  1.00  0.00     0.031 C 
ATOM     61  C   UNL A   1      38.076  33.891  35.024  1.00  0.00     0.029 A 
ATOM     62  C   UNL A   1      39.155  33.027  35.123  1.00  0.00     0.049 A 
ATOM     63  H   UNL A   1      39.912  31.677  33.687  1.00  0.00     0.167 HD
ATOM     64  C   UNL A   1      41.081  31.956  36.260  1.00  0.00     0.074 A 
ATOM     65  C   UNL A   1      41.965  31.753  37.391  1.00  0.00     0.031 C 
ATOM     66  C   UNL A   1      40.043  32.828  36.244  1.00  0.00     0.037 A 
BRANCH  53  67
ATOM     67  C   UNL A   1      36.884  32.910  30.922  1.00  0.00     0.058 A 
ATOM     68  C   UNL A   1      37.106  33.930  29.984  1.00  0.00     0.135 A 
ATOM     69  C   UNL A   1      35.576  32.413  31.046  1.00  0.00     0.135 A 
ATOM     70  F   UNL A   1      38.334  34.448  29.827  1.00  0.00    -0.206 F 
ATOM     71  C   UNL A   1      36.070  34.451  29.213  1.00  0.00     0.059 A 
ATOM     72  C   UNL A   1      34.529  32.900  30.267  1.00  0.00     0.059 A 
ATOM     73  F   UNL A   1      35.305  31.432  31.922  1.00  0.00    -0.206 F 
ATOM     74  C   UNL A   1      34.784  33.928  29.360  1.00  0.00     0.060 A 
BRANCH  74  75
ATOM     75  S   UNL A   1      33.457  34.609  28.343  1.00  0.00     0.124 S 
ATOM     76  O   UNL A   1      32.658  35.313  29.340  1.00  0.00    -0.237 OA
ATOM     77  O   UNL A   1      34.187  35.455  27.405  1.00  0.00    -0.237 OA
ATOM     78  O   UNL A   1      32.830  33.426  27.761  1.00  0.00    -0.744 OA
ENDBRANCH  74  75
ENDBRANCH  53  67
BRANCH  54  79
ATOM     79  C   UNL A   1      44.509  28.749  35.847  1.00  0.00     0.058 A 
ATOM     80  C   UNL A   1      44.296  27.622  36.655  1.00  0.00     0.135 A 
ATOM     81  C   UNL A   1      45.826  29.208  35.695  1.00  0.00     0.135 A 
ATOM     82  F   UNL A   1      43.053  27.149  36.831  1.00  0.00    -0.206 F 
ATOM     83  C   UNL A   1      45.350  26.972  37.287  1.00  0.00     0.059 A 
ATOM     84  C   UNL A   1      46.899  28.561  36.296  1.00  0.00     0.059 A 
ATOM     85  F   UNL A   1      46.081  30.271  34.914  1.00  0.00    -0.206 F 
ATOM     86  C   UNL A   1      46.649  27.443  37.092  1.00  0.00     0.060 A 
BRANCH  86  87
ATOM     87  S   UNL A   1      48.015  26.540  37.852  1.00  0.00     0.124 S 
ATOM     88  O   UNL A   1      48.464  25.700  36.747  1.00  0.00    -0.237 OA
ATOM     89  O   UNL A   1      48.916  27.621  38.240  1.00  0.00    -0.237 OA
ATOM     90  O   UNL A   1      47.379  25.836  38.962  1.00  0.00    -0.744 OA
ENDBRANCH  86  87
ENDBRANCH  54  79
BRANCH  66  91
ATOM     91  C   UNL A   1      39.786  33.617  37.500  1.00  0.00     0.058 A 
ATOM     92  C   UNL A   1      40.428  34.840  37.750  1.00  0.00     0.135 A 
ATOM     93  C   UNL A   1      38.862  33.157  38.453  1.00  0.00     0.135 A 
ATOM     94  F   UNL A   1      41.327  35.323  36.877  1.00  0.00    -0.206 F 
ATOM     95  C   UNL A   1      40.186  35.565  38.913  1.00  0.00     0.059 A 
ATOM     96  C   UNL A   1      38.583  33.879  39.610  1.00  0.00     0.059 A 
ATOM     97  F   UNL A   1      38.214  31.998  38.261  1.00  0.00    -0.206 F 
ATOM     98  C   UNL A   1      39.261  35.075  39.838  1.00  0.00     0.060 A 
BRANCH  98  99
ATOM     99  S   UNL A   1      38.945  36.033  41.336  1.00  0.00     0.124 S 
ATOM    100  O   UNL A   1      38.935  37.397  40.817  1.00  0.00    -0.237 OA
ATOM    101  O   UNL A   1      37.653  35.513  41.773  1.00  0.00    -0.237 OA
ATOM    102  O   UNL A   1      40.074  35.698  42.199  1.00  0.00    -0.744 OA
ENDBRANCH  98  99
ENDBRANCH  66  91
ENDBRANCH  40  41
ENDBRANCH  33  35
ENDBRANCH  32  33
ENDBRANCH  31  32
ENDBRANCH  30  31
ENDBRANCH  29  30
ENDBRANCH  28  29
ENDBRANCH   1  28
TORSDOF 24
ENDMDL
MODEL 3
REMARK VINA RESULT:      -9.4      6.003     14.224
REMARK SMILES CC(C)CSc1cc2c(cc1Cl)C=C(C(=O)OCCOCCOCCOC(=O)c1ccc(-c3c4nc(c(-c5c(F)cc(S(=O)(=O)[O-])cc5F)c5ccc([nH]5)c(-c5c(F)cc(S(=O)(=O)[O-])cc5F)c5nc(c(-c6c(F)cc(S(=O)(=O)[O-])cc6F)c6ccc3[nH]6)C=C5)C=C4)cc1)[C@H](C(F)(F)F)O2
REMARK SMILES IDX 21 1 20 2 19 3 18 4 17 5 15 6 16 7 14 8 6 9 7 10 11 11 8 12
REMARK SMILES IDX 10 13 12 14 9 15 100 16 13 17 95 18 5 19 4 20 2 21 1 22 3 23
REMARK SMILES IDX 96 24 97 25 98 26 99 27 22 28 23 29 24 30 25 31 26 32 27 33
REMARK SMILES IDX 28 34 29 35 30 36 94 37 31 38 93 39 32 40 33 41 34 42 87 43
REMARK SMILES IDX 35 44 92 45 86 46 88 47 36 48 91 49 85 50 84 51 37 53 71 54
REMARK SMILES IDX 50 55 70 56 51 57 54 58 69 59 89 60 52 61 53 62 68 64 90 65
REMARK SMILES IDX 55 66 38 67 39 68 48 69 40 70 41 71 47 72 49 73 42 74 43 75
REMARK SMILES IDX 44 76 45 77 46 78 72 79 73 80 82 81 74 82 75 83 81 84 83 85
REMARK SMILES IDX 76 86 77 87 78 88 79 89 80 90 56 91 57 92 66 93 58 94 59 95
REMARK SMILES IDX 65 96 67 97 60 98 61 99 62 100 63 101 64 102
REMARK H PARENT 88 52 54 63
REMARK Flexibility Score: inf
ROOT
ATOM      1  C   UNL A   1      34.734  34.524  31.336  1.00  0.00     0.188 C 
ENDROOT
BRANCH   1   2
ATOM      2  O   UNL A   1      34.435  33.347  32.076  1.00  0.00    -0.376 OA
BRANCH   2   3
ATOM      3  C   UNL A   1      34.233  33.439  33.483  1.00  0.00     0.202 C 
BRANCH   3   4
ATOM      4  C   UNL A   1      35.222  34.293  34.284  1.00  0.00     0.261 C 
BRANCH   4   5
ATOM      5  O   UNL A   1      36.524  33.686  34.407  1.00  0.00    -0.460 OA
BRANCH   5   6
ATOM      6  C   UNL A   1      36.922  33.422  35.669  1.00  0.00     0.338 C 
ATOM      7  O   UNL A   1      36.248  33.542  36.679  1.00  0.00    -0.246 OA
BRANCH   6   8
ATOM      8  C   UNL A   1      38.278  32.838  35.693  1.00  0.00     0.087 C 
ATOM      9  C   UNL A   1      41.818  29.273  35.411  1.00  0.00     0.030 A 
ATOM     10  C   UNL A   1      41.552  30.324  36.300  1.00  0.00     0.063 A 
ATOM     11  C   UNL A   1      40.984  29.108  34.291  1.00  0.00     0.055 A 
ATOM     12  C   UNL A   1      40.477  31.193  36.079  1.00  0.00     0.129 A 
ATOM     13  C   UNL A   1      39.933  30.001  34.051  1.00  0.00     0.033 A 
ATOM     14  Cl  UNL A   1      41.187  27.810  33.163  1.00  0.00    -0.083 Cl
ATOM     15  C   UNL A   1      39.671  31.038  34.951  1.00  0.00     0.019 A 
ATOM     16  O   UNL A   1      40.226  32.110  37.062  1.00  0.00    -0.475 OA
ATOM     17  C   UNL A   1      38.484  31.862  34.798  1.00  0.00     0.027 C 
ATOM     18  C   UNL A   1      39.237  33.155  36.809  1.00  0.00     0.316 C 
BRANCH   9  19
ATOM     19  S   UNL A   1      43.124  28.116  35.816  1.00  0.00    -0.124 SA
BRANCH  19  20
ATOM     20  C   UNL A   1      42.217  26.840  36.763  1.00  0.00     0.078 C 
BRANCH  20  21
ATOM     21  C   UNL A   1      42.612  25.389  36.429  1.00  0.00    -0.007 C 
ATOM     22  C   UNL A   1      41.489  24.619  35.732  1.00  0.00     0.008 C 
ATOM     23  C   UNL A   1      43.842  25.392  35.513  1.00  0.00     0.008 C 
ENDBRANCH  20  21
ENDBRANCH  19  20
ENDBRANCH   9  19
BRANCH  18  24
ATOM     24  C   UNL A   1      39.990  34.489  36.677  1.00  0.00     0.430 C 
ATOM     25  F   UNL A   1      41.126  34.513  37.407  1.00  0.00    -0.167 F 
ATOM     26  F   UNL A   1      40.366  34.704  35.389  1.00  0.00    -0.167 F 
ATOM     27  F   UNL A   1      39.231  35.547  37.046  1.00  0.00    -0.167 F 
ENDBRANCH  18  24
ENDBRANCH   6   8
ENDBRANCH   5   6
ENDBRANCH   4   5
ENDBRANCH   3   4
ENDBRANCH   2   3
ENDBRANCH   1   2
BRANCH   1  28
ATOM     28  C   UNL A   1      33.869  34.879  30.111  1.00  0.00     0.188 C 
BRANCH  28  29
ATOM     29  O   UNL A   1      33.455  33.754  29.357  1.00  0.00    -0.376 OA
BRANCH  29  30
ATOM     30  C   UNL A   1      34.386  33.250  28.414  1.00  0.00     0.202 C 
BRANCH  30  31
ATOM     31  C   UNL A   1      35.076  31.938  28.810  1.00  0.00     0.261 C 
BRANCH  31  32
ATOM     32  O   UNL A   1      36.387  32.074  29.379  1.00  0.00    -0.460 OA
BRANCH  32  33
ATOM     33  C   UNL A   1      36.777  31.152  30.290  1.00  0.00     0.338 C 
ATOM     34  O   UNL A   1      36.104  30.679  31.189  1.00  0.00    -0.246 OA
BRANCH  33  35
ATOM     35  C   UNL A   1      38.102  30.656  29.851  1.00  0.00     0.060 A 
ATOM     36  C   UNL A   1      38.294  30.236  28.533  1.00  0.00     0.016 A 
ATOM     37  C   UNL A   1      39.139  30.546  30.788  1.00  0.00     0.016 A 
ATOM     38  C   UNL A   1      39.531  29.717  28.146  1.00  0.00     0.010 A 
ATOM     39  C   UNL A   1      40.372  30.011  30.402  1.00  0.00     0.010 A 
ATOM     40  C   UNL A   1      40.582  29.610  29.073  1.00  0.00    -0.014 A 
BRANCH  40  41
ATOM     41  C   UNL A   1      41.946  29.265  28.603  1.00  0.00     0.031 A 
ATOM     42  C   UNL A   1      43.047  30.278  28.516  1.00  0.00     0.074 A 
ATOM     43  C   UNL A   1      42.172  27.987  28.244  1.00  0.00     0.049 A 
ATOM     44  N   UNL A   1      44.300  30.098  28.181  1.00  0.00    -0.248 NA
ATOM     45  C   UNL A   1      42.702  31.669  28.838  1.00  0.00     0.031 C 
ATOM     46  C   UNL A   1      41.166  26.922  28.273  1.00  0.00     0.029 A 
ATOM     47  N   UNL A   1      43.306  27.365  27.791  1.00  0.00    -0.354 N 
ATOM     48  C   UNL A   1      44.906  31.344  28.273  1.00  0.00     0.074 A 
ATOM     49  C   UNL A   1      43.867  32.283  28.655  1.00  0.00     0.031 C 
ATOM     50  C   UNL A   1      41.731  25.776  27.869  1.00  0.00     0.029 A 
ATOM     51  C   UNL A   1      43.130  26.027  27.535  1.00  0.00     0.049 A 
ATOM     52  H   UNL A   1      44.163  27.833  27.662  1.00  0.00     0.167 HD
ATOM     53  C   UNL A   1      46.208  31.666  28.072  1.00  0.00     0.037 A 
ATOM     54  C   UNL A   1      43.997  25.100  27.087  1.00  0.00     0.037 A 
ATOM     55  C   UNL A   1      47.227  30.724  27.669  1.00  0.00     0.049 A 
ATOM     56  C   UNL A   1      45.425  25.490  26.837  1.00  0.00     0.074 A 
ATOM     57  C   UNL A   1      48.579  30.953  27.466  1.00  0.00     0.029 A 
ATOM     58  N   UNL A   1      47.010  29.381  27.392  1.00  0.00    -0.354 N 
ATOM     59  N   UNL A   1      45.996  26.662  26.983  1.00  0.00    -0.248 NA
ATOM     60  C   UNL A   1      46.330  24.430  26.377  1.00  0.00     0.031 C 
ATOM     61  C   UNL A   1      49.167  29.763  27.022  1.00  0.00     0.029 A 
ATOM     62  C   UNL A   1      48.196  28.776  27.000  1.00  0.00     0.049 A 
ATOM     63  H   UNL A   1      46.141  28.924  27.464  1.00  0.00     0.167 HD
ATOM     64  C   UNL A   1      47.334  26.476  26.659  1.00  0.00     0.074 A 
ATOM     65  C   UNL A   1      47.488  25.075  26.317  1.00  0.00     0.031 C 
ATOM     66  C   UNL A   1      48.342  27.382  26.653  1.00  0.00     0.037 A 
BRANCH  53  67
ATOM     67  C   UNL A   1      46.621  33.099  28.288  1.00  0.00     0.058 A 
ATOM     68  C   UNL A   1      47.146  33.532  29.515  1.00  0.00     0.135 A 
ATOM     69  C   UNL A   1      46.564  34.030  27.238  1.00  0.00     0.135 A 
ATOM     70  F   UNL A   1      47.218  32.688  30.556  1.00  0.00    -0.206 F 
ATOM     71  C   UNL A   1      47.580  34.842  29.701  1.00  0.00     0.059 A 
ATOM     72  C   UNL A   1      47.016  35.339  27.393  1.00  0.00     0.059 A 
ATOM     73  F   UNL A   1      46.077  33.670  26.040  1.00  0.00    -0.206 F 
ATOM     74  C   UNL A   1      47.512  35.739  28.633  1.00  0.00     0.060 A 
BRANCH  74  75
ATOM     75  S   UNL A   1      48.089  37.430  28.892  1.00  0.00     0.124 S 
ATOM     76  O   UNL A   1      48.895  37.281  30.099  1.00  0.00    -0.237 OA
ATOM     77  O   UNL A   1      48.833  37.696  27.665  1.00  0.00    -0.237 OA
ATOM     78  O   UNL A   1      46.855  38.192  29.052  1.00  0.00    -0.744 OA
ENDBRANCH  74  75
ENDBRANCH  53  67
BRANCH  54  79
ATOM     79  C   UNL A   1      43.530  23.704  26.900  1.00  0.00     0.058 A 
ATOM     80  C   UNL A   1      43.350  22.854  28.001  1.00  0.00     0.135 A 
ATOM     81  C   UNL A   1      43.188  23.217  25.630  1.00  0.00     0.135 A 
ATOM     82  F   UNL A   1      43.666  23.278  29.234  1.00  0.00    -0.206 F 
ATOM     83  C   UNL A   1      42.846  21.567  27.849  1.00  0.00     0.059 A 
ATOM     84  C   UNL A   1      42.660  21.943  25.456  1.00  0.00     0.059 A 
ATOM     85  F   UNL A   1      43.324  24.003  24.549  1.00  0.00    -0.206 F 
ATOM     86  C   UNL A   1      42.494  21.125  26.572  1.00  0.00     0.060 A 
BRANCH  86  87
ATOM     87  S   UNL A   1      41.764  19.483  26.401  1.00  0.00     0.124 S 
ATOM     88  O   UNL A   1      42.106  18.873  27.681  1.00  0.00    -0.237 OA
ATOM     89  O   UNL A   1      40.353  19.797  26.199  1.00  0.00    -0.237 OA
ATOM     90  O   UNL A   1      42.448  18.930  25.236  1.00  0.00    -0.744 OA
ENDBRANCH  86  87
ENDBRANCH  54  79
BRANCH  66  91
ATOM     91  C   UNL A   1      49.715  26.884  26.288  1.00  0.00     0.058 A 
ATOM     92  C   UNL A   1      50.204  26.954  24.974  1.00  0.00     0.135 A 
ATOM     93  C   UNL A   1      50.565  26.355  27.274  1.00  0.00     0.135 A 
ATOM     94  F   UNL A   1      49.430  27.441  23.991  1.00  0.00    -0.206 F 
ATOM     95  C   UNL A   1      51.474  26.492  24.644  1.00  0.00     0.059 A 
ATOM     96  C   UNL A   1      51.851  25.913  26.972  1.00  0.00     0.059 A 
ATOM     97  F   UNL A   1      50.153  26.273  28.549  1.00  0.00    -0.206 F 
ATOM     98  C   UNL A   1      52.291  25.972  25.651  1.00  0.00     0.060 A 
BRANCH  98  99
ATOM     99  S   UNL A   1      53.942  25.390  25.211  1.00  0.00     0.124 S 
ATOM    100  O   UNL A   1      53.993  25.698  23.786  1.00  0.00    -0.237 OA
ATOM    101  O   UNL A   1      54.799  26.206  26.066  1.00  0.00    -0.237 OA
ATOM    102  O   UNL A   1      53.902  23.970  25.545  1.00  0.00    -0.744 OA
ENDBRANCH  98  99
ENDBRANCH  66  91
ENDBRANCH  40  41
ENDBRANCH  33  35
ENDBRANCH  32  33
ENDBRANCH  31  32
ENDBRANCH  30  31
ENDBRANCH  29  30
ENDBRANCH  28  29
ENDBRANCH   1  28
TORSDOF 24
ENDMDL
