MODEL 1
REMARK VINA RESULT:     -10.1      0.000      0.000
REMARK SMILES COc1ccc2cc([C@@H](C)C(=O)OCCOCCOCCOC(=O)c3ccc(-c4c5nc(c(-c6c(F)cc(S(=O)(=O)[O-])cc6F)c6ccc([nH]6)c(-c6c(F)cc(S(=O)(=O)[O-])cc6F)c6nc(c(-c7c(F)cc(S(=O)(=O)[O-])cc7F)c7ccc4[nH]7)C=C6)C=C5)cc3)ccc2c1
REMARK SMILES IDX 18 1 17 2 16 3 15 4 14 5 13 6 11 7 12 8 9 9 10 10 8 11 3 12
REMARK SMILES IDX 4 13 94 14 5 15 93 16 6 17 92 18 7 19 91 20 2 21 1 22 19 23
REMARK SMILES IDX 20 24 21 25 22 26 23 27 24 28 25 29 26 30 90 31 27 32 89 33
REMARK SMILES IDX 28 34 29 35 30 36 83 37 31 38 88 39 82 40 84 41 32 42 87 43
REMARK SMILES IDX 81 44 80 45 33 47 67 48 46 49 66 50 47 51 50 52 65 53 85 54
REMARK SMILES IDX 48 55 49 56 64 58 86 59 51 60 34 61 35 62 44 63 36 64 37 65
REMARK SMILES IDX 43 66 45 67 38 68 39 69 40 70 41 71 42 72 68 73 69 74 78 75
REMARK SMILES IDX 70 76 71 77 77 78 79 79 72 80 73 81 74 82 75 83 76 84 52 85
REMARK SMILES IDX 53 86 62 87 54 88 55 89 61 90 63 91 56 92 57 93 58 94 59 95
REMARK SMILES IDX 60 96
REMARK H PARENT 84 46 50 57
REMARK Flexibility Score: inf
ROOT
ATOM      1  C   UNL A   1      42.238  20.879  26.780  1.00  0.00     0.188 C 
ENDROOT
BRANCH   1   2
ATOM      2  C   UNL A   1      40.899  21.276  26.138  1.00  0.00     0.188 C 
BRANCH   2   3
ATOM      3  O   UNL A   1      39.887  21.855  26.954  1.00  0.00    -0.376 OA
BRANCH   3   4
ATOM      4  C   UNL A   1      39.232  23.038  26.512  1.00  0.00     0.202 C 
BRANCH   4   5
ATOM      5  C   UNL A   1      37.715  22.994  26.258  1.00  0.00     0.261 C 
BRANCH   5   6
ATOM      6  O   UNL A   1      37.254  21.947  25.372  1.00  0.00    -0.463 OA
BRANCH   6   7
ATOM      7  C   UNL A   1      35.923  21.920  25.112  1.00  0.00     0.313 C 
ATOM      8  O   UNL A   1      35.113  21.332  25.828  1.00  0.00    -0.252 OA
BRANCH   7   9
ATOM      9  C   UNL A   1      35.449  22.696  23.879  1.00  0.00     0.126 C 
ATOM     10  C   UNL A   1      36.655  22.951  22.976  1.00  0.00     0.025 C 
BRANCH   9  11
ATOM     11  C   UNL A   1      34.622  23.975  23.997  1.00  0.00    -0.033 A 
ATOM     12  C   UNL A   1      31.371  27.890  23.574  1.00  0.00     0.119 A 
ATOM     13  C   UNL A   1      31.227  27.136  22.413  1.00  0.00     0.047 A 
ATOM     14  C   UNL A   1      32.324  27.520  24.523  1.00  0.00     0.055 A 
ATOM     15  C   UNL A   1      31.996  25.981  22.228  1.00  0.00     0.012 A 
ATOM     16  C   UNL A   1      33.094  26.353  24.355  1.00  0.00    -0.015 A 
ATOM     17  C   UNL A   1      32.925  25.562  23.196  1.00  0.00    -0.018 A 
ATOM     18  C   UNL A   1      34.026  25.950  25.319  1.00  0.00     0.009 A 
ATOM     19  C   UNL A   1      33.685  24.382  23.034  1.00  0.00     0.013 A 
ATOM     20  C   UNL A   1      34.770  24.777  25.147  1.00  0.00     0.005 A 
BRANCH  12  21
ATOM     21  O   UNL A   1      30.665  29.036  23.824  1.00  0.00    -0.497 OA
ATOM     22  C   UNL A   1      29.484  29.162  23.036  1.00  0.00     0.278 C 
ENDBRANCH  12  21
ENDBRANCH   9  11
ENDBRANCH   7   9
ENDBRANCH   6   7
ENDBRANCH   5   6
ENDBRANCH   4   5
ENDBRANCH   3   4
ENDBRANCH   2   3
ENDBRANCH   1   2
BRANCH   1  23
ATOM     23  O   UNL A   1      43.356  21.562  26.258  1.00  0.00    -0.376 OA
BRANCH  23  24
ATOM     24  C   UNL A   1      43.133  22.403  25.144  1.00  0.00     0.202 C 
BRANCH  24  25
ATOM     25  C   UNL A   1      43.238  23.919  25.377  1.00  0.00     0.261 C 
BRANCH  25  26
ATOM     26  O   UNL A   1      42.259  24.507  26.253  1.00  0.00    -0.460 OA
BRANCH  26  27
ATOM     27  C   UNL A   1      41.953  25.810  26.061  1.00  0.00     0.338 C 
ATOM     28  O   UNL A   1      41.652  26.342  25.001  1.00  0.00    -0.246 OA
BRANCH  27  29
ATOM     29  C   UNL A   1      41.842  26.455  27.390  1.00  0.00     0.060 A 
ATOM     30  C   UNL A   1      40.800  26.087  28.254  1.00  0.00     0.016 A 
ATOM     31  C   UNL A   1      42.771  27.420  27.784  1.00  0.00     0.016 A 
ATOM     32  C   UNL A   1      40.669  26.704  29.503  1.00  0.00     0.010 A 
ATOM     33  C   UNL A   1      42.626  28.052  29.024  1.00  0.00     0.010 A 
ATOM     34  C   UNL A   1      41.559  27.719  29.880  1.00  0.00    -0.014 A 
BRANCH  34  35
ATOM     35  C   UNL A   1      41.282  28.568  31.069  1.00  0.00     0.031 A 
ATOM     36  C   UNL A   1      40.184  29.596  30.970  1.00  0.00     0.074 A 
ATOM     37  C   UNL A   1      41.983  28.441  32.212  1.00  0.00     0.049 A 
ATOM     38  N   UNL A   1      39.836  30.527  31.820  1.00  0.00    -0.248 NA
ATOM     39  C   UNL A   1      39.373  29.571  29.741  1.00  0.00     0.031 C 
ATOM     40  C   UNL A   1      43.035  27.455  32.458  1.00  0.00     0.029 A 
ATOM     41  N   UNL A   1      41.925  29.165  33.379  1.00  0.00    -0.354 N 
ATOM     42  C   UNL A   1      38.770  31.198  31.231  1.00  0.00     0.074 A 
ATOM     43  C   UNL A   1      38.551  30.592  29.936  1.00  0.00     0.031 C 
ATOM     44  C   UNL A   1      43.533  27.648  33.693  1.00  0.00     0.029 A 
ATOM     45  C   UNL A   1      42.869  28.795  34.310  1.00  0.00     0.049 A 
ATOM     46  H   UNL A   1      41.269  29.883  33.535  1.00  0.00     0.167 HD
ATOM     47  C   UNL A   1      38.030  32.217  31.729  1.00  0.00     0.037 A 
ATOM     48  C   UNL A   1      43.179  29.341  35.504  1.00  0.00     0.037 A 
ATOM     49  C   UNL A   1      38.252  32.823  33.015  1.00  0.00     0.049 A 
ATOM     50  C   UNL A   1      42.407  30.546  35.991  1.00  0.00     0.074 A 
ATOM     51  C   UNL A   1      37.565  33.871  33.602  1.00  0.00     0.029 A 
ATOM     52  N   UNL A   1      39.235  32.437  33.915  1.00  0.00    -0.354 N 
ATOM     53  N   UNL A   1      41.399  31.169  35.425  1.00  0.00    -0.248 NA
ATOM     54  C   UNL A   1      42.815  31.123  37.281  1.00  0.00     0.031 C 
ATOM     55  C   UNL A   1      38.160  34.150  34.836  1.00  0.00     0.029 A 
ATOM     56  C   UNL A   1      39.180  33.236  35.045  1.00  0.00     0.049 A 
ATOM     57  H   UNL A   1      39.875  31.703  33.772  1.00  0.00     0.167 HD
ATOM     58  C   UNL A   1      41.028  32.179  36.311  1.00  0.00     0.074 A 
ATOM     59  C   UNL A   1      41.911  32.078  37.453  1.00  0.00     0.031 C 
ATOM     60  C   UNL A   1      40.045  33.106  36.190  1.00  0.00     0.037 A 
BRANCH  47  61
ATOM     61  C   UNL A   1      36.909  32.751  30.879  1.00  0.00     0.058 A 
ATOM     62  C   UNL A   1      35.581  32.344  31.078  1.00  0.00     0.135 A 
ATOM     63  C   UNL A   1      37.156  33.726  29.900  1.00  0.00     0.135 A 
ATOM     64  F   UNL A   1      35.291  31.398  31.987  1.00  0.00    -0.206 F 
ATOM     65  C   UNL A   1      34.536  32.879  30.330  1.00  0.00     0.059 A 
ATOM     66  C   UNL A   1      36.123  34.296  29.159  1.00  0.00     0.059 A 
ATOM     67  F   UNL A   1      38.409  34.146  29.664  1.00  0.00    -0.206 F 
ATOM     68  C   UNL A   1      34.818  33.860  29.378  1.00  0.00     0.060 A 
BRANCH  68  69
ATOM     69  S   UNL A   1      33.445  34.570  28.445  1.00  0.00     0.124 S 
ATOM     70  O   UNL A   1      33.010  33.425  27.650  1.00  0.00    -0.237 OA
ATOM     71  O   UNL A   1      32.534  34.987  29.505  1.00  0.00    -0.237 OA
ATOM     72  O   UNL A   1      34.068  35.654  27.693  1.00  0.00    -0.744 OA
ENDBRANCH  68  69
ENDBRANCH  47  61
BRANCH  48  73
ATOM     73  C   UNL A   1      44.289  28.785  36.332  1.00  0.00     0.058 A 
ATOM     74  C   UNL A   1      44.079  27.686  37.181  1.00  0.00     0.135 A 
ATOM     75  C   UNL A   1      45.559  29.382  36.345  1.00  0.00     0.135 A 
ATOM     76  F   UNL A   1      42.878  27.088  37.218  1.00  0.00    -0.206 F 
ATOM     77  C   UNL A   1      45.071  27.226  38.041  1.00  0.00     0.059 A 
ATOM     78  C   UNL A   1      46.579  28.917  37.171  1.00  0.00     0.059 A 
ATOM     79  F   UNL A   1      45.819  30.431  35.550  1.00  0.00    -0.206 F 
ATOM     80  C   UNL A   1      46.319  27.852  38.032  1.00  0.00     0.060 A 
BRANCH  80  81
ATOM     81  S   UNL A   1      47.598  27.250  39.155  1.00  0.00     0.124 S 
ATOM     82  O   UNL A   1      47.128  27.763  40.437  1.00  0.00    -0.237 OA
ATOM     83  O   UNL A   1      47.509  25.804  38.975  1.00  0.00    -0.237 OA
ATOM     84  O   UNL A   1      48.817  27.866  38.638  1.00  0.00    -0.744 OA
ENDBRANCH  80  81
ENDBRANCH  48  73
BRANCH  60  85
ATOM     85  C   UNL A   1      39.820  34.045  37.347  1.00  0.00     0.058 A 
ATOM     86  C   UNL A   1      39.065  33.676  38.471  1.00  0.00     0.135 A 
ATOM     87  C   UNL A   1      40.422  35.315  37.353  1.00  0.00     0.135 A 
ATOM     88  F   UNL A   1      38.464  32.477  38.518  1.00  0.00    -0.206 F 
ATOM     89  C   UNL A   1      38.890  34.543  39.546  1.00  0.00     0.059 A 
ATOM     90  C   UNL A   1      40.289  36.185  38.431  1.00  0.00     0.059 A 
ATOM     91  F   UNL A   1      41.167  35.715  36.310  1.00  0.00    -0.206 F 
ATOM     92  C   UNL A   1      39.510  35.794  39.519  1.00  0.00     0.060 A 
BRANCH  92  93
ATOM     93  S   UNL A   1      39.304  36.893  40.937  1.00  0.00     0.124 S 
ATOM     94  O   UNL A   1      40.690  37.188  41.284  1.00  0.00    -0.237 OA
ATOM     95  O   UNL A   1      38.544  38.001  40.365  1.00  0.00    -0.237 OA
ATOM     96  O   UNL A   1      38.576  36.074  41.901  1.00  0.00    -0.744 OA
ENDBRANCH  92  93
ENDBRANCH  60  85
ENDBRANCH  34  35
ENDBRANCH  27  29
ENDBRANCH  26  27
ENDBRANCH  25  26
ENDBRANCH  24  25
ENDBRANCH  23  24
ENDBRANCH   1  23
TORSDOF 22
ENDMDL
MODEL 2
REMARK VINA RESULT:      -9.8      0.751      8.148
REMARK SMILES COc1ccc2cc([C@@H](C)C(=O)OCCOCCOCCOC(=O)c3ccc(-c4c5nc(c(-c6c(F)cc(S(=O)(=O)[O-])cc6F)c6ccc([nH]6)c(-c6c(F)cc(S(=O)(=O)[O-])cc6F)c6nc(c(-c7c(F)cc(S(=O)(=O)[O-])cc7F)c7ccc4[nH]7)C=C6)C=C5)cc3)ccc2c1
REMARK SMILES IDX 18 1 17 2 16 3 15 4 14 5 13 6 11 7 12 8 9 9 10 10 8 11 3 12
REMARK SMILES IDX 4 13 94 14 5 15 93 16 6 17 92 18 7 19 91 20 2 21 1 22 19 23
REMARK SMILES IDX 20 24 21 25 22 26 23 27 24 28 25 29 26 30 90 31 27 32 89 33
REMARK SMILES IDX 28 34 29 35 30 36 83 37 31 38 88 39 82 40 84 41 32 42 87 43
REMARK SMILES IDX 81 44 80 45 33 47 67 48 46 49 66 50 47 51 50 52 65 53 85 54
REMARK SMILES IDX 48 55 49 56 64 58 86 59 51 60 34 61 35 62 44 63 36 64 37 65
REMARK SMILES IDX 43 66 45 67 38 68 39 69 40 70 41 71 42 72 68 73 69 74 78 75
REMARK SMILES IDX 70 76 71 77 77 78 79 79 72 80 73 81 74 82 75 83 76 84 52 85
REMARK SMILES IDX 53 86 62 87 54 88 55 89 61 90 63 91 56 92 57 93 58 94 59 95
REMARK SMILES IDX 60 96
REMARK H PARENT 84 46 50 57
REMARK Flexibility Score: inf
ROOT
ATOM      1  C   UNL A   1      42.397  19.947  26.763  1.00  0.00     0.188 C 
ENDROOT
BRANCH   1   2
ATOM      2  C   UNL A   1      41.011  20.213  26.154  1.00  0.00     0.188 C 
BRANCH   2   3
ATOM      3  O   UNL A   1      40.052  20.941  26.913  1.00  0.00    -0.376 OA
BRANCH   3   4
ATOM      4  C   UNL A   1      39.720  22.268  26.522  1.00  0.00     0.202 C 
BRANCH   4   5
ATOM      5  C   UNL A   1      38.237  22.640  26.348  1.00  0.00     0.261 C 
BRANCH   5   6
ATOM      6  O   UNL A   1      37.471  21.782  25.471  1.00  0.00    -0.463 OA
BRANCH   6   7
ATOM      7  C   UNL A   1      36.130  21.986  25.449  1.00  0.00     0.313 C 
ATOM      8  O   UNL A   1      35.396  21.713  26.399  1.00  0.00    -0.252 OA
BRANCH   7   9
ATOM      9  C   UNL A   1      35.551  22.611  24.176  1.00  0.00     0.126 C 
ATOM     10  C   UNL A   1      36.642  22.625  23.106  1.00  0.00     0.025 C 
BRANCH   9  11
ATOM     11  C   UNL A   1      34.838  23.963  24.192  1.00  0.00    -0.033 A 
ATOM     12  C   UNL A   1      32.074  28.173  23.347  1.00  0.00     0.119 A 
ATOM     13  C   UNL A   1      32.055  27.449  22.159  1.00  0.00     0.047 A 
ATOM     14  C   UNL A   1      32.819  27.703  24.429  1.00  0.00     0.055 A 
ATOM     15  C   UNL A   1      32.736  26.228  22.071  1.00  0.00     0.012 A 
ATOM     16  C   UNL A   1      33.497  26.470  24.358  1.00  0.00    -0.015 A 
ATOM     17  C   UNL A   1      33.449  25.713  23.167  1.00  0.00    -0.018 A 
ATOM     18  C   UNL A   1      34.215  25.970  25.451  1.00  0.00     0.009 A 
ATOM     19  C   UNL A   1      34.114  24.467  23.100  1.00  0.00     0.013 A 
ATOM     20  C   UNL A   1      34.866  24.733  25.371  1.00  0.00     0.005 A 
BRANCH  12  21
ATOM     21  O   UNL A   1      31.445  29.378  23.510  1.00  0.00    -0.497 OA
ATOM     22  C   UNL A   1      31.085  29.656  24.861  1.00  0.00     0.278 C 
ENDBRANCH  12  21
ENDBRANCH   9  11
ENDBRANCH   7   9
ENDBRANCH   6   7
ENDBRANCH   5   6
ENDBRANCH   4   5
ENDBRANCH   3   4
ENDBRANCH   2   3
ENDBRANCH   1   2
BRANCH   1  23
ATOM     23  O   UNL A   1      43.450  20.642  26.133  1.00  0.00    -0.376 OA
BRANCH  23  24
ATOM     24  C   UNL A   1      43.098  21.740  25.317  1.00  0.00     0.202 C 
BRANCH  24  25
ATOM     25  C   UNL A   1      43.522  23.137  25.800  1.00  0.00     0.261 C 
BRANCH  25  26
ATOM     26  O   UNL A   1      42.592  23.839  26.645  1.00  0.00    -0.460 OA
BRANCH  26  27
ATOM     27  C   UNL A   1      42.175  25.058  26.236  1.00  0.00     0.338 C 
ATOM     28  O   UNL A   1      41.814  25.366  25.108  1.00  0.00    -0.246 OA
BRANCH  27  29
ATOM     29  C   UNL A   1      42.029  25.918  27.433  1.00  0.00     0.060 A 
ATOM     30  C   UNL A   1      40.849  25.856  28.191  1.00  0.00     0.016 A 
ATOM     31  C   UNL A   1      43.059  26.781  27.810  1.00  0.00     0.016 A 
ATOM     32  C   UNL A   1      40.688  26.679  29.310  1.00  0.00     0.010 A 
ATOM     33  C   UNL A   1      42.887  27.619  28.916  1.00  0.00     0.010 A 
ATOM     34  C   UNL A   1      41.691  27.595  29.658  1.00  0.00    -0.014 A 
BRANCH  34  35
ATOM     35  C   UNL A   1      41.433  28.656  30.667  1.00  0.00     0.031 A 
ATOM     36  C   UNL A   1      42.295  28.689  31.903  1.00  0.00     0.074 A 
ATOM     37  C   UNL A   1      40.459  29.572  30.502  1.00  0.00     0.049 A 
ATOM     38  N   UNL A   1      42.190  29.435  32.971  1.00  0.00    -0.248 NA
ATOM     39  C   UNL A   1      43.427  27.747  31.936  1.00  0.00     0.031 C 
ATOM     40  C   UNL A   1      39.589  29.685  29.332  1.00  0.00     0.029 A 
ATOM     41  N   UNL A   1      40.028  30.575  31.337  1.00  0.00    -0.354 N 
ATOM     42  C   UNL A   1      43.237  29.054  33.804  1.00  0.00     0.074 A 
ATOM     43  C   UNL A   1      43.944  27.985  33.133  1.00  0.00     0.031 C 
ATOM     44  C   UNL A   1      38.716  30.690  29.533  1.00  0.00     0.029 A 
ATOM     45  C   UNL A   1      38.936  31.264  30.859  1.00  0.00     0.049 A 
ATOM     46  H   UNL A   1      40.459  30.781  32.198  1.00  0.00     0.167 HD
ATOM     47  C   UNL A   1      43.587  29.557  35.011  1.00  0.00     0.037 A 
ATOM     48  C   UNL A   1      38.185  32.223  31.440  1.00  0.00     0.037 A 
ATOM     49  C   UNL A   1      42.880  30.617  35.680  1.00  0.00     0.049 A 
ATOM     50  C   UNL A   1      38.534  32.694  32.835  1.00  0.00     0.074 A 
ATOM     51  C   UNL A   1      43.149  31.185  36.913  1.00  0.00     0.029 A 
ATOM     52  N   UNL A   1      41.765  31.269  35.175  1.00  0.00    -0.354 N 
ATOM     53  N   UNL A   1      39.528  32.326  33.609  1.00  0.00    -0.248 NA
ATOM     54  C   UNL A   1      37.657  33.711  33.434  1.00  0.00     0.031 C 
ATOM     55  C   UNL A   1      42.170  32.149  37.174  1.00  0.00     0.029 A 
ATOM     56  C   UNL A   1      41.327  32.223  36.079  1.00  0.00     0.049 A 
ATOM     57  H   UNL A   1      41.347  31.081  34.304  1.00  0.00     0.167 HD
ATOM     58  C   UNL A   1      39.419  33.099  34.763  1.00  0.00     0.074 A 
ATOM     59  C   UNL A   1      38.270  33.960  34.582  1.00  0.00     0.031 C 
ATOM     60  C   UNL A   1      40.199  33.097  35.873  1.00  0.00     0.037 A 
BRANCH  47  61
ATOM     61  C   UNL A   1      44.789  28.966  35.696  1.00  0.00     0.058 A 
ATOM     62  C   UNL A   1      44.671  27.874  36.571  1.00  0.00     0.135 A 
ATOM     63  C   UNL A   1      46.078  29.452  35.426  1.00  0.00     0.135 A 
ATOM     64  F   UNL A   1      43.461  27.383  36.881  1.00  0.00    -0.206 F 
ATOM     65  C   UNL A   1      45.789  27.291  37.161  1.00  0.00     0.059 A 
ATOM     66  C   UNL A   1      47.212  28.866  35.982  1.00  0.00     0.059 A 
ATOM     67  F   UNL A   1      46.247  30.498  34.602  1.00  0.00    -0.206 F 
ATOM     68  C   UNL A   1      47.055  27.789  36.853  1.00  0.00     0.060 A 
BRANCH  68  69
ATOM     69  S   UNL A   1      48.495  26.995  37.599  1.00  0.00     0.124 S 
ATOM     70  O   UNL A   1      48.095  26.923  39.001  1.00  0.00    -0.237 OA
ATOM     71  O   UNL A   1      48.546  25.721  36.890  1.00  0.00    -0.237 OA
ATOM     72  O   UNL A   1      49.586  27.919  37.305  1.00  0.00    -0.744 OA
ENDBRANCH  68  69
ENDBRANCH  47  61
BRANCH  48  73
ATOM     73  C   UNL A   1      37.005  32.800  30.735  1.00  0.00     0.058 A 
ATOM     74  C   UNL A   1      37.166  33.733  29.697  1.00  0.00     0.135 A 
ATOM     75  C   UNL A   1      35.694  32.487  31.128  1.00  0.00     0.135 A 
ATOM     76  F   UNL A   1      38.398  34.078  29.292  1.00  0.00    -0.206 F 
ATOM     77  C   UNL A   1      36.076  34.363  29.104  1.00  0.00     0.059 A 
ATOM     78  C   UNL A   1      34.587  33.079  30.525  1.00  0.00     0.059 A 
ATOM     79  F   UNL A   1      35.479  31.598  32.110  1.00  0.00    -0.206 F 
ATOM     80  C   UNL A   1      34.788  34.032  29.529  1.00  0.00     0.060 A 
BRANCH  80  81
ATOM     81  S   UNL A   1      33.381  34.860  28.756  1.00  0.00     0.124 S 
ATOM     82  O   UNL A   1      33.976  36.127  28.347  1.00  0.00    -0.237 OA
ATOM     83  O   UNL A   1      33.038  33.938  27.679  1.00  0.00    -0.237 OA
ATOM     84  O   UNL A   1      32.405  34.942  29.838  1.00  0.00    -0.744 OA
ENDBRANCH  80  81
ENDBRANCH  48  73
BRANCH  60  85
ATOM     85  C   UNL A   1      39.886  34.099  36.954  1.00  0.00     0.058 A 
ATOM     86  C   UNL A   1      39.126  33.763  38.085  1.00  0.00     0.135 A 
ATOM     87  C   UNL A   1      40.408  35.402  36.882  1.00  0.00     0.135 A 
ATOM     88  F   UNL A   1      38.600  32.534  38.205  1.00  0.00    -0.206 F 
ATOM     89  C   UNL A   1      38.869  34.691  39.091  1.00  0.00     0.059 A 
ATOM     90  C   UNL A   1      40.192  36.336  37.891  1.00  0.00     0.059 A 
ATOM     91  F   UNL A   1      41.153  35.775  35.829  1.00  0.00    -0.206 F 
ATOM     92  C   UNL A   1      39.410  35.973  38.987  1.00  0.00     0.060 A 
BRANCH  92  93
ATOM     93  S   UNL A   1      39.100  37.155  40.317  1.00  0.00     0.124 S 
ATOM     94  O   UNL A   1      38.220  36.387  41.193  1.00  0.00    -0.237 OA
ATOM     95  O   UNL A   1      40.443  37.406  40.831  1.00  0.00    -0.237 OA
ATOM     96  O   UNL A   1      38.475  38.283  39.634  1.00  0.00    -0.744 OA
ENDBRANCH  92  93
ENDBRANCH  60  85
ENDBRANCH  34  35
ENDBRANCH  27  29
ENDBRANCH  26  27
ENDBRANCH  25  26
ENDBRANCH  24  25
ENDBRANCH  23  24
ENDBRANCH   1  23
TORSDOF 22
ENDMDL
MODEL 3
REMARK VINA RESULT:      -9.6      3.613      8.335
REMARK SMILES COc1ccc2cc([C@@H](C)C(=O)OCCOCCOCCOC(=O)c3ccc(-c4c5nc(c(-c6c(F)cc(S(=O)(=O)[O-])cc6F)c6ccc([nH]6)c(-c6c(F)cc(S(=O)(=O)[O-])cc6F)c6nc(c(-c7c(F)cc(S(=O)(=O)[O-])cc7F)c7ccc4[nH]7)C=C6)C=C5)cc3)ccc2c1
REMARK SMILES IDX 18 1 17 2 16 3 15 4 14 5 13 6 11 7 12 8 9 9 10 10 8 11 3 12
REMARK SMILES IDX 4 13 94 14 5 15 93 16 6 17 92 18 7 19 91 20 2 21 1 22 19 23
REMARK SMILES IDX 20 24 21 25 22 26 23 27 24 28 25 29 26 30 90 31 27 32 89 33
REMARK SMILES IDX 28 34 29 35 30 36 83 37 31 38 88 39 82 40 84 41 32 42 87 43
REMARK SMILES IDX 81 44 80 45 33 47 67 48 46 49 66 50 47 51 50 52 65 53 85 54
REMARK SMILES IDX 48 55 49 56 64 58 86 59 51 60 34 61 35 62 44 63 36 64 37 65
REMARK SMILES IDX 43 66 45 67 38 68 39 69 40 70 41 71 42 72 68 73 69 74 78 75
REMARK SMILES IDX 70 76 71 77 77 78 79 79 72 80 73 81 74 82 75 83 76 84 52 85
REMARK SMILES IDX 53 86 62 87 54 88 55 89 61 90 63 91 56 92 57 93 58 94 59 95
REMARK SMILES IDX 60 96
REMARK H PARENT 84 46 50 57
REMARK Flexibility Score: inf
ROOT
ATOM      1  C   UNL A   1      41.998  22.175  27.954  1.00  0.00     0.188 C 
ENDROOT
BRANCH   1   2
ATOM      2  C   UNL A   1      43.285  22.547  28.709  1.00  0.00     0.188 C 
BRANCH   2   3
ATOM      3  O   UNL A   1      43.312  23.742  29.481  1.00  0.00    -0.376 OA
BRANCH   3   4
ATOM      4  C   UNL A   1      44.476  24.054  30.237  1.00  0.00     0.202 C 
BRANCH   4   5
ATOM      5  C   UNL A   1      44.393  24.020  31.773  1.00  0.00     0.261 C 
BRANCH   5   6
ATOM      6  O   UNL A   1      45.357  24.839  32.474  1.00  0.00    -0.463 OA
BRANCH   6   7
ATOM      7  C   UNL A   1      45.586  24.522  33.773  1.00  0.00     0.313 C 
ATOM      8  O   UNL A   1      46.489  25.030  34.437  1.00  0.00    -0.252 OA
BRANCH   7   9
ATOM      9  C   UNL A   1      44.636  23.502  34.408  1.00  0.00     0.126 C 
ATOM     10  C   UNL A   1      43.524  24.263  35.130  1.00  0.00     0.025 C 
BRANCH   9  11
ATOM     11  C   UNL A   1      45.143  22.372  35.304  1.00  0.00    -0.033 A 
ATOM     12  C   UNL A   1      46.752  19.288  39.041  1.00  0.00     0.119 A 
ATOM     13  C   UNL A   1      46.706  20.568  39.585  1.00  0.00     0.047 A 
ATOM     14  C   UNL A   1      46.444  19.099  37.694  1.00  0.00     0.055 A 
ATOM     15  C   UNL A   1      46.299  21.650  38.795  1.00  0.00     0.012 A 
ATOM     16  C   UNL A   1      46.019  20.176  36.893  1.00  0.00    -0.015 A 
ATOM     17  C   UNL A   1      45.934  21.472  37.450  1.00  0.00    -0.018 A 
ATOM     18  C   UNL A   1      45.670  19.992  35.550  1.00  0.00     0.009 A 
ATOM     19  C   UNL A   1      45.492  22.551  36.652  1.00  0.00     0.013 A 
ATOM     20  C   UNL A   1      45.230  21.070  34.772  1.00  0.00     0.005 A 
BRANCH  12  21
ATOM     21  O   UNL A   1      47.149  18.182  39.743  1.00  0.00    -0.497 OA
ATOM     22  C   UNL A   1      46.158  17.158  39.805  1.00  0.00     0.278 C 
ENDBRANCH  12  21
ENDBRANCH   9  11
ENDBRANCH   7   9
ENDBRANCH   6   7
ENDBRANCH   5   6
ENDBRANCH   4   5
ENDBRANCH   3   4
ENDBRANCH   2   3
ENDBRANCH   1   2
BRANCH   1  23
ATOM     23  O   UNL A   1      41.602  23.119  26.984  1.00  0.00    -0.376 OA
BRANCH  23  24
ATOM     24  C   UNL A   1      42.328  23.138  25.772  1.00  0.00     0.202 C 
BRANCH  24  25
ATOM     25  C   UNL A   1      42.879  24.495  25.305  1.00  0.00     0.261 C 
BRANCH  25  26
ATOM     26  O   UNL A   1      41.937  25.579  25.218  1.00  0.00    -0.460 OA
BRANCH  26  27
ATOM     27  C   UNL A   1      42.427  26.838  25.273  1.00  0.00     0.338 C 
ATOM     28  O   UNL A   1      42.763  27.534  24.324  1.00  0.00    -0.246 OA
BRANCH  27  29
ATOM     29  C   UNL A   1      42.300  27.318  26.668  1.00  0.00     0.060 A 
ATOM     30  C   UNL A   1      41.424  26.664  27.549  1.00  0.00     0.016 A 
ATOM     31  C   UNL A   1      43.049  28.411  27.108  1.00  0.00     0.016 A 
ATOM     32  C   UNL A   1      41.277  27.121  28.863  1.00  0.00     0.010 A 
ATOM     33  C   UNL A   1      42.883  28.880  28.416  1.00  0.00     0.010 A 
ATOM     34  C   UNL A   1      41.976  28.256  29.294  1.00  0.00    -0.014 A 
BRANCH  34  35
ATOM     35  C   UNL A   1      41.635  28.915  30.583  1.00  0.00     0.031 A 
ATOM     36  C   UNL A   1      40.470  29.872  30.608  1.00  0.00     0.074 A 
ATOM     37  C   UNL A   1      42.336  28.680  31.708  1.00  0.00     0.049 A 
ATOM     38  N   UNL A   1      40.054  30.652  31.571  1.00  0.00    -0.248 NA
ATOM     39  C   UNL A   1      39.670  29.960  29.374  1.00  0.00     0.031 C 
ATOM     40  C   UNL A   1      43.450  27.741  31.835  1.00  0.00     0.029 A 
ATOM     41  N   UNL A   1      42.221  29.231  32.962  1.00  0.00    -0.354 N 
ATOM     42  C   UNL A   1      38.948  31.325  31.062  1.00  0.00     0.074 A 
ATOM     43  C   UNL A   1      38.780  30.889  29.693  1.00  0.00     0.031 C 
ATOM     44  C   UNL A   1      43.927  27.796  33.092  1.00  0.00     0.029 A 
ATOM     45  C   UNL A   1      43.182  28.801  33.848  1.00  0.00     0.049 A 
ATOM     46  H   UNL A   1      41.517  29.876  33.204  1.00  0.00     0.167 HD
ATOM     47  C   UNL A   1      38.138  32.215  31.682  1.00  0.00     0.037 A 
ATOM     48  C   UNL A   1      43.447  29.198  35.110  1.00  0.00     0.037 A 
ATOM     49  C   UNL A   1      38.311  32.652  33.042  1.00  0.00     0.049 A 
ATOM     50  C   UNL A   1      42.592  30.271  35.745  1.00  0.00     0.074 A 
ATOM     51  C   UNL A   1      37.550  33.563  33.755  1.00  0.00     0.029 A 
ATOM     52  N   UNL A   1      39.311  32.213  33.896  1.00  0.00    -0.354 N 
ATOM     53  N   UNL A   1      41.547  30.898  35.253  1.00  0.00    -0.248 NA
ATOM     54  C   UNL A   1      42.951  30.693  37.107  1.00  0.00     0.031 C 
ATOM     55  C   UNL A   1      38.118  33.709  35.025  1.00  0.00     0.029 A 
ATOM     56  C   UNL A   1      39.195  32.845  35.123  1.00  0.00     0.049 A 
ATOM     57  H   UNL A   1      40.001  31.550  33.665  1.00  0.00     0.167 HD
ATOM     58  C   UNL A   1      41.103  31.750  36.262  1.00  0.00     0.074 A 
ATOM     59  C   UNL A   1      41.984  31.553  37.393  1.00  0.00     0.031 C 
ATOM     60  C   UNL A   1      40.060  32.617  36.254  1.00  0.00     0.037 A 
BRANCH  47  61
ATOM     61  C   UNL A   1      36.989  32.784  30.896  1.00  0.00     0.058 A 
ATOM     62  C   UNL A   1      35.730  32.164  30.883  1.00  0.00     0.135 A 
ATOM     63  C   UNL A   1      37.129  33.995  30.200  1.00  0.00     0.135 A 
ATOM     64  F   UNL A   1      35.547  30.992  31.514  1.00  0.00    -0.206 F 
ATOM     65  C   UNL A   1      34.652  32.719  30.201  1.00  0.00     0.059 A 
ATOM     66  C   UNL A   1      36.056  34.585  29.535  1.00  0.00     0.059 A 
ATOM     67  F   UNL A   1      38.313  34.628  30.173  1.00  0.00    -0.206 F 
ATOM     68  C   UNL A   1      34.823  33.934  29.537  1.00  0.00     0.060 A 
BRANCH  68  69
ATOM     69  S   UNL A   1      33.403  34.658  28.691  1.00  0.00     0.124 S 
ATOM     70  O   UNL A   1      32.579  35.086  29.818  1.00  0.00    -0.237 OA
ATOM     71  O   UNL A   1      34.017  35.729  27.914  1.00  0.00    -0.237 OA
ATOM     72  O   UNL A   1      32.867  33.547  27.911  1.00  0.00    -0.744 OA
ENDBRANCH  68  69
ENDBRANCH  47  61
BRANCH  48  73
ATOM     73  C   UNL A   1      44.586  28.609  35.873  1.00  0.00     0.058 A 
ATOM     74  C   UNL A   1      45.896  29.087  35.702  1.00  0.00     0.135 A 
ATOM     75  C   UNL A   1      44.401  27.515  36.733  1.00  0.00     0.135 A 
ATOM     76  F   UNL A   1      46.130  30.122  34.880  1.00  0.00    -0.206 F 
ATOM     77  C   UNL A   1      46.983  28.478  36.321  1.00  0.00     0.059 A 
ATOM     78  C   UNL A   1      45.470  26.911  37.390  1.00  0.00     0.059 A 
ATOM     79  F   UNL A   1      43.171  27.021  36.939  1.00  0.00    -0.206 F 
ATOM     80  C   UNL A   1      46.760  27.385  37.161  1.00  0.00     0.060 A 
BRANCH  80  81
ATOM     81  S   UNL A   1      48.178  26.599  37.955  1.00  0.00     0.124 S 
ATOM     82  O   UNL A   1      47.620  25.308  38.341  1.00  0.00    -0.237 OA
ATOM     83  O   UNL A   1      49.159  26.574  36.875  1.00  0.00    -0.237 OA
ATOM     84  O   UNL A   1      48.491  27.504  39.057  1.00  0.00    -0.744 OA
ENDBRANCH  80  81
ENDBRANCH  48  73
BRANCH  60  85
ATOM     85  C   UNL A   1      39.765  33.372  37.523  1.00  0.00     0.058 A 
ATOM     86  C   UNL A   1      40.448  34.549  37.867  1.00  0.00     0.135 A 
ATOM     87  C   UNL A   1      38.737  32.941  38.380  1.00  0.00     0.135 A 
ATOM     88  F   UNL A   1      41.441  35.006  37.088  1.00  0.00    -0.206 F 
ATOM     89  C   UNL A   1      40.144  35.254  39.029  1.00  0.00     0.059 A 
ATOM     90  C   UNL A   1      38.394  33.647  39.528  1.00  0.00     0.059 A 
ATOM     91  F   UNL A   1      38.041  31.828  38.094  1.00  0.00    -0.206 F 
ATOM     92  C   UNL A   1      39.112  34.797  39.851  1.00  0.00     0.060 A 
BRANCH  92  93
ATOM     93  S   UNL A   1      38.705  35.742  41.335  1.00  0.00     0.124 S 
ATOM     94  O   UNL A   1      38.583  37.094  40.799  1.00  0.00    -0.237 OA
ATOM     95  O   UNL A   1      37.458  35.118  41.770  1.00  0.00    -0.237 OA
ATOM     96  O   UNL A   1      39.850  35.515  42.210  1.00  0.00    -0.744 OA
ENDBRANCH  92  93
ENDBRANCH  60  85
ENDBRANCH  34  35
ENDBRANCH  27  29
ENDBRANCH  26  27
ENDBRANCH  25  26
ENDBRANCH  24  25
ENDBRANCH  23  24
ENDBRANCH   1  23
TORSDOF 22
ENDMDL
