MODEL 1
REMARK VINA RESULT:     -10.7      0.000      0.000
REMARK SMILES COc1cc([C@@H]2CC(=O)Nc3c(C(=O)OCCOCCOCCOC(=O)c4ccc(-c5c6nc(c(-c7c(F)cc(S(=O)(=O)[O-])cc7F)c7ccc([nH]7)c(-c7c(F)cc(S(=O)(=O)[O-])cc7F)c7nc(c(-c8c(F)cc(S(=O)(=O)[O-])cc8F)c8ccc5[nH]8)C=C7)C=C6)cc4)cn(-c4ccc(F)cc4)c32)c(OC)c2c1OCO2
REMARK SMILES IDX 20 1 19 2 18 3 17 4 16 5 15 6 13 7 14 8 12 9 6 10 7 11
REMARK SMILES IDX 102 12 8 13 11 14 94 15 9 16 10 17 93 18 5 20 3 21 4 22
REMARK SMILES IDX 107 23 106 24 108 25 103 26 110 27 109 28 2 29 1 30 104 31
REMARK SMILES IDX 105 32 95 33 96 34 101 35 97 36 100 37 98 38 99 39 21 40
REMARK SMILES IDX 22 41 23 42 24 43 25 44 26 45 27 46 28 47 92 48 29 49 91 50
REMARK SMILES IDX 30 51 31 52 32 53 85 54 33 55 90 56 84 57 86 58 34 59 89 60
REMARK SMILES IDX 83 61 82 62 35 64 69 65 48 66 68 67 49 68 52 69 67 70 87 71
REMARK SMILES IDX 50 72 51 73 66 75 88 76 53 77 36 78 37 79 46 80 38 81 39 82
REMARK SMILES IDX 45 83 47 84 40 85 41 86 42 87 43 88 44 89 70 90 71 91 80 92
REMARK SMILES IDX 72 93 73 94 79 95 81 96 74 97 75 98 76 99 77 100 78 101
REMARK SMILES IDX 54 102 55 103 64 104 56 105 57 106 63 107 65 108 58 109
REMARK SMILES IDX 59 110 60 111 61 112 62 113
REMARK H PARENT 10 19 86 63 52 74
REMARK Flexibility Score: inf
ROOT
ATOM      1  C   UNL A   1      35.164  24.408  25.356  1.00  0.00     0.188 C 
ENDROOT
BRANCH   1   2
ATOM      2  C   UNL A   1      33.632  24.591  25.335  1.00  0.00     0.188 C 
BRANCH   2   3
ATOM      3  O   UNL A   1      32.993  25.576  26.130  1.00  0.00    -0.376 OA
BRANCH   3   4
ATOM      4  C   UNL A   1      32.146  26.564  25.570  1.00  0.00     0.202 C 
BRANCH   4   5
ATOM      5  C   UNL A   1      32.376  28.080  25.736  1.00  0.00     0.261 C 
BRANCH   5   6
ATOM      6  O   UNL A   1      32.951  28.510  26.972  1.00  0.00    -0.460 OA
BRANCH   6   7
ATOM      7  C   UNL A   1      33.134  29.848  27.099  1.00  0.00     0.341 C 
ATOM      8  O   UNL A   1      32.239  30.690  27.002  1.00  0.00    -0.246 OA
BRANCH   7   9
ATOM      9  C   UNL A   1      34.488  30.194  27.488  1.00  0.00     0.102 A 
ATOM     10  C   UNL A   1      37.043  32.284  29.093  1.00  0.00     0.082 C 
ATOM     11  C   UNL A   1      36.638  33.682  28.605  1.00  0.00     0.115 C 
ATOM     12  C   UNL A   1      36.304  31.241  28.307  1.00  0.00     0.055 A 
ATOM     13  C   UNL A   1      35.194  33.833  28.134  1.00  0.00     0.225 C 
ATOM     14  C   UNL A   1      35.076  31.458  27.727  1.00  0.00     0.078 A 
ATOM     15  N   UNL A   1      36.624  29.909  28.148  1.00  0.00    -0.317 N 
ATOM     16  O   UNL A   1      34.642  34.935  28.116  1.00  0.00    -0.275 OA
ATOM     17  N   UNL A   1      34.548  32.725  27.640  1.00  0.00    -0.324 N 
ATOM     18  C   UNL A   1      35.497  29.262  27.702  1.00  0.00     0.109 A 
ATOM     19  H   UNL A   1      33.673  32.842  27.204  1.00  0.00     0.170 HD
BRANCH  10  20
ATOM     20  C   UNL A   1      36.852  32.059  30.606  1.00  0.00     0.012 A 
ATOM     21  C   UNL A   1      35.336  32.457  32.503  1.00  0.00     0.165 A 
ATOM     22  C   UNL A   1      35.549  32.252  31.134  1.00  0.00     0.059 A 
ATOM     23  C   UNL A   1      36.435  32.401  33.338  1.00  0.00     0.211 A 
ATOM     24  C   UNL A   1      37.696  32.108  32.854  1.00  0.00     0.211 A 
ATOM     25  O   UNL A   1      36.449  32.615  34.686  1.00  0.00    -0.449 OA
ATOM     26  C   UNL A   1      37.936  31.899  31.503  1.00  0.00     0.168 A 
ATOM     27  O   UNL A   1      38.629  32.093  33.850  1.00  0.00    -0.449 OA
ATOM     28  C   UNL A   1      37.843  32.458  34.990  1.00  0.00     0.468 C 
BRANCH  21  29
ATOM     29  O   UNL A   1      34.046  32.737  32.853  1.00  0.00    -0.493 OA
ATOM     30  C   UNL A   1      33.768  34.098  33.160  1.00  0.00     0.278 C 
ENDBRANCH  21  29
BRANCH  26  31
ATOM     31  O   UNL A   1      39.138  31.543  30.970  1.00  0.00    -0.492 OA
ATOM     32  C   UNL A   1      40.205  32.480  31.002  1.00  0.00     0.278 C 
ENDBRANCH  26  31
ENDBRANCH  10  20
BRANCH  15  33
ATOM     33  C   UNL A   1      37.791  29.249  28.576  1.00  0.00     0.046 A 
ATOM     34  C   UNL A   1      38.922  29.291  27.760  1.00  0.00     0.029 A 
ATOM     35  C   UNL A   1      37.806  28.567  29.795  1.00  0.00     0.029 A 
ATOM     36  C   UNL A   1      40.046  28.547  28.106  1.00  0.00     0.041 A 
ATOM     37  C   UNL A   1      38.951  27.847  30.150  1.00  0.00     0.041 A 
ATOM     38  C   UNL A   1      40.047  27.822  29.291  1.00  0.00     0.123 A 
ATOM     39  F   UNL A   1      41.125  27.092  29.607  1.00  0.00    -0.207 F 
ENDBRANCH  15  33
ENDBRANCH   7   9
ENDBRANCH   6   7
ENDBRANCH   5   6
ENDBRANCH   4   5
ENDBRANCH   3   4
ENDBRANCH   2   3
ENDBRANCH   1   2
BRANCH   1  40
ATOM     40  O   UNL A   1      35.631  23.094  25.168  1.00  0.00    -0.376 OA
BRANCH  40  41
ATOM     41  C   UNL A   1      36.971  22.829  24.788  1.00  0.00     0.202 C 
BRANCH  41  42
ATOM     42  C   UNL A   1      37.968  21.994  25.591  1.00  0.00     0.261 C 
BRANCH  42  43
ATOM     43  O   UNL A   1      38.832  22.684  26.468  1.00  0.00    -0.460 OA
BRANCH  43  44
ATOM     44  C   UNL A   1      40.005  22.052  26.684  1.00  0.00     0.338 C 
ATOM     45  O   UNL A   1      40.163  20.906  27.072  1.00  0.00    -0.246 OA
BRANCH  44  46
ATOM     46  C   UNL A   1      41.092  22.997  26.450  1.00  0.00     0.060 A 
ATOM     47  C   UNL A   1      42.358  22.467  26.194  1.00  0.00     0.016 A 
ATOM     48  C   UNL A   1      40.893  24.333  26.822  1.00  0.00     0.016 A 
ATOM     49  C   UNL A   1      43.451  23.222  26.547  1.00  0.00     0.010 A 
ATOM     50  C   UNL A   1      41.984  25.075  27.192  1.00  0.00     0.010 A 
ATOM     51  C   UNL A   1      43.237  24.470  27.144  1.00  0.00    -0.014 A 
BRANCH  51  52
ATOM     52  C   UNL A   1      44.379  25.187  27.663  1.00  0.00     0.031 A 
ATOM     53  C   UNL A   1      44.390  25.217  29.140  1.00  0.00     0.074 A 
ATOM     54  C   UNL A   1      45.358  25.655  26.863  1.00  0.00     0.049 A 
ATOM     55  N   UNL A   1      44.164  26.229  29.909  1.00  0.00    -0.248 NA
ATOM     56  C   UNL A   1      44.436  23.924  29.847  1.00  0.00     0.031 C 
ATOM     57  C   UNL A   1      45.551  25.433  25.427  1.00  0.00     0.029 A 
ATOM     58  N   UNL A   1      46.460  26.376  27.200  1.00  0.00    -0.354 N 
ATOM     59  C   UNL A   1      44.313  25.741  31.202  1.00  0.00     0.074 A 
ATOM     60  C   UNL A   1      44.236  24.308  31.107  1.00  0.00     0.031 C 
ATOM     61  C   UNL A   1      46.808  25.804  25.078  1.00  0.00     0.029 A 
ATOM     62  C   UNL A   1      47.456  26.415  26.226  1.00  0.00     0.049 A 
ATOM     63  H   UNL A   1      46.549  26.834  28.067  1.00  0.00     0.167 HD
ATOM     64  C   UNL A   1      44.796  26.536  32.194  1.00  0.00     0.037 A 
ATOM     65  C   UNL A   1      48.727  26.865  26.407  1.00  0.00     0.037 A 
ATOM     66  C   UNL A   1      44.670  27.930  31.851  1.00  0.00     0.049 A 
ATOM     67  C   UNL A   1      48.707  27.718  27.628  1.00  0.00     0.074 A 
ATOM     68  C   UNL A   1      43.610  28.755  31.524  1.00  0.00     0.029 A 
ATOM     69  N   UNL A   1      45.798  28.583  31.415  1.00  0.00    -0.354 N 
ATOM     70  N   UNL A   1      48.083  28.861  27.701  1.00  0.00    -0.248 NA
ATOM     71  C   UNL A   1      48.968  27.065  28.902  1.00  0.00     0.031 C 
ATOM     72  C   UNL A   1      44.105  29.606  30.494  1.00  0.00     0.029 A 
ATOM     73  C   UNL A   1      45.455  29.309  30.301  1.00  0.00     0.049 A 
ATOM     74  H   UNL A   1      46.692  28.539  31.826  1.00  0.00     0.167 HD
ATOM     75  C   UNL A   1      47.500  28.868  28.960  1.00  0.00     0.074 A 
ATOM     76  C   UNL A   1      48.130  27.761  29.677  1.00  0.00     0.031 C 
ATOM     77  C   UNL A   1      46.361  29.579  29.207  1.00  0.00     0.037 A 
BRANCH  64  78
ATOM     78  C   UNL A   1      45.731  26.036  33.268  1.00  0.00     0.058 A 
ATOM     79  C   UNL A   1      46.968  25.476  32.895  1.00  0.00     0.135 A 
ATOM     80  C   UNL A   1      45.356  25.839  34.618  1.00  0.00     0.135 A 
ATOM     81  F   UNL A   1      47.413  25.581  31.632  1.00  0.00    -0.206 F 
ATOM     82  C   UNL A   1      47.745  24.731  33.781  1.00  0.00     0.059 A 
ATOM     83  C   UNL A   1      46.143  25.153  35.532  1.00  0.00     0.059 A 
ATOM     84  F   UNL A   1      44.165  26.215  35.099  1.00  0.00    -0.206 F 
ATOM     85  C   UNL A   1      47.318  24.570  35.097  1.00  0.00     0.060 A 
BRANCH  85  86
ATOM     86  S   UNL A   1      48.281  23.551  36.225  1.00  0.00     0.124 S 
ATOM     87  O   UNL A   1      48.207  22.248  35.576  1.00  0.00    -0.237 OA
ATOM     88  O   UNL A   1      49.581  24.213  36.190  1.00  0.00    -0.237 OA
ATOM     89  O   UNL A   1      47.557  23.673  37.487  1.00  0.00    -0.744 OA
ENDBRANCH  85  86
ENDBRANCH  64  78
BRANCH  65  90
ATOM     90  C   UNL A   1      50.006  26.318  25.866  1.00  0.00     0.058 A 
ATOM     91  C   UNL A   1      50.712  27.005  24.857  1.00  0.00     0.135 A 
ATOM     92  C   UNL A   1      50.721  25.309  26.539  1.00  0.00     0.135 A 
ATOM     93  F   UNL A   1      50.115  27.989  24.167  1.00  0.00    -0.206 F 
ATOM     94  C   UNL A   1      52.064  26.761  24.589  1.00  0.00     0.059 A 
ATOM     95  C   UNL A   1      52.066  25.043  26.283  1.00  0.00     0.059 A 
ATOM     96  F   UNL A   1      50.158  24.616  27.540  1.00  0.00    -0.206 F 
ATOM     97  C   UNL A   1      52.743  25.795  25.329  1.00  0.00     0.060 A 
BRANCH  97  98
ATOM     98  S   UNL A   1      54.535  25.625  25.139  1.00  0.00     0.124 S 
ATOM     99  O   UNL A   1      55.034  26.381  26.283  1.00  0.00    -0.237 OA
ATOM    100  O   UNL A   1      54.717  24.179  25.203  1.00  0.00    -0.237 OA
ATOM    101  O   UNL A   1      54.796  26.226  23.833  1.00  0.00    -0.744 OA
ENDBRANCH  97  98
ENDBRANCH  65  90
BRANCH  77 102
ATOM    102  C   UNL A   1      45.908  30.582  28.175  1.00  0.00     0.058 A 
ATOM    103  C   UNL A   1      44.987  30.319  27.143  1.00  0.00     0.135 A 
ATOM    104  C   UNL A   1      46.331  31.910  28.327  1.00  0.00     0.135 A 
ATOM    105  F   UNL A   1      44.453  29.098  26.991  1.00  0.00    -0.206 F 
ATOM    106  C   UNL A   1      44.546  31.324  26.276  1.00  0.00     0.059 A 
ATOM    107  C   UNL A   1      45.881  32.931  27.497  1.00  0.00     0.059 A 
ATOM    108  F   UNL A   1      47.164  32.239  29.330  1.00  0.00    -0.206 F 
ATOM    109  C   UNL A   1      45.000  32.629  26.461  1.00  0.00     0.060 A 
BRANCH 109 110
ATOM    110  S   UNL A   1      44.395  33.942  25.379  1.00  0.00     0.124 S 
ATOM    111  O   UNL A   1      43.505  34.684  26.265  1.00  0.00    -0.237 OA
ATOM    112  O   UNL A   1      45.624  34.628  24.994  1.00  0.00    -0.237 OA
ATOM    113  O   UNL A   1      43.734  33.216  24.297  1.00  0.00    -0.744 OA
ENDBRANCH 109 110
ENDBRANCH  77 102
ENDBRANCH  51  52
ENDBRANCH  44  46
ENDBRANCH  43  44
ENDBRANCH  42  43
ENDBRANCH  41  42
ENDBRANCH  40  41
ENDBRANCH   1  40
TORSDOF 24
ENDMDL
MODEL 2
REMARK VINA RESULT:      -9.2      4.921      8.958
REMARK SMILES COc1cc([C@@H]2CC(=O)Nc3c(C(=O)OCCOCCOCCOC(=O)c4ccc(-c5c6nc(c(-c7c(F)cc(S(=O)(=O)[O-])cc7F)c7ccc([nH]7)c(-c7c(F)cc(S(=O)(=O)[O-])cc7F)c7nc(c(-c8c(F)cc(S(=O)(=O)[O-])cc8F)c8ccc5[nH]8)C=C7)C=C6)cc4)cn(-c4ccc(F)cc4)c32)c(OC)c2c1OCO2
REMARK SMILES IDX 20 1 19 2 18 3 17 4 16 5 15 6 13 7 14 8 12 9 6 10 7 11
REMARK SMILES IDX 102 12 8 13 11 14 94 15 9 16 10 17 93 18 5 20 3 21 4 22
REMARK SMILES IDX 107 23 106 24 108 25 103 26 110 27 109 28 2 29 1 30 104 31
REMARK SMILES IDX 105 32 95 33 96 34 101 35 97 36 100 37 98 38 99 39 21 40
REMARK SMILES IDX 22 41 23 42 24 43 25 44 26 45 27 46 28 47 92 48 29 49 91 50
REMARK SMILES IDX 30 51 31 52 32 53 85 54 33 55 90 56 84 57 86 58 34 59 89 60
REMARK SMILES IDX 83 61 82 62 35 64 69 65 48 66 68 67 49 68 52 69 67 70 87 71
REMARK SMILES IDX 50 72 51 73 66 75 88 76 53 77 36 78 37 79 46 80 38 81 39 82
REMARK SMILES IDX 45 83 47 84 40 85 41 86 42 87 43 88 44 89 70 90 71 91 80 92
REMARK SMILES IDX 72 93 73 94 79 95 81 96 74 97 75 98 76 99 77 100 78 101
REMARK SMILES IDX 54 102 55 103 64 104 56 105 57 106 63 107 65 108 58 109
REMARK SMILES IDX 59 110 60 111 61 112 62 113
REMARK H PARENT 10 19 86 63 52 74
REMARK Flexibility Score: inf
ROOT
ATOM      1  C   UNL A   1      34.336  33.909  31.745  1.00  0.00     0.188 C 
ENDROOT
BRANCH   1   2
ATOM      2  C   UNL A   1      35.299  32.743  32.051  1.00  0.00     0.188 C 
BRANCH   2   3
ATOM      3  O   UNL A   1      36.634  32.976  32.470  1.00  0.00    -0.376 OA
BRANCH   3   4
ATOM      4  C   UNL A   1      37.398  31.988  33.138  1.00  0.00     0.202 C 
BRANCH   4   5
ATOM      5  C   UNL A   1      38.654  32.302  33.977  1.00  0.00     0.261 C 
BRANCH   5   6
ATOM      6  O   UNL A   1      38.522  33.320  34.971  1.00  0.00    -0.460 OA
BRANCH   6   7
ATOM      7  C   UNL A   1      39.638  33.576  35.698  1.00  0.00     0.341 C 
ATOM      8  O   UNL A   1      40.789  33.351  35.318  1.00  0.00    -0.246 OA
BRANCH   7   9
ATOM      9  C   UNL A   1      39.352  34.267  36.941  1.00  0.00     0.102 A 
ATOM     10  C   UNL A   1      38.588  34.461  40.526  1.00  0.00     0.082 C 
ATOM     11  C   UNL A   1      37.483  33.402  40.655  1.00  0.00     0.115 C 
ATOM     12  C   UNL A   1      38.835  34.757  39.076  1.00  0.00     0.055 A 
ATOM     13  C   UNL A   1      37.432  32.352  39.548  1.00  0.00     0.225 C 
ATOM     14  C   UNL A   1      38.603  33.852  38.067  1.00  0.00     0.078 A 
ATOM     15  N   UNL A   1      39.439  35.868  38.526  1.00  0.00    -0.317 N 
ATOM     16  O   UNL A   1      36.897  31.257  39.735  1.00  0.00    -0.275 OA
ATOM     17  N   UNL A   1      37.911  32.689  38.305  1.00  0.00    -0.324 N 
ATOM     18  C   UNL A   1      39.804  35.547  37.240  1.00  0.00     0.109 A 
ATOM     19  H   UNL A   1      37.751  32.072  37.554  1.00  0.00     0.170 HD
BRANCH  10  20
ATOM     20  C   UNL A   1      39.906  34.094  41.237  1.00  0.00     0.012 A 
ATOM     21  C   UNL A   1      41.792  32.514  41.244  1.00  0.00     0.165 A 
ATOM     22  C   UNL A   1      40.786  33.209  40.562  1.00  0.00     0.059 A 
ATOM     23  C   UNL A   1      41.943  32.768  42.595  1.00  0.00     0.211 A 
ATOM     24  C   UNL A   1      41.165  33.706  43.245  1.00  0.00     0.211 A 
ATOM     25  O   UNL A   1      42.827  32.169  43.445  1.00  0.00    -0.449 OA
ATOM     26  C   UNL A   1      40.162  34.410  42.593  1.00  0.00     0.168 A 
ATOM     27  O   UNL A   1      41.489  33.804  44.566  1.00  0.00    -0.449 OA
ATOM     28  C   UNL A   1      42.503  32.800  44.692  1.00  0.00     0.468 C 
BRANCH  21  29
ATOM     29  O   UNL A   1      42.491  31.617  40.490  1.00  0.00    -0.493 OA
ATOM     30  C   UNL A   1      43.902  31.802  40.452  1.00  0.00     0.278 C 
ENDBRANCH  21  29
BRANCH  26  31
ATOM     31  O   UNL A   1      39.405  35.392  43.157  1.00  0.00    -0.492 OA
ATOM     32  C   UNL A   1      38.929  35.213  44.484  1.00  0.00     0.278 C 
ENDBRANCH  26  31
ENDBRANCH  10  20
BRANCH  15  33
ATOM     33  C   UNL A   1      39.843  37.042  39.186  1.00  0.00     0.046 A 
ATOM     34  C   UNL A   1      41.208  37.301  39.319  1.00  0.00     0.029 A 
ATOM     35  C   UNL A   1      38.889  37.925  39.699  1.00  0.00     0.029 A 
ATOM     36  C   UNL A   1      41.630  38.393  40.071  1.00  0.00     0.041 A 
ATOM     37  C   UNL A   1      39.322  39.037  40.428  1.00  0.00     0.041 A 
ATOM     38  C   UNL A   1      40.685  39.245  40.629  1.00  0.00     0.123 A 
ATOM     39  F   UNL A   1      41.099  40.282  41.369  1.00  0.00    -0.207 F 
ENDBRANCH  15  33
ENDBRANCH   7   9
ENDBRANCH   6   7
ENDBRANCH   5   6
ENDBRANCH   4   5
ENDBRANCH   3   4
ENDBRANCH   2   3
ENDBRANCH   1   2
BRANCH   1  40
ATOM     40  O   UNL A   1      33.766  33.917  30.457  1.00  0.00    -0.376 OA
BRANCH  40  41
ATOM     41  C   UNL A   1      34.437  34.498  29.353  1.00  0.00     0.202 C 
BRANCH  41  42
ATOM     42  C   UNL A   1      34.493  33.909  27.943  1.00  0.00     0.261 C 
BRANCH  42  43
ATOM     43  O   UNL A   1      35.555  33.026  27.652  1.00  0.00    -0.460 OA
BRANCH  43  44
ATOM     44  C   UNL A   1      35.255  31.728  27.863  1.00  0.00     0.338 C 
ATOM     45  O   UNL A   1      34.268  31.127  27.470  1.00  0.00    -0.246 OA
BRANCH  44  46
ATOM     46  C   UNL A   1      36.281  31.147  28.722  1.00  0.00     0.060 A 
ATOM     47  C   UNL A   1      37.286  31.997  29.187  1.00  0.00     0.016 A 
ATOM     48  C   UNL A   1      36.397  29.751  28.754  1.00  0.00     0.016 A 
ATOM     49  C   UNL A   1      38.514  31.444  29.465  1.00  0.00     0.010 A 
ATOM     50  C   UNL A   1      37.627  29.205  29.013  1.00  0.00     0.010 A 
ATOM     51  C   UNL A   1      38.689  30.070  29.263  1.00  0.00    -0.014 A 
BRANCH  51  52
ATOM     52  C   UNL A   1      40.020  29.521  29.397  1.00  0.00     0.031 A 
ATOM     53  C   UNL A   1      40.380  29.282  30.810  1.00  0.00     0.074 A 
ATOM     54  C   UNL A   1      40.764  29.172  28.329  1.00  0.00     0.049 A 
ATOM     55  N   UNL A   1      41.230  29.939  31.527  1.00  0.00    -0.248 NA
ATOM     56  C   UNL A   1      39.536  28.351  31.580  1.00  0.00     0.031 C 
ATOM     57  C   UNL A   1      40.374  29.128  26.916  1.00  0.00     0.029 A 
ATOM     58  N   UNL A   1      42.034  28.688  28.299  1.00  0.00    -0.354 N 
ATOM     59  C   UNL A   1      41.215  29.312  32.768  1.00  0.00     0.074 A 
ATOM     60  C   UNL A   1      40.011  28.527  32.813  1.00  0.00     0.031 C 
ATOM     61  C   UNL A   1      41.300  28.427  26.215  1.00  0.00     0.029 A 
ATOM     62  C   UNL A   1      42.408  28.096  27.094  1.00  0.00     0.049 A 
ATOM     63  H   UNL A   1      42.642  28.748  29.071  1.00  0.00     0.167 HD
ATOM     64  C   UNL A   1      42.341  29.247  33.527  1.00  0.00     0.037 A 
ATOM     65  C   UNL A   1      43.523  27.343  26.891  1.00  0.00     0.037 A 
ATOM     66  C   UNL A   1      43.303  30.240  33.119  1.00  0.00     0.049 A 
ATOM     67  C   UNL A   1      44.463  27.666  28.000  1.00  0.00     0.074 A 
ATOM     68  C   UNL A   1      43.288  31.619  33.023  1.00  0.00     0.029 A 
ATOM     69  N   UNL A   1      44.360  29.825  32.346  1.00  0.00    -0.354 N 
ATOM     70  N   UNL A   1      45.037  28.829  28.146  1.00  0.00    -0.248 NA
ATOM     71  C   UNL A   1      44.377  26.856  29.206  1.00  0.00     0.031 C 
ATOM     72  C   UNL A   1      44.013  31.917  31.832  1.00  0.00     0.029 A 
ATOM     73  C   UNL A   1      44.494  30.716  31.310  1.00  0.00     0.049 A 
ATOM     74  H   UNL A   1      44.920  29.030  32.505  1.00  0.00     0.167 HD
ATOM     75  C   UNL A   1      44.996  29.077  29.510  1.00  0.00     0.074 A 
ATOM     76  C   UNL A   1      44.631  27.799  30.119  1.00  0.00     0.031 C 
ATOM     77  C   UNL A   1      44.974  30.353  29.995  1.00  0.00     0.037 A 
BRANCH  64  78
ATOM     78  C   UNL A   1      42.712  28.035  34.347  1.00  0.00     0.058 A 
ATOM     79  C   UNL A   1      42.871  28.169  35.739  1.00  0.00     0.135 A 
ATOM     80  C   UNL A   1      43.175  26.816  33.797  1.00  0.00     0.135 A 
ATOM     81  F   UNL A   1      42.487  29.294  36.365  1.00  0.00    -0.206 F 
ATOM     82  C   UNL A   1      43.493  27.192  36.516  1.00  0.00     0.059 A 
ATOM     83  C   UNL A   1      43.743  25.806  34.560  1.00  0.00     0.059 A 
ATOM     84  F   UNL A   1      43.195  26.580  32.480  1.00  0.00    -0.206 F 
ATOM     85  C   UNL A   1      43.931  26.016  35.913  1.00  0.00     0.060 A 
BRANCH  85  86
ATOM     86  S   UNL A   1      44.797  24.783  36.897  1.00  0.00     0.124 S 
ATOM     87  O   UNL A   1      44.236  25.022  38.221  1.00  0.00    -0.237 OA
ATOM     88  O   UNL A   1      44.394  23.543  36.242  1.00  0.00    -0.237 OA
ATOM     89  O   UNL A   1      46.201  25.146  36.728  1.00  0.00    -0.744 OA
ENDBRANCH  85  86
ENDBRANCH  64  78
BRANCH  65  90
ATOM     90  C   UNL A   1      43.687  26.105  26.074  1.00  0.00     0.058 A 
ATOM     91  C   UNL A   1      44.898  25.845  25.400  1.00  0.00     0.135 A 
ATOM     92  C   UNL A   1      42.806  25.014  26.200  1.00  0.00     0.135 A 
ATOM     93  F   UNL A   1      45.804  26.822  25.239  1.00  0.00    -0.206 F 
ATOM     94  C   UNL A   1      45.247  24.566  24.951  1.00  0.00     0.059 A 
ATOM     95  C   UNL A   1      43.129  23.732  25.752  1.00  0.00     0.059 A 
ATOM     96  F   UNL A   1      41.642  25.140  26.853  1.00  0.00    -0.206 F 
ATOM     97  C   UNL A   1      44.366  23.506  25.158  1.00  0.00     0.060 A 
BRANCH  97  98
ATOM     98  S   UNL A   1      44.898  21.818  24.778  1.00  0.00     0.124 S 
ATOM     99  O   UNL A   1      46.300  21.845  25.180  1.00  0.00    -0.237 OA
ATOM    100  O   UNL A   1      44.011  21.018  25.614  1.00  0.00    -0.237 OA
ATOM    101  O   UNL A   1      44.663  21.705  23.340  1.00  0.00    -0.744 OA
ENDBRANCH  97  98
ENDBRANCH  65  90
BRANCH  77 102
ATOM    102  C   UNL A   1      45.286  31.483  29.045  1.00  0.00     0.058 A 
ATOM    103  C   UNL A   1      46.581  31.893  28.674  1.00  0.00     0.135 A 
ATOM    104  C   UNL A   1      44.211  32.088  28.377  1.00  0.00     0.135 A 
ATOM    105  F   UNL A   1      47.666  31.295  29.187  1.00  0.00    -0.206 F 
ATOM    106  C   UNL A   1      46.791  32.891  27.718  1.00  0.00     0.059 A 
ATOM    107  C   UNL A   1      44.398  33.060  27.400  1.00  0.00     0.059 A 
ATOM    108  F   UNL A   1      42.952  31.700  28.642  1.00  0.00    -0.206 F 
ATOM    109  C   UNL A   1      45.692  33.470  27.086  1.00  0.00     0.060 A 
BRANCH 109 110
ATOM    110  S   UNL A   1      45.957  34.722  25.811  1.00  0.00     0.124 S 
ATOM    111  O   UNL A   1      47.398  34.935  25.884  1.00  0.00    -0.237 OA
ATOM    112  O   UNL A   1      45.475  34.054  24.606  1.00  0.00    -0.237 OA
ATOM    113  O   UNL A   1      45.137  35.846  26.259  1.00  0.00    -0.744 OA
ENDBRANCH 109 110
ENDBRANCH  77 102
ENDBRANCH  51  52
ENDBRANCH  44  46
ENDBRANCH  43  44
ENDBRANCH  42  43
ENDBRANCH  41  42
ENDBRANCH  40  41
ENDBRANCH   1  40
TORSDOF 24
ENDMDL
MODEL 3
REMARK VINA RESULT:      -9.0      8.250     16.850
REMARK SMILES COc1cc([C@@H]2CC(=O)Nc3c(C(=O)OCCOCCOCCOC(=O)c4ccc(-c5c6nc(c(-c7c(F)cc(S(=O)(=O)[O-])cc7F)c7ccc([nH]7)c(-c7c(F)cc(S(=O)(=O)[O-])cc7F)c7nc(c(-c8c(F)cc(S(=O)(=O)[O-])cc8F)c8ccc5[nH]8)C=C7)C=C6)cc4)cn(-c4ccc(F)cc4)c32)c(OC)c2c1OCO2
REMARK SMILES IDX 20 1 19 2 18 3 17 4 16 5 15 6 13 7 14 8 12 9 6 10 7 11
REMARK SMILES IDX 102 12 8 13 11 14 94 15 9 16 10 17 93 18 5 20 3 21 4 22
REMARK SMILES IDX 107 23 106 24 108 25 103 26 110 27 109 28 2 29 1 30 104 31
REMARK SMILES IDX 105 32 95 33 96 34 101 35 97 36 100 37 98 38 99 39 21 40
REMARK SMILES IDX 22 41 23 42 24 43 25 44 26 45 27 46 28 47 92 48 29 49 91 50
REMARK SMILES IDX 30 51 31 52 32 53 85 54 33 55 90 56 84 57 86 58 34 59 89 60
REMARK SMILES IDX 83 61 82 62 35 64 69 65 48 66 68 67 49 68 52 69 67 70 87 71
REMARK SMILES IDX 50 72 51 73 66 75 88 76 53 77 36 78 37 79 46 80 38 81 39 82
REMARK SMILES IDX 45 83 47 84 40 85 41 86 42 87 43 88 44 89 70 90 71 91 80 92
REMARK SMILES IDX 72 93 73 94 79 95 81 96 74 97 75 98 76 99 77 100 78 101
REMARK SMILES IDX 54 102 55 103 64 104 56 105 57 106 63 107 65 108 58 109
REMARK SMILES IDX 59 110 60 111 61 112 62 113
REMARK H PARENT 10 19 86 63 52 74
REMARK Flexibility Score: inf
ROOT
ATOM      1  C   UNL A   1      46.585  20.932  36.066  1.00  0.00     0.188 C 
ENDROOT
BRANCH   1   2
ATOM      2  C   UNL A   1      46.246  19.772  37.027  1.00  0.00     0.188 C 
BRANCH   2   3
ATOM      3  O   UNL A   1      47.259  19.078  37.735  1.00  0.00    -0.376 OA
BRANCH   3   4
ATOM      4  C   UNL A   1      47.317  19.067  39.151  1.00  0.00     0.202 C 
BRANCH   4   5
ATOM      5  C   UNL A   1      48.333  19.889  39.970  1.00  0.00     0.261 C 
BRANCH   5   6
ATOM      6  O   UNL A   1      48.165  19.882  41.390  1.00  0.00    -0.460 OA
BRANCH   6   7
ATOM      7  C   UNL A   1      48.644  18.785  42.029  1.00  0.00     0.341 C 
ATOM      8  O   UNL A   1      49.825  18.434  42.031  1.00  0.00    -0.246 OA
BRANCH   7   9
ATOM      9  C   UNL A   1      47.633  18.117  42.827  1.00  0.00     0.102 A 
ATOM     10  C   UNL A   1      44.199  17.169  43.712  1.00  0.00     0.082 C 
ATOM     11  C   UNL A   1      43.479  18.522  43.614  1.00  0.00     0.115 C 
ATOM     12  C   UNL A   1      45.684  17.384  43.681  1.00  0.00     0.055 A 
ATOM     13  C   UNL A   1      44.171  19.587  42.766  1.00  0.00     0.225 C 
ATOM     14  C   UNL A   1      46.282  18.459  43.065  1.00  0.00     0.078 A 
ATOM     15  N   UNL A   1      46.676  16.528  44.109  1.00  0.00    -0.317 N 
ATOM     16  O   UNL A   1      43.535  20.525  42.281  1.00  0.00    -0.275 OA
ATOM     17  N   UNL A   1      45.537  19.530  42.632  1.00  0.00    -0.324 N 
ATOM     18  C   UNL A   1      47.856  16.944  43.541  1.00  0.00     0.109 A 
ATOM     19  H   UNL A   1      46.002  20.288  42.210  1.00  0.00     0.170 HD
BRANCH  10  20
ATOM     20  C   UNL A   1      43.776  16.146  42.638  1.00  0.00     0.012 A 
ATOM     21  C   UNL A   1      43.140  15.887  40.276  1.00  0.00     0.165 A 
ATOM     22  C   UNL A   1      43.844  16.560  41.283  1.00  0.00     0.059 A 
ATOM     23  C   UNL A   1      42.425  14.761  40.637  1.00  0.00     0.211 A 
ATOM     24  C   UNL A   1      42.436  14.283  41.933  1.00  0.00     0.211 A 
ATOM     25  O   UNL A   1      41.643  13.994  39.823  1.00  0.00    -0.449 OA
ATOM     26  C   UNL A   1      43.125  14.929  42.950  1.00  0.00     0.168 A 
ATOM     27  O   UNL A   1      41.675  13.158  42.064  1.00  0.00    -0.449 OA
ATOM     28  C   UNL A   1      41.144  13.011  40.742  1.00  0.00     0.468 C 
BRANCH  21  29
ATOM     29  O   UNL A   1      43.210  16.459  39.038  1.00  0.00    -0.493 OA
ATOM     30  C   UNL A   1      44.519  16.742  38.557  1.00  0.00     0.278 C 
ENDBRANCH  21  29
BRANCH  26  31
ATOM     31  O   UNL A   1      43.231  14.476  44.230  1.00  0.00    -0.492 OA
ATOM     32  C   UNL A   1      42.987  13.101  44.492  1.00  0.00     0.278 C 
ENDBRANCH  26  31
ENDBRANCH  10  20
BRANCH  15  33
ATOM     33  C   UNL A   1      46.523  15.310  44.796  1.00  0.00     0.046 A 
ATOM     34  C   UNL A   1      46.218  15.342  46.157  1.00  0.00     0.029 A 
ATOM     35  C   UNL A   1      46.678  14.097  44.121  1.00  0.00     0.029 A 
ATOM     36  C   UNL A   1      46.180  14.155  46.881  1.00  0.00     0.041 A 
ATOM     37  C   UNL A   1      46.608  12.906  44.850  1.00  0.00     0.041 A 
ATOM     38  C   UNL A   1      46.386  12.947  46.225  1.00  0.00     0.123 A 
ATOM     39  F   UNL A   1      46.368  11.810  46.932  1.00  0.00    -0.207 F 
ENDBRANCH  15  33
ENDBRANCH   7   9
ENDBRANCH   6   7
ENDBRANCH   5   6
ENDBRANCH   4   5
ENDBRANCH   3   4
ENDBRANCH   2   3
ENDBRANCH   1   2
BRANCH   1  40
ATOM     40  O   UNL A   1      45.490  21.549  35.434  1.00  0.00    -0.376 OA
BRANCH  40  41
ATOM     41  C   UNL A   1      45.417  22.956  35.280  1.00  0.00     0.202 C 
BRANCH  41  42
ATOM     42  C   UNL A   1      44.265  23.839  35.758  1.00  0.00     0.261 C 
BRANCH  42  43
ATOM     43  O   UNL A   1      43.208  24.071  34.852  1.00  0.00    -0.460 OA
BRANCH  43  44
ATOM     44  C   UNL A   1      42.162  24.728  35.394  1.00  0.00     0.338 C 
ATOM     45  O   UNL A   1      41.100  24.249  35.759  1.00  0.00    -0.246 OA
BRANCH  44  46
ATOM     46  C   UNL A   1      42.466  26.155  35.410  1.00  0.00     0.060 A 
ATOM     47  C   UNL A   1      41.956  26.907  36.470  1.00  0.00     0.016 A 
ATOM     48  C   UNL A   1      42.944  26.738  34.229  1.00  0.00     0.016 A 
ATOM     49  C   UNL A   1      41.702  28.240  36.244  1.00  0.00     0.010 A 
ATOM     50  C   UNL A   1      42.671  28.062  34.001  1.00  0.00     0.010 A 
ATOM     51  C   UNL A   1      41.963  28.763  34.972  1.00  0.00    -0.014 A 
BRANCH  51  52
ATOM     52  C   UNL A   1      41.543  30.117  34.689  1.00  0.00     0.031 A 
ATOM     53  C   UNL A   1      40.682  30.190  33.490  1.00  0.00     0.074 A 
ATOM     54  C   UNL A   1      41.827  31.145  35.514  1.00  0.00     0.049 A 
ATOM     55  N   UNL A   1      40.982  30.682  32.335  1.00  0.00    -0.248 NA
ATOM     56  C   UNL A   1      39.421  29.427  33.510  1.00  0.00     0.031 C 
ATOM     57  C   UNL A   1      42.439  31.109  36.845  1.00  0.00     0.029 A 
ATOM     58  N   UNL A   1      41.536  32.464  35.359  1.00  0.00    -0.354 N 
ATOM     59  C   UNL A   1      39.833  30.528  31.567  1.00  0.00     0.074 A 
ATOM     60  C   UNL A   1      39.018  29.556  32.246  1.00  0.00     0.031 C 
ATOM     61  C   UNL A   1      42.255  32.304  37.458  1.00  0.00     0.029 A 
ATOM     62  C   UNL A   1      41.642  33.228  36.520  1.00  0.00     0.049 A 
ATOM     63  H   UNL A   1      41.270  32.850  34.494  1.00  0.00     0.167 HD
ATOM     64  C   UNL A   1      39.511  31.435  30.608  1.00  0.00     0.037 A 
ATOM     65  C   UNL A   1      41.188  34.501  36.678  1.00  0.00     0.037 A 
ATOM     66  C   UNL A   1      40.661  32.212  30.219  1.00  0.00     0.049 A 
ATOM     67  C   UNL A   1      41.017  35.065  35.310  1.00  0.00     0.074 A 
ATOM     68  C   UNL A   1      41.905  31.907  29.699  1.00  0.00     0.029 A 
ATOM     69  N   UNL A   1      40.772  33.484  30.727  1.00  0.00    -0.354 N 
ATOM     70  N   UNL A   1      42.009  35.310  34.499  1.00  0.00    -0.248 NA
ATOM     71  C   UNL A   1      39.719  34.892  34.674  1.00  0.00     0.031 C 
ATOM     72  C   UNL A   1      42.808  32.797  30.349  1.00  0.00     0.029 A 
ATOM     73  C   UNL A   1      42.063  33.645  31.168  1.00  0.00     0.049 A 
ATOM     74  H   UNL A   1      40.056  34.159  30.769  1.00  0.00     0.167 HD
ATOM     75  C   UNL A   1      41.559  34.903  33.252  1.00  0.00     0.074 A 
ATOM     76  C   UNL A   1      40.119  34.709  33.412  1.00  0.00     0.031 C 
ATOM     77  C   UNL A   1      42.430  34.482  32.289  1.00  0.00     0.037 A 
BRANCH  64  78
ATOM     78  C   UNL A   1      38.093  31.874  30.333  1.00  0.00     0.058 A 
ATOM     79  C   UNL A   1      37.553  31.691  29.046  1.00  0.00     0.135 A 
ATOM     80  C   UNL A   1      37.339  32.703  31.197  1.00  0.00     0.135 A 
ATOM     81  F   UNL A   1      38.197  30.942  28.136  1.00  0.00    -0.206 F 
ATOM     82  C   UNL A   1      36.384  32.327  28.631  1.00  0.00     0.059 A 
ATOM     83  C   UNL A   1      36.141  33.298  30.824  1.00  0.00     0.059 A 
ATOM     84  F   UNL A   1      37.769  33.063  32.412  1.00  0.00    -0.206 F 
ATOM     85  C   UNL A   1      35.690  33.135  29.528  1.00  0.00     0.060 A 
BRANCH  85  86
ATOM     86  S   UNL A   1      34.219  34.014  28.977  1.00  0.00     0.124 S 
ATOM     87  O   UNL A   1      33.585  33.015  28.127  1.00  0.00    -0.237 OA
ATOM     88  O   UNL A   1      33.551  34.299  30.242  1.00  0.00    -0.237 OA
ATOM     89  O   UNL A   1      34.765  35.179  28.288  1.00  0.00    -0.744 OA
ENDBRANCH  85  86
ENDBRANCH  64  78
BRANCH  65  90
ATOM     90  C   UNL A   1      40.525  35.124  37.860  1.00  0.00     0.058 A 
ATOM     91  C   UNL A   1      39.322  34.595  38.371  1.00  0.00     0.135 A 
ATOM     92  C   UNL A   1      41.207  36.024  38.701  1.00  0.00     0.135 A 
ATOM     93  F   UNL A   1      38.607  33.722  37.644  1.00  0.00    -0.206 F 
ATOM     94  C   UNL A   1      38.867  34.878  39.664  1.00  0.00     0.059 A 
ATOM     95  C   UNL A   1      40.768  36.328  39.990  1.00  0.00     0.059 A 
ATOM     96  F   UNL A   1      42.379  36.561  38.330  1.00  0.00    -0.206 F 
ATOM     97  C   UNL A   1      39.614  35.725  40.479  1.00  0.00     0.060 A 
BRANCH  97  98
ATOM     98  S   UNL A   1      39.151  35.925  42.218  1.00  0.00     0.124 S 
ATOM     99  O   UNL A   1      39.374  37.352  42.429  1.00  0.00    -0.237 OA
ATOM    100  O   UNL A   1      37.758  35.492  42.219  1.00  0.00    -0.237 OA
ATOM    101  O   UNL A   1      40.077  35.038  42.920  1.00  0.00    -0.744 OA
ENDBRANCH  97  98
ENDBRANCH  65  90
BRANCH  77 102
ATOM    102  C   UNL A   1      43.903  34.736  32.498  1.00  0.00     0.058 A 
ATOM    103  C   UNL A   1      44.771  33.899  33.224  1.00  0.00     0.135 A 
ATOM    104  C   UNL A   1      44.482  35.814  31.814  1.00  0.00     0.135 A 
ATOM    105  F   UNL A   1      44.317  32.789  33.824  1.00  0.00    -0.206 F 
ATOM    106  C   UNL A   1      46.145  34.153  33.302  1.00  0.00     0.059 A 
ATOM    107  C   UNL A   1      45.849  36.067  31.850  1.00  0.00     0.059 A 
ATOM    108  F   UNL A   1      43.717  36.616  31.054  1.00  0.00    -0.206 F 
ATOM    109  C   UNL A   1      46.674  35.241  32.610  1.00  0.00     0.060 A 
BRANCH 109 110
ATOM    110  S   UNL A   1      48.454  35.545  32.661  1.00  0.00     0.124 S 
ATOM    111  O   UNL A   1      48.560  36.859  32.037  1.00  0.00    -0.237 OA
ATOM    112  O   UNL A   1      48.743  35.496  34.091  1.00  0.00    -0.237 OA
ATOM    113  O   UNL A   1      49.012  34.439  31.885  1.00  0.00    -0.744 OA
ENDBRANCH 109 110
ENDBRANCH  77 102
ENDBRANCH  51  52
ENDBRANCH  44  46
ENDBRANCH  43  44
ENDBRANCH  42  43
ENDBRANCH  41  42
ENDBRANCH  40  41
ENDBRANCH   1  40
TORSDOF 24
ENDMDL
