MODEL 1
REMARK VINA RESULT:     -11.6      0.000      0.000
REMARK SMILES Cc1cc(N2CC[NH+]([C@@H](C(=O)OCCOCCOCCOC(=O)c3ccc(-c4c5nc(c(-c6c(F)cc(S(=O)(=O)[O-])cc6F)c6ccc([nH]6)c(-c6c(F)cc(S(=O)(=O)[O-])cc6F)c6nc(c(-c7c(F)cc(S(=O)(=O)[O-])cc7F)c7ccc4[nH]7)C=C6)C=C5)cc3)c3c[nH]c4ccccc34)CC2)nc2ccccc12
REMARK SMILES IDX 17 1 16 2 15 3 14 4 13 5 12 6 10 7 11 8 9 9 8 10 5 11 6 12
REMARK SMILES IDX 100 13 7 14 99 15 4 17 1 18 2 19 3 20 107 21 102 22 106 23
REMARK SMILES IDX 101 24 103 25 105 26 104 27 90 28 91 29 98 30 92 31 93 32
REMARK SMILES IDX 97 33 94 35 96 36 95 37 18 38 19 39 20 40 21 41 22 42 23 43
REMARK SMILES IDX 24 44 25 45 89 46 26 47 88 48 27 49 28 50 29 51 82 52 30 53
REMARK SMILES IDX 87 54 81 55 83 56 31 57 86 58 80 59 79 60 32 62 66 63 45 64
REMARK SMILES IDX 65 65 46 66 49 67 64 68 84 69 47 70 48 71 63 73 85 74 50 75
REMARK SMILES IDX 33 76 34 77 43 78 35 79 36 80 42 81 44 82 37 83 38 84 39 85
REMARK SMILES IDX 40 86 41 87 67 88 68 89 77 90 69 91 70 92 76 93 78 94 71 95
REMARK SMILES IDX 72 96 73 97 74 98 75 99 51 100 52 101 61 102 53 103 54 104
REMARK SMILES IDX 60 105 62 106 55 107 56 108 57 109 58 110 59 111
REMARK H PARENT 8 16 92 34 83 61 49 72
REMARK Flexibility Score: inf
ROOT
ATOM      1  C   UNL A   1      34.290  31.861  28.326  1.00  0.00     0.188 C 
ENDROOT
BRANCH   1   2
ATOM      2  C   UNL A   1      34.177  30.474  27.689  1.00  0.00     0.188 C 
BRANCH   2   3
ATOM      3  O   UNL A   1      33.086  30.280  26.801  1.00  0.00    -0.376 OA
BRANCH   3   4
ATOM      4  C   UNL A   1      32.065  29.381  27.221  1.00  0.00     0.202 C 
BRANCH   4   5
ATOM      5  C   UNL A   1      32.209  27.908  26.812  1.00  0.00     0.261 C 
BRANCH   5   6
ATOM      6  O   UNL A   1      33.077  27.743  25.679  1.00  0.00    -0.459 OA
BRANCH   6   7
ATOM      7  C   UNL A   1      32.952  26.633  24.912  1.00  0.00     0.370 C 
ATOM      8  O   UNL A   1      33.872  25.843  24.715  1.00  0.00    -0.245 OA
BRANCH   7   9
ATOM      9  C   UNL A   1      31.557  26.512  24.276  1.00  0.00     0.328 C 
BRANCH   9  10
ATOM     10  N   UNL A   1      30.842  25.159  24.460  1.00  0.00    -0.316 N 
ATOM     11  N   UNL A   1      32.066  22.428  25.085  1.00  0.00    -0.345 N 
ATOM     12  C   UNL A   1      31.920  22.974  23.717  1.00  0.00     0.179 C 
ATOM     13  C   UNL A   1      31.899  23.436  26.145  1.00  0.00     0.179 C 
ATOM     14  C   UNL A   1      30.829  24.051  23.518  1.00  0.00     0.285 C 
ATOM     15  C   UNL A   1      30.815  24.540  25.811  1.00  0.00     0.285 C 
ATOM     16  H   UNL A   1      30.029  25.716  24.197  1.00  0.00     0.349 HD
BRANCH  11  17
ATOM     17  C   UNL A   1      33.156  21.508  25.222  1.00  0.00     0.129 A 
ATOM     18  C   UNL A   1      33.864  17.854  24.496  1.00  0.00     0.045 C 
ATOM     19  C   UNL A   1      34.093  19.314  24.759  1.00  0.00    -0.038 A 
ATOM     20  C   UNL A   1      32.993  20.201  24.791  1.00  0.00     0.051 A 
ATOM     21  C   UNL A   1      35.403  19.797  24.967  1.00  0.00     0.003 A 
ATOM     22  C   UNL A   1      35.502  21.101  25.447  1.00  0.00     0.073 A 
ATOM     23  C   UNL A   1      36.589  19.048  24.693  1.00  0.00     0.010 A 
ATOM     24  N   UNL A   1      34.384  21.866  25.688  1.00  0.00    -0.231 NA
ATOM     25  C   UNL A   1      36.813  21.602  25.601  1.00  0.00     0.029 A 
ATOM     26  C   UNL A   1      37.861  19.613  24.779  1.00  0.00     0.001 A 
ATOM     27  C   UNL A   1      37.974  20.915  25.214  1.00  0.00     0.002 A 
ENDBRANCH  11  17
ENDBRANCH   9  10
BRANCH   9  28
ATOM     28  C   UNL A   1      31.030  27.703  23.288  1.00  0.00     0.046 A 
ATOM     29  C   UNL A   1      31.994  28.560  22.751  1.00  0.00     0.094 A 
ATOM     30  C   UNL A   1      29.881  28.621  23.059  1.00  0.00     0.009 A 
ATOM     31  N   UNL A   1      31.936  29.587  23.703  1.00  0.00    -0.361 N 
ATOM     32  C   UNL A   1      30.590  30.084  23.776  1.00  0.00     0.046 A 
ATOM     33  C   UNL A   1      28.133  28.742  22.651  1.00  0.00     0.011 A 
ATOM     34  H   UNL A   1      32.695  29.916  24.236  1.00  0.00     0.166 HD
ATOM     35  C   UNL A   1      29.394  31.632  24.251  1.00  0.00     0.026 A 
ATOM     36  C   UNL A   1      27.059  30.122  23.054  1.00  0.00     0.001 A 
ATOM     37  C   UNL A   1      27.641  31.544  23.857  1.00  0.00     0.002 A 
ENDBRANCH   9  28
ENDBRANCH   7   9
ENDBRANCH   6   7
ENDBRANCH   5   6
ENDBRANCH   4   5
ENDBRANCH   3   4
ENDBRANCH   2   3
ENDBRANCH   1   2
BRANCH   1  38
ATOM     38  O   UNL A   1      35.416  32.061  29.121  1.00  0.00    -0.376 OA
BRANCH  38  39
ATOM     39  C   UNL A   1      35.508  31.294  30.295  1.00  0.00     0.202 C 
BRANCH  39  40
ATOM     40  C   UNL A   1      35.681  31.876  31.696  1.00  0.00     0.261 C 
BRANCH  40  41
ATOM     41  O   UNL A   1      36.797  31.269  32.333  1.00  0.00    -0.460 OA
BRANCH  41  42
ATOM     42  C   UNL A   1      37.308  30.032  32.279  1.00  0.00     0.338 C 
ATOM     43  O   UNL A   1      36.843  28.983  32.661  1.00  0.00    -0.246 OA
BRANCH  42  44
ATOM     44  C   UNL A   1      38.572  30.287  31.550  1.00  0.00     0.060 A 
ATOM     45  C   UNL A   1      38.792  30.777  29.861  1.00  0.00     0.016 A 
ATOM     46  C   UNL A   1      40.016  29.718  32.442  1.00  0.00     0.016 A 
ATOM     47  C   UNL A   1      40.376  30.652  29.000  1.00  0.00     0.010 A 
ATOM     48  C   UNL A   1      41.782  29.607  31.487  1.00  0.00     0.010 A 
ATOM     49  C   UNL A   1      41.865  30.064  29.768  1.00  0.00    -0.014 A 
BRANCH  49  50
ATOM     50  C   UNL A   1      43.071  29.542  29.107  1.00  0.00     0.031 A 
ATOM     51  C   UNL A   1      44.121  30.503  28.640  1.00  0.00     0.074 A 
ATOM     52  C   UNL A   1      43.059  28.299  28.590  1.00  0.00     0.049 A 
ATOM     53  N   UNL A   1      45.344  30.270  28.255  1.00  0.00    -0.248 NA
ATOM     54  C   UNL A   1      43.737  31.917  28.525  1.00  0.00     0.031 C 
ATOM     55  C   UNL A   1      41.923  27.374  28.604  1.00  0.00     0.029 A 
ATOM     56  N   UNL A   1      44.025  27.606  27.912  1.00  0.00    -0.354 N 
ATOM     57  C   UNL A   1      45.886  31.517  27.969  1.00  0.00     0.074 A 
ATOM     58  C   UNL A   1      44.837  32.490  28.076  1.00  0.00     0.031 C 
ATOM     59  C   UNL A   1      42.273  26.218  28.023  1.00  0.00     0.029 A 
ATOM     60  C   UNL A   1      43.669  26.306  27.636  1.00  0.00     0.049 A 
ATOM     61  H   UNL A   1      44.888  27.999  27.648  1.00  0.00     0.167 HD
ATOM     62  C   UNL A   1      47.172  31.817  27.692  1.00  0.00     0.037 A 
ATOM     63  C   UNL A   1      44.422  25.285  27.191  1.00  0.00     0.037 A 
ATOM     64  C   UNL A   1      48.130  30.784  27.428  1.00  0.00     0.049 A 
ATOM     65  C   UNL A   1      45.881  25.563  26.991  1.00  0.00     0.074 A 
ATOM     66  C   UNL A   1      49.488  30.879  27.219  1.00  0.00     0.029 A 
ATOM     67  N   UNL A   1      47.785  29.444  27.280  1.00  0.00    -0.354 N 
ATOM     68  N   UNL A   1      46.513  26.715  27.039  1.00  0.00    -0.248 NA
ATOM     69  C   UNL A   1      46.741  24.408  26.729  1.00  0.00     0.031 C 
ATOM     70  C   UNL A   1      49.952  29.602  26.875  1.00  0.00     0.029 A 
ATOM     71  C   UNL A   1      48.899  28.699  26.958  1.00  0.00     0.049 A 
ATOM     72  H   UNL A   1      46.877  29.080  27.389  1.00  0.00     0.167 HD
ATOM     73  C   UNL A   1      47.855  26.425  26.841  1.00  0.00     0.074 A 
ATOM     74  C   UNL A   1      47.936  24.981  26.693  1.00  0.00     0.031 C 
ATOM     75  C   UNL A   1      48.923  27.264  26.790  1.00  0.00     0.037 A 
BRANCH  62  76
ATOM     76  C   UNL A   1      47.557  33.273  27.691  1.00  0.00     0.058 A 
ATOM     77  C   UNL A   1      48.195  33.855  28.807  1.00  0.00     0.135 A 
ATOM     78  C   UNL A   1      47.286  34.109  26.599  1.00  0.00     0.135 A 
ATOM     79  F   UNL A   1      48.474  33.115  29.893  1.00  0.00    -0.206 F 
ATOM     80  C   UNL A   1      48.498  35.212  28.859  1.00  0.00     0.059 A 
ATOM     81  C   UNL A   1      47.617  35.464  26.614  1.00  0.00     0.059 A 
ATOM     82  F   UNL A   1      46.671  33.623  25.510  1.00  0.00    -0.206 F 
ATOM     83  C   UNL A   1      48.205  36.009  27.755  1.00  0.00     0.060 A 
BRANCH  83  84
ATOM     84  S   UNL A   1      48.605  37.766  27.842  1.00  0.00     0.124 S 
ATOM     85  O   UNL A   1      48.609  38.137  26.430  1.00  0.00    -0.237 OA
ATOM     86  O   UNL A   1      47.498  38.297  28.632  1.00  0.00    -0.237 OA
ATOM     87  O   UNL A   1      49.908  37.787  28.499  1.00  0.00    -0.744 OA
ENDBRANCH  83  84
ENDBRANCH  62  76
BRANCH  63  88
ATOM     88  C   UNL A   1      43.825  23.926  27.081  1.00  0.00     0.058 A 
ATOM     89  C   UNL A   1      43.648  23.112  28.211  1.00  0.00     0.135 A 
ATOM     90  C   UNL A   1      43.326  23.455  25.858  1.00  0.00     0.135 A 
ATOM     91  F   UNL A   1      44.088  23.522  29.411  1.00  0.00    -0.206 F 
ATOM     92  C   UNL A   1      43.017  21.872  28.129  1.00  0.00     0.059 A 
ATOM     93  C   UNL A   1      42.668  22.232  25.755  1.00  0.00     0.059 A 
ATOM     94  F   UNL A   1      43.432  24.212  24.754  1.00  0.00    -0.206 F 
ATOM     95  C   UNL A   1      42.524  21.444  26.895  1.00  0.00     0.060 A 
BRANCH  95  96
ATOM     96  S   UNL A   1      41.652  19.864  26.812  1.00  0.00     0.124 S 
ATOM     97  O   UNL A   1      41.806  19.514  25.405  1.00  0.00    -0.237 OA
ATOM     98  O   UNL A   1      42.406  19.050  27.759  1.00  0.00    -0.237 OA
ATOM     99  O   UNL A   1      40.295  20.205  27.231  1.00  0.00    -0.744 OA
ENDBRANCH  95  96
ENDBRANCH  63  88
BRANCH  75 100
ATOM    100  C   UNL A   1      50.265  26.626  26.596  1.00  0.00     0.058 A 
ATOM    101  C   UNL A   1      51.065  26.230  27.677  1.00  0.00     0.135 A 
ATOM    102  C   UNL A   1      50.743  26.392  25.296  1.00  0.00     0.135 A 
ATOM    103  F   UNL A   1      50.649  26.430  28.938  1.00  0.00    -0.206 F 
ATOM    104  C   UNL A   1      52.326  25.685  27.477  1.00  0.00     0.059 A 
ATOM    105  C   UNL A   1      51.977  25.799  25.074  1.00  0.00     0.059 A 
ATOM    106  F   UNL A   1      50.005  26.733  24.227  1.00  0.00    -0.206 F 
ATOM    107  C   UNL A   1      52.771  25.476  26.171  1.00  0.00     0.060 A 
BRANCH 107 108
ATOM    108  S   UNL A   1      54.415  24.780  25.926  1.00  0.00     0.124 S 
ATOM    109  O   UNL A   1      54.997  24.932  27.255  1.00  0.00    -0.237 OA
ATOM    110  O   UNL A   1      54.112  23.412  25.517  1.00  0.00    -0.237 OA
ATOM    111  O   UNL A   1      54.991  25.627  24.886  1.00  0.00    -0.744 OA
ENDBRANCH 107 108
ENDBRANCH  75 100
ENDBRANCH  49  50
ENDBRANCH  42  44
ENDBRANCH  41  42
ENDBRANCH  40  41
ENDBRANCH  39  40
ENDBRANCH  38  39
ENDBRANCH   1  38
TORSDOF 23
ENDMDL
MODEL 2
REMARK VINA RESULT:     -10.8      5.334     10.392
REMARK SMILES Cc1cc(N2CC[NH+]([C@@H](C(=O)OCCOCCOCCOC(=O)c3ccc(-c4c5nc(c(-c6c(F)cc(S(=O)(=O)[O-])cc6F)c6ccc([nH]6)c(-c6c(F)cc(S(=O)(=O)[O-])cc6F)c6nc(c(-c7c(F)cc(S(=O)(=O)[O-])cc7F)c7ccc4[nH]7)C=C6)C=C5)cc3)c3c[nH]c4ccccc34)CC2)nc2ccccc12
REMARK SMILES IDX 17 1 16 2 15 3 14 4 13 5 12 6 10 7 11 8 9 9 8 10 5 11 6 12
REMARK SMILES IDX 100 13 7 14 99 15 4 17 1 18 2 19 3 20 107 21 102 22 106 23
REMARK SMILES IDX 101 24 103 25 105 26 104 27 90 28 91 29 98 30 92 31 93 32
REMARK SMILES IDX 97 33 94 35 96 36 95 37 18 38 19 39 20 40 21 41 22 42 23 43
REMARK SMILES IDX 24 44 25 45 89 46 26 47 88 48 27 49 28 50 29 51 82 52 30 53
REMARK SMILES IDX 87 54 81 55 83 56 31 57 86 58 80 59 79 60 32 62 66 63 45 64
REMARK SMILES IDX 65 65 46 66 49 67 64 68 84 69 47 70 48 71 63 73 85 74 50 75
REMARK SMILES IDX 33 76 34 77 43 78 35 79 36 80 42 81 44 82 37 83 38 84 39 85
REMARK SMILES IDX 40 86 41 87 67 88 68 89 77 90 69 91 70 92 76 93 78 94 71 95
REMARK SMILES IDX 72 96 73 97 74 98 75 99 51 100 52 101 61 102 53 103 54 104
REMARK SMILES IDX 60 105 62 106 55 107 56 108 57 109 58 110 59 111
REMARK H PARENT 8 16 92 34 83 61 49 72
REMARK Flexibility Score: inf
ROOT
ATOM      1  C   UNL A   1      31.876  29.184  26.074  1.00  0.00     0.188 C 
ENDROOT
BRANCH   1   2
ATOM      2  C   UNL A   1      31.930  28.208  27.251  1.00  0.00     0.188 C 
BRANCH   2   3
ATOM      3  O   UNL A   1      31.036  27.107  27.193  1.00  0.00    -0.376 OA
BRANCH   3   4
ATOM      4  C   UNL A   1      31.216  26.186  26.121  1.00  0.00     0.202 C 
BRANCH   4   5
ATOM      5  C   UNL A   1      31.224  24.691  26.469  1.00  0.00     0.261 C 
BRANCH   5   6
ATOM      6  O   UNL A   1      30.510  23.905  25.500  1.00  0.00    -0.459 OA
BRANCH   6   7
ATOM      7  C   UNL A   1      31.054  23.724  24.272  1.00  0.00     0.370 C 
ATOM      8  O   UNL A   1      30.529  24.126  23.237  1.00  0.00    -0.245 OA
BRANCH   7   9
ATOM      9  C   UNL A   1      32.360  22.912  24.322  1.00  0.00     0.328 C 
BRANCH   9  10
ATOM     10  N   UNL A   1      33.591  23.567  23.664  1.00  0.00    -0.316 N 
ATOM     11  N   UNL A   1      36.493  23.561  24.625  1.00  0.00    -0.345 N 
ATOM     12  C   UNL A   1      35.481  24.550  25.061  1.00  0.00     0.179 C 
ATOM     13  C   UNL A   1      35.919  22.377  23.967  1.00  0.00     0.179 C 
ATOM     14  C   UNL A   1      34.279  24.766  24.114  1.00  0.00     0.285 C 
ATOM     15  C   UNL A   1      34.643  22.693  23.083  1.00  0.00     0.285 C 
ATOM     16  H   UNL A   1      32.881  23.916  23.020  1.00  0.00     0.349 HD
BRANCH  11  17
ATOM     17  C   UNL A   1      37.528  23.336  25.590  1.00  0.00     0.129 A 
ATOM     18  C   UNL A   1      40.069  20.645  26.418  1.00  0.00     0.045 C 
ATOM     19  C   UNL A   1      39.403  21.988  26.349  1.00  0.00    -0.038 A 
ATOM     20  C   UNL A   1      38.272  22.169  25.521  1.00  0.00     0.051 A 
ATOM     21  C   UNL A   1      39.910  23.068  27.106  1.00  0.00     0.003 A 
ATOM     22  C   UNL A   1      39.095  24.195  27.179  1.00  0.00     0.073 A 
ATOM     23  C   UNL A   1      41.183  23.066  27.755  1.00  0.00     0.010 A 
ATOM     24  N   UNL A   1      37.879  24.248  26.538  1.00  0.00    -0.231 NA
ATOM     25  C   UNL A   1      39.628  25.294  27.889  1.00  0.00     0.029 A 
ATOM     26  C   UNL A   1      41.704  24.202  28.371  1.00  0.00     0.001 A 
ATOM     27  C   UNL A   1      40.927  25.340  28.417  1.00  0.00     0.002 A 
ENDBRANCH  11  17
ENDBRANCH   9  10
BRANCH   9  28
ATOM     28  C   UNL A   1      32.314  21.366  24.851  1.00  0.00     0.046 A 
ATOM     29  C   UNL A   1      32.623  21.143  26.195  1.00  0.00     0.094 A 
ATOM     30  C   UNL A   1      32.559  19.965  24.413  1.00  0.00     0.009 A 
ATOM     31  N   UNL A   1      33.989  20.855  26.066  1.00  0.00    -0.361 N 
ATOM     32  C   UNL A   1      34.154  19.748  25.166  1.00  0.00     0.046 A 
ATOM     33  C   UNL A   1      32.057  18.648  23.296  1.00  0.00     0.011 A 
ATOM     34  H   UNL A   1      34.719  21.335  26.521  1.00  0.00     0.166 HD
ATOM     35  C   UNL A   1      35.323  18.217  24.582  1.00  0.00     0.026 A 
ATOM     36  C   UNL A   1      33.083  17.269  22.778  1.00  0.00     0.001 A 
ATOM     37  C   UNL A   1      34.696  17.041  23.373  1.00  0.00     0.002 A 
ENDBRANCH   9  28
ENDBRANCH   7   9
ENDBRANCH   6   7
ENDBRANCH   5   6
ENDBRANCH   4   5
ENDBRANCH   3   4
ENDBRANCH   2   3
ENDBRANCH   1   2
BRANCH   1  38
ATOM     38  O   UNL A   1      32.865  30.164  26.067  1.00  0.00    -0.376 OA
BRANCH  38  39
ATOM     39  C   UNL A   1      32.900  31.037  27.168  1.00  0.00     0.202 C 
BRANCH  39  40
ATOM     40  C   UNL A   1      34.178  31.499  27.865  1.00  0.00     0.261 C 
BRANCH  40  41
ATOM     41  O   UNL A   1      34.007  32.822  28.353  1.00  0.00    -0.460 OA
BRANCH  41  42
ATOM     42  C   UNL A   1      34.270  33.391  29.537  1.00  0.00     0.338 C 
ATOM     43  O   UNL A   1      33.652  34.234  30.146  1.00  0.00    -0.246 OA
BRANCH  42  44
ATOM     44  C   UNL A   1      35.487  32.649  29.937  1.00  0.00     0.060 A 
ATOM     45  C   UNL A   1      35.633  31.300  31.075  1.00  0.00     0.016 A 
ATOM     46  C   UNL A   1      36.997  33.457  29.412  1.00  0.00     0.016 A 
ATOM     47  C   UNL A   1      37.213  30.768  31.773  1.00  0.00     0.010 A 
ATOM     48  C   UNL A   1      38.755  32.844  30.171  1.00  0.00     0.010 A 
ATOM     49  C   UNL A   1      38.768  31.519  31.360  1.00  0.00    -0.014 A 
BRANCH  49  50
ATOM     50  C   UNL A   1      40.023  31.467  32.127  1.00  0.00     0.031 A 
ATOM     51  C   UNL A   1      41.042  30.424  31.788  1.00  0.00     0.074 A 
ATOM     52  C   UNL A   1      40.091  32.068  33.330  1.00  0.00     0.049 A 
ATOM     53  N   UNL A   1      42.289  30.334  32.157  1.00  0.00    -0.248 NA
ATOM     54  C   UNL A   1      40.595  29.285  30.974  1.00  0.00     0.031 C 
ATOM     55  C   UNL A   1      39.000  32.789  33.992  1.00  0.00     0.029 A 
ATOM     56  N   UNL A   1      41.114  32.137  34.235  1.00  0.00    -0.354 N 
ATOM     57  C   UNL A   1      42.781  29.198  31.526  1.00  0.00     0.074 A 
ATOM     58  C   UNL A   1      41.683  28.545  30.873  1.00  0.00     0.031 C 
ATOM     59  C   UNL A   1      39.428  33.278  35.165  1.00  0.00     0.029 A 
ATOM     60  C   UNL A   1      40.832  32.943  35.314  1.00  0.00     0.049 A 
ATOM     61  H   UNL A   1      41.967  31.658  34.126  1.00  0.00     0.167 HD
ATOM     62  C   UNL A   1      44.061  28.775  31.461  1.00  0.00     0.037 A 
ATOM     63  C   UNL A   1      41.650  33.414  36.272  1.00  0.00     0.037 A 
ATOM     64  C   UNL A   1      45.077  29.372  32.277  1.00  0.00     0.049 A 
ATOM     65  C   UNL A   1      43.101  33.057  36.153  1.00  0.00     0.074 A 
ATOM     66  C   UNL A   1      46.436  29.149  32.290  1.00  0.00     0.029 A 
ATOM     67  N   UNL A   1      44.803  30.292  33.285  1.00  0.00    -0.354 N 
ATOM     68  N   UNL A   1      43.674  32.211  35.326  1.00  0.00    -0.248 NA
ATOM     69  C   UNL A   1      44.025  33.748  37.053  1.00  0.00     0.031 C 
ATOM     70  C   UNL A   1      46.974  29.883  33.356  1.00  0.00     0.029 A 
ATOM     71  C   UNL A   1      45.963  30.631  33.947  1.00  0.00     0.049 A 
ATOM     72  H   UNL A   1      43.909  30.649  33.495  1.00  0.00     0.167 HD
ATOM     73  C   UNL A   1      45.035  32.285  35.584  1.00  0.00     0.074 A 
ATOM     74  C   UNL A   1      45.191  33.278  36.633  1.00  0.00     0.031 C 
ATOM     75  C   UNL A   1      46.062  31.606  35.009  1.00  0.00     0.037 A 
BRANCH  62  76
ATOM     76  C   UNL A   1      44.375  27.670  30.487  1.00  0.00     0.058 A 
ATOM     77  C   UNL A   1      44.407  26.322  30.905  1.00  0.00     0.135 A 
ATOM     78  C   UNL A   1      44.665  27.932  29.141  1.00  0.00     0.135 A 
ATOM     79  F   UNL A   1      44.152  26.001  32.184  1.00  0.00    -0.206 F 
ATOM     80  C   UNL A   1      44.763  25.291  30.042  1.00  0.00     0.059 A 
ATOM     81  C   UNL A   1      44.986  26.908  28.248  1.00  0.00     0.059 A 
ATOM     82  F   UNL A   1      44.664  29.192  28.680  1.00  0.00    -0.206 F 
ATOM     83  C   UNL A   1      45.050  25.596  28.713  1.00  0.00     0.060 A 
BRANCH  83  84
ATOM     84  S   UNL A   1      45.511  24.244  27.610  1.00  0.00     0.124 S 
ATOM     85  O   UNL A   1      44.791  24.601  26.391  1.00  0.00    -0.237 OA
ATOM     86  O   UNL A   1      46.963  24.376  27.548  1.00  0.00    -0.237 OA
ATOM     87  O   UNL A   1      45.020  23.057  28.302  1.00  0.00    -0.744 OA
ENDBRANCH  83  84
ENDBRANCH  62  76
BRANCH  63  88
ATOM     88  C   UNL A   1      41.124  34.376  37.278  1.00  0.00     0.058 A 
ATOM     89  C   UNL A   1      41.068  35.753  37.015  1.00  0.00     0.135 A 
ATOM     90  C   UNL A   1      40.571  33.925  38.487  1.00  0.00     0.135 A 
ATOM     91  F   UNL A   1      41.563  36.238  35.865  1.00  0.00    -0.206 F 
ATOM     92  C   UNL A   1      40.503  36.651  37.919  1.00  0.00     0.059 A 
ATOM     93  C   UNL A   1      39.978  34.797  39.394  1.00  0.00     0.059 A 
ATOM     94  F   UNL A   1      40.561  32.612  38.771  1.00  0.00    -0.206 F 
ATOM     95  C   UNL A   1      39.954  36.160  39.104  1.00  0.00     0.060 A 
BRANCH  95  96
ATOM     96  S   UNL A   1      39.168  37.325  40.241  1.00  0.00     0.124 S 
ATOM     97  O   UNL A   1      38.370  36.433  41.074  1.00  0.00    -0.237 OA
ATOM     98  O   UNL A   1      40.320  37.944  40.888  1.00  0.00    -0.237 OA
ATOM     99  O   UNL A   1      38.409  38.203  39.353  1.00  0.00    -0.744 OA
ENDBRANCH  95  96
ENDBRANCH  63  88
BRANCH  75 100
ATOM    100  C   UNL A   1      47.440  31.946  35.491  1.00  0.00     0.058 A 
ATOM    101  C   UNL A   1      48.032  31.287  36.579  1.00  0.00     0.135 A 
ATOM    102  C   UNL A   1      48.183  32.939  34.832  1.00  0.00     0.135 A 
ATOM    103  F   UNL A   1      47.363  30.329  37.238  1.00  0.00    -0.206 F 
ATOM    104  C   UNL A   1      49.290  31.650  37.041  1.00  0.00     0.059 A 
ATOM    105  C   UNL A   1      49.464  33.279  35.244  1.00  0.00     0.059 A 
ATOM    106  F   UNL A   1      47.669  33.583  33.772  1.00  0.00    -0.206 F 
ATOM    107  C   UNL A   1      49.995  32.648  36.366  1.00  0.00     0.060 A 
BRANCH 107 108
ATOM    108  S   UNL A   1      51.621  33.117  36.983  1.00  0.00     0.124 S 
ATOM    109  O   UNL A   1      52.484  32.179  36.274  1.00  0.00    -0.237 OA
ATOM    110  O   UNL A   1      51.719  34.512  36.565  1.00  0.00    -0.237 OA
ATOM    111  O   UNL A   1      51.511  32.905  38.423  1.00  0.00    -0.744 OA
ENDBRANCH 107 108
ENDBRANCH  75 100
ENDBRANCH  49  50
ENDBRANCH  42  44
ENDBRANCH  41  42
ENDBRANCH  40  41
ENDBRANCH  39  40
ENDBRANCH  38  39
ENDBRANCH   1  38
TORSDOF 23
ENDMDL
MODEL 3
REMARK VINA RESULT:     -10.6      5.780      8.989
REMARK SMILES Cc1cc(N2CC[NH+]([C@@H](C(=O)OCCOCCOCCOC(=O)c3ccc(-c4c5nc(c(-c6c(F)cc(S(=O)(=O)[O-])cc6F)c6ccc([nH]6)c(-c6c(F)cc(S(=O)(=O)[O-])cc6F)c6nc(c(-c7c(F)cc(S(=O)(=O)[O-])cc7F)c7ccc4[nH]7)C=C6)C=C5)cc3)c3c[nH]c4ccccc34)CC2)nc2ccccc12
REMARK SMILES IDX 17 1 16 2 15 3 14 4 13 5 12 6 10 7 11 8 9 9 8 10 5 11 6 12
REMARK SMILES IDX 100 13 7 14 99 15 4 17 1 18 2 19 3 20 107 21 102 22 106 23
REMARK SMILES IDX 101 24 103 25 105 26 104 27 90 28 91 29 98 30 92 31 93 32
REMARK SMILES IDX 97 33 94 35 96 36 95 37 18 38 19 39 20 40 21 41 22 42 23 43
REMARK SMILES IDX 24 44 25 45 89 46 26 47 88 48 27 49 28 50 29 51 82 52 30 53
REMARK SMILES IDX 87 54 81 55 83 56 31 57 86 58 80 59 79 60 32 62 66 63 45 64
REMARK SMILES IDX 65 65 46 66 49 67 64 68 84 69 47 70 48 71 63 73 85 74 50 75
REMARK SMILES IDX 33 76 34 77 43 78 35 79 36 80 42 81 44 82 37 83 38 84 39 85
REMARK SMILES IDX 40 86 41 87 67 88 68 89 77 90 69 91 70 92 76 93 78 94 71 95
REMARK SMILES IDX 72 96 73 97 74 98 75 99 51 100 52 101 61 102 53 103 54 104
REMARK SMILES IDX 60 105 62 106 55 107 56 108 57 109 58 110 59 111
REMARK H PARENT 8 16 92 34 83 61 49 72
REMARK Flexibility Score: inf
ROOT
ATOM      1  C   UNL A   1      31.853  29.518  26.302  1.00  0.00     0.188 C 
ENDROOT
BRANCH   1   2
ATOM      2  C   UNL A   1      32.022  28.367  27.296  1.00  0.00     0.188 C 
BRANCH   2   3
ATOM      3  O   UNL A   1      31.021  27.360  27.264  1.00  0.00    -0.376 OA
BRANCH   3   4
ATOM      4  C   UNL A   1      31.056  26.450  26.169  1.00  0.00     0.202 C 
BRANCH   4   5
ATOM      5  C   UNL A   1      31.387  24.984  26.480  1.00  0.00     0.261 C 
BRANCH   5   6
ATOM      6  O   UNL A   1      30.627  24.073  25.668  1.00  0.00    -0.459 OA
BRANCH   6   7
ATOM      7  C   UNL A   1      31.050  23.808  24.408  1.00  0.00     0.370 C 
ATOM      8  O   UNL A   1      30.445  24.177  23.404  1.00  0.00    -0.245 OA
BRANCH   7   9
ATOM      9  C   UNL A   1      32.326  22.950  24.384  1.00  0.00     0.328 C 
BRANCH   9  10
ATOM     10  N   UNL A   1      33.557  23.585  23.708  1.00  0.00    -0.316 N 
ATOM     11  N   UNL A   1      36.470  23.548  24.637  1.00  0.00    -0.345 N 
ATOM     12  C   UNL A   1      35.475  24.552  25.079  1.00  0.00     0.179 C 
ATOM     13  C   UNL A   1      35.873  22.367  23.992  1.00  0.00     0.179 C 
ATOM     14  C   UNL A   1      34.265  24.778  24.144  1.00  0.00     0.285 C 
ATOM     15  C   UNL A   1      34.592  22.694  23.121  1.00  0.00     0.285 C 
ATOM     16  H   UNL A   1      32.845  23.939  23.070  1.00  0.00     0.349 HD
BRANCH  11  17
ATOM     17  C   UNL A   1      37.513  23.316  25.592  1.00  0.00     0.129 A 
ATOM     18  C   UNL A   1      40.060  20.618  26.378  1.00  0.00     0.045 C 
ATOM     19  C   UNL A   1      39.394  21.962  26.326  1.00  0.00    -0.038 A 
ATOM     20  C   UNL A   1      38.256  22.149  25.508  1.00  0.00     0.051 A 
ATOM     21  C   UNL A   1      39.906  23.035  27.087  1.00  0.00     0.003 A 
ATOM     22  C   UNL A   1      39.092  24.162  27.175  1.00  0.00     0.073 A 
ATOM     23  C   UNL A   1      41.185  23.028  27.725  1.00  0.00     0.010 A 
ATOM     24  N   UNL A   1      37.871  24.220  26.544  1.00  0.00    -0.231 NA
ATOM     25  C   UNL A   1      39.631  25.255  27.890  1.00  0.00     0.029 A 
ATOM     26  C   UNL A   1      41.711  24.160  28.347  1.00  0.00     0.001 A 
ATOM     27  C   UNL A   1      40.934  25.297  28.408  1.00  0.00     0.002 A 
ENDBRANCH  11  17
ENDBRANCH   9  10
BRANCH   9  28
ATOM     28  C   UNL A   1      32.241  21.388  24.858  1.00  0.00     0.046 A 
ATOM     29  C   UNL A   1      32.499  21.115  26.204  1.00  0.00     0.094 A 
ATOM     30  C   UNL A   1      32.483  19.999  24.382  1.00  0.00     0.009 A 
ATOM     31  N   UNL A   1      33.865  20.812  26.113  1.00  0.00    -0.361 N 
ATOM     32  C   UNL A   1      34.047  19.734  25.181  1.00  0.00     0.046 A 
ATOM     33  C   UNL A   1      32.004  18.727  23.203  1.00  0.00     0.011 A 
ATOM     34  H   UNL A   1      34.585  21.266  26.608  1.00  0.00     0.166 HD
ATOM     35  C   UNL A   1      35.216  18.207  24.587  1.00  0.00     0.026 A 
ATOM     36  C   UNL A   1      33.030  17.352  22.675  1.00  0.00     0.001 A 
ATOM     37  C   UNL A   1      34.617  17.081  23.318  1.00  0.00     0.002 A 
ENDBRANCH   9  28
ENDBRANCH   7   9
ENDBRANCH   6   7
ENDBRANCH   5   6
ENDBRANCH   4   5
ENDBRANCH   3   4
ENDBRANCH   2   3
ENDBRANCH   1   2
BRANCH   1  38
ATOM     38  O   UNL A   1      32.905  30.429  26.260  1.00  0.00    -0.376 OA
BRANCH  38  39
ATOM     39  C   UNL A   1      32.989  31.349  27.319  1.00  0.00     0.202 C 
BRANCH  39  40
ATOM     40  C   UNL A   1      34.297  31.860  27.918  1.00  0.00     0.261 C 
BRANCH  40  41
ATOM     41  O   UNL A   1      34.107  33.167  28.441  1.00  0.00    -0.460 OA
BRANCH  41  42
ATOM     42  C   UNL A   1      34.530  33.765  29.562  1.00  0.00     0.338 C 
ATOM     43  O   UNL A   1      34.104  34.747  30.125  1.00  0.00    -0.246 OA
BRANCH  42  44
ATOM     44  C   UNL A   1      35.617  32.847  29.972  1.00  0.00     0.060 A 
ATOM     45  C   UNL A   1      35.558  31.521  31.146  1.00  0.00     0.016 A 
ATOM     46  C   UNL A   1      37.230  33.387  29.413  1.00  0.00     0.016 A 
ATOM     47  C   UNL A   1      37.041  30.760  31.845  1.00  0.00     0.010 A 
ATOM     48  C   UNL A   1      38.876  32.519  30.174  1.00  0.00     0.010 A 
ATOM     49  C   UNL A   1      38.691  31.240  31.399  1.00  0.00    -0.014 A 
BRANCH  49  50
ATOM     50  C   UNL A   1      39.930  31.006  32.157  1.00  0.00     0.031 A 
ATOM     51  C   UNL A   1      40.208  31.834  33.373  1.00  0.00     0.074 A 
ATOM     52  C   UNL A   1      40.954  30.357  31.571  1.00  0.00     0.049 A 
ATOM     53  N   UNL A   1      41.095  31.654  34.312  1.00  0.00    -0.248 NA
ATOM     54  C   UNL A   1      39.433  33.071  33.538  1.00  0.00     0.031 C 
ATOM     55  C   UNL A   1      40.974  29.847  30.197  1.00  0.00     0.029 A 
ATOM     56  N   UNL A   1      42.200  30.047  32.044  1.00  0.00    -0.354 N 
ATOM     57  C   UNL A   1      40.893  32.691  35.216  1.00  0.00     0.074 A 
ATOM     58  C   UNL A   1      39.913  33.578  34.658  1.00  0.00     0.031 C 
ATOM     59  C   UNL A   1      42.142  29.235  29.958  1.00  0.00     0.029 A 
ATOM     60  C   UNL A   1      42.934  29.273  31.175  1.00  0.00     0.049 A 
ATOM     61  H   UNL A   1      42.537  30.347  32.918  1.00  0.00     0.167 HD
ATOM     62  C   UNL A   1      41.450  32.848  36.434  1.00  0.00     0.037 A 
ATOM     63  C   UNL A   1      44.085  28.608  31.378  1.00  0.00     0.037 A 
ATOM     64  C   UNL A   1      42.546  32.025  36.855  1.00  0.00     0.049 A 
ATOM     65  C   UNL A   1      44.661  28.669  32.760  1.00  0.00     0.074 A 
ATOM     66  C   UNL A   1      43.182  31.968  38.075  1.00  0.00     0.029 A 
ATOM     67  N   UNL A   1      43.206  31.141  36.007  1.00  0.00    -0.354 N 
ATOM     68  N   UNL A   1      44.284  29.413  33.776  1.00  0.00    -0.248 NA
ATOM     69  C   UNL A   1      45.779  27.769  33.047  1.00  0.00     0.031 C 
ATOM     70  C   UNL A   1      44.273  31.098  37.941  1.00  0.00     0.029 A 
ATOM     71  C   UNL A   1      44.261  30.548  36.666  1.00  0.00     0.049 A 
ATOM     72  H   UNL A   1      42.956  30.965  35.071  1.00  0.00     0.167 HD
ATOM     73  C   UNL A   1      45.101  29.054  34.839  1.00  0.00     0.074 A 
ATOM     74  C   UNL A   1      45.978  28.009  34.336  1.00  0.00     0.031 C 
ATOM     75  C   UNL A   1      45.126  29.533  36.111  1.00  0.00     0.037 A 
BRANCH  62  76
ATOM     76  C   UNL A   1      40.861  33.903  37.333  1.00  0.00     0.058 A 
ATOM     77  C   UNL A   1      41.479  35.165  37.471  1.00  0.00     0.135 A 
ATOM     78  C   UNL A   1      39.697  33.674  38.077  1.00  0.00     0.135 A 
ATOM     79  F   UNL A   1      42.606  35.447  36.797  1.00  0.00    -0.206 F 
ATOM     80  C   UNL A   1      40.995  36.130  38.347  1.00  0.00     0.059 A 
ATOM     81  C   UNL A   1      39.171  34.644  38.932  1.00  0.00     0.059 A 
ATOM     82  F   UNL A   1      39.065  32.493  38.002  1.00  0.00    -0.206 F 
ATOM     83  C   UNL A   1      39.838  35.860  39.074  1.00  0.00     0.060 A 
BRANCH  83  84
ATOM     84  S   UNL A   1      39.227  37.125  40.206  1.00  0.00     0.124 S 
ATOM     85  O   UNL A   1      38.426  36.329  41.131  1.00  0.00    -0.237 OA
ATOM     86  O   UNL A   1      40.463  37.676  40.752  1.00  0.00    -0.237 OA
ATOM     87  O   UNL A   1      38.472  38.023  39.338  1.00  0.00    -0.744 OA
ENDBRANCH  83  84
ENDBRANCH  62  76
BRANCH  63  88
ATOM     88  C   UNL A   1      44.628  27.735  30.303  1.00  0.00     0.058 A 
ATOM     89  C   UNL A   1      44.363  26.357  30.276  1.00  0.00     0.135 A 
ATOM     90  C   UNL A   1      45.340  28.278  29.222  1.00  0.00     0.135 A 
ATOM     91  F   UNL A   1      43.668  25.787  31.274  1.00  0.00    -0.206 F 
ATOM     92  C   UNL A   1      44.799  25.545  29.230  1.00  0.00     0.059 A 
ATOM     93  C   UNL A   1      45.763  27.494  28.153  1.00  0.00     0.059 A 
ATOM     94  F   UNL A   1      45.585  29.598  29.177  1.00  0.00    -0.206 F 
ATOM     95  C   UNL A   1      45.494  26.127  28.168  1.00  0.00     0.060 A 
BRANCH  95  96
ATOM     96  S   UNL A   1      46.001  25.077  26.788  1.00  0.00     0.124 S 
ATOM     97  O   UNL A   1      44.717  24.741  26.185  1.00  0.00    -0.237 OA
ATOM     98  O   UNL A   1      46.852  25.977  26.017  1.00  0.00    -0.237 OA
ATOM     99  O   UNL A   1      46.697  23.973  27.442  1.00  0.00    -0.744 OA
ENDBRANCH  95  96
ENDBRANCH  63  88
BRANCH  75 100
ATOM    100  C   UNL A   1      46.117  28.902  37.042  1.00  0.00     0.058 A 
ATOM    101  C   UNL A   1      47.435  29.366  37.153  1.00  0.00     0.135 A 
ATOM    102  C   UNL A   1      45.722  27.822  37.850  1.00  0.00     0.135 A 
ATOM    103  F   UNL A   1      47.857  30.397  36.403  1.00  0.00    -0.206 F 
ATOM    104  C   UNL A   1      48.351  28.738  37.985  1.00  0.00     0.059 A 
ATOM    105  C   UNL A   1      46.607  27.215  38.729  1.00  0.00     0.059 A 
ATOM    106  F   UNL A   1      44.464  27.356  37.797  1.00  0.00    -0.206 F 
ATOM    107  C   UNL A   1      47.925  27.662  38.767  1.00  0.00     0.060 A 
BRANCH 107 108
ATOM    108  S   UNL A   1      49.127  26.848  39.834  1.00  0.00     0.124 S 
ATOM    109  O   UNL A   1      49.795  25.956  38.893  1.00  0.00    -0.237 OA
ATOM    110  O   UNL A   1      49.922  27.973  40.318  1.00  0.00    -0.237 OA
ATOM    111  O   UNL A   1      48.299  26.193  40.841  1.00  0.00    -0.744 OA
ENDBRANCH 107 108
ENDBRANCH  75 100
ENDBRANCH  49  50
ENDBRANCH  42  44
ENDBRANCH  41  42
ENDBRANCH  40  41
ENDBRANCH  39  40
ENDBRANCH  38  39
ENDBRANCH   1  38
TORSDOF 23
ENDMDL
