MODEL 1
REMARK VINA RESULT:     -10.1      0.000      0.000
REMARK SMILES CCN(Cc1ccccn1)c1nc(C)cc(C)c1C(=O)OCCOCCOCCOC(=O)c1ccc(-c2c3nc(c(-c4c(F)cc(S(=O)(=O)[O-])cc4F)c4ccc([nH]4)c(-c4c(F)cc(S(=O)(=O)[O-])cc4F)c4nc(c(-c5c(F)cc(S(=O)(=O)[O-])cc5F)c5ccc2[nH]5)C=C4)C=C3)cc1
REMARK SMILES IDX 25 1 24 2 23 3 22 4 21 5 19 6 20 7 18 8 11 9 12 10 13 11
REMARK SMILES IDX 16 12 14 13 15 14 17 15 3 16 2 17 1 18 4 19 5 20 6 21 10 22
REMARK SMILES IDX 7 23 9 24 8 25 26 26 27 27 28 28 29 29 30 30 31 31 32 32
REMARK SMILES IDX 33 33 34 34 98 35 35 36 97 37 36 38 37 39 38 40 91 41 39 42
REMARK SMILES IDX 96 43 90 44 92 45 40 46 95 47 89 48 88 49 41 51 75 52 54 53
REMARK SMILES IDX 74 54 55 55 58 56 73 57 93 58 56 59 57 60 72 62 94 63 59 64
REMARK SMILES IDX 42 65 43 66 52 67 44 68 45 69 51 70 53 71 46 72 47 73 48 74
REMARK SMILES IDX 49 75 50 76 76 77 77 78 86 79 78 80 79 81 85 82 87 83 80 84
REMARK SMILES IDX 81 85 82 86 83 87 84 88 60 89 61 90 70 91 62 92 63 93 69 94
REMARK SMILES IDX 71 95 64 96 65 97 66 98 67 99 68 100
REMARK H PARENT 92 50 58 61
REMARK Flexibility Score: inf
ROOT
ATOM      1  C   UNL A   1      34.225  22.393  25.237  1.00  0.00     0.188 C 
ENDROOT
BRANCH   1   2
ATOM      2  O   UNL A   1      33.461  22.171  24.057  1.00  0.00    -0.376 OA
BRANCH   2   3
ATOM      3  C   UNL A   1      32.074  22.464  24.182  1.00  0.00     0.202 C 
BRANCH   3   4
ATOM      4  C   UNL A   1      31.851  23.700  25.051  1.00  0.00     0.261 C 
BRANCH   4   5
ATOM      5  O   UNL A   1      30.704  24.447  24.607  1.00  0.00    -0.460 OA
BRANCH   5   6
ATOM      6  C   UNL A   1      30.378  25.582  25.258  1.00  0.00     0.342 C 
ATOM      7  O   UNL A   1      30.199  25.670  26.472  1.00  0.00    -0.246 OA
BRANCH   6   8
ATOM      8  C   UNL A   1      30.256  26.685  24.275  1.00  0.00     0.105 A 
ATOM      9  C   UNL A   1      31.390  27.427  23.897  1.00  0.00     0.144 A 
ATOM     10  N   UNL A   1      31.224  28.582  23.214  1.00  0.00    -0.235 NA
ATOM     11  C   UNL A   1      30.019  28.958  22.748  1.00  0.00     0.040 A 
ATOM     12  C   UNL A   1      28.974  27.084  23.801  1.00  0.00    -0.031 A 
ATOM     13  C   UNL A   1      29.995  30.196  21.909  1.00  0.00     0.067 C 
ATOM     14  C   UNL A   1      28.882  28.215  22.984  1.00  0.00     0.028 A 
ATOM     15  C   UNL A   1      27.698  26.345  24.104  1.00  0.00     0.045 C 
BRANCH   9  16
ATOM     16  N   UNL A   1      32.708  27.032  24.113  1.00  0.00    -0.350 N 
BRANCH  16  17
ATOM     17  C   UNL A   1      33.676  27.233  23.037  1.00  0.00     0.115 C 
ATOM     18  C   UNL A   1      33.547  26.137  21.988  1.00  0.00     0.027 C 
ENDBRANCH  16  17
BRANCH  16  19
ATOM     19  C   UNL A   1      33.249  27.215  25.475  1.00  0.00     0.174 C 
BRANCH  19  20
ATOM     20  C   UNL A   1      33.242  28.624  26.091  1.00  0.00     0.060 A 
ATOM     21  C   UNL A   1      34.440  29.078  26.650  1.00  0.00     0.026 A 
ATOM     22  N   UNL A   1      32.110  29.379  26.130  1.00  0.00    -0.259 NA
ATOM     23  C   UNL A   1      34.460  30.284  27.342  1.00  0.00     0.004 A 
ATOM     24  C   UNL A   1      32.152  30.531  26.838  1.00  0.00     0.111 A 
ATOM     25  C   UNL A   1      33.286  31.014  27.465  1.00  0.00     0.020 A 
ENDBRANCH  19  20
ENDBRANCH  16  19
ENDBRANCH   9  16
ENDBRANCH   6   8
ENDBRANCH   5   6
ENDBRANCH   4   5
ENDBRANCH   3   4
ENDBRANCH   2   3
ENDBRANCH   1   2
BRANCH   1  26
ATOM     26  C   UNL A   1      35.722  22.081  25.068  1.00  0.00     0.188 C 
BRANCH  26  27
ATOM     27  O   UNL A   1      36.648  22.388  26.105  1.00  0.00    -0.376 OA
BRANCH  27  28
ATOM     28  C   UNL A   1      37.798  23.154  25.795  1.00  0.00     0.202 C 
BRANCH  28  29
ATOM     29  C   UNL A   1      39.160  22.550  26.153  1.00  0.00     0.261 C 
BRANCH  29  30
ATOM     30  O   UNL A   1      39.786  23.079  27.336  1.00  0.00    -0.460 OA
BRANCH  30  31
ATOM     31  C   UNL A   1      40.799  23.953  27.118  1.00  0.00     0.338 C 
ATOM     32  O   UNL A   1      41.752  23.793  26.369  1.00  0.00    -0.246 OA
BRANCH  31  33
ATOM     33  C   UNL A   1      40.561  25.224  27.841  1.00  0.00     0.060 A 
ATOM     34  C   UNL A   1      41.627  26.123  27.983  1.00  0.00     0.016 A 
ATOM     35  C   UNL A   1      39.341  25.484  28.472  1.00  0.00     0.016 A 
ATOM     36  C   UNL A   1      41.492  27.256  28.794  1.00  0.00     0.010 A 
ATOM     37  C   UNL A   1      39.216  26.608  29.300  1.00  0.00     0.010 A 
ATOM     38  C   UNL A   1      40.301  27.480  29.498  1.00  0.00    -0.014 A 
BRANCH  38  39
ATOM     39  C   UNL A   1      40.242  28.523  30.561  1.00  0.00     0.031 A 
ATOM     40  C   UNL A   1      41.161  28.409  31.750  1.00  0.00     0.074 A 
ATOM     41  C   UNL A   1      39.386  29.558  30.484  1.00  0.00     0.049 A 
ATOM     42  N   UNL A   1      41.250  29.176  32.807  1.00  0.00    -0.248 NA
ATOM     43  C   UNL A   1      42.094  27.273  31.749  1.00  0.00     0.031 C 
ATOM     44  C   UNL A   1      38.453  29.797  29.389  1.00  0.00     0.029 A 
ATOM     45  N   UNL A   1      39.156  30.596  31.355  1.00  0.00    -0.354 N 
ATOM     46  C   UNL A   1      42.242  28.613  33.602  1.00  0.00     0.074 A 
ATOM     47  C   UNL A   1      42.705  27.425  32.915  1.00  0.00     0.031 C 
ATOM     48  C   UNL A   1      37.752  30.914  29.647  1.00  0.00     0.029 A 
ATOM     49  C   UNL A   1      38.155  31.446  30.948  1.00  0.00     0.049 A 
ATOM     50  H   UNL A   1      39.661  30.720  32.192  1.00  0.00     0.167 HD
ATOM     51  C   UNL A   1      42.726  29.044  34.792  1.00  0.00     0.037 A 
ATOM     52  C   UNL A   1      37.607  32.514  31.563  1.00  0.00     0.037 A 
ATOM     53  C   UNL A   1      42.256  30.218  35.485  1.00  0.00     0.049 A 
ATOM     54  C   UNL A   1      38.118  32.944  32.916  1.00  0.00     0.074 A 
ATOM     55  C   UNL A   1      42.704  30.742  36.686  1.00  0.00     0.029 A 
ATOM     56  N   UNL A   1      41.225  31.038  35.052  1.00  0.00    -0.354 N 
ATOM     57  N   UNL A   1      39.083  32.425  33.638  1.00  0.00    -0.248 NA
ATOM     58  C   UNL A   1      37.464  34.105  33.538  1.00  0.00     0.031 C 
ATOM     59  C   UNL A   1      41.907  31.848  37.006  1.00  0.00     0.029 A 
ATOM     60  C   UNL A   1      41.002  32.048  35.976  1.00  0.00     0.049 A 
ATOM     61  H   UNL A   1      40.725  30.920  34.213  1.00  0.00     0.167 HD
ATOM     62  C   UNL A   1      39.167  33.209  34.785  1.00  0.00     0.074 A 
ATOM     63  C   UNL A   1      38.163  34.245  34.657  1.00  0.00     0.031 C 
ATOM     64  C   UNL A   1      40.004  33.082  35.845  1.00  0.00     0.037 A 
BRANCH  51  65
ATOM     65  C   UNL A   1      43.804  28.218  35.439  1.00  0.00     0.058 A 
ATOM     66  C   UNL A   1      45.160  28.571  35.353  1.00  0.00     0.135 A 
ATOM     67  C   UNL A   1      43.474  27.064  36.168  1.00  0.00     0.135 A 
ATOM     68  F   UNL A   1      45.532  29.657  34.657  1.00  0.00    -0.206 F 
ATOM     69  C   UNL A   1      46.154  27.789  35.933  1.00  0.00     0.059 A 
ATOM     70  C   UNL A   1      44.449  26.282  36.781  1.00  0.00     0.059 A 
ATOM     71  F   UNL A   1      42.193  26.681  36.286  1.00  0.00    -0.206 F 
ATOM     72  C   UNL A   1      45.787  26.643  36.641  1.00  0.00     0.060 A 
BRANCH  72  73
ATOM     73  S   UNL A   1      47.089  25.629  37.373  1.00  0.00     0.124 S 
ATOM     74  O   UNL A   1      48.011  26.649  37.864  1.00  0.00    -0.237 OA
ATOM     75  O   UNL A   1      46.366  24.885  38.399  1.00  0.00    -0.237 OA
ATOM     76  O   UNL A   1      47.573  24.833  36.250  1.00  0.00    -0.744 OA
ENDBRANCH  72  73
ENDBRANCH  51  65
BRANCH  52  77
ATOM     77  C   UNL A   1      36.493  33.252  30.909  1.00  0.00     0.058 A 
ATOM     78  C   UNL A   1      36.744  34.213  29.918  1.00  0.00     0.135 A 
ATOM     79  C   UNL A   1      35.156  33.006  31.257  1.00  0.00     0.135 A 
ATOM     80  F   UNL A   1      38.006  34.498  29.562  1.00  0.00    -0.206 F 
ATOM     81  C   UNL A   1      35.710  34.907  29.299  1.00  0.00     0.059 A 
ATOM     82  C   UNL A   1      34.103  33.668  30.633  1.00  0.00     0.059 A 
ATOM     83  F   UNL A   1      34.862  32.094  32.196  1.00  0.00    -0.206 F 
ATOM     84  C   UNL A   1      34.391  34.622  29.658  1.00  0.00     0.060 A 
BRANCH  84  85
ATOM     85  S   UNL A   1      33.055  35.476  28.793  1.00  0.00     0.124 S 
ATOM     86  O   UNL A   1      32.407  34.374  28.090  1.00  0.00    -0.237 OA
ATOM     87  O   UNL A   1      32.302  36.058  29.899  1.00  0.00    -0.237 OA
ATOM     88  O   UNL A   1      33.760  36.436  27.950  1.00  0.00    -0.744 OA
ENDBRANCH  84  85
ENDBRANCH  52  77
BRANCH  64  89
ATOM     89  C   UNL A   1      39.907  34.107  36.945  1.00  0.00     0.058 A 
ATOM     90  C   UNL A   1      40.515  35.368  36.841  1.00  0.00     0.135 A 
ATOM     91  C   UNL A   1      39.144  33.845  38.094  1.00  0.00     0.135 A 
ATOM     92  F   UNL A   1      41.262  35.672  35.767  1.00  0.00    -0.206 F 
ATOM     93  C   UNL A   1      40.387  36.324  37.846  1.00  0.00     0.059 A 
ATOM     94  C   UNL A   1      38.979  34.794  39.098  1.00  0.00     0.059 A 
ATOM     95  F   UNL A   1      38.531  32.659  38.243  1.00  0.00    -0.206 F 
ATOM     96  C   UNL A   1      39.614  36.029  38.970  1.00  0.00     0.060 A 
BRANCH  96  97
ATOM     97  S   UNL A   1      39.426  37.289  40.250  1.00  0.00     0.124 S 
ATOM     98  O   UNL A   1      38.636  38.300  39.555  1.00  0.00    -0.237 OA
ATOM     99  O   UNL A   1      38.733  36.560  41.308  1.00  0.00    -0.237 OA
ATOM    100  O   UNL A   1      40.802  37.669  40.557  1.00  0.00    -0.744 OA
ENDBRANCH  96  97
ENDBRANCH  64  89
ENDBRANCH  38  39
ENDBRANCH  31  33
ENDBRANCH  30  31
ENDBRANCH  29  30
ENDBRANCH  28  29
ENDBRANCH  27  28
ENDBRANCH  26  27
ENDBRANCH   1  26
TORSDOF 24
ENDMDL
MODEL 2
REMARK VINA RESULT:     -10.1      1.418      2.873
REMARK SMILES CCN(Cc1ccccn1)c1nc(C)cc(C)c1C(=O)OCCOCCOCCOC(=O)c1ccc(-c2c3nc(c(-c4c(F)cc(S(=O)(=O)[O-])cc4F)c4ccc([nH]4)c(-c4c(F)cc(S(=O)(=O)[O-])cc4F)c4nc(c(-c5c(F)cc(S(=O)(=O)[O-])cc5F)c5ccc2[nH]5)C=C4)C=C3)cc1
REMARK SMILES IDX 25 1 24 2 23 3 22 4 21 5 19 6 20 7 18 8 11 9 12 10 13 11
REMARK SMILES IDX 16 12 14 13 15 14 17 15 3 16 2 17 1 18 4 19 5 20 6 21 10 22
REMARK SMILES IDX 7 23 9 24 8 25 26 26 27 27 28 28 29 29 30 30 31 31 32 32
REMARK SMILES IDX 33 33 34 34 98 35 35 36 97 37 36 38 37 39 38 40 91 41 39 42
REMARK SMILES IDX 96 43 90 44 92 45 40 46 95 47 89 48 88 49 41 51 75 52 54 53
REMARK SMILES IDX 74 54 55 55 58 56 73 57 93 58 56 59 57 60 72 62 94 63 59 64
REMARK SMILES IDX 42 65 43 66 52 67 44 68 45 69 51 70 53 71 46 72 47 73 48 74
REMARK SMILES IDX 49 75 50 76 76 77 77 78 86 79 78 80 79 81 85 82 87 83 80 84
REMARK SMILES IDX 81 85 82 86 83 87 84 88 60 89 61 90 70 91 62 92 63 93 69 94
REMARK SMILES IDX 71 95 64 96 65 97 66 98 67 99 68 100
REMARK H PARENT 92 50 58 61
REMARK Flexibility Score: inf
ROOT
ATOM      1  C   UNL A   1      37.604  23.771  26.692  1.00  0.00     0.188 C 
ENDROOT
BRANCH   1   2
ATOM      2  O   UNL A   1      36.496  23.743  25.797  1.00  0.00    -0.376 OA
BRANCH   2   3
ATOM      3  C   UNL A   1      36.760  23.124  24.543  1.00  0.00     0.202 C 
BRANCH   3   4
ATOM      4  C   UNL A   1      35.792  23.621  23.473  1.00  0.00     0.261 C 
BRANCH   4   5
ATOM      5  O   UNL A   1      34.618  24.204  24.065  1.00  0.00    -0.460 OA
BRANCH   5   6
ATOM      6  C   UNL A   1      33.462  24.182  23.370  1.00  0.00     0.342 C 
ATOM      7  O   UNL A   1      33.349  24.485  22.183  1.00  0.00    -0.246 OA
BRANCH   6   8
ATOM      8  C   UNL A   1      32.364  23.755  24.270  1.00  0.00     0.105 A 
ATOM      9  C   UNL A   1      31.560  24.715  24.912  1.00  0.00     0.144 A 
ATOM     10  N   UNL A   1      30.748  24.326  25.920  1.00  0.00    -0.235 NA
ATOM     11  C   UNL A   1      30.567  23.027  26.218  1.00  0.00     0.040 A 
ATOM     12  C   UNL A   1      32.192  22.378  24.590  1.00  0.00    -0.031 A 
ATOM     13  C   UNL A   1      29.554  22.729  27.278  1.00  0.00     0.067 C 
ATOM     14  C   UNL A   1      31.238  22.025  25.549  1.00  0.00     0.028 A 
ATOM     15  C   UNL A   1      32.963  21.261  23.938  1.00  0.00     0.045 C 
BRANCH   9  16
ATOM     16  N   UNL A   1      31.477  26.056  24.547  1.00  0.00    -0.350 N 
BRANCH  16  17
ATOM     17  C   UNL A   1      30.893  26.386  23.250  1.00  0.00     0.115 C 
ATOM     18  C   UNL A   1      31.775  27.377  22.501  1.00  0.00     0.027 C 
ENDBRANCH  16  17
BRANCH  16  19
ATOM     19  C   UNL A   1      31.187  27.028  25.622  1.00  0.00     0.174 C 
BRANCH  19  20
ATOM     20  C   UNL A   1      32.257  28.072  25.982  1.00  0.00     0.060 A 
ATOM     21  C   UNL A   1      33.501  27.588  26.396  1.00  0.00     0.026 A 
ATOM     22  N   UNL A   1      31.993  29.407  25.942  1.00  0.00    -0.259 NA
ATOM     23  C   UNL A   1      34.462  28.478  26.866  1.00  0.00     0.004 A 
ATOM     24  C   UNL A   1      32.933  30.245  26.436  1.00  0.00     0.111 A 
ATOM     25  C   UNL A   1      34.164  29.832  26.915  1.00  0.00     0.020 A 
ENDBRANCH  19  20
ENDBRANCH  16  19
ENDBRANCH   9  16
ENDBRANCH   6   8
ENDBRANCH   5   6
ENDBRANCH   4   5
ENDBRANCH   3   4
ENDBRANCH   2   3
ENDBRANCH   1   2
BRANCH   1  26
ATOM     26  C   UNL A   1      38.844  23.035  26.156  1.00  0.00     0.188 C 
BRANCH  26  27
ATOM     27  O   UNL A   1      39.593  22.167  27.001  1.00  0.00    -0.376 OA
BRANCH  27  28
ATOM     28  C   UNL A   1      40.652  21.410  26.444  1.00  0.00     0.202 C 
BRANCH  28  29
ATOM     29  C   UNL A   1      41.801  22.186  25.791  1.00  0.00     0.261 C 
BRANCH  29  30
ATOM     30  O   UNL A   1      42.494  23.112  26.647  1.00  0.00    -0.460 OA
BRANCH  30  31
ATOM     31  C   UNL A   1      42.715  24.341  26.118  1.00  0.00     0.338 C 
ATOM     32  O   UNL A   1      43.214  24.587  25.029  1.00  0.00    -0.246 OA
BRANCH  31  33
ATOM     33  C   UNL A   1      42.167  25.398  26.999  1.00  0.00     0.060 A 
ATOM     34  C   UNL A   1      42.708  26.688  26.913  1.00  0.00     0.016 A 
ATOM     35  C   UNL A   1      41.213  25.107  27.977  1.00  0.00     0.016 A 
ATOM     36  C   UNL A   1      42.335  27.674  27.835  1.00  0.00     0.010 A 
ATOM     37  C   UNL A   1      40.857  26.090  28.911  1.00  0.00     0.010 A 
ATOM     38  C   UNL A   1      41.444  27.367  28.872  1.00  0.00    -0.014 A 
BRANCH  38  39
ATOM     39  C   UNL A   1      41.251  28.318  30.001  1.00  0.00     0.031 A 
ATOM     40  C   UNL A   1      42.147  28.213  31.208  1.00  0.00     0.074 A 
ATOM     41  C   UNL A   1      40.293  29.263  29.970  1.00  0.00     0.049 A 
ATOM     42  N   UNL A   1      42.130  28.906  32.319  1.00  0.00    -0.248 NA
ATOM     43  C   UNL A   1      43.193  27.181  31.157  1.00  0.00     0.031 C 
ATOM     44  C   UNL A   1      39.367  29.484  28.865  1.00  0.00     0.029 A 
ATOM     45  N   UNL A   1      39.935  30.206  30.904  1.00  0.00    -0.354 N 
ATOM     46  C   UNL A   1      43.155  28.391  33.103  1.00  0.00     0.074 A 
ATOM     47  C   UNL A   1      43.757  27.310  32.351  1.00  0.00     0.031 C 
ATOM     48  C   UNL A   1      38.547  30.502  29.178  1.00  0.00     0.029 A 
ATOM     49  C   UNL A   1      38.861  30.976  30.526  1.00  0.00     0.049 A 
ATOM     50  H   UNL A   1      40.403  30.320  31.763  1.00  0.00     0.167 HD
ATOM     51  C   UNL A   1      43.562  28.782  34.335  1.00  0.00     0.037 A 
ATOM     52  C   UNL A   1      38.190  31.936  31.196  1.00  0.00     0.037 A 
ATOM     53  C   UNL A   1      42.956  29.848  35.093  1.00  0.00     0.049 A 
ATOM     54  C   UNL A   1      38.620  32.315  32.591  1.00  0.00     0.074 A 
ATOM     55  C   UNL A   1      43.317  30.327  36.341  1.00  0.00     0.029 A 
ATOM     56  N   UNL A   1      41.856  30.588  34.686  1.00  0.00    -0.354 N 
ATOM     57  N   UNL A   1      39.616  31.847  33.305  1.00  0.00    -0.248 NA
ATOM     58  C   UNL A   1      37.834  33.355  33.271  1.00  0.00     0.031 C 
ATOM     59  C   UNL A   1      42.402  31.319  36.713  1.00  0.00     0.029 A 
ATOM     60  C   UNL A   1      41.507  31.499  35.671  1.00  0.00     0.049 A 
ATOM     61  H   UNL A   1      41.391  30.480  33.826  1.00  0.00     0.167 HD
ATOM     62  C   UNL A   1      39.590  32.550  34.506  1.00  0.00     0.074 A 
ATOM     63  C   UNL A   1      38.487  33.484  34.419  1.00  0.00     0.031 C 
ATOM     64  C   UNL A   1      40.410  32.433  35.580  1.00  0.00     0.037 A 
BRANCH  51  65
ATOM     65  C   UNL A   1      44.705  28.026  34.957  1.00  0.00     0.058 A 
ATOM     66  C   UNL A   1      44.497  26.861  35.714  1.00  0.00     0.135 A 
ATOM     67  C   UNL A   1      46.027  28.464  34.782  1.00  0.00     0.135 A 
ATOM     68  F   UNL A   1      43.252  26.405  35.923  1.00  0.00    -0.206 F 
ATOM     69  C   UNL A   1      45.556  26.180  36.307  1.00  0.00     0.059 A 
ATOM     70  C   UNL A   1      47.104  27.782  35.342  1.00  0.00     0.059 A 
ATOM     71  F   UNL A   1      46.284  29.570  34.066  1.00  0.00    -0.206 F 
ATOM     72  C   UNL A   1      46.856  26.652  36.118  1.00  0.00     0.060 A 
BRANCH  72  73
ATOM     73  S   UNL A   1      48.217  25.769  36.908  1.00  0.00     0.124 S 
ATOM     74  O   UNL A   1      47.615  24.459  37.144  1.00  0.00    -0.237 OA
ATOM     75  O   UNL A   1      49.255  25.812  35.883  1.00  0.00    -0.237 OA
ATOM     76  O   UNL A   1      48.488  26.559  38.104  1.00  0.00    -0.744 OA
ENDBRANCH  72  73
ENDBRANCH  51  65
BRANCH  52  77
ATOM     77  C   UNL A   1      37.020  32.601  30.559  1.00  0.00     0.058 A 
ATOM     78  C   UNL A   1      35.710  32.198  30.853  1.00  0.00     0.135 A 
ATOM     79  C   UNL A   1      37.192  33.656  29.651  1.00  0.00     0.135 A 
ATOM     80  F   UNL A   1      35.493  31.182  31.702  1.00  0.00    -0.206 F 
ATOM     81  C   UNL A   1      34.610  32.814  30.265  1.00  0.00     0.059 A 
ATOM     82  C   UNL A   1      36.107  34.306  29.070  1.00  0.00     0.059 A 
ATOM     83  F   UNL A   1      38.426  34.082  29.339  1.00  0.00    -0.206 F 
ATOM     84  C   UNL A   1      34.819  33.873  29.380  1.00  0.00     0.060 A 
BRANCH  84  85
ATOM     85  S   UNL A   1      33.381  34.714  28.682  1.00  0.00     0.124 S 
ATOM     86  O   UNL A   1      33.992  35.896  28.084  1.00  0.00    -0.237 OA
ATOM     87  O   UNL A   1      32.872  33.716  27.746  1.00  0.00    -0.237 OA
ATOM     88  O   UNL A   1      32.536  34.958  29.846  1.00  0.00    -0.744 OA
ENDBRANCH  84  85
ENDBRANCH  52  77
BRANCH  64  89
ATOM     89  C   UNL A   1      40.179  33.361  36.746  1.00  0.00     0.058 A 
ATOM     90  C   UNL A   1      40.879  34.569  36.883  1.00  0.00     0.135 A 
ATOM     91  C   UNL A   1      39.200  33.062  37.707  1.00  0.00     0.135 A 
ATOM     92  F   UNL A   1      41.831  34.904  35.996  1.00  0.00    -0.206 F 
ATOM     93  C   UNL A   1      40.632  35.438  37.942  1.00  0.00     0.059 A 
ATOM     94  C   UNL A   1      38.916  33.928  38.759  1.00  0.00     0.059 A 
ATOM     95  F   UNL A   1      38.492  31.924  37.621  1.00  0.00    -0.206 F 
ATOM     96  C   UNL A   1      39.645  35.111  38.874  1.00  0.00     0.060 A 
BRANCH  96  97
ATOM     97  S   UNL A   1      39.308  36.263  40.223  1.00  0.00     0.124 S 
ATOM     98  O   UNL A   1      38.337  35.516  41.014  1.00  0.00    -0.237 OA
ATOM     99  O   UNL A   1      40.626  36.429  40.829  1.00  0.00    -0.237 OA
ATOM    100  O   UNL A   1      38.786  37.444  39.540  1.00  0.00    -0.744 OA
ENDBRANCH  96  97
ENDBRANCH  64  89
ENDBRANCH  38  39
ENDBRANCH  31  33
ENDBRANCH  30  31
ENDBRANCH  29  30
ENDBRANCH  28  29
ENDBRANCH  27  28
ENDBRANCH  26  27
ENDBRANCH   1  26
TORSDOF 24
ENDMDL
MODEL 3
REMARK VINA RESULT:     -10.1      6.111      8.155
REMARK SMILES CCN(Cc1ccccn1)c1nc(C)cc(C)c1C(=O)OCCOCCOCCOC(=O)c1ccc(-c2c3nc(c(-c4c(F)cc(S(=O)(=O)[O-])cc4F)c4ccc([nH]4)c(-c4c(F)cc(S(=O)(=O)[O-])cc4F)c4nc(c(-c5c(F)cc(S(=O)(=O)[O-])cc5F)c5ccc2[nH]5)C=C4)C=C3)cc1
REMARK SMILES IDX 25 1 24 2 23 3 22 4 21 5 19 6 20 7 18 8 11 9 12 10 13 11
REMARK SMILES IDX 16 12 14 13 15 14 17 15 3 16 2 17 1 18 4 19 5 20 6 21 10 22
REMARK SMILES IDX 7 23 9 24 8 25 26 26 27 27 28 28 29 29 30 30 31 31 32 32
REMARK SMILES IDX 33 33 34 34 98 35 35 36 97 37 36 38 37 39 38 40 91 41 39 42
REMARK SMILES IDX 96 43 90 44 92 45 40 46 95 47 89 48 88 49 41 51 75 52 54 53
REMARK SMILES IDX 74 54 55 55 58 56 73 57 93 58 56 59 57 60 72 62 94 63 59 64
REMARK SMILES IDX 42 65 43 66 52 67 44 68 45 69 51 70 53 71 46 72 47 73 48 74
REMARK SMILES IDX 49 75 50 76 76 77 77 78 86 79 78 80 79 81 85 82 87 83 80 84
REMARK SMILES IDX 81 85 82 86 83 87 84 88 60 89 61 90 70 91 62 92 63 93 69 94
REMARK SMILES IDX 71 95 64 96 65 97 66 98 67 99 68 100
REMARK H PARENT 92 50 58 61
REMARK Flexibility Score: inf
ROOT
ATOM      1  C   UNL A   1      34.315  21.438  24.907  1.00  0.00     0.188 C 
ENDROOT
BRANCH   1   2
ATOM      2  O   UNL A   1      34.161  22.171  23.696  1.00  0.00    -0.376 OA
BRANCH   2   3
ATOM      3  C   UNL A   1      32.835  22.193  23.179  1.00  0.00     0.202 C 
BRANCH   3   4
ATOM      4  C   UNL A   1      32.014  23.307  23.822  1.00  0.00     0.261 C 
BRANCH   4   5
ATOM      5  O   UNL A   1      31.877  24.431  22.933  1.00  0.00    -0.460 OA
BRANCH   5   6
ATOM      6  C   UNL A   1      32.856  25.359  22.906  1.00  0.00     0.342 C 
ATOM      7  O   UNL A   1      33.717  25.449  22.033  1.00  0.00    -0.246 OA
BRANCH   6   8
ATOM      8  C   UNL A   1      32.731  26.228  24.102  1.00  0.00     0.105 A 
ATOM      9  C   UNL A   1      31.739  27.224  24.153  1.00  0.00     0.144 A 
ATOM     10  N   UNL A   1      31.803  28.168  25.118  1.00  0.00    -0.235 NA
ATOM     11  C   UNL A   1      32.694  28.088  26.123  1.00  0.00     0.040 A 
ATOM     12  C   UNL A   1      33.688  26.144  25.153  1.00  0.00    -0.031 A 
ATOM     13  C   UNL A   1      32.581  29.134  27.187  1.00  0.00     0.067 C 
ATOM     14  C   UNL A   1      33.621  27.071  26.197  1.00  0.00     0.028 A 
ATOM     15  C   UNL A   1      34.766  25.095  25.226  1.00  0.00     0.045 C 
BRANCH   9  16
ATOM     16  N   UNL A   1      30.630  27.288  23.313  1.00  0.00    -0.350 N 
BRANCH  16  17
ATOM     17  C   UNL A   1      29.364  26.739  23.795  1.00  0.00     0.115 C 
ATOM     18  C   UNL A   1      29.573  25.964  25.088  1.00  0.00     0.027 C 
ENDBRANCH  16  17
BRANCH  16  19
ATOM     19  C   UNL A   1      30.500  28.488  22.460  1.00  0.00     0.174 C 
BRANCH  19  20
ATOM     20  C   UNL A   1      29.474  29.565  22.851  1.00  0.00     0.060 A 
ATOM     21  C   UNL A   1      28.222  29.500  22.233  1.00  0.00     0.026 A 
ATOM     22  N   UNL A   1      29.784  30.562  23.724  1.00  0.00    -0.259 NA
ATOM     23  C   UNL A   1      27.302  30.523  22.440  1.00  0.00     0.004 A 
ATOM     24  C   UNL A   1      28.883  31.558  23.879  1.00  0.00     0.111 A 
ATOM     25  C   UNL A   1      27.648  31.590  23.257  1.00  0.00     0.020 A 
ENDBRANCH  19  20
ENDBRANCH  16  19
ENDBRANCH   9  16
ENDBRANCH   6   8
ENDBRANCH   5   6
ENDBRANCH   4   5
ENDBRANCH   3   4
ENDBRANCH   2   3
ENDBRANCH   1   2
BRANCH   1  26
ATOM     26  C   UNL A   1      35.622  20.628  24.972  1.00  0.00     0.188 C 
BRANCH  26  27
ATOM     27  O   UNL A   1      36.738  21.113  25.712  1.00  0.00    -0.376 OA
BRANCH  27  28
ATOM     28  C   UNL A   1      38.026  21.062  25.125  1.00  0.00     0.202 C 
BRANCH  28  29
ATOM     29  C   UNL A   1      38.947  19.914  25.553  1.00  0.00     0.261 C 
BRANCH  29  30
ATOM     30  O   UNL A   1      39.883  20.224  26.601  1.00  0.00    -0.460 OA
BRANCH  30  31
ATOM     31  C   UNL A   1      41.183  19.963  26.316  1.00  0.00     0.338 C 
ATOM     32  O   UNL A   1      41.638  18.913  25.884  1.00  0.00    -0.246 OA
BRANCH  31  33
ATOM     33  C   UNL A   1      42.015  21.175  26.496  1.00  0.00     0.060 A 
ATOM     34  C   UNL A   1      42.283  21.616  27.800  1.00  0.00     0.016 A 
ATOM     35  C   UNL A   1      42.434  21.938  25.403  1.00  0.00     0.016 A 
ATOM     36  C   UNL A   1      42.924  22.842  28.013  1.00  0.00     0.010 A 
ATOM     37  C   UNL A   1      43.059  23.174  25.621  1.00  0.00     0.010 A 
ATOM     38  C   UNL A   1      43.272  23.653  26.925  1.00  0.00    -0.014 A 
BRANCH  38  39
ATOM     39  C   UNL A   1      43.705  25.061  27.147  1.00  0.00     0.031 A 
ATOM     40  C   UNL A   1      45.143  25.433  26.895  1.00  0.00     0.074 A 
ATOM     41  C   UNL A   1      42.843  26.004  27.571  1.00  0.00     0.049 A 
ATOM     42  N   UNL A   1      45.746  26.583  27.062  1.00  0.00    -0.248 NA
ATOM     43  C   UNL A   1      46.018  24.361  26.399  1.00  0.00     0.031 C 
ATOM     44  C   UNL A   1      41.426  25.786  27.841  1.00  0.00     0.029 A 
ATOM     45  N   UNL A   1      43.041  27.332  27.859  1.00  0.00    -0.354 N 
ATOM     46  C   UNL A   1      47.071  26.374  26.700  1.00  0.00     0.074 A 
ATOM     47  C   UNL A   1      47.189  24.979  26.331  1.00  0.00     0.031 C 
ATOM     48  C   UNL A   1      40.877  26.942  28.251  1.00  0.00     0.029 A 
ATOM     49  C   UNL A   1      41.913  27.972  28.316  1.00  0.00     0.049 A 
ATOM     50  H   UNL A   1      43.909  27.785  27.748  1.00  0.00     0.167 HD
ATOM     51  C   UNL A   1      48.096  27.260  26.675  1.00  0.00     0.037 A 
ATOM     52  C   UNL A   1      41.739  29.234  28.761  1.00  0.00     0.037 A 
ATOM     53  C   UNL A   1      47.985  28.645  27.057  1.00  0.00     0.049 A 
ATOM     54  C   UNL A   1      42.906  30.188  28.782  1.00  0.00     0.074 A 
ATOM     55  C   UNL A   1      48.967  29.621  27.043  1.00  0.00     0.029 A 
ATOM     56  N   UNL A   1      46.832  29.248  27.538  1.00  0.00    -0.354 N 
ATOM     57  N   UNL A   1      44.145  29.987  28.401  1.00  0.00    -0.248 NA
ATOM     58  C   UNL A   1      42.651  31.542  29.296  1.00  0.00     0.031 C 
ATOM     59  C   UNL A   1      48.423  30.800  27.566  1.00  0.00     0.029 A 
ATOM     60  C   UNL A   1      47.085  30.575  27.851  1.00  0.00     0.049 A 
ATOM     61  H   UNL A   1      45.963  28.799  27.642  1.00  0.00     0.167 HD
ATOM     62  C   UNL A   1      44.809  31.193  28.606  1.00  0.00     0.074 A 
ATOM     63  C   UNL A   1      43.833  32.123  29.135  1.00  0.00     0.031 C 
ATOM     64  C   UNL A   1      46.110  31.501  28.373  1.00  0.00     0.037 A 
BRANCH  51  65
ATOM     65  C   UNL A   1      49.444  26.744  26.248  1.00  0.00     0.058 A 
ATOM     66  C   UNL A   1      49.897  26.864  24.924  1.00  0.00     0.135 A 
ATOM     67  C   UNL A   1      50.300  26.134  27.179  1.00  0.00     0.135 A 
ATOM     68  F   UNL A   1      49.114  27.426  23.991  1.00  0.00    -0.206 F 
ATOM     69  C   UNL A   1      51.134  26.362  24.531  1.00  0.00     0.059 A 
ATOM     70  C   UNL A   1      51.553  25.652  26.814  1.00  0.00     0.059 A 
ATOM     71  F   UNL A   1      49.919  25.996  28.459  1.00  0.00    -0.206 F 
ATOM     72  C   UNL A   1      51.953  25.754  25.483  1.00  0.00     0.060 A 
BRANCH  72  73
ATOM     73  S   UNL A   1      53.547  25.093  24.954  1.00  0.00     0.124 S 
ATOM     74  O   UNL A   1      53.594  25.530  23.562  1.00  0.00    -0.237 OA
ATOM     75  O   UNL A   1      54.478  25.760  25.858  1.00  0.00    -0.237 OA
ATOM     76  O   UNL A   1      53.404  23.655  25.156  1.00  0.00    -0.744 OA
ENDBRANCH  72  73
ENDBRANCH  51  65
BRANCH  52  77
ATOM     77  C   UNL A   1      40.399  29.669  29.241  1.00  0.00     0.058 A 
ATOM     78  C   UNL A   1      40.158  29.904  30.602  1.00  0.00     0.135 A 
ATOM     79  C   UNL A   1      39.336  29.865  28.346  1.00  0.00     0.135 A 
ATOM     80  F   UNL A   1      41.137  29.715  31.500  1.00  0.00    -0.206 F 
ATOM     81  C   UNL A   1      38.910  30.313  31.061  1.00  0.00     0.059 A 
ATOM     82  C   UNL A   1      38.086  30.299  28.777  1.00  0.00     0.059 A 
ATOM     83  F   UNL A   1      39.515  29.657  27.032  1.00  0.00    -0.206 F 
ATOM     84  C   UNL A   1      37.882  30.515  30.139  1.00  0.00     0.060 A 
BRANCH  84  85
ATOM     85  S   UNL A   1      36.289  31.118  30.738  1.00  0.00     0.124 S 
ATOM     86  O   UNL A   1      35.515  31.186  29.503  1.00  0.00    -0.237 OA
ATOM     87  O   UNL A   1      35.902  30.070  31.677  1.00  0.00    -0.237 OA
ATOM     88  O   UNL A   1      36.623  32.402  31.347  1.00  0.00    -0.744 OA
ENDBRANCH  84  85
ENDBRANCH  52  77
BRANCH  64  89
ATOM     89  C   UNL A   1      46.559  32.913  28.648  1.00  0.00     0.058 A 
ATOM     90  C   UNL A   1      46.466  33.924  27.680  1.00  0.00     0.135 A 
ATOM     91  C   UNL A   1      47.034  33.271  29.921  1.00  0.00     0.135 A 
ATOM     92  F   UNL A   1      46.025  33.639  26.444  1.00  0.00    -0.206 F 
ATOM     93  C   UNL A   1      46.847  35.235  27.956  1.00  0.00     0.059 A 
ATOM     94  C   UNL A   1      47.395  34.580  30.228  1.00  0.00     0.059 A 
ATOM     95  F   UNL A   1      47.135  32.346  30.889  1.00  0.00    -0.206 F 
ATOM     96  C   UNL A   1      47.308  35.554  29.235  1.00  0.00     0.060 A 
BRANCH  96  97
ATOM     97  S   UNL A   1      47.766  37.264  29.592  1.00  0.00     0.124 S 
ATOM     98  O   UNL A   1      47.545  37.904  28.300  1.00  0.00    -0.237 OA
ATOM     99  O   UNL A   1      46.824  37.626  30.648  1.00  0.00    -0.237 OA
ATOM    100  O   UNL A   1      49.160  37.163  30.013  1.00  0.00    -0.744 OA
ENDBRANCH  96  97
ENDBRANCH  64  89
ENDBRANCH  38  39
ENDBRANCH  31  33
ENDBRANCH  30  31
ENDBRANCH  29  30
ENDBRANCH  28  29
ENDBRANCH  27  28
ENDBRANCH  26  27
ENDBRANCH   1  26
TORSDOF 24
ENDMDL
