MODEL 1
REMARK VINA RESULT:     -10.5      0.000      0.000
REMARK SMILES O=C(C[C@H]1C[C@H]2CC[C@@H](C1)N2C(=O)[C@H]1CCCCO1)OCCOCCOCCOC(=O)c1ccc(-c2c3nc(c(-c4c(F)cc(S(=O)(=O)[O-])cc4F)c4ccc([nH]4)c(-c4c(F)cc(S(=O)(=O)[O-])cc4F)c4nc(c(-c5c(F)cc(S(=O)(=O)[O-])cc5F)c5ccc2[nH]5)C=C4)C=C3)cc1
REMARK SMILES IDX 24 1 23 2 22 3 21 4 20 5 2 6 1 7 3 8 4 9 5 10 10 11 6 12
REMARK SMILES IDX 9 13 7 14 11 15 8 16 12 17 13 18 14 19 15 20 19 21 16 22
REMARK SMILES IDX 18 23 17 24 25 25 26 26 27 27 28 28 29 29 30 30 31 31 32 32
REMARK SMILES IDX 33 33 97 34 34 35 96 36 35 37 36 38 37 39 90 40 38 41 95 42
REMARK SMILES IDX 89 43 91 44 39 45 94 46 88 47 87 48 40 50 74 51 53 52 73 53
REMARK SMILES IDX 54 54 57 55 72 56 92 57 55 58 56 59 71 61 93 62 58 63 41 64
REMARK SMILES IDX 42 65 51 66 43 67 44 68 50 69 52 70 45 71 46 72 47 73 48 74
REMARK SMILES IDX 49 75 75 76 76 77 85 78 77 79 78 80 84 81 86 82 79 83 80 84
REMARK SMILES IDX 81 85 82 86 83 87 59 88 60 89 69 90 61 91 62 92 68 93 70 94
REMARK SMILES IDX 63 95 64 96 65 97 66 98 67 99
REMARK H PARENT 91 49 57 60
REMARK Flexibility Score: inf
ROOT
ATOM      1  C   UNL A   1      35.066  22.260  24.421  1.00  0.00     0.188 C 
ENDROOT
BRANCH   1   2
ATOM      2  O   UNL A   1      33.821  21.584  24.559  1.00  0.00    -0.376 OA
BRANCH   2   3
ATOM      3  C   UNL A   1      32.873  21.852  23.539  1.00  0.00     0.202 C 
BRANCH   3   4
ATOM      4  C   UNL A   1      31.812  22.881  23.907  1.00  0.00     0.261 C 
BRANCH   4   5
ATOM      5  O   UNL A   1      31.631  23.180  25.331  1.00  0.00    -0.463 OA
BRANCH   5   6
ATOM      6  C   UNL A   1      32.058  24.022  26.290  1.00  0.00     0.306 C 
ATOM      7  O   UNL A   1      31.530  23.953  27.401  1.00  0.00    -0.252 OA
BRANCH   6   8
ATOM      8  C   UNL A   1      33.134  25.041  26.046  1.00  0.00     0.126 C 
BRANCH   8   9
ATOM      9  C   UNL A   1      32.804  26.534  26.137  1.00  0.00     0.004 C 
ATOM     10  C   UNL A   1      33.626  27.562  25.310  1.00  0.00     0.029 C 
ATOM     11  C   UNL A   1      31.322  26.801  25.986  1.00  0.00     0.029 C 
ATOM     12  C   UNL A   1      32.894  28.150  24.069  1.00  0.00     0.085 C 
ATOM     13  C   UNL A   1      30.855  27.167  24.559  1.00  0.00     0.085 C 
ATOM     14  C   UNL A   1      32.761  27.031  23.030  1.00  0.00     0.027 C 
ATOM     15  N   UNL A   1      31.487  28.443  24.387  1.00  0.00    -0.334 N 
ATOM     16  C   UNL A   1      31.350  26.489  23.277  1.00  0.00     0.027 C 
BRANCH  15  17
ATOM     17  C   UNL A   1      30.908  29.672  24.625  1.00  0.00     0.252 C 
ATOM     18  O   UNL A   1      31.375  30.438  25.468  1.00  0.00    -0.272 OA
BRANCH  17  19
ATOM     19  C   UNL A   1      29.686  30.065  23.707  1.00  0.00     0.207 C 
ATOM     20  C   UNL A   1      29.195  31.514  23.919  1.00  0.00     0.042 C 
ATOM     21  O   UNL A   1      30.004  29.873  22.325  1.00  0.00    -0.368 OA
ATOM     22  C   UNL A   1      28.078  31.906  22.958  1.00  0.00     0.006 C 
ATOM     23  C   UNL A   1      28.898  30.111  21.458  1.00  0.00     0.161 C 
ATOM     24  C   UNL A   1      28.471  31.568  21.534  1.00  0.00     0.029 C 
ENDBRANCH  17  19
ENDBRANCH  15  17
ENDBRANCH   8   9
ENDBRANCH   6   8
ENDBRANCH   5   6
ENDBRANCH   4   5
ENDBRANCH   3   4
ENDBRANCH   2   3
ENDBRANCH   1   2
BRANCH   1  25
ATOM     25  C   UNL A   1      35.971  22.110  25.660  1.00  0.00     0.188 C 
BRANCH  25  26
ATOM     26  O   UNL A   1      37.293  21.711  25.312  1.00  0.00    -0.376 OA
BRANCH  26  27
ATOM     27  C   UNL A   1      37.429  20.346  24.936  1.00  0.00     0.202 C 
BRANCH  27  28
ATOM     28  C   UNL A   1      38.765  19.680  25.306  1.00  0.00     0.261 C 
BRANCH  28  29
ATOM     29  O   UNL A   1      39.738  20.492  26.001  1.00  0.00    -0.460 OA
BRANCH  29  30
ATOM     30  C   UNL A   1      41.011  20.059  26.153  1.00  0.00     0.338 C 
ATOM     31  O   UNL A   1      41.445  18.958  25.860  1.00  0.00    -0.246 OA
BRANCH  30  32
ATOM     32  C   UNL A   1      41.854  21.243  26.491  1.00  0.00     0.060 A 
ATOM     33  C   UNL A   1      42.237  21.461  27.826  1.00  0.00     0.016 A 
ATOM     34  C   UNL A   1      42.344  22.083  25.488  1.00  0.00     0.016 A 
ATOM     35  C   UNL A   1      43.082  22.530  28.160  1.00  0.00     0.010 A 
ATOM     36  C   UNL A   1      43.168  23.165  25.826  1.00  0.00     0.010 A 
ATOM     37  C   UNL A   1      43.521  23.415  27.166  1.00  0.00    -0.014 A 
BRANCH  37  38
ATOM     38  C   UNL A   1      44.150  24.720  27.514  1.00  0.00     0.031 A 
ATOM     39  C   UNL A   1      43.237  25.848  27.923  1.00  0.00     0.074 A 
ATOM     40  C   UNL A   1      45.476  24.939  27.420  1.00  0.00     0.049 A 
ATOM     41  N   UNL A   1      43.508  27.113  28.105  1.00  0.00    -0.248 NA
ATOM     42  C   UNL A   1      41.824  25.497  28.147  1.00  0.00     0.031 C 
ATOM     43  C   UNL A   1      46.485  23.938  27.079  1.00  0.00     0.029 A 
ATOM     44  N   UNL A   1      46.199  26.101  27.578  1.00  0.00    -0.354 N 
ATOM     45  C   UNL A   1      42.300  27.714  28.434  1.00  0.00     0.074 A 
ATOM     46  C   UNL A   1      41.292  26.677  28.427  1.00  0.00     0.031 C 
ATOM     47  C   UNL A   1      47.688  24.538  27.012  1.00  0.00     0.029 A 
ATOM     48  C   UNL A   1      47.533  25.972  27.265  1.00  0.00     0.049 A 
ATOM     49  H   UNL A   1      45.798  26.947  27.883  1.00  0.00     0.167 HD
ATOM     50  C   UNL A   1      42.049  29.013  28.714  1.00  0.00     0.037 A 
ATOM     51  C   UNL A   1      48.504  26.904  27.150  1.00  0.00     0.037 A 
ATOM     52  C   UNL A   1      43.047  30.047  28.745  1.00  0.00     0.049 A 
ATOM     53  C   UNL A   1      48.184  28.361  27.400  1.00  0.00     0.074 A 
ATOM     54  C   UNL A   1      42.888  31.380  29.084  1.00  0.00     0.029 A 
ATOM     55  N   UNL A   1      44.379  29.874  28.413  1.00  0.00    -0.354 N 
ATOM     56  N   UNL A   1      47.047  28.908  27.762  1.00  0.00    -0.248 NA
ATOM     57  C   UNL A   1      49.275  29.332  27.213  1.00  0.00     0.031 C 
ATOM     58  C   UNL A   1      44.112  32.027  28.899  1.00  0.00     0.029 A 
ATOM     59  C   UNL A   1      45.046  31.085  28.497  1.00  0.00     0.049 A 
ATOM     60  H   UNL A   1      44.793  29.018  28.157  1.00  0.00     0.167 HD
ATOM     61  C   UNL A   1      47.294  30.275  27.863  1.00  0.00     0.074 A 
ATOM     62  C   UNL A   1      48.690  30.475  27.543  1.00  0.00     0.031 C 
ATOM     63  C   UNL A   1      46.439  31.276  28.187  1.00  0.00     0.037 A 
BRANCH  50  64
ATOM     64  C   UNL A   1      40.628  29.415  28.984  1.00  0.00     0.058 A 
ATOM     65  C   UNL A   1      39.684  29.535  27.953  1.00  0.00     0.135 A 
ATOM     66  C   UNL A   1      40.188  29.594  30.306  1.00  0.00     0.135 A 
ATOM     67  F   UNL A   1      40.060  29.395  26.672  1.00  0.00    -0.206 F 
ATOM     68  C   UNL A   1      38.350  29.814  28.225  1.00  0.00     0.059 A 
ATOM     69  C   UNL A   1      38.854  29.851  30.602  1.00  0.00     0.059 A 
ATOM     70  F   UNL A   1      41.057  29.499  31.325  1.00  0.00    -0.206 F 
ATOM     71  C   UNL A   1      37.943  29.960  29.553  1.00  0.00     0.060 A 
BRANCH  71  72
ATOM     72  S   UNL A   1      36.196  30.266  29.890  1.00  0.00     0.124 S 
ATOM     73  O   UNL A   1      36.143  31.724  29.855  1.00  0.00    -0.237 OA
ATOM     74  O   UNL A   1      35.541  29.581  28.779  1.00  0.00    -0.237 OA
ATOM     75  O   UNL A   1      35.992  29.662  31.203  1.00  0.00    -0.744 OA
ENDBRANCH  71  72
ENDBRANCH  50  64
BRANCH  51  76
ATOM     76  C   UNL A   1      49.875  26.520  26.706  1.00  0.00     0.058 A 
ATOM     77  C   UNL A   1      50.210  26.452  25.344  1.00  0.00     0.135 A 
ATOM     78  C   UNL A   1      50.857  26.145  27.636  1.00  0.00     0.135 A 
ATOM     79  F   UNL A   1      49.301  26.779  24.414  1.00  0.00    -0.206 F 
ATOM     80  C   UNL A   1      51.457  25.997  24.920  1.00  0.00     0.059 A 
ATOM     81  C   UNL A   1      52.120  25.715  27.238  1.00  0.00     0.059 A 
ATOM     82  F   UNL A   1      50.592  26.193  28.952  1.00  0.00    -0.206 F 
ATOM     83  C   UNL A   1      52.403  25.627  25.877  1.00  0.00     0.060 A 
BRANCH  83  84
ATOM     84  S   UNL A   1      54.024  25.053  25.322  1.00  0.00     0.124 S 
ATOM     85  O   UNL A   1      54.354  26.045  24.306  1.00  0.00    -0.237 OA
ATOM     86  O   UNL A   1      54.807  25.110  26.552  1.00  0.00    -0.237 OA
ATOM     87  O   UNL A   1      53.747  23.706  24.827  1.00  0.00    -0.744 OA
ENDBRANCH  83  84
ENDBRANCH  51  76
BRANCH  63  88
ATOM     88  C   UNL A   1      46.976  32.682  28.238  1.00  0.00     0.058 A 
ATOM     89  C   UNL A   1      46.850  33.556  27.148  1.00  0.00     0.135 A 
ATOM     90  C   UNL A   1      47.543  33.187  29.420  1.00  0.00     0.135 A 
ATOM     91  F   UNL A   1      46.319  33.124  25.993  1.00  0.00    -0.206 F 
ATOM     92  C   UNL A   1      47.276  34.880  27.224  1.00  0.00     0.059 A 
ATOM     93  C   UNL A   1      47.953  34.514  29.526  1.00  0.00     0.059 A 
ATOM     94  F   UNL A   1      47.678  32.397  30.497  1.00  0.00    -0.206 F 
ATOM     95  C   UNL A   1      47.821  35.351  28.420  1.00  0.00     0.060 A 
BRANCH  95  96
ATOM     96  S   UNL A   1      48.317  37.085  28.521  1.00  0.00     0.124 S 
ATOM     97  O   UNL A   1      49.719  36.969  28.905  1.00  0.00    -0.237 OA
ATOM     98  O   UNL A   1      48.068  37.562  27.164  1.00  0.00    -0.237 OA
ATOM     99  O   UNL A   1      47.430  37.633  29.543  1.00  0.00    -0.744 OA
ENDBRANCH  95  96
ENDBRANCH  63  88
ENDBRANCH  37  38
ENDBRANCH  30  32
ENDBRANCH  29  30
ENDBRANCH  28  29
ENDBRANCH  27  28
ENDBRANCH  26  27
ENDBRANCH  25  26
ENDBRANCH   1  25
TORSDOF 23
ENDMDL
MODEL 2
REMARK VINA RESULT:     -10.2      6.445     10.900
REMARK SMILES O=C(C[C@H]1C[C@H]2CC[C@@H](C1)N2C(=O)[C@H]1CCCCO1)OCCOCCOCCOC(=O)c1ccc(-c2c3nc(c(-c4c(F)cc(S(=O)(=O)[O-])cc4F)c4ccc([nH]4)c(-c4c(F)cc(S(=O)(=O)[O-])cc4F)c4nc(c(-c5c(F)cc(S(=O)(=O)[O-])cc5F)c5ccc2[nH]5)C=C4)C=C3)cc1
REMARK SMILES IDX 24 1 23 2 22 3 21 4 20 5 2 6 1 7 3 8 4 9 5 10 10 11 6 12
REMARK SMILES IDX 9 13 7 14 11 15 8 16 12 17 13 18 14 19 15 20 19 21 16 22
REMARK SMILES IDX 18 23 17 24 25 25 26 26 27 27 28 28 29 29 30 30 31 31 32 32
REMARK SMILES IDX 33 33 97 34 34 35 96 36 35 37 36 38 37 39 90 40 38 41 95 42
REMARK SMILES IDX 89 43 91 44 39 45 94 46 88 47 87 48 40 50 74 51 53 52 73 53
REMARK SMILES IDX 54 54 57 55 72 56 92 57 55 58 56 59 71 61 93 62 58 63 41 64
REMARK SMILES IDX 42 65 51 66 43 67 44 68 50 69 52 70 45 71 46 72 47 73 48 74
REMARK SMILES IDX 49 75 75 76 76 77 85 78 77 79 78 80 84 81 86 82 79 83 80 84
REMARK SMILES IDX 81 85 82 86 83 87 59 88 60 89 69 90 61 91 62 92 68 93 70 94
REMARK SMILES IDX 63 95 64 96 65 97 66 98 67 99
REMARK H PARENT 91 49 57 60
REMARK Flexibility Score: inf
ROOT
ATOM      1  C   UNL A   1      35.181  23.183  24.009  1.00  0.00     0.188 C 
ENDROOT
BRANCH   1   2
ATOM      2  O   UNL A   1      33.955  22.525  24.315  1.00  0.00    -0.376 OA
BRANCH   2   3
ATOM      3  C   UNL A   1      33.125  22.248  23.201  1.00  0.00     0.202 C 
BRANCH   3   4
ATOM      4  C   UNL A   1      33.255  23.233  22.046  1.00  0.00     0.261 C 
BRANCH   4   5
ATOM      5  O   UNL A   1      32.374  24.404  22.060  1.00  0.00    -0.463 OA
BRANCH   5   6
ATOM      6  C   UNL A   1      32.370  25.720  21.776  1.00  0.00     0.306 C 
ATOM      7  O   UNL A   1      31.416  26.176  21.146  1.00  0.00    -0.252 OA
BRANCH   6   8
ATOM      8  C   UNL A   1      33.490  26.634  22.186  1.00  0.00     0.126 C 
BRANCH   8   9
ATOM      9  C   UNL A   1      33.613  27.081  23.646  1.00  0.00     0.004 C 
ATOM     10  C   UNL A   1      33.665  28.595  23.992  1.00  0.00     0.029 C 
ATOM     11  C   UNL A   1      32.628  26.368  24.546  1.00  0.00     0.029 C 
ATOM     12  C   UNL A   1      32.363  29.176  24.614  1.00  0.00     0.085 C 
ATOM     13  C   UNL A   1      31.308  27.124  24.818  1.00  0.00     0.085 C 
ATOM     14  C   UNL A   1      31.290  29.199  23.519  1.00  0.00     0.027 C 
ATOM     15  N   UNL A   1      31.787  28.235  25.588  1.00  0.00    -0.334 N 
ATOM     16  C   UNL A   1      30.514  27.901  23.762  1.00  0.00     0.027 C 
BRANCH  15  17
ATOM     17  C   UNL A   1      31.825  28.308  26.965  1.00  0.00     0.252 C 
ATOM     18  O   UNL A   1      30.977  27.739  27.652  1.00  0.00    -0.272 OA
BRANCH  17  19
ATOM     19  C   UNL A   1      33.048  29.079  27.597  1.00  0.00     0.207 C 
ATOM     20  C   UNL A   1      34.419  28.588  27.083  1.00  0.00     0.042 C 
ATOM     21  O   UNL A   1      32.937  30.488  27.369  1.00  0.00    -0.368 OA
ATOM     22  C   UNL A   1      35.583  29.406  27.631  1.00  0.00     0.006 C 
ATOM     23  C   UNL A   1      33.962  31.241  28.013  1.00  0.00     0.161 C 
ATOM     24  C   UNL A   1      35.322  30.886  27.434  1.00  0.00     0.029 C 
ENDBRANCH  17  19
ENDBRANCH  15  17
ENDBRANCH   8   9
ENDBRANCH   6   8
ENDBRANCH   5   6
ENDBRANCH   4   5
ENDBRANCH   3   4
ENDBRANCH   2   3
ENDBRANCH   1   2
BRANCH   1  25
ATOM     25  C   UNL A   1      35.605  24.197  25.091  1.00  0.00     0.188 C 
BRANCH  25  26
ATOM     26  O   UNL A   1      36.456  23.609  26.070  1.00  0.00    -0.376 OA
BRANCH  26  27
ATOM     27  C   UNL A   1      37.421  22.698  25.559  1.00  0.00     0.202 C 
BRANCH  27  28
ATOM     28  C   UNL A   1      38.884  22.998  25.925  1.00  0.00     0.261 C 
BRANCH  28  29
ATOM     29  O   UNL A   1      39.161  24.274  26.545  1.00  0.00    -0.460 OA
BRANCH  29  30
ATOM     30  C   UNL A   1      40.418  24.775  26.551  1.00  0.00     0.338 C 
ATOM     31  O   UNL A   1      41.272  24.610  25.697  1.00  0.00    -0.246 OA
BRANCH  30  32
ATOM     32  C   UNL A   1      40.498  25.784  27.649  1.00  0.00     0.060 A 
ATOM     33  C   UNL A   1      39.641  25.669  28.756  1.00  0.00     0.016 A 
ATOM     34  C   UNL A   1      41.474  26.783  27.633  1.00  0.00     0.016 A 
ATOM     35  C   UNL A   1      39.740  26.566  29.830  1.00  0.00     0.010 A 
ATOM     36  C   UNL A   1      41.556  27.693  28.695  1.00  0.00     0.010 A 
ATOM     37  C   UNL A   1      40.673  27.611  29.788  1.00  0.00    -0.014 A 
BRANCH  37  38
ATOM     38  C   UNL A   1      40.601  28.752  30.744  1.00  0.00     0.031 A 
ATOM     39  C   UNL A   1      41.463  28.682  31.979  1.00  0.00     0.074 A 
ATOM     40  C   UNL A   1      39.764  29.794  30.576  1.00  0.00     0.049 A 
ATOM     41  N   UNL A   1      41.460  29.446  33.039  1.00  0.00    -0.248 NA
ATOM     42  C   UNL A   1      42.457  27.595  32.023  1.00  0.00     0.031 C 
ATOM     43  C   UNL A   1      38.903  30.019  29.417  1.00  0.00     0.029 A 
ATOM     44  N   UNL A   1      39.481  30.852  31.412  1.00  0.00    -0.354 N 
ATOM     45  C   UNL A   1      42.425  28.917  33.888  1.00  0.00     0.074 A 
ATOM     46  C   UNL A   1      42.994  27.767  33.222  1.00  0.00     0.031 C 
ATOM     47  C   UNL A   1      38.159  31.120  29.634  1.00  0.00     0.029 A 
ATOM     48  C   UNL A   1      38.459  31.657  30.962  1.00  0.00     0.049 A 
ATOM     49  H   UNL A   1      39.964  31.016  32.254  1.00  0.00     0.167 HD
ATOM     50  C   UNL A   1      42.802  29.347  35.114  1.00  0.00     0.037 A 
ATOM     51  C   UNL A   1      37.810  32.676  31.567  1.00  0.00     0.037 A 
ATOM     52  C   UNL A   1      42.257  30.501  35.775  1.00  0.00     0.049 A 
ATOM     53  C   UNL A   1      38.203  33.094  32.967  1.00  0.00     0.074 A 
ATOM     54  C   UNL A   1      42.630  31.046  36.993  1.00  0.00     0.029 A 
ATOM     55  N   UNL A   1      41.220  31.279  35.290  1.00  0.00    -0.354 N 
ATOM     56  N   UNL A   1      39.154  32.617  33.737  1.00  0.00    -0.248 NA
ATOM     57  C   UNL A   1      37.426  34.180  33.588  1.00  0.00     0.031 C 
ATOM     58  C   UNL A   1      41.778  32.117  37.271  1.00  0.00     0.029 A 
ATOM     59  C   UNL A   1      40.910  32.272  36.203  1.00  0.00     0.049 A 
ATOM     60  H   UNL A   1      40.771  31.147  34.423  1.00  0.00     0.167 HD
ATOM     61  C   UNL A   1      39.099  33.356  34.916  1.00  0.00     0.074 A 
ATOM     62  C   UNL A   1      38.036  34.324  34.756  1.00  0.00     0.031 C 
ATOM     63  C   UNL A   1      39.858  33.240  36.034  1.00  0.00     0.037 A 
BRANCH  50  64
ATOM     64  C   UNL A   1      43.839  28.552  35.851  1.00  0.00     0.058 A 
ATOM     65  C   UNL A   1      43.502  27.429  36.621  1.00  0.00     0.135 A 
ATOM     66  C   UNL A   1      45.200  28.871  35.709  1.00  0.00     0.135 A 
ATOM     67  F   UNL A   1      42.214  27.098  36.806  1.00  0.00    -0.206 F 
ATOM     68  C   UNL A   1      44.480  26.645  37.222  1.00  0.00     0.059 A 
ATOM     69  C   UNL A   1      46.195  28.087  36.282  1.00  0.00     0.059 A 
ATOM     70  F   UNL A   1      45.571  29.942  34.990  1.00  0.00    -0.206 F 
ATOM     71  C   UNL A   1      45.824  26.977  37.038  1.00  0.00     0.060 A 
BRANCH  71  72
ATOM     72  S   UNL A   1      47.083  25.915  37.778  1.00  0.00     0.124 S 
ATOM     73  O   UNL A   1      46.359  25.352  38.914  1.00  0.00    -0.237 OA
ATOM     74  O   UNL A   1      47.381  24.984  36.693  1.00  0.00    -0.237 OA
ATOM     75  O   UNL A   1      48.156  26.844  38.116  1.00  0.00    -0.744 OA
ENDBRANCH  71  72
ENDBRANCH  50  64
BRANCH  51  76
ATOM     76  C   UNL A   1      36.659  33.346  30.897  1.00  0.00     0.058 A 
ATOM     77  C   UNL A   1      36.854  34.262  29.851  1.00  0.00     0.135 A 
ATOM     78  C   UNL A   1      35.344  33.137  31.341  1.00  0.00     0.135 A 
ATOM     79  F   UNL A   1      38.094  34.515  29.405  1.00  0.00    -0.206 F 
ATOM     80  C   UNL A   1      35.792  34.967  29.290  1.00  0.00     0.059 A 
ATOM     81  C   UNL A   1      34.263  33.807  30.776  1.00  0.00     0.059 A 
ATOM     82  F   UNL A   1      35.099  32.270  32.336  1.00  0.00    -0.206 F 
ATOM     83  C   UNL A   1      34.500  34.735  29.763  1.00  0.00     0.060 A 
BRANCH  83  84
ATOM     84  S   UNL A   1      33.124  35.640  29.022  1.00  0.00     0.124 S 
ATOM     85  O   UNL A   1      32.387  34.567  28.366  1.00  0.00    -0.237 OA
ATOM     86  O   UNL A   1      32.483  36.236  30.190  1.00  0.00    -0.237 OA
ATOM     87  O   UNL A   1      33.790  36.588  28.132  1.00  0.00    -0.744 OA
ENDBRANCH  83  84
ENDBRANCH  51  76
BRANCH  63  88
ATOM     88  C   UNL A   1      39.595  34.189  37.174  1.00  0.00     0.058 A 
ATOM     89  C   UNL A   1      38.669  33.885  38.183  1.00  0.00     0.135 A 
ATOM     90  C   UNL A   1      40.341  35.371  37.305  1.00  0.00     0.135 A 
ATOM     91  F   UNL A   1      37.927  32.769  38.105  1.00  0.00    -0.206 F 
ATOM     92  C   UNL A   1      38.485  34.725  39.278  1.00  0.00     0.059 A 
ATOM     93  C   UNL A   1      40.192  36.213  38.403  1.00  0.00     0.059 A 
ATOM     94  F   UNL A   1      41.249  35.705  36.373  1.00  0.00    -0.206 F 
ATOM     95  C   UNL A   1      39.255  35.885  39.382  1.00  0.00     0.060 A 
BRANCH  95  96
ATOM     96  S   UNL A   1      39.046  36.936  40.836  1.00  0.00     0.124 S 
ATOM     97  O   UNL A   1      40.418  37.054  41.315  1.00  0.00    -0.237 OA
ATOM     98  O   UNL A   1      38.467  38.149  40.265  1.00  0.00    -0.237 OA
ATOM     99  O   UNL A   1      38.148  36.162  41.689  1.00  0.00    -0.744 OA
ENDBRANCH  95  96
ENDBRANCH  63  88
ENDBRANCH  37  38
ENDBRANCH  30  32
ENDBRANCH  29  30
ENDBRANCH  28  29
ENDBRANCH  27  28
ENDBRANCH  26  27
ENDBRANCH  25  26
ENDBRANCH   1  25
TORSDOF 23
ENDMDL
MODEL 3
REMARK VINA RESULT:     -10.2      5.886     10.342
REMARK SMILES O=C(C[C@H]1C[C@H]2CC[C@@H](C1)N2C(=O)[C@H]1CCCCO1)OCCOCCOCCOC(=O)c1ccc(-c2c3nc(c(-c4c(F)cc(S(=O)(=O)[O-])cc4F)c4ccc([nH]4)c(-c4c(F)cc(S(=O)(=O)[O-])cc4F)c4nc(c(-c5c(F)cc(S(=O)(=O)[O-])cc5F)c5ccc2[nH]5)C=C4)C=C3)cc1
REMARK SMILES IDX 24 1 23 2 22 3 21 4 20 5 2 6 1 7 3 8 4 9 5 10 10 11 6 12
REMARK SMILES IDX 9 13 7 14 11 15 8 16 12 17 13 18 14 19 15 20 19 21 16 22
REMARK SMILES IDX 18 23 17 24 25 25 26 26 27 27 28 28 29 29 30 30 31 31 32 32
REMARK SMILES IDX 33 33 97 34 34 35 96 36 35 37 36 38 37 39 90 40 38 41 95 42
REMARK SMILES IDX 89 43 91 44 39 45 94 46 88 47 87 48 40 50 74 51 53 52 73 53
REMARK SMILES IDX 54 54 57 55 72 56 92 57 55 58 56 59 71 61 93 62 58 63 41 64
REMARK SMILES IDX 42 65 51 66 43 67 44 68 50 69 52 70 45 71 46 72 47 73 48 74
REMARK SMILES IDX 49 75 75 76 76 77 85 78 77 79 78 80 84 81 86 82 79 83 80 84
REMARK SMILES IDX 81 85 82 86 83 87 59 88 60 89 69 90 61 91 62 92 68 93 70 94
REMARK SMILES IDX 63 95 64 96 65 97 66 98 67 99
REMARK H PARENT 91 49 57 60
REMARK Flexibility Score: inf
ROOT
ATOM      1  C   UNL A   1      36.600  22.368  23.836  1.00  0.00     0.188 C 
ENDROOT
BRANCH   1   2
ATOM      2  O   UNL A   1      35.196  22.136  23.893  1.00  0.00    -0.376 OA
BRANCH   2   3
ATOM      3  C   UNL A   1      34.816  20.840  24.322  1.00  0.00     0.202 C 
BRANCH   3   4
ATOM      4  C   UNL A   1      33.828  20.814  25.482  1.00  0.00     0.261 C 
BRANCH   4   5
ATOM      5  O   UNL A   1      33.354  22.105  25.989  1.00  0.00    -0.463 OA
BRANCH   5   6
ATOM      6  C   UNL A   1      33.771  23.175  26.691  1.00  0.00     0.306 C 
ATOM      7  O   UNL A   1      34.460  22.981  27.693  1.00  0.00    -0.252 OA
BRANCH   6   8
ATOM      8  C   UNL A   1      33.411  24.581  26.303  1.00  0.00     0.126 C 
BRANCH   8   9
ATOM      9  C   UNL A   1      32.812  24.861  24.922  1.00  0.00     0.004 C 
ATOM     10  C   UNL A   1      31.323  24.514  24.638  1.00  0.00     0.029 C 
ATOM     11  C   UNL A   1      33.130  26.256  24.432  1.00  0.00     0.029 C 
ATOM     12  C   UNL A   1      30.361  25.735  24.573  1.00  0.00     0.085 C 
ATOM     13  C   UNL A   1      32.044  27.321  24.705  1.00  0.00     0.085 C 
ATOM     14  C   UNL A   1      30.228  26.302  25.991  1.00  0.00     0.027 C 
ATOM     15  N   UNL A   1      30.989  26.854  23.853  1.00  0.00    -0.334 N 
ATOM     16  C   UNL A   1      31.249  27.443  26.010  1.00  0.00     0.027 C 
BRANCH  15  17
ATOM     17  C   UNL A   1      30.738  27.285  22.566  1.00  0.00     0.252 C 
ATOM     18  O   UNL A   1      31.285  26.749  21.603  1.00  0.00    -0.272 OA
BRANCH  17  19
ATOM     19  C   UNL A   1      29.659  28.425  22.403  1.00  0.00     0.207 C 
ATOM     20  C   UNL A   1      28.325  28.120  23.117  1.00  0.00     0.042 C 
ATOM     21  O   UNL A   1      30.168  29.679  22.870  1.00  0.00    -0.368 OA
ATOM     22  C   UNL A   1      27.330  29.272  23.028  1.00  0.00     0.006 C 
ATOM     23  C   UNL A   1      29.271  30.764  22.645  1.00  0.00     0.161 C 
ATOM     24  C   UNL A   1      27.993  30.570  23.445  1.00  0.00     0.029 C 
ENDBRANCH  17  19
ENDBRANCH  15  17
ENDBRANCH   8   9
ENDBRANCH   6   8
ENDBRANCH   5   6
ENDBRANCH   4   5
ENDBRANCH   3   4
ENDBRANCH   2   3
ENDBRANCH   1   2
BRANCH   1  25
ATOM     25  C   UNL A   1      37.171  22.920  25.158  1.00  0.00     0.188 C 
BRANCH  25  26
ATOM     26  O   UNL A   1      37.585  21.878  26.037  1.00  0.00    -0.376 OA
BRANCH  26  27
ATOM     27  C   UNL A   1      38.871  21.337  25.763  1.00  0.00     0.202 C 
BRANCH  27  28
ATOM     28  C   UNL A   1      40.032  21.923  26.583  1.00  0.00     0.261 C 
BRANCH  28  29
ATOM     29  O   UNL A   1      40.342  23.321  26.384  1.00  0.00    -0.460 OA
BRANCH  29  30
ATOM     30  C   UNL A   1      41.574  23.800  26.674  1.00  0.00     0.338 C 
ATOM     31  O   UNL A   1      42.630  23.429  26.191  1.00  0.00    -0.246 OA
BRANCH  30  32
ATOM     32  C   UNL A   1      41.399  25.039  27.487  1.00  0.00     0.060 A 
ATOM     33  C   UNL A   1      42.343  26.075  27.380  1.00  0.00     0.016 A 
ATOM     34  C   UNL A   1      40.263  25.221  28.279  1.00  0.00     0.016 A 
ATOM     35  C   UNL A   1      42.166  27.275  28.085  1.00  0.00     0.010 A 
ATOM     36  C   UNL A   1      40.100  26.410  29.002  1.00  0.00     0.010 A 
ATOM     37  C   UNL A   1      41.063  27.435  28.934  1.00  0.00    -0.014 A 
BRANCH  37  38
ATOM     38  C   UNL A   1      41.003  28.547  29.924  1.00  0.00     0.031 A 
ATOM     39  C   UNL A   1      41.951  28.491  31.095  1.00  0.00     0.074 A 
ATOM     40  C   UNL A   1      40.106  29.550  29.841  1.00  0.00     0.049 A 
ATOM     41  N   UNL A   1      41.984  29.229  32.173  1.00  0.00    -0.248 NA
ATOM     42  C   UNL A   1      42.996  27.455  31.041  1.00  0.00     0.031 C 
ATOM     43  C   UNL A   1      39.157  29.759  28.750  1.00  0.00     0.029 A 
ATOM     44  N   UNL A   1      39.832  30.572  30.723  1.00  0.00    -0.354 N 
ATOM     45  C   UNL A   1      43.030  28.728  32.939  1.00  0.00     0.074 A 
ATOM     46  C   UNL A   1      43.607  27.624  32.205  1.00  0.00     0.031 C 
ATOM     47  C   UNL A   1      38.377  30.816  29.047  1.00  0.00     0.029 A 
ATOM     48  C   UNL A   1      38.743  31.335  30.366  1.00  0.00     0.049 A 
ATOM     49  H   UNL A   1      40.363  30.740  31.535  1.00  0.00     0.167 HD
ATOM     50  C   UNL A   1      43.470  29.147  34.148  1.00  0.00     0.037 A 
ATOM     51  C   UNL A   1      38.089  32.306  31.042  1.00  0.00     0.037 A 
ATOM     52  C   UNL A   1      42.918  30.256  34.876  1.00  0.00     0.049 A 
ATOM     53  C   UNL A   1      38.558  32.709  32.423  1.00  0.00     0.074 A 
ATOM     54  C   UNL A   1      43.347  30.789  36.080  1.00  0.00     0.029 A 
ATOM     55  N   UNL A   1      41.813  30.993  34.484  1.00  0.00    -0.354 N 
ATOM     56  N   UNL A   1      39.582  32.262  33.112  1.00  0.00    -0.248 NA
ATOM     57  C   UNL A   1      37.774  33.740  33.125  1.00  0.00     0.031 C 
ATOM     58  C   UNL A   1      42.466  31.809  36.445  1.00  0.00     0.029 A 
ATOM     59  C   UNL A   1      41.519  31.947  35.443  1.00  0.00     0.049 A 
ATOM     60  H   UNL A   1      41.311  30.859  33.647  1.00  0.00     0.167 HD
ATOM     61  C   UNL A   1      39.573  32.969  34.313  1.00  0.00     0.074 A 
ATOM     62  C   UNL A   1      38.456  33.886  34.252  1.00  0.00     0.031 C 
ATOM     63  C   UNL A   1      40.412  32.865  35.372  1.00  0.00     0.037 A 
BRANCH  50  64
ATOM     64  C   UNL A   1      44.593  28.387  34.791  1.00  0.00     0.058 A 
ATOM     65  C   UNL A   1      45.931  28.786  34.653  1.00  0.00     0.135 A 
ATOM     66  C   UNL A   1      44.313  27.296  35.630  1.00  0.00     0.135 A 
ATOM     67  F   UNL A   1      46.251  29.808  33.844  1.00  0.00    -0.206 F 
ATOM     68  C   UNL A   1      46.953  28.132  35.330  1.00  0.00     0.059 A 
ATOM     69  C   UNL A   1      45.317  26.642  36.335  1.00  0.00     0.059 A 
ATOM     70  F   UNL A   1      43.049  26.872  35.786  1.00  0.00    -0.206 F 
ATOM     71  C   UNL A   1      46.635  27.067  36.176  1.00  0.00     0.060 A 
BRANCH  71  72
ATOM     72  S   UNL A   1      47.969  26.265  37.091  1.00  0.00     0.124 S 
ATOM     73  O   UNL A   1      48.489  27.377  37.882  1.00  0.00    -0.237 OA
ATOM     74  O   UNL A   1      47.256  25.234  37.840  1.00  0.00    -0.237 OA
ATOM     75  O   UNL A   1      48.854  25.774  36.040  1.00  0.00    -0.744 OA
ENDBRANCH  71  72
ENDBRANCH  50  64
BRANCH  51  76
ATOM     76  C   UNL A   1      36.863  32.934  30.471  1.00  0.00     0.058 A 
ATOM     77  C   UNL A   1      36.944  33.966  29.523  1.00  0.00     0.135 A 
ATOM     78  C   UNL A   1      35.586  32.560  30.917  1.00  0.00     0.135 A 
ATOM     79  F   UNL A   1      38.143  34.376  29.080  1.00  0.00    -0.206 F 
ATOM     80  C   UNL A   1      35.807  34.626  29.062  1.00  0.00     0.059 A 
ATOM     81  C   UNL A   1      34.433  33.184  30.449  1.00  0.00     0.059 A 
ATOM     82  F   UNL A   1      35.449  31.576  31.820  1.00  0.00    -0.206 F 
ATOM     83  C   UNL A   1      34.556  34.228  29.535  1.00  0.00     0.060 A 
BRANCH  83  84
ATOM     84  S   UNL A   1      33.083  35.076  28.922  1.00  0.00     0.124 S 
ATOM     85  O   UNL A   1      32.335  35.290  30.155  1.00  0.00    -0.237 OA
ATOM     86  O   UNL A   1      33.651  36.269  28.302  1.00  0.00    -0.237 OA
ATOM     87  O   UNL A   1      32.506  34.109  27.991  1.00  0.00    -0.744 OA
ENDBRANCH  83  84
ENDBRANCH  51  76
BRANCH  63  88
ATOM     88  C   UNL A   1      40.184  33.771  36.553  1.00  0.00     0.058 A 
ATOM     89  C   UNL A   1      40.810  35.023  36.650  1.00  0.00     0.135 A 
ATOM     90  C   UNL A   1      39.263  33.421  37.554  1.00  0.00     0.135 A 
ATOM     91  F   UNL A   1      41.702  35.405  35.723  1.00  0.00    -0.206 F 
ATOM     92  C   UNL A   1      40.537  35.893  37.703  1.00  0.00     0.059 A 
ATOM     93  C   UNL A   1      38.956  34.285  38.602  1.00  0.00     0.059 A 
ATOM     94  F   UNL A   1      38.627  32.239  37.505  1.00  0.00    -0.206 F 
ATOM     95  C   UNL A   1      39.604  35.517  38.671  1.00  0.00     0.060 A 
BRANCH  95  96
ATOM     96  S   UNL A   1      39.219  36.679  39.999  1.00  0.00     0.124 S 
ATOM     97  O   UNL A   1      40.523  36.848  40.631  1.00  0.00    -0.237 OA
ATOM     98  O   UNL A   1      38.715  37.837  39.265  1.00  0.00    -0.237 OA
ATOM     99  O   UNL A   1      38.223  35.968  40.795  1.00  0.00    -0.744 OA
ENDBRANCH  95  96
ENDBRANCH  63  88
ENDBRANCH  37  38
ENDBRANCH  30  32
ENDBRANCH  29  30
ENDBRANCH  28  29
ENDBRANCH  27  28
ENDBRANCH  26  27
ENDBRANCH  25  26
ENDBRANCH   1  25
TORSDOF 23
ENDMDL
