MODEL 1
REMARK VINA RESULT:     -10.2      0.000      0.000
REMARK SMILES COc1cc(OC)cc(-c2ccc([C@@H](C)C(=O)OCCOCCOCCOC(=O)c3ccc(-c4c5nc(c(-c6c(F)cc(S(=O)(=O)[O-])cc6F)c6ccc([nH]6)c(-c6c(F)cc(S(=O)(=O)[O-])cc6F)c6nc(c(-c7c(F)cc(S(=O)(=O)[O-])cc7F)c7ccc4[nH]7)C=C6)C=C5)cc3)cc2F)c1
REMARK SMILES IDX 22 1 21 2 20 3 19 4 18 5 16 6 17 7 14 8 15 9 13 10 10 11
REMARK SMILES IDX 11 12 97 13 12 14 96 15 98 16 9 17 3 18 4 19 99 20 5 21 8 22
REMARK SMILES IDX 2 23 1 24 6 25 7 26 23 27 24 28 25 29 26 30 27 31 28 32
REMARK SMILES IDX 29 33 30 34 31 35 95 36 32 37 94 38 33 39 34 40 35 41 88 42
REMARK SMILES IDX 36 43 93 44 87 45 89 46 37 47 92 48 86 49 85 50 38 52 72 53
REMARK SMILES IDX 51 54 71 55 52 56 55 57 70 58 90 59 53 60 54 61 69 63 91 64
REMARK SMILES IDX 56 65 39 66 40 67 49 68 41 69 42 70 48 71 50 72 43 73 44 74
REMARK SMILES IDX 45 75 46 76 47 77 73 78 74 79 83 80 75 81 76 82 82 83 84 84
REMARK SMILES IDX 77 85 78 86 79 87 80 88 81 89 57 90 58 91 67 92 59 93 60 94
REMARK SMILES IDX 66 95 68 96 61 97 62 98 63 99 64 100 65 101
REMARK H PARENT 89 51 55 62
REMARK Flexibility Score: inf
ROOT
ATOM      1  C   UNL A   1      34.031  36.568  33.154  1.00  0.00     0.188 C 
ENDROOT
BRANCH   1   2
ATOM      2  O   UNL A   1      32.946  36.293  32.277  1.00  0.00    -0.376 OA
BRANCH   2   3
ATOM      3  C   UNL A   1      33.127  36.450  30.875  1.00  0.00     0.202 C 
BRANCH   3   4
ATOM      4  C   UNL A   1      33.327  35.194  30.007  1.00  0.00     0.261 C 
BRANCH   4   5
ATOM      5  O   UNL A   1      34.643  34.595  30.069  1.00  0.00    -0.463 OA
BRANCH   5   6
ATOM      6  C   UNL A   1      34.689  33.251  30.259  1.00  0.00     0.313 C 
ATOM      7  O   UNL A   1      34.081  32.682  31.163  1.00  0.00    -0.252 OA
BRANCH   6   8
ATOM      8  C   UNL A   1      35.531  32.449  29.258  1.00  0.00     0.126 C 
ATOM      9  C   UNL A   1      36.354  33.431  28.424  1.00  0.00     0.025 C 
BRANCH   8  10
ATOM     10  C   UNL A   1      34.900  31.391  28.352  1.00  0.00    -0.031 A 
ATOM     11  C   UNL A   1      33.619  29.487  26.624  1.00  0.00     0.018 A 
ATOM     12  C   UNL A   1      34.906  29.263  27.151  1.00  0.00     0.012 A 
ATOM     13  C   UNL A   1      32.995  30.688  26.976  1.00  0.00     0.131 A 
ATOM     14  C   UNL A   1      35.532  30.189  28.008  1.00  0.00     0.005 A 
ATOM     15  C   UNL A   1      33.609  31.615  27.828  1.00  0.00     0.044 A 
ATOM     16  F   UNL A   1      31.763  30.967  26.524  1.00  0.00    -0.206 F 
BRANCH  11  17
ATOM     17  C   UNL A   1      32.921  28.444  25.843  1.00  0.00    -0.008 A 
ATOM     18  C   UNL A   1      31.533  27.687  23.983  1.00  0.00     0.123 A 
ATOM     19  C   UNL A   1      31.532  26.395  24.515  1.00  0.00     0.092 A 
ATOM     20  C   UNL A   1      32.222  28.711  24.647  1.00  0.00     0.055 A 
ATOM     21  C   UNL A   1      32.211  26.107  25.696  1.00  0.00     0.123 A 
ATOM     22  C   UNL A   1      32.910  27.125  26.341  1.00  0.00     0.055 A 
BRANCH  18  23
ATOM     23  O   UNL A   1      30.781  27.811  22.846  1.00  0.00    -0.497 OA
ATOM     24  C   UNL A   1      30.395  29.122  22.457  1.00  0.00     0.278 C 
ENDBRANCH  18  23
BRANCH  21  25
ATOM     25  O   UNL A   1      32.122  24.809  26.120  1.00  0.00    -0.497 OA
ATOM     26  C   UNL A   1      30.809  24.322  26.374  1.00  0.00     0.278 C 
ENDBRANCH  21  25
ENDBRANCH  11  17
ENDBRANCH   8  10
ENDBRANCH   6   8
ENDBRANCH   5   6
ENDBRANCH   4   5
ENDBRANCH   3   4
ENDBRANCH   2   3
ENDBRANCH   1   2
BRANCH   1  27
ATOM     27  C   UNL A   1      34.630  35.415  33.971  1.00  0.00     0.188 C 
BRANCH  27  28
ATOM     28  O   UNL A   1      35.890  34.971  33.526  1.00  0.00    -0.376 OA
BRANCH  28  29
ATOM     29  C   UNL A   1      36.211  33.609  33.721  1.00  0.00     0.202 C 
BRANCH  29  30
ATOM     30  C   UNL A   1      37.274  32.991  32.801  1.00  0.00     0.261 C 
BRANCH  30  31
ATOM     31  O   UNL A   1      37.667  31.637  33.082  1.00  0.00    -0.460 OA
BRANCH  31  32
ATOM     32  C   UNL A   1      37.262  30.670  32.224  1.00  0.00     0.338 C 
ATOM     33  O   UNL A   1      36.109  30.338  31.988  1.00  0.00    -0.246 OA
BRANCH  32  34
ATOM     34  C   UNL A   1      38.451  30.242  31.449  1.00  0.00     0.060 A 
ATOM     35  C   UNL A   1      39.448  29.475  32.072  1.00  0.00     0.016 A 
ATOM     36  C   UNL A   1      38.565  30.572  30.097  1.00  0.00     0.016 A 
ATOM     37  C   UNL A   1      40.570  29.055  31.347  1.00  0.00     0.010 A 
ATOM     38  C   UNL A   1      39.697  30.174  29.382  1.00  0.00     0.010 A 
ATOM     39  C   UNL A   1      40.720  29.436  30.008  1.00  0.00    -0.014 A 
BRANCH  39  40
ATOM     40  C   UNL A   1      42.011  29.241  29.298  1.00  0.00     0.031 A 
ATOM     41  C   UNL A   1      42.306  27.880  28.726  1.00  0.00     0.074 A 
ATOM     42  C   UNL A   1      42.920  30.227  29.190  1.00  0.00     0.049 A 
ATOM     43  N   UNL A   1      43.409  27.420  28.194  1.00  0.00    -0.248 NA
ATOM     44  C   UNL A   1      41.206  26.903  28.770  1.00  0.00     0.031 C 
ATOM     45  C   UNL A   1      42.743  31.599  29.660  1.00  0.00     0.029 A 
ATOM     46  N   UNL A   1      44.191  30.214  28.665  1.00  0.00    -0.354 N 
ATOM     47  C   UNL A   1      43.143  26.098  27.858  1.00  0.00     0.074 A 
ATOM     48  C   UNL A   1      41.783  25.821  28.269  1.00  0.00     0.031 C 
ATOM     49  C   UNL A   1      43.873  32.290  29.425  1.00  0.00     0.029 A 
ATOM     50  C   UNL A   1      44.868  31.400  28.829  1.00  0.00     0.049 A 
ATOM     51  H   UNL A   1      44.580  29.429  28.216  1.00  0.00     0.167 HD
ATOM     52  C   UNL A   1      43.957  25.196  27.259  1.00  0.00     0.037 A 
ATOM     53  C   UNL A   1      46.152  31.718  28.560  1.00  0.00     0.037 A 
ATOM     54  C   UNL A   1      45.310  25.477  26.853  1.00  0.00     0.049 A 
ATOM     55  C   UNL A   1      47.067  30.675  27.963  1.00  0.00     0.074 A 
ATOM     56  C   UNL A   1      46.208  24.636  26.222  1.00  0.00     0.029 A 
ATOM     57  N   UNL A   1      45.962  26.685  27.048  1.00  0.00    -0.354 N 
ATOM     58  N   UNL A   1      46.801  29.432  27.634  1.00  0.00    -0.248 NA
ATOM     59  C   UNL A   1      48.459  31.075  27.704  1.00  0.00     0.031 C 
ATOM     60  C   UNL A   1      47.423  25.315  26.089  1.00  0.00     0.029 A 
ATOM     61  C   UNL A   1      47.261  26.603  26.574  1.00  0.00     0.049 A 
ATOM     62  H   UNL A   1      45.562  27.484  27.461  1.00  0.00     0.167 HD
ATOM     63  C   UNL A   1      47.978  28.918  27.096  1.00  0.00     0.074 A 
ATOM     64  C   UNL A   1      48.957  29.984  27.138  1.00  0.00     0.031 C 
ATOM     65  C   UNL A   1      48.224  27.677  26.606  1.00  0.00     0.037 A 
BRANCH  52  66
ATOM     66  C   UNL A   1      43.419  23.810  27.034  1.00  0.00     0.058 A 
ATOM     67  C   UNL A   1      43.006  23.369  25.767  1.00  0.00     0.135 A 
ATOM     68  C   UNL A   1      43.346  22.896  28.099  1.00  0.00     0.135 A 
ATOM     69  F   UNL A   1      43.034  24.205  24.717  1.00  0.00    -0.206 F 
ATOM     70  C   UNL A   1      42.519  22.081  25.568  1.00  0.00     0.059 A 
ATOM     71  C   UNL A   1      42.893  21.593  27.917  1.00  0.00     0.059 A 
ATOM     72  F   UNL A   1      43.724  23.265  29.333  1.00  0.00    -0.206 F 
ATOM     73  C   UNL A   1      42.469  21.199  26.650  1.00  0.00     0.060 A 
BRANCH  73  74
ATOM     74  S   UNL A   1      41.842  19.530  26.371  1.00  0.00     0.124 S 
ATOM     75  O   UNL A   1      40.408  19.774  26.249  1.00  0.00    -0.237 OA
ATOM     76  O   UNL A   1      42.527  19.143  25.141  1.00  0.00    -0.237 OA
ATOM     77  O   UNL A   1      42.255  18.806  27.570  1.00  0.00    -0.744 OA
ENDBRANCH  73  74
ENDBRANCH  52  66
BRANCH  53  78
ATOM     78  C   UNL A   1      46.666  33.081  28.872  1.00  0.00     0.058 A 
ATOM     79  C   UNL A   1      46.643  34.102  27.910  1.00  0.00     0.135 A 
ATOM     80  C   UNL A   1      47.205  33.388  30.132  1.00  0.00     0.135 A 
ATOM     81  F   UNL A   1      46.156  33.857  26.683  1.00  0.00    -0.206 F 
ATOM     82  C   UNL A   1      47.145  35.372  28.178  1.00  0.00     0.059 A 
ATOM     83  C   UNL A   1      47.686  34.659  30.435  1.00  0.00     0.059 A 
ATOM     84  F   UNL A   1      47.248  32.451  31.090  1.00  0.00    -0.206 F 
ATOM     85  C   UNL A   1      47.661  35.642  29.447  1.00  0.00     0.060 A 
BRANCH  85  86
ATOM     86  S   UNL A   1      48.267  37.307  29.798  1.00  0.00     0.124 S 
ATOM     87  O   UNL A   1      49.316  37.039  30.775  1.00  0.00    -0.237 OA
ATOM     88  O   UNL A   1      48.717  37.752  28.483  1.00  0.00    -0.237 OA
ATOM     89  O   UNL A   1      47.086  37.993  30.314  1.00  0.00    -0.744 OA
ENDBRANCH  85  86
ENDBRANCH  53  78
BRANCH  65  90
ATOM     90  C   UNL A   1      49.587  27.405  26.023  1.00  0.00     0.058 A 
ATOM     91  C   UNL A   1      50.695  27.098  26.829  1.00  0.00     0.135 A 
ATOM     92  C   UNL A   1      49.767  27.375  24.629  1.00  0.00     0.135 A 
ATOM     93  F   UNL A   1      50.584  27.117  28.167  1.00  0.00    -0.206 F 
ATOM     94  C   UNL A   1      51.935  26.792  26.275  1.00  0.00     0.059 A 
ATOM     95  C   UNL A   1      50.988  27.040  24.054  1.00  0.00     0.059 A 
ATOM     96  F   UNL A   1      48.737  27.647  23.809  1.00  0.00    -0.206 F 
ATOM     97  C   UNL A   1      52.070  26.759  24.886  1.00  0.00     0.060 A 
BRANCH  97  98
ATOM     98  S   UNL A   1      53.671  26.312  24.182  1.00  0.00     0.124 S 
ATOM     99  O   UNL A   1      53.576  26.885  22.844  1.00  0.00    -0.237 OA
ATOM    100  O   UNL A   1      54.606  26.971  25.089  1.00  0.00    -0.237 OA
ATOM    101  O   UNL A   1      53.674  24.852  24.239  1.00  0.00    -0.744 OA
ENDBRANCH  97  98
ENDBRANCH  65  90
ENDBRANCH  39  40
ENDBRANCH  32  34
ENDBRANCH  31  32
ENDBRANCH  30  31
ENDBRANCH  29  30
ENDBRANCH  28  29
ENDBRANCH  27  28
ENDBRANCH   1  27
TORSDOF 24
ENDMDL
MODEL 2
REMARK VINA RESULT:      -9.2      2.260      9.679
REMARK SMILES COc1cc(OC)cc(-c2ccc([C@@H](C)C(=O)OCCOCCOCCOC(=O)c3ccc(-c4c5nc(c(-c6c(F)cc(S(=O)(=O)[O-])cc6F)c6ccc([nH]6)c(-c6c(F)cc(S(=O)(=O)[O-])cc6F)c6nc(c(-c7c(F)cc(S(=O)(=O)[O-])cc7F)c7ccc4[nH]7)C=C6)C=C5)cc3)cc2F)c1
REMARK SMILES IDX 22 1 21 2 20 3 19 4 18 5 16 6 17 7 14 8 15 9 13 10 10 11
REMARK SMILES IDX 11 12 97 13 12 14 96 15 98 16 9 17 3 18 4 19 99 20 5 21 8 22
REMARK SMILES IDX 2 23 1 24 6 25 7 26 23 27 24 28 25 29 26 30 27 31 28 32
REMARK SMILES IDX 29 33 30 34 31 35 95 36 32 37 94 38 33 39 34 40 35 41 88 42
REMARK SMILES IDX 36 43 93 44 87 45 89 46 37 47 92 48 86 49 85 50 38 52 72 53
REMARK SMILES IDX 51 54 71 55 52 56 55 57 70 58 90 59 53 60 54 61 69 63 91 64
REMARK SMILES IDX 56 65 39 66 40 67 49 68 41 69 42 70 48 71 50 72 43 73 44 74
REMARK SMILES IDX 45 75 46 76 47 77 73 78 74 79 83 80 75 81 76 82 82 83 84 84
REMARK SMILES IDX 77 85 78 86 79 87 80 88 81 89 57 90 58 91 67 92 59 93 60 94
REMARK SMILES IDX 66 95 68 96 61 97 62 98 63 99 64 100 65 101
REMARK H PARENT 89 51 55 62
REMARK Flexibility Score: inf
ROOT
ATOM      1  C   UNL A   1      36.181  22.657  25.729  1.00  0.00     0.188 C 
ENDROOT
BRANCH   1   2
ATOM      2  O   UNL A   1      34.948  22.236  25.156  1.00  0.00    -0.376 OA
BRANCH   2   3
ATOM      3  C   UNL A   1      34.109  23.197  24.527  1.00  0.00     0.202 C 
BRANCH   3   4
ATOM      4  C   UNL A   1      34.689  24.582  24.192  1.00  0.00     0.261 C 
BRANCH   4   5
ATOM      5  O   UNL A   1      34.314  25.651  25.093  1.00  0.00    -0.463 OA
BRANCH   5   6
ATOM      6  C   UNL A   1      33.514  26.622  24.581  1.00  0.00     0.313 C 
ATOM      7  O   UNL A   1      33.420  26.846  23.375  1.00  0.00    -0.252 OA
BRANCH   6   8
ATOM      8  C   UNL A   1      32.691  27.431  25.591  1.00  0.00     0.126 C 
ATOM      9  C   UNL A   1      31.374  27.835  24.929  1.00  0.00     0.025 C 
BRANCH   8  10
ATOM     10  C   UNL A   1      33.292  28.624  26.336  1.00  0.00    -0.031 A 
ATOM     11  C   UNL A   1      34.534  30.801  27.738  1.00  0.00     0.018 A 
ATOM     12  C   UNL A   1      33.237  30.909  27.200  1.00  0.00     0.012 A 
ATOM     13  C   UNL A   1      35.195  29.583  27.550  1.00  0.00     0.131 A 
ATOM     14  C   UNL A   1      32.621  29.840  26.522  1.00  0.00     0.005 A 
ATOM     15  C   UNL A   1      34.590  28.513  26.878  1.00  0.00     0.044 A 
ATOM     16  F   UNL A   1      36.428  29.400  28.045  1.00  0.00    -0.206 F 
BRANCH  11  17
ATOM     17  C   UNL A   1      35.110  31.882  28.567  1.00  0.00    -0.008 A 
ATOM     18  C   UNL A   1      36.893  33.431  29.185  1.00  0.00     0.123 A 
ATOM     19  C   UNL A   1      36.143  33.847  30.289  1.00  0.00     0.092 A 
ATOM     20  C   UNL A   1      36.380  32.448  28.328  1.00  0.00     0.055 A 
ATOM     21  C   UNL A   1      34.889  33.301  30.548  1.00  0.00     0.123 A 
ATOM     22  C   UNL A   1      34.376  32.337  29.682  1.00  0.00     0.055 A 
BRANCH  18  23
ATOM     23  O   UNL A   1      38.120  34.031  29.099  1.00  0.00    -0.497 OA
ATOM     24  C   UNL A   1      38.966  33.956  30.239  1.00  0.00     0.278 C 
ENDBRANCH  18  23
BRANCH  21  25
ATOM     25  O   UNL A   1      34.263  33.781  31.666  1.00  0.00    -0.497 OA
ATOM     26  C   UNL A   1      34.063  35.189  31.716  1.00  0.00     0.278 C 
ENDBRANCH  21  25
ENDBRANCH  11  17
ENDBRANCH   8  10
ENDBRANCH   6   8
ENDBRANCH   5   6
ENDBRANCH   4   5
ENDBRANCH   3   4
ENDBRANCH   2   3
ENDBRANCH   1   2
BRANCH   1  27
ATOM     27  C   UNL A   1      37.489  22.086  25.165  1.00  0.00     0.188 C 
BRANCH  27  28
ATOM     28  O   UNL A   1      37.476  20.695  24.942  1.00  0.00    -0.376 OA
BRANCH  28  29
ATOM     29  C   UNL A   1      38.632  19.964  25.296  1.00  0.00     0.202 C 
BRANCH  29  30
ATOM     30  C   UNL A   1      39.743  20.714  26.047  1.00  0.00     0.261 C 
BRANCH  30  31
ATOM     31  O   UNL A   1      40.810  19.917  26.589  1.00  0.00    -0.460 OA
BRANCH  31  32
ATOM     32  C   UNL A   1      42.007  19.951  25.956  1.00  0.00     0.338 C 
ATOM     33  O   UNL A   1      42.437  19.130  25.159  1.00  0.00    -0.246 OA
BRANCH  32  34
ATOM     34  C   UNL A   1      42.611  21.278  26.226  1.00  0.00     0.060 A 
ATOM     35  C   UNL A   1      43.073  21.583  27.516  1.00  0.00     0.016 A 
ATOM     36  C   UNL A   1      42.750  22.209  25.195  1.00  0.00     0.016 A 
ATOM     37  C   UNL A   1      43.655  22.828  27.780  1.00  0.00     0.010 A 
ATOM     38  C   UNL A   1      43.308  23.461  25.466  1.00  0.00     0.010 A 
ATOM     39  C   UNL A   1      43.740  23.790  26.765  1.00  0.00    -0.014 A 
BRANCH  39  40
ATOM     40  C   UNL A   1      44.097  25.199  27.075  1.00  0.00     0.031 A 
ATOM     41  C   UNL A   1      45.472  25.681  26.695  1.00  0.00     0.074 A 
ATOM     42  C   UNL A   1      43.246  26.026  27.709  1.00  0.00     0.049 A 
ATOM     43  N   UNL A   1      46.069  26.808  26.983  1.00  0.00    -0.248 NA
ATOM     44  C   UNL A   1      46.286  24.758  25.888  1.00  0.00     0.031 C 
ATOM     45  C   UNL A   1      41.875  25.700  28.094  1.00  0.00     0.029 A 
ATOM     46  N   UNL A   1      43.425  27.312  28.164  1.00  0.00    -0.354 N 
ATOM     47  C   UNL A   1      47.333  26.723  26.409  1.00  0.00     0.074 A 
ATOM     48  C   UNL A   1      47.425  25.423  25.780  1.00  0.00     0.031 C 
ATOM     49  C   UNL A   1      41.344  26.749  28.747  1.00  0.00     0.029 A 
ATOM     50  C   UNL A   1      42.351  27.803  28.867  1.00  0.00     0.049 A 
ATOM     51  H   UNL A   1      44.246  27.830  28.001  1.00  0.00     0.167 HD
ATOM     52  C   UNL A   1      48.325  27.645  26.406  1.00  0.00     0.037 A 
ATOM     53  C   UNL A   1      42.209  28.955  29.556  1.00  0.00     0.037 A 
ATOM     54  C   UNL A   1      48.227  28.936  27.035  1.00  0.00     0.049 A 
ATOM     55  C   UNL A   1      43.356  29.937  29.605  1.00  0.00     0.074 A 
ATOM     56  C   UNL A   1      49.171  29.947  27.070  1.00  0.00     0.029 A 
ATOM     57  N   UNL A   1      47.128  29.390  27.748  1.00  0.00    -0.354 N 
ATOM     58  N   UNL A   1      44.541  29.854  29.046  1.00  0.00    -0.248 NA
ATOM     59  C   UNL A   1      43.149  31.169  30.382  1.00  0.00     0.031 C 
ATOM     60  C   UNL A   1      48.666  30.988  27.855  1.00  0.00     0.029 A 
ATOM     61  C   UNL A   1      47.381  30.656  28.250  1.00  0.00     0.049 A 
ATOM     62  H   UNL A   1      46.291  28.889  27.877  1.00  0.00     0.167 HD
ATOM     63  C   UNL A   1      45.202  31.036  29.371  1.00  0.00     0.074 A 
ATOM     64  C   UNL A   1      44.285  31.820  30.172  1.00  0.00     0.031 C 
ATOM     65  C   UNL A   1      46.454  31.437  29.033  1.00  0.00     0.037 A 
BRANCH  52  66
ATOM     66  C   UNL A   1      49.617  27.278  25.727  1.00  0.00     0.058 A 
ATOM     67  C   UNL A   1      49.798  27.430  24.343  1.00  0.00     0.135 A 
ATOM     68  C   UNL A   1      50.702  26.799  26.479  1.00  0.00     0.135 A 
ATOM     69  F   UNL A   1      48.789  27.865  23.572  1.00  0.00    -0.206 F 
ATOM     70  C   UNL A   1      51.000  27.098  23.726  1.00  0.00     0.059 A 
ATOM     71  C   UNL A   1      51.923  26.491  25.888  1.00  0.00     0.059 A 
ATOM     72  F   UNL A   1      50.583  26.630  27.805  1.00  0.00    -0.206 F 
ATOM     73  C   UNL A   1      52.058  26.631  24.509  1.00  0.00     0.060 A 
BRANCH  73  74
ATOM     74  S   UNL A   1      53.613  26.213  23.693  1.00  0.00     0.124 S 
ATOM     75  O   UNL A   1      54.042  25.049  24.462  1.00  0.00    -0.237 OA
ATOM     76  O   UNL A   1      53.183  25.945  22.324  1.00  0.00    -0.237 OA
ATOM     77  O   UNL A   1      54.424  27.414  23.869  1.00  0.00    -0.744 OA
ENDBRANCH  73  74
ENDBRANCH  52  66
BRANCH  53  78
ATOM     78  C   UNL A   1      40.940  29.243  30.281  1.00  0.00     0.058 A 
ATOM     79  C   UNL A   1      40.753  28.829  31.609  1.00  0.00     0.135 A 
ATOM     80  C   UNL A   1      39.882  29.925  29.658  1.00  0.00     0.135 A 
ATOM     81  F   UNL A   1      41.725  28.158  32.245  1.00  0.00    -0.206 F 
ATOM     82  C   UNL A   1      39.562  29.067  32.288  1.00  0.00     0.059 A 
ATOM     83  C   UNL A   1      38.692  30.201  30.325  1.00  0.00     0.059 A 
ATOM     84  F   UNL A   1      40.008  30.346  28.390  1.00  0.00    -0.206 F 
ATOM     85  C   UNL A   1      38.537  29.759  31.638  1.00  0.00     0.060 A 
BRANCH  85  86
ATOM     86  S   UNL A   1      37.015  30.103  32.546  1.00  0.00     0.124 S 
ATOM     87  O   UNL A   1      36.015  30.020  31.488  1.00  0.00    -0.237 OA
ATOM     88  O   UNL A   1      36.995  29.024  33.529  1.00  0.00    -0.237 OA
ATOM     89  O   UNL A   1      37.244  31.437  33.094  1.00  0.00    -0.744 OA
ENDBRANCH  85  86
ENDBRANCH  53  78
BRANCH  65  90
ATOM     90  C   UNL A   1      46.900  32.806  29.477  1.00  0.00     0.058 A 
ATOM     91  C   UNL A   1      47.541  33.019  30.707  1.00  0.00     0.135 A 
ATOM     92  C   UNL A   1      46.752  33.910  28.618  1.00  0.00     0.135 A 
ATOM     93  F   UNL A   1      47.705  32.003  31.569  1.00  0.00    -0.206 F 
ATOM     94  C   UNL A   1      48.000  34.280  31.079  1.00  0.00     0.059 A 
ATOM     95  C   UNL A   1      47.233  35.171  28.956  1.00  0.00     0.059 A 
ATOM     96  F   UNL A   1      46.158  33.761  27.423  1.00  0.00    -0.206 F 
ATOM     97  C   UNL A   1      47.848  35.348  30.194  1.00  0.00     0.060 A 
BRANCH  97  98
ATOM     98  S   UNL A   1      48.493  36.966  30.670  1.00  0.00     0.124 S 
ATOM     99  O   UNL A   1      49.194  37.373  29.457  1.00  0.00    -0.237 OA
ATOM    100  O   UNL A   1      47.275  37.709  30.978  1.00  0.00    -0.237 OA
ATOM    101  O   UNL A   1      49.347  36.669  31.817  1.00  0.00    -0.744 OA
ENDBRANCH  97  98
ENDBRANCH  65  90
ENDBRANCH  39  40
ENDBRANCH  32  34
ENDBRANCH  31  32
ENDBRANCH  30  31
ENDBRANCH  29  30
ENDBRANCH  28  29
ENDBRANCH  27  28
ENDBRANCH   1  27
TORSDOF 24
ENDMDL
MODEL 3
REMARK VINA RESULT:      -9.0      3.557      9.214
REMARK SMILES COc1cc(OC)cc(-c2ccc([C@@H](C)C(=O)OCCOCCOCCOC(=O)c3ccc(-c4c5nc(c(-c6c(F)cc(S(=O)(=O)[O-])cc6F)c6ccc([nH]6)c(-c6c(F)cc(S(=O)(=O)[O-])cc6F)c6nc(c(-c7c(F)cc(S(=O)(=O)[O-])cc7F)c7ccc4[nH]7)C=C6)C=C5)cc3)cc2F)c1
REMARK SMILES IDX 22 1 21 2 20 3 19 4 18 5 16 6 17 7 14 8 15 9 13 10 10 11
REMARK SMILES IDX 11 12 97 13 12 14 96 15 98 16 9 17 3 18 4 19 99 20 5 21 8 22
REMARK SMILES IDX 2 23 1 24 6 25 7 26 23 27 24 28 25 29 26 30 27 31 28 32
REMARK SMILES IDX 29 33 30 34 31 35 95 36 32 37 94 38 33 39 34 40 35 41 88 42
REMARK SMILES IDX 36 43 93 44 87 45 89 46 37 47 92 48 86 49 85 50 38 52 72 53
REMARK SMILES IDX 51 54 71 55 52 56 55 57 70 58 90 59 53 60 54 61 69 63 91 64
REMARK SMILES IDX 56 65 39 66 40 67 49 68 41 69 42 70 48 71 50 72 43 73 44 74
REMARK SMILES IDX 45 75 46 76 47 77 73 78 74 79 83 80 75 81 76 82 82 83 84 84
REMARK SMILES IDX 77 85 78 86 79 87 80 88 81 89 57 90 58 91 67 92 59 93 60 94
REMARK SMILES IDX 66 95 68 96 61 97 62 98 63 99 64 100 65 101
REMARK H PARENT 89 51 55 62
REMARK Flexibility Score: inf
ROOT
ATOM      1  C   UNL A   1      34.722  22.678  26.272  1.00  0.00     0.188 C 
ENDROOT
BRANCH   1   2
ATOM      2  O   UNL A   1      33.757  22.653  27.317  1.00  0.00    -0.376 OA
BRANCH   2   3
ATOM      3  C   UNL A   1      32.402  22.969  27.020  1.00  0.00     0.202 C 
BRANCH   3   4
ATOM      4  C   UNL A   1      32.091  23.791  25.757  1.00  0.00     0.261 C 
BRANCH   4   5
ATOM      5  O   UNL A   1      30.689  24.051  25.509  1.00  0.00    -0.463 OA
BRANCH   5   6
ATOM      6  C   UNL A   1      30.399  24.861  24.458  1.00  0.00     0.313 C 
ATOM      7  O   UNL A   1      30.421  24.476  23.291  1.00  0.00    -0.252 OA
BRANCH   6   8
ATOM      8  C   UNL A   1      30.009  26.305  24.797  1.00  0.00     0.126 C 
ATOM      9  C   UNL A   1      29.429  26.956  23.542  1.00  0.00     0.025 C 
BRANCH   8  10
ATOM     10  C   UNL A   1      30.993  27.259  25.477  1.00  0.00    -0.031 A 
ATOM     11  C   UNL A   1      32.854  29.112  26.639  1.00  0.00     0.018 A 
ATOM     12  C   UNL A   1      32.122  28.203  27.427  1.00  0.00     0.012 A 
ATOM     13  C   UNL A   1      32.627  29.075  25.260  1.00  0.00     0.131 A 
ATOM     14  C   UNL A   1      31.217  27.286  26.859  1.00  0.00     0.005 A 
ATOM     15  C   UNL A   1      31.730  28.166  24.685  1.00  0.00     0.044 A 
ATOM     16  F   UNL A   1      33.297  29.901  24.442  1.00  0.00    -0.206 F 
BRANCH  11  17
ATOM     17  C   UNL A   1      33.901  29.969  27.235  1.00  0.00    -0.008 A 
ATOM     18  C   UNL A   1      34.687  32.030  28.281  1.00  0.00     0.123 A 
ATOM     19  C   UNL A   1      35.999  31.553  28.228  1.00  0.00     0.092 A 
ATOM     20  C   UNL A   1      33.640  31.243  27.781  1.00  0.00     0.055 A 
ATOM     21  C   UNL A   1      36.283  30.300  27.691  1.00  0.00     0.123 A 
ATOM     22  C   UNL A   1      35.236  29.514  27.213  1.00  0.00     0.055 A 
BRANCH  18  23
ATOM     23  O   UNL A   1      34.585  33.295  28.794  1.00  0.00    -0.497 OA
ATOM     24  C   UNL A   1      34.862  34.381  27.920  1.00  0.00     0.278 C 
ENDBRANCH  18  23
BRANCH  21  25
ATOM     25  O   UNL A   1      37.606  29.953  27.684  1.00  0.00    -0.497 OA
ATOM     26  C   UNL A   1      37.988  28.924  28.590  1.00  0.00     0.278 C 
ENDBRANCH  21  25
ENDBRANCH  11  17
ENDBRANCH   8  10
ENDBRANCH   6   8
ENDBRANCH   5   6
ENDBRANCH   4   5
ENDBRANCH   3   4
ENDBRANCH   2   3
ENDBRANCH   1   2
BRANCH   1  27
ATOM     27  C   UNL A   1      34.765  21.508  25.280  1.00  0.00     0.188 C 
BRANCH  27  28
ATOM     28  O   UNL A   1      35.910  20.693  25.380  1.00  0.00    -0.376 OA
BRANCH  28  29
ATOM     29  C   UNL A   1      37.149  21.255  25.000  1.00  0.00     0.202 C 
BRANCH  29  30
ATOM     30  C   UNL A   1      38.414  20.424  25.261  1.00  0.00     0.261 C 
BRANCH  30  31
ATOM     31  O   UNL A   1      39.501  21.091  25.927  1.00  0.00    -0.460 OA
BRANCH  31  32
ATOM     32  C   UNL A   1      40.667  20.416  26.063  1.00  0.00     0.338 C 
ATOM     33  O   UNL A   1      40.853  19.226  25.849  1.00  0.00    -0.246 OA
BRANCH  32  34
ATOM     34  C   UNL A   1      41.733  21.420  26.297  1.00  0.00     0.060 A 
ATOM     35  C   UNL A   1      43.069  21.002  26.408  1.00  0.00     0.016 A 
ATOM     36  C   UNL A   1      41.415  22.777  26.374  1.00  0.00     0.016 A 
ATOM     37  C   UNL A   1      44.085  21.942  26.617  1.00  0.00     0.010 A 
ATOM     38  C   UNL A   1      42.428  23.710  26.608  1.00  0.00     0.010 A 
ATOM     39  C   UNL A   1      43.765  23.298  26.758  1.00  0.00    -0.014 A 
BRANCH  39  40
ATOM     40  C   UNL A   1      44.774  24.274  27.247  1.00  0.00     0.031 A 
ATOM     41  C   UNL A   1      44.642  24.784  28.658  1.00  0.00     0.074 A 
ATOM     42  C   UNL A   1      45.765  24.729  26.458  1.00  0.00     0.049 A 
ATOM     43  N   UNL A   1      45.300  25.736  29.265  1.00  0.00    -0.248 NA
ATOM     44  C   UNL A   1      43.617  24.135  29.491  1.00  0.00     0.031 C 
ATOM     45  C   UNL A   1      46.031  24.287  25.091  1.00  0.00     0.029 A 
ATOM     46  N   UNL A   1      46.720  25.690  26.692  1.00  0.00    -0.354 N 
ATOM     47  C   UNL A   1      44.759  25.813  30.543  1.00  0.00     0.074 A 
ATOM     48  C   UNL A   1      43.701  24.829  30.615  1.00  0.00     0.031 C 
ATOM     49  C   UNL A   1      47.066  24.992  24.598  1.00  0.00     0.029 A 
ATOM     50  C   UNL A   1      47.506  25.966  25.597  1.00  0.00     0.049 A 
ATOM     51  H   UNL A   1      46.830  26.139  27.561  1.00  0.00     0.167 HD
ATOM     52  C   UNL A   1      45.113  26.628  31.565  1.00  0.00     0.037 A 
ATOM     53  C   UNL A   1      48.447  26.915  25.413  1.00  0.00     0.037 A 
ATOM     54  C   UNL A   1      46.167  27.606  31.487  1.00  0.00     0.049 A 
ATOM     55  C   UNL A   1      48.774  27.866  26.540  1.00  0.00     0.074 A 
ATOM     56  C   UNL A   1      46.614  28.467  32.474  1.00  0.00     0.029 A 
ATOM     57  N   UNL A   1      46.930  27.863  30.358  1.00  0.00    -0.354 N 
ATOM     58  N   UNL A   1      48.268  27.920  27.750  1.00  0.00    -0.248 NA
ATOM     59  C   UNL A   1      49.798  28.889  26.277  1.00  0.00     0.031 C 
ATOM     60  C   UNL A   1      47.606  29.284  31.925  1.00  0.00     0.029 A 
ATOM     61  C   UNL A   1      47.826  28.887  30.615  1.00  0.00     0.049 A 
ATOM     62  H   UNL A   1      46.848  27.387  29.500  1.00  0.00     0.167 HD
ATOM     63  C   UNL A   1      48.938  28.953  28.400  1.00  0.00     0.074 A 
ATOM     64  C   UNL A   1      49.889  29.495  27.453  1.00  0.00     0.031 C 
ATOM     65  C   UNL A   1      48.782  29.409  29.669  1.00  0.00     0.037 A 
BRANCH  52  66
ATOM     66  C   UNL A   1      44.334  26.521  32.847  1.00  0.00     0.058 A 
ATOM     67  C   UNL A   1      43.259  27.376  33.137  1.00  0.00     0.135 A 
ATOM     68  C   UNL A   1      44.647  25.523  33.785  1.00  0.00     0.135 A 
ATOM     69  F   UNL A   1      42.928  28.360  32.287  1.00  0.00    -0.206 F 
ATOM     70  C   UNL A   1      42.538  27.261  34.322  1.00  0.00     0.059 A 
ATOM     71  C   UNL A   1      43.919  25.369  34.961  1.00  0.00     0.059 A 
ATOM     72  F   UNL A   1      45.667  24.680  33.561  1.00  0.00    -0.206 F 
ATOM     73  C   UNL A   1      42.875  26.253  35.227  1.00  0.00     0.060 A 
BRANCH  73  74
ATOM     74  S   UNL A   1      41.923  26.113  36.754  1.00  0.00     0.124 S 
ATOM     75  O   UNL A   1      42.949  26.369  37.761  1.00  0.00    -0.237 OA
ATOM     76  O   UNL A   1      40.920  27.161  36.591  1.00  0.00    -0.237 OA
ATOM     77  O   UNL A   1      41.411  24.747  36.714  1.00  0.00    -0.744 OA
ENDBRANCH  73  74
ENDBRANCH  52  66
BRANCH  53  78
ATOM     78  C   UNL A   1      49.140  27.038  24.099  1.00  0.00     0.058 A 
ATOM     79  C   UNL A   1      50.465  26.607  23.936  1.00  0.00     0.135 A 
ATOM     80  C   UNL A   1      48.498  27.600  22.984  1.00  0.00     0.135 A 
ATOM     81  F   UNL A   1      51.131  26.078  24.975  1.00  0.00    -0.206 F 
ATOM     82  C   UNL A   1      51.134  26.741  22.723  1.00  0.00     0.059 A 
ATOM     83  C   UNL A   1      49.134  27.718  21.752  1.00  0.00     0.059 A 
ATOM     84  F   UNL A   1      47.229  28.026  23.084  1.00  0.00    -0.206 F 
ATOM     85  C   UNL A   1      50.457  27.294  21.634  1.00  0.00     0.060 A 
BRANCH  85  86
ATOM     86  S   UNL A   1      51.320  27.418  20.052  1.00  0.00     0.124 S 
ATOM     87  O   UNL A   1      51.693  28.828  20.030  1.00  0.00    -0.237 OA
ATOM     88  O   UNL A   1      52.416  26.470  20.228  1.00  0.00    -0.237 OA
ATOM     89  O   UNL A   1      50.304  27.020  19.083  1.00  0.00    -0.744 OA
ENDBRANCH  85  86
ENDBRANCH  53  78
BRANCH  65  90
ATOM     90  C   UNL A   1      49.691  30.515  30.139  1.00  0.00     0.058 A 
ATOM     91  C   UNL A   1      49.366  31.870  29.970  1.00  0.00     0.135 A 
ATOM     92  C   UNL A   1      50.872  30.210  30.839  1.00  0.00     0.135 A 
ATOM     93  F   UNL A   1      48.253  32.220  29.305  1.00  0.00    -0.206 F 
ATOM     94  C   UNL A   1      50.187  32.881  30.460  1.00  0.00     0.059 A 
ATOM     95  C   UNL A   1      51.691  31.205  31.365  1.00  0.00     0.059 A 
ATOM     96  F   UNL A   1      51.227  28.930  31.040  1.00  0.00    -0.206 F 
ATOM     97  C   UNL A   1      51.344  32.539  31.163  1.00  0.00     0.060 A 
BRANCH  97  98
ATOM     98  S   UNL A   1      52.373  33.862  31.835  1.00  0.00     0.124 S 
ATOM     99  O   UNL A   1      53.535  33.119  32.311  1.00  0.00    -0.237 OA
ATOM    100  O   UNL A   1      52.596  34.707  30.667  1.00  0.00    -0.237 OA
ATOM    101  O   UNL A   1      51.535  34.450  32.877  1.00  0.00    -0.744 OA
ENDBRANCH  97  98
ENDBRANCH  65  90
ENDBRANCH  39  40
ENDBRANCH  32  34
ENDBRANCH  31  32
ENDBRANCH  30  31
ENDBRANCH  29  30
ENDBRANCH  28  29
ENDBRANCH  27  28
ENDBRANCH   1  27
TORSDOF 24
ENDMDL
