MODEL 1
REMARK VINA RESULT:     -12.1      0.000      0.000
REMARK SMILES O=C(OCCOCCOCCOC(=O)c1ccn(-c2cc(-c3ccncc3)nc(-c3ccccc3F)n2)n1)c1ccc(-c2c3nc(c(-c4c(F)cc(S(=O)(=O)[O-])cc4F)c4ccc([nH]4)c(-c4c(F)cc(S(=O)(=O)[O-])cc4F)c4nc(c(-c5c(F)cc(S(=O)(=O)[O-])cc5F)c5ccc2[nH]5)C=C4)C=C3)cc1
REMARK SMILES IDX 7 1 6 2 5 3 4 4 3 5 2 6 1 7 39 8 40 9 104 10 41 11 103 12
REMARK SMILES IDX 42 13 43 14 44 15 97 16 45 17 102 18 96 19 98 20 46 21
REMARK SMILES IDX 101 22 95 23 94 24 47 26 81 27 60 28 80 29 61 30 64 31 79 32
REMARK SMILES IDX 99 33 62 34 63 35 78 37 100 38 65 39 48 40 49 41 58 42 50 43
REMARK SMILES IDX 51 44 57 45 59 46 52 47 53 48 54 49 55 50 56 51 82 52 83 53
REMARK SMILES IDX 92 54 84 55 85 56 91 57 93 58 86 59 87 60 88 61 89 62 90 63
REMARK SMILES IDX 66 64 67 65 76 66 68 67 69 68 75 69 77 70 70 71 71 72 72 73
REMARK SMILES IDX 73 74 74 75 8 76 9 77 10 78 11 79 12 80 13 81 14 82 15 83
REMARK SMILES IDX 16 84 38 85 17 86 18 87 19 88 20 89 37 90 21 91 29 92 28 93
REMARK SMILES IDX 22 94 23 95 27 96 24 97 26 98 25 99 30 100 31 101 35 102
REMARK SMILES IDX 32 103 34 104 36 105 33 106
REMARK H PARENT 98 25 64 36
REMARK Flexibility Score: inf
ROOT
ATOM      1  C   UNL A   1      31.310  28.207  25.721  1.00  0.00     0.188 C 
ENDROOT
BRANCH   1   2
ATOM      2  O   UNL A   1      32.394  29.012  26.164  1.00  0.00    -0.376 OA
BRANCH   2   3
ATOM      3  C   UNL A   1      32.110  30.396  26.271  1.00  0.00     0.202 C 
BRANCH   3   4
ATOM      4  C   UNL A   1      32.858  31.048  27.432  1.00  0.00     0.261 C 
BRANCH   4   5
ATOM      5  O   UNL A   1      34.276  31.222  27.233  1.00  0.00    -0.460 OA
BRANCH   5   6
ATOM      6  C   UNL A   1      35.215  31.917  27.901  1.00  0.00     0.338 C 
ATOM      7  O   UNL A   1      35.151  33.146  27.897  1.00  0.00    -0.246 OA
BRANCH   6   8
ATOM      8  C   UNL A   1      36.414  31.291  28.520  1.00  0.00     0.060 A 
ATOM      9  C   UNL A   1      37.489  31.984  29.078  1.00  0.00     0.016 A 
ATOM     10  C   UNL A   1      36.477  29.885  28.455  1.00  0.00     0.016 A 
ATOM     11  C   UNL A   1      38.629  31.297  29.490  1.00  0.00     0.010 A 
ATOM     12  C   UNL A   1      37.614  29.197  28.866  1.00  0.00     0.010 A 
ATOM     13  C   UNL A   1      38.720  29.912  29.325  1.00  0.00    -0.014 A 
BRANCH  13  14
ATOM     14  C   UNL A   1      40.030  29.291  29.542  1.00  0.00     0.031 A 
ATOM     15  C   UNL A   1      40.521  29.144  30.953  1.00  0.00     0.074 A 
ATOM     16  C   UNL A   1      40.763  28.838  28.500  1.00  0.00     0.049 A 
ATOM     17  N   UNL A   1      41.687  29.419  31.450  1.00  0.00    -0.248 NA
ATOM     18  C   UNL A   1      39.573  28.633  31.953  1.00  0.00     0.031 C 
ATOM     19  C   UNL A   1      40.354  28.682  27.098  1.00  0.00     0.029 A 
ATOM     20  N   UNL A   1      42.033  28.342  28.503  1.00  0.00    -0.354 N 
ATOM     21  C   UNL A   1      41.680  28.956  32.770  1.00  0.00     0.074 A 
ATOM     22  C   UNL A   1      40.347  28.486  33.031  1.00  0.00     0.031 C 
ATOM     23  C   UNL A   1      41.278  27.949  26.439  1.00  0.00     0.029 A 
ATOM     24  C   UNL A   1      42.401  27.711  27.325  1.00  0.00     0.049 A 
ATOM     25  H   UNL A   1      42.637  28.426  29.276  1.00  0.00     0.167 HD
ATOM     26  C   UNL A   1      42.797  28.921  33.552  1.00  0.00     0.037 A 
ATOM     27  C   UNL A   1      43.532  27.002  27.098  1.00  0.00     0.037 A 
ATOM     28  C   UNL A   1      43.756  29.899  33.128  1.00  0.00     0.049 A 
ATOM     29  C   UNL A   1      44.534  27.430  28.103  1.00  0.00     0.074 A 
ATOM     30  C   UNL A   1      43.762  31.278  33.096  1.00  0.00     0.029 A 
ATOM     31  N   UNL A   1      44.830  29.498  32.380  1.00  0.00    -0.354 N 
ATOM     32  N   UNL A   1      45.084  28.613  28.151  1.00  0.00    -0.248 NA
ATOM     33  C   UNL A   1      44.689  26.619  29.300  1.00  0.00     0.031 C 
ATOM     34  C   UNL A   1      44.550  31.620  31.963  1.00  0.00     0.029 A 
ATOM     35  C   UNL A   1      44.991  30.427  31.384  1.00  0.00     0.049 A 
ATOM     36  H   UNL A   1      45.382  28.697  32.528  1.00  0.00     0.167 HD
ATOM     37  C   UNL A   1      45.314  28.844  29.499  1.00  0.00     0.074 A 
ATOM     38  C   UNL A   1      45.171  27.541  30.135  1.00  0.00     0.031 C 
ATOM     39  C   UNL A   1      45.343  30.107  30.015  1.00  0.00     0.037 A 
BRANCH  26  40
ATOM     40  C   UNL A   1      43.121  27.866  34.585  1.00  0.00     0.058 A 
ATOM     41  C   UNL A   1      43.833  26.687  34.283  1.00  0.00     0.135 A 
ATOM     42  C   UNL A   1      42.997  28.162  35.960  1.00  0.00     0.135 A 
ATOM     43  F   UNL A   1      44.025  26.289  33.019  1.00  0.00    -0.206 F 
ATOM     44  C   UNL A   1      44.445  25.904  35.259  1.00  0.00     0.059 A 
ATOM     45  C   UNL A   1      43.620  27.405  36.956  1.00  0.00     0.059 A 
ATOM     46  F   UNL A   1      42.316  29.244  36.369  1.00  0.00    -0.206 F 
ATOM     47  C   UNL A   1      44.370  26.294  36.589  1.00  0.00     0.060 A 
BRANCH  47  48
ATOM     48  S   UNL A   1      45.340  25.377  37.804  1.00  0.00     0.124 S 
ATOM     49  O   UNL A   1      45.094  26.146  39.019  1.00  0.00    -0.237 OA
ATOM     50  O   UNL A   1      44.715  24.060  37.746  1.00  0.00    -0.237 OA
ATOM     51  O   UNL A   1      46.698  25.453  37.279  1.00  0.00    -0.744 OA
ENDBRANCH  47  48
ENDBRANCH  26  40
BRANCH  27  52
ATOM     52  C   UNL A   1      43.691  25.775  26.277  1.00  0.00     0.058 A 
ATOM     53  C   UNL A   1      42.961  24.603  26.558  1.00  0.00     0.135 A 
ATOM     54  C   UNL A   1      44.765  25.641  25.378  1.00  0.00     0.135 A 
ATOM     55  F   UNL A   1      41.942  24.607  27.430  1.00  0.00    -0.206 F 
ATOM     56  C   UNL A   1      43.303  23.364  26.020  1.00  0.00     0.059 A 
ATOM     57  C   UNL A   1      45.132  24.405  24.833  1.00  0.00     0.059 A 
ATOM     58  F   UNL A   1      45.521  26.705  25.066  1.00  0.00    -0.206 F 
ATOM     59  C   UNL A   1      44.410  23.268  25.185  1.00  0.00     0.060 A 
BRANCH  59  60
ATOM     60  S   UNL A   1      44.925  21.621  24.649  1.00  0.00     0.124 S 
ATOM     61  O   UNL A   1      44.175  20.761  25.559  1.00  0.00    -0.237 OA
ATOM     62  O   UNL A   1      44.485  21.604  23.257  1.00  0.00    -0.237 OA
ATOM     63  O   UNL A   1      46.371  21.633  24.847  1.00  0.00    -0.744 OA
ENDBRANCH  59  60
ENDBRANCH  27  52
BRANCH  39  64
ATOM     64  C   UNL A   1      45.436  31.282  29.072  1.00  0.00     0.058 A 
ATOM     65  C   UNL A   1      44.247  31.798  28.533  1.00  0.00     0.135 A 
ATOM     66  C   UNL A   1      46.644  31.736  28.515  1.00  0.00     0.135 A 
ATOM     67  F   UNL A   1      43.058  31.364  28.984  1.00  0.00    -0.206 F 
ATOM     68  C   UNL A   1      44.250  32.692  27.464  1.00  0.00     0.059 A 
ATOM     69  C   UNL A   1      46.671  32.658  27.466  1.00  0.00     0.059 A 
ATOM     70  F   UNL A   1      47.819  31.225  28.907  1.00  0.00    -0.206 F 
ATOM     71  C   UNL A   1      45.468  33.104  26.926  1.00  0.00     0.060 A 
BRANCH  71  72
ATOM     72  S   UNL A   1      45.446  34.172  25.469  1.00  0.00     0.124 S 
ATOM     73  O   UNL A   1      44.667  35.312  25.945  1.00  0.00    -0.237 OA
ATOM     74  O   UNL A   1      46.865  34.430  25.244  1.00  0.00    -0.237 OA
ATOM     75  O   UNL A   1      44.793  33.356  24.449  1.00  0.00    -0.744 OA
ENDBRANCH  71  72
ENDBRANCH  39  64
ENDBRANCH  13  14
ENDBRANCH   6   8
ENDBRANCH   5   6
ENDBRANCH   4   5
ENDBRANCH   3   4
ENDBRANCH   2   3
ENDBRANCH   1   2
BRANCH   1  76
ATOM     76  C   UNL A   1      31.164  28.135  24.185  1.00  0.00     0.188 C 
BRANCH  76  77
ATOM     77  O   UNL A   1      32.085  28.760  23.289  1.00  0.00    -0.376 OA
BRANCH  77  78
ATOM     78  C   UNL A   1      33.396  28.252  23.143  1.00  0.00     0.202 C 
BRANCH  78  79
ATOM     79  C   UNL A   1      33.819  27.949  21.705  1.00  0.00     0.261 C 
BRANCH  79  80
ATOM     80  O   UNL A   1      33.787  26.551  21.377  1.00  0.00    -0.458 OA
BRANCH  80  81
ATOM     81  C   UNL A   1      32.565  25.947  21.460  1.00  0.00     0.358 C 
ATOM     82  O   UNL A   1      31.589  26.262  20.792  1.00  0.00    -0.244 OA
BRANCH  81  83
ATOM     83  C   UNL A   1      32.477  24.950  22.540  1.00  0.00     0.170 A 
ATOM     84  C   UNL A   1      31.268  24.316  22.914  1.00  0.00     0.058 A 
ATOM     85  N   UNL A   1      33.535  24.429  23.214  1.00  0.00    -0.159 NA
ATOM     86  C   UNL A   1      31.650  23.257  23.691  1.00  0.00     0.118 A 
ATOM     87  N   UNL A   1      33.025  23.297  23.788  1.00  0.00    -0.222 N 
BRANCH  87  88
ATOM     88  C   UNL A   1      33.816  22.210  24.272  1.00  0.00     0.158 A 
ATOM     89  C   UNL A   1      33.273  20.949  24.447  1.00  0.00     0.078 A 
ATOM     90  N   UNL A   1      35.126  22.495  24.487  1.00  0.00    -0.209 NA
ATOM     91  C   UNL A   1      34.183  19.962  24.796  1.00  0.00     0.077 A 
ATOM     92  C   UNL A   1      35.891  21.488  24.922  1.00  0.00     0.165 A 
ATOM     93  N   UNL A   1      35.472  20.232  25.079  1.00  0.00    -0.228 NA
BRANCH  91  94
ATOM     94  C   UNL A   1      33.912  18.522  24.794  1.00  0.00     0.003 A 
ATOM     95  C   UNL A   1      32.730  18.030  25.366  1.00  0.00     0.030 A 
ATOM     96  C   UNL A   1      34.710  17.625  24.076  1.00  0.00     0.030 A 
ATOM     97  C   UNL A   1      32.425  16.685  25.228  1.00  0.00     0.111 A 
ATOM     98  C   UNL A   1      34.320  16.295  23.997  1.00  0.00     0.111 A 
ATOM     99  N   UNL A   1      33.205  15.809  24.571  1.00  0.00    -0.265 NA
ENDBRANCH  91  94
BRANCH  92 100
ATOM    100  C   UNL A   1      37.234  21.787  25.383  1.00  0.00     0.055 A 
ATOM    101  C   UNL A   1      37.541  23.040  25.943  1.00  0.00     0.015 A 
ATOM    102  C   UNL A   1      38.238  20.816  25.350  1.00  0.00     0.134 A 
ATOM    103  C   UNL A   1      38.809  23.297  26.468  1.00  0.00     0.001 A 
ATOM    104  C   UNL A   1      39.507  21.068  25.868  1.00  0.00     0.040 A 
ATOM    105  F   UNL A   1      37.998  19.613  24.807  1.00  0.00    -0.206 F 
ATOM    106  C   UNL A   1      39.791  22.309  26.434  1.00  0.00     0.003 A 
ENDBRANCH  92 100
ENDBRANCH  87  88
ENDBRANCH  81  83
ENDBRANCH  80  81
ENDBRANCH  79  80
ENDBRANCH  78  79
ENDBRANCH  77  78
ENDBRANCH  76  77
ENDBRANCH   1  76
TORSDOF 23
ENDMDL
MODEL 2
REMARK VINA RESULT:     -12.0      1.441      2.294
REMARK SMILES O=C(OCCOCCOCCOC(=O)c1ccn(-c2cc(-c3ccncc3)nc(-c3ccccc3F)n2)n1)c1ccc(-c2c3nc(c(-c4c(F)cc(S(=O)(=O)[O-])cc4F)c4ccc([nH]4)c(-c4c(F)cc(S(=O)(=O)[O-])cc4F)c4nc(c(-c5c(F)cc(S(=O)(=O)[O-])cc5F)c5ccc2[nH]5)C=C4)C=C3)cc1
REMARK SMILES IDX 7 1 6 2 5 3 4 4 3 5 2 6 1 7 39 8 40 9 104 10 41 11 103 12
REMARK SMILES IDX 42 13 43 14 44 15 97 16 45 17 102 18 96 19 98 20 46 21
REMARK SMILES IDX 101 22 95 23 94 24 47 26 81 27 60 28 80 29 61 30 64 31 79 32
REMARK SMILES IDX 99 33 62 34 63 35 78 37 100 38 65 39 48 40 49 41 58 42 50 43
REMARK SMILES IDX 51 44 57 45 59 46 52 47 53 48 54 49 55 50 56 51 82 52 83 53
REMARK SMILES IDX 92 54 84 55 85 56 91 57 93 58 86 59 87 60 88 61 89 62 90 63
REMARK SMILES IDX 66 64 67 65 76 66 68 67 69 68 75 69 77 70 70 71 71 72 72 73
REMARK SMILES IDX 73 74 74 75 8 76 9 77 10 78 11 79 12 80 13 81 14 82 15 83
REMARK SMILES IDX 16 84 38 85 17 86 18 87 19 88 20 89 37 90 21 91 29 92 28 93
REMARK SMILES IDX 22 94 23 95 27 96 24 97 26 98 25 99 30 100 31 101 35 102
REMARK SMILES IDX 32 103 34 104 36 105 33 106
REMARK H PARENT 98 25 64 36
REMARK Flexibility Score: inf
ROOT
ATOM      1  C   UNL A   1      34.037  30.296  27.084  1.00  0.00     0.188 C 
ENDROOT
BRANCH   1   2
ATOM      2  O   UNL A   1      34.235  31.062  28.265  1.00  0.00    -0.376 OA
BRANCH   2   3
ATOM      3  C   UNL A   1      34.592  32.416  28.050  1.00  0.00     0.202 C 
BRANCH   3   4
ATOM      4  C   UNL A   1      34.492  33.245  29.329  1.00  0.00     0.261 C 
BRANCH   4   5
ATOM      5  O   UNL A   1      34.371  32.487  30.550  1.00  0.00    -0.460 OA
BRANCH   5   6
ATOM      6  C   UNL A   1      35.276  31.993  31.414  1.00  0.00     0.338 C 
ATOM      7  O   UNL A   1      35.243  32.374  32.583  1.00  0.00    -0.246 OA
BRANCH   6   8
ATOM      8  C   UNL A   1      36.413  31.124  31.005  1.00  0.00     0.060 A 
ATOM      9  C   UNL A   1      36.496  29.748  31.220  1.00  0.00     0.016 A 
ATOM     10  C   UNL A   1      37.514  31.785  30.424  1.00  0.00     0.016 A 
ATOM     11  C   UNL A   1      37.674  29.063  30.935  1.00  0.00     0.010 A 
ATOM     12  C   UNL A   1      38.692  31.102  30.137  1.00  0.00     0.010 A 
ATOM     13  C   UNL A   1      38.794  29.748  30.455  1.00  0.00    -0.014 A 
BRANCH  13  14
ATOM     14  C   UNL A   1      40.066  29.020  30.415  1.00  0.00     0.031 A 
ATOM     15  C   UNL A   1      40.961  29.090  31.618  1.00  0.00     0.074 A 
ATOM     16  C   UNL A   1      40.409  28.285  29.335  1.00  0.00     0.049 A 
ATOM     17  N   UNL A   1      42.238  29.307  31.681  1.00  0.00    -0.248 NA
ATOM     18  C   UNL A   1      40.342  28.906  32.938  1.00  0.00     0.031 C 
ATOM     19  C   UNL A   1      39.576  27.912  28.184  1.00  0.00     0.029 A 
ATOM     20  N   UNL A   1      41.585  27.643  29.079  1.00  0.00    -0.354 N 
ATOM     21  C   UNL A   1      42.614  29.113  33.014  1.00  0.00     0.074 A 
ATOM     22  C   UNL A   1      41.402  28.876  33.749  1.00  0.00     0.031 C 
ATOM     23  C   UNL A   1      40.203  26.954  27.466  1.00  0.00     0.029 A 
ATOM     24  C   UNL A   1      41.530  26.753  28.017  1.00  0.00     0.049 A 
ATOM     25  H   UNL A   1      42.404  27.798  29.604  1.00  0.00     0.167 HD
ATOM     26  C   UNL A   1      43.914  29.090  33.425  1.00  0.00     0.037 A 
ATOM     27  C   UNL A   1      42.488  25.876  27.636  1.00  0.00     0.037 A 
ATOM     28  C   UNL A   1      44.752  29.839  32.533  1.00  0.00     0.049 A 
ATOM     29  C   UNL A   1      43.777  26.362  28.184  1.00  0.00     0.074 A 
ATOM     30  C   UNL A   1      44.831  31.173  32.193  1.00  0.00     0.029 A 
ATOM     31  N   UNL A   1      45.514  29.167  31.615  1.00  0.00    -0.354 N 
ATOM     32  N   UNL A   1      44.386  27.453  27.805  1.00  0.00    -0.248 NA
ATOM     33  C   UNL A   1      44.247  25.786  29.434  1.00  0.00     0.031 C 
ATOM     34  C   UNL A   1      45.247  31.186  30.834  1.00  0.00     0.029 A 
ATOM     35  C   UNL A   1      45.413  29.858  30.434  1.00  0.00     0.049 A 
ATOM     36  H   UNL A   1      46.034  28.347  31.771  1.00  0.00     0.167 HD
ATOM     37  C   UNL A   1      45.037  27.910  28.940  1.00  0.00     0.074 A 
ATOM     38  C   UNL A   1      45.020  26.784  29.865  1.00  0.00     0.031 C 
ATOM     39  C   UNL A   1      45.302  29.235  29.129  1.00  0.00     0.037 A 
BRANCH  26  40
ATOM     40  C   UNL A   1      44.478  28.224  34.528  1.00  0.00     0.058 A 
ATOM     41  C   UNL A   1      44.909  28.741  35.767  1.00  0.00     0.135 A 
ATOM     42  C   UNL A   1      44.305  26.823  34.484  1.00  0.00     0.135 A 
ATOM     43  F   UNL A   1      45.112  30.052  35.946  1.00  0.00    -0.206 F 
ATOM     44  C   UNL A   1      45.081  27.946  36.897  1.00  0.00     0.059 A 
ATOM     45  C   UNL A   1      44.450  26.007  35.610  1.00  0.00     0.059 A 
ATOM     46  F   UNL A   1      43.924  26.215  33.350  1.00  0.00    -0.206 F 
ATOM     47  C   UNL A   1      44.807  26.587  36.821  1.00  0.00     0.060 A 
BRANCH  47  48
ATOM     48  S   UNL A   1      44.841  25.622  38.346  1.00  0.00     0.124 S 
ATOM     49  O   UNL A   1      43.867  26.334  39.167  1.00  0.00    -0.237 OA
ATOM     50  O   UNL A   1      44.432  24.305  37.870  1.00  0.00    -0.237 OA
ATOM     51  O   UNL A   1      46.227  25.730  38.785  1.00  0.00    -0.744 OA
ENDBRANCH  47  48
ENDBRANCH  26  40
BRANCH  27  52
ATOM     52  C   UNL A   1      42.309  24.503  27.100  1.00  0.00     0.058 A 
ATOM     53  C   UNL A   1      42.064  23.408  27.953  1.00  0.00     0.135 A 
ATOM     54  C   UNL A   1      42.653  24.195  25.772  1.00  0.00     0.135 A 
ATOM     55  F   UNL A   1      41.767  23.585  29.248  1.00  0.00    -0.206 F 
ATOM     56  C   UNL A   1      42.200  22.088  27.529  1.00  0.00     0.059 A 
ATOM     57  C   UNL A   1      42.804  22.877  25.326  1.00  0.00     0.059 A 
ATOM     58  F   UNL A   1      42.916  25.178  24.897  1.00  0.00    -0.206 F 
ATOM     59  C   UNL A   1      42.602  21.831  26.223  1.00  0.00     0.060 A 
BRANCH  59  60
ATOM     60  S   UNL A   1      42.935  20.117  25.763  1.00  0.00     0.124 S 
ATOM     61  O   UNL A   1      43.980  20.271  24.756  1.00  0.00    -0.237 OA
ATOM     62  O   UNL A   1      43.361  19.539  27.033  1.00  0.00    -0.237 OA
ATOM     63  O   UNL A   1      41.649  19.641  25.262  1.00  0.00    -0.744 OA
ENDBRANCH  59  60
ENDBRANCH  27  52
BRANCH  39  64
ATOM     64  C   UNL A   1      45.169  30.183  27.963  1.00  0.00     0.058 A 
ATOM     65  C   UNL A   1      46.332  30.796  27.468  1.00  0.00     0.135 A 
ATOM     66  C   UNL A   1      43.937  30.675  27.498  1.00  0.00     0.135 A 
ATOM     67  F   UNL A   1      47.539  30.409  27.914  1.00  0.00    -0.206 F 
ATOM     68  C   UNL A   1      46.279  31.872  26.585  1.00  0.00     0.059 A 
ATOM     69  C   UNL A   1      43.861  31.730  26.586  1.00  0.00     0.059 A 
ATOM     70  F   UNL A   1      42.780  30.210  27.989  1.00  0.00    -0.206 F 
ATOM     71  C   UNL A   1      45.037  32.343  26.161  1.00  0.00     0.060 A 
BRANCH  71  72
ATOM     72  S   UNL A   1      44.989  33.810  25.108  1.00  0.00     0.124 S 
ATOM     73  O   UNL A   1      44.122  34.701  25.875  1.00  0.00    -0.237 OA
ATOM     74  O   UNL A   1      46.393  34.202  25.044  1.00  0.00    -0.237 OA
ATOM     75  O   UNL A   1      44.422  33.320  23.854  1.00  0.00    -0.744 OA
ENDBRANCH  71  72
ENDBRANCH  39  64
ENDBRANCH  13  14
ENDBRANCH   6   8
ENDBRANCH   5   6
ENDBRANCH   4   5
ENDBRANCH   3   4
ENDBRANCH   2   3
ENDBRANCH   1   2
BRANCH   1  76
ATOM     76  C   UNL A   1      32.790  29.386  27.123  1.00  0.00     0.188 C 
BRANCH  76  77
ATOM     77  O   UNL A   1      32.814  28.020  26.707  1.00  0.00    -0.376 OA
BRANCH  77  78
ATOM     78  C   UNL A   1      32.760  27.691  25.332  1.00  0.00     0.202 C 
BRANCH  78  79
ATOM     79  C   UNL A   1      31.639  28.370  24.545  1.00  0.00     0.261 C 
BRANCH  79  80
ATOM     80  O   UNL A   1      30.746  27.448  23.902  1.00  0.00    -0.458 OA
BRANCH  80  81
ATOM     81  C   UNL A   1      31.326  26.546  23.056  1.00  0.00     0.358 C 
ATOM     82  O   UNL A   1      31.750  26.815  21.940  1.00  0.00    -0.244 OA
BRANCH  81  83
ATOM     83  C   UNL A   1      31.276  25.161  23.555  1.00  0.00     0.170 A 
ATOM     84  C   UNL A   1      30.299  24.223  23.144  1.00  0.00     0.058 A 
ATOM     85  N   UNL A   1      32.208  24.582  24.355  1.00  0.00    -0.159 NA
ATOM     86  C   UNL A   1      30.778  23.011  23.556  1.00  0.00     0.118 A 
ATOM     87  N   UNL A   1      31.970  23.243  24.210  1.00  0.00    -0.222 N 
BRANCH  87  88
ATOM     88  C   UNL A   1      32.908  22.215  24.533  1.00  0.00     0.158 A 
ATOM     89  C   UNL A   1      32.515  20.893  24.642  1.00  0.00     0.078 A 
ATOM     90  N   UNL A   1      34.196  22.625  24.663  1.00  0.00    -0.209 NA
ATOM     91  C   UNL A   1      33.549  19.987  24.831  1.00  0.00     0.077 A 
ATOM     92  C   UNL A   1      35.097  21.677  24.946  1.00  0.00     0.165 A 
ATOM     93  N   UNL A   1      34.824  20.374  25.029  1.00  0.00    -0.228 NA
BRANCH  91  94
ATOM     94  C   UNL A   1      33.428  18.531  24.728  1.00  0.00     0.003 A 
ATOM     95  C   UNL A   1      34.198  17.827  23.792  1.00  0.00     0.030 A 
ATOM     96  C   UNL A   1      32.698  17.786  25.662  1.00  0.00     0.030 A 
ATOM     97  C   UNL A   1      34.175  16.441  23.806  1.00  0.00     0.111 A 
ATOM     98  C   UNL A   1      32.737  16.400  25.593  1.00  0.00     0.111 A 
ATOM     99  N   UNL A   1      33.447  15.719  24.676  1.00  0.00    -0.265 NA
ENDBRANCH  91  94
BRANCH  92 100
ATOM    100  C   UNL A   1      36.438  22.085  25.320  1.00  0.00     0.055 A 
ATOM    101  C   UNL A   1      36.692  23.390  25.778  1.00  0.00     0.015 A 
ATOM    102  C   UNL A   1      37.496  21.173  25.304  1.00  0.00     0.134 A 
ATOM    103  C   UNL A   1      37.965  23.757  26.223  1.00  0.00     0.001 A 
ATOM    104  C   UNL A   1      38.770  21.534  25.742  1.00  0.00     0.040 A 
ATOM    105  F   UNL A   1      37.306  19.923  24.857  1.00  0.00    -0.206 F 
ATOM    106  C   UNL A   1      39.002  22.827  26.208  1.00  0.00     0.003 A 
ENDBRANCH  92 100
ENDBRANCH  87  88
ENDBRANCH  81  83
ENDBRANCH  80  81
ENDBRANCH  79  80
ENDBRANCH  78  79
ENDBRANCH  77  78
ENDBRANCH  76  77
ENDBRANCH   1  76
TORSDOF 23
ENDMDL
MODEL 3
REMARK VINA RESULT:     -11.0      1.838      2.762
REMARK SMILES O=C(OCCOCCOCCOC(=O)c1ccn(-c2cc(-c3ccncc3)nc(-c3ccccc3F)n2)n1)c1ccc(-c2c3nc(c(-c4c(F)cc(S(=O)(=O)[O-])cc4F)c4ccc([nH]4)c(-c4c(F)cc(S(=O)(=O)[O-])cc4F)c4nc(c(-c5c(F)cc(S(=O)(=O)[O-])cc5F)c5ccc2[nH]5)C=C4)C=C3)cc1
REMARK SMILES IDX 7 1 6 2 5 3 4 4 3 5 2 6 1 7 39 8 40 9 104 10 41 11 103 12
REMARK SMILES IDX 42 13 43 14 44 15 97 16 45 17 102 18 96 19 98 20 46 21
REMARK SMILES IDX 101 22 95 23 94 24 47 26 81 27 60 28 80 29 61 30 64 31 79 32
REMARK SMILES IDX 99 33 62 34 63 35 78 37 100 38 65 39 48 40 49 41 58 42 50 43
REMARK SMILES IDX 51 44 57 45 59 46 52 47 53 48 54 49 55 50 56 51 82 52 83 53
REMARK SMILES IDX 92 54 84 55 85 56 91 57 93 58 86 59 87 60 88 61 89 62 90 63
REMARK SMILES IDX 66 64 67 65 76 66 68 67 69 68 75 69 77 70 70 71 71 72 72 73
REMARK SMILES IDX 73 74 74 75 8 76 9 77 10 78 11 79 12 80 13 81 14 82 15 83
REMARK SMILES IDX 16 84 38 85 17 86 18 87 19 88 20 89 37 90 21 91 29 92 28 93
REMARK SMILES IDX 22 94 23 95 27 96 24 97 26 98 25 99 30 100 31 101 35 102
REMARK SMILES IDX 32 103 34 104 36 105 33 106
REMARK H PARENT 98 25 64 36
REMARK Flexibility Score: inf
ROOT
ATOM      1  C   UNL A   1      34.342  32.037  28.017  1.00  0.00     0.188 C 
ENDROOT
BRANCH   1   2
ATOM      2  O   UNL A   1      34.102  32.353  29.382  1.00  0.00    -0.376 OA
BRANCH   2   3
ATOM      3  C   UNL A   1      34.358  33.700  29.741  1.00  0.00     0.202 C 
BRANCH   3   4
ATOM      4  C   UNL A   1      35.172  33.806  31.029  1.00  0.00     0.261 C 
BRANCH   4   5
ATOM      5  O   UNL A   1      36.383  33.023  31.060  1.00  0.00    -0.460 OA
BRANCH   5   6
ATOM      6  C   UNL A   1      36.764  31.954  31.784  1.00  0.00     0.338 C 
ATOM      7  O   UNL A   1      36.220  31.756  32.870  1.00  0.00    -0.246 OA
BRANCH   6   8
ATOM      8  C   UNL A   1      37.910  31.079  31.417  1.00  0.00     0.060 A 
ATOM      9  C   UNL A   1      37.817  29.735  31.057  1.00  0.00     0.016 A 
ATOM     10  C   UNL A   1      39.188  31.664  31.525  1.00  0.00     0.016 A 
ATOM     11  C   UNL A   1      38.970  28.974  30.884  1.00  0.00     0.010 A 
ATOM     12  C   UNL A   1      40.342  30.905  31.352  1.00  0.00     0.010 A 
ATOM     13  C   UNL A   1      40.231  29.539  31.095  1.00  0.00    -0.014 A 
BRANCH  13  14
ATOM     14  C   UNL A   1      41.380  28.629  31.144  1.00  0.00     0.031 A 
ATOM     15  C   UNL A   1      41.889  28.201  32.490  1.00  0.00     0.074 A 
ATOM     16  C   UNL A   1      41.948  28.169  30.008  1.00  0.00     0.049 A 
ATOM     17  N   UNL A   1      43.107  28.154  32.932  1.00  0.00    -0.248 NA
ATOM     18  C   UNL A   1      40.897  27.779  33.489  1.00  0.00     0.031 C 
ATOM     19  C   UNL A   1      41.453  28.286  28.629  1.00  0.00     0.029 A 
ATOM     20  N   UNL A   1      43.077  27.417  29.862  1.00  0.00    -0.354 N 
ATOM     21  C   UNL A   1      43.057  27.537  34.185  1.00  0.00     0.074 A 
ATOM     22  C   UNL A   1      41.666  27.333  34.485  1.00  0.00     0.031 C 
ATOM     23  C   UNL A   1      42.162  27.463  27.825  1.00  0.00     0.029 A 
ATOM     24  C   UNL A   1      43.244  26.879  28.595  1.00  0.00     0.049 A 
ATOM     25  H   UNL A   1      43.718  27.270  30.595  1.00  0.00     0.167 HD
ATOM     26  C   UNL A   1      44.172  27.164  34.876  1.00  0.00     0.037 A 
ATOM     27  C   UNL A   1      44.179  25.980  28.208  1.00  0.00     0.037 A 
ATOM     28  C   UNL A   1      45.303  27.961  34.502  1.00  0.00     0.049 A 
ATOM     29  C   UNL A   1      45.294  26.052  29.181  1.00  0.00     0.074 A 
ATOM     30  C   UNL A   1      45.612  29.300  34.630  1.00  0.00     0.029 A 
ATOM     31  N   UNL A   1      46.229  27.440  33.637  1.00  0.00    -0.354 N 
ATOM     32  N   UNL A   1      46.093  27.074  29.328  1.00  0.00    -0.248 NA
ATOM     33  C   UNL A   1      45.320  25.079  30.262  1.00  0.00     0.031 C 
ATOM     34  C   UNL A   1      46.405  29.609  33.491  1.00  0.00     0.029 A 
ATOM     35  C   UNL A   1      46.546  28.434  32.747  1.00  0.00     0.049 A 
ATOM     36  H   UNL A   1      46.596  26.527  33.651  1.00  0.00     0.167 HD
ATOM     37  C   UNL A   1      46.428  27.075  30.673  1.00  0.00     0.074 A 
ATOM     38  C   UNL A   1      46.029  25.761  31.162  1.00  0.00     0.031 C 
ATOM     39  C   UNL A   1      46.758  28.225  31.328  1.00  0.00     0.037 A 
BRANCH  26  40
ATOM     40  C   UNL A   1      44.300  25.940  35.754  1.00  0.00     0.058 A 
ATOM     41  C   UNL A   1      44.760  24.696  35.276  1.00  0.00     0.135 A 
ATOM     42  C   UNL A   1      44.264  26.072  37.160  1.00  0.00     0.135 A 
ATOM     43  F   UNL A   1      44.845  24.437  33.965  1.00  0.00    -0.206 F 
ATOM     44  C   UNL A   1      45.223  23.688  36.119  1.00  0.00     0.059 A 
ATOM     45  C   UNL A   1      44.744  25.084  38.025  1.00  0.00     0.059 A 
ATOM     46  F   UNL A   1      43.818  27.202  37.731  1.00  0.00    -0.206 F 
ATOM     47  C   UNL A   1      45.252  23.907  37.489  1.00  0.00     0.060 A 
BRANCH  47  48
ATOM     48  S   UNL A   1      46.045  22.669  38.535  1.00  0.00     0.124 S 
ATOM     49  O   UNL A   1      47.444  23.076  38.466  1.00  0.00    -0.237 OA
ATOM     50  O   UNL A   1      45.378  22.892  39.813  1.00  0.00    -0.237 OA
ATOM     51  O   UNL A   1      45.726  21.410  37.871  1.00  0.00    -0.744 OA
ENDBRANCH  47  48
ENDBRANCH  26  40
BRANCH  27  52
ATOM     52  C   UNL A   1      44.027  24.865  27.240  1.00  0.00     0.058 A 
ATOM     53  C   UNL A   1      43.341  23.682  27.584  1.00  0.00     0.135 A 
ATOM     54  C   UNL A   1      44.791  24.821  26.060  1.00  0.00     0.135 A 
ATOM     55  F   UNL A   1      42.615  23.598  28.709  1.00  0.00    -0.206 F 
ATOM     56  C   UNL A   1      43.445  22.514  26.832  1.00  0.00     0.059 A 
ATOM     57  C   UNL A   1      44.917  23.657  25.294  1.00  0.00     0.059 A 
ATOM     58  F   UNL A   1      45.486  25.900  25.667  1.00  0.00    -0.206 F 
ATOM     59  C   UNL A   1      44.261  22.500  25.706  1.00  0.00     0.060 A 
BRANCH  59  60
ATOM     60  S   UNL A   1      44.506  20.924  24.860  1.00  0.00     0.124 S 
ATOM     61  O   UNL A   1      44.534  21.335  23.459  1.00  0.00    -0.237 OA
ATOM     62  O   UNL A   1      45.781  20.478  25.412  1.00  0.00    -0.237 OA
ATOM     63  O   UNL A   1      43.344  20.136  25.259  1.00  0.00    -0.744 OA
ENDBRANCH  59  60
ENDBRANCH  27  52
BRANCH  39  64
ATOM     64  C   UNL A   1      47.066  29.465  30.525  1.00  0.00     0.058 A 
ATOM     65  C   UNL A   1      45.992  30.237  30.055  1.00  0.00     0.135 A 
ATOM     66  C   UNL A   1      48.342  29.762  30.014  1.00  0.00     0.135 A 
ATOM     67  F   UNL A   1      44.740  29.968  30.462  1.00  0.00    -0.206 F 
ATOM     68  C   UNL A   1      46.164  31.231  29.094  1.00  0.00     0.059 A 
ATOM     69  C   UNL A   1      48.542  30.777  29.076  1.00  0.00     0.059 A 
ATOM     70  F   UNL A   1      49.405  29.013  30.338  1.00  0.00    -0.206 F 
ATOM     71  C   UNL A   1      47.442  31.484  28.598  1.00  0.00     0.060 A 
BRANCH  71  72
ATOM     72  S   UNL A   1      47.625  32.696  27.272  1.00  0.00     0.124 S 
ATOM     73  O   UNL A   1      46.332  32.602  26.599  1.00  0.00    -0.237 OA
ATOM     74  O   UNL A   1      47.863  33.935  28.005  1.00  0.00    -0.237 OA
ATOM     75  O   UNL A   1      48.763  32.201  26.502  1.00  0.00    -0.744 OA
ENDBRANCH  71  72
ENDBRANCH  39  64
ENDBRANCH  13  14
ENDBRANCH   6   8
ENDBRANCH   5   6
ENDBRANCH   4   5
ENDBRANCH   3   4
ENDBRANCH   2   3
ENDBRANCH   1   2
BRANCH   1  76
ATOM     76  C   UNL A   1      35.287  30.834  27.805  1.00  0.00     0.188 C 
BRANCH  76  77
ATOM     77  O   UNL A   1      34.917  29.683  27.044  1.00  0.00    -0.376 OA
BRANCH  77  78
ATOM     78  C   UNL A   1      33.556  29.421  26.760  1.00  0.00     0.202 C 
BRANCH  78  79
ATOM     79  C   UNL A   1      33.280  28.855  25.366  1.00  0.00     0.261 C 
BRANCH  79  80
ATOM     80  O   UNL A   1      32.413  27.710  25.371  1.00  0.00    -0.458 OA
BRANCH  80  81
ATOM     81  C   UNL A   1      31.887  27.355  24.162  1.00  0.00     0.358 C 
ATOM     82  O   UNL A   1      31.045  28.003  23.554  1.00  0.00    -0.244 OA
BRANCH  81  83
ATOM     83  C   UNL A   1      32.326  26.028  23.700  1.00  0.00     0.170 A 
ATOM     84  C   UNL A   1      32.791  25.778  22.387  1.00  0.00     0.058 A 
ATOM     85  N   UNL A   1      32.459  24.928  24.487  1.00  0.00    -0.159 NA
ATOM     86  C   UNL A   1      33.396  24.553  22.453  1.00  0.00     0.118 A 
ATOM     87  N   UNL A   1      33.256  24.098  23.748  1.00  0.00    -0.222 N 
BRANCH  87  88
ATOM     88  C   UNL A   1      33.993  22.998  24.283  1.00  0.00     0.158 A 
ATOM     89  C   UNL A   1      33.410  21.753  24.444  1.00  0.00     0.078 A 
ATOM     90  N   UNL A   1      35.298  23.252  24.561  1.00  0.00    -0.209 NA
ATOM     91  C   UNL A   1      34.275  20.748  24.850  1.00  0.00     0.077 A 
ATOM     92  C   UNL A   1      36.014  22.231  25.046  1.00  0.00     0.165 A 
ATOM     93  N   UNL A   1      35.555  20.988  25.195  1.00  0.00    -0.228 NA
BRANCH  91  94
ATOM     94  C   UNL A   1      33.967  19.315  24.851  1.00  0.00     0.003 A 
ATOM     95  C   UNL A   1      32.668  18.877  25.143  1.00  0.00     0.030 A 
ATOM     96  C   UNL A   1      34.886  18.366  24.388  1.00  0.00     0.030 A 
ATOM     97  C   UNL A   1      32.362  17.533  24.999  1.00  0.00     0.111 A 
ATOM     98  C   UNL A   1      34.485  17.041  24.280  1.00  0.00     0.111 A 
ATOM     99  N   UNL A   1      33.250  16.608  24.590  1.00  0.00    -0.265 NA
ENDBRANCH  91  94
BRANCH  92 100
ATOM    100  C   UNL A   1      37.339  22.502  25.571  1.00  0.00     0.055 A 
ATOM    101  C   UNL A   1      37.643  23.746  26.151  1.00  0.00     0.015 A 
ATOM    102  C   UNL A   1      38.324  21.511  25.580  1.00  0.00     0.134 A 
ATOM    103  C   UNL A   1      38.890  23.976  26.738  1.00  0.00     0.001 A 
ATOM    104  C   UNL A   1      39.572  21.736  26.160  1.00  0.00     0.040 A 
ATOM    105  F   UNL A   1      38.086  20.315  25.021  1.00  0.00    -0.206 F 
ATOM    106  C   UNL A   1      39.853  22.969  26.744  1.00  0.00     0.003 A 
ENDBRANCH  92 100
ENDBRANCH  87  88
ENDBRANCH  81  83
ENDBRANCH  80  81
ENDBRANCH  79  80
ENDBRANCH  78  79
ENDBRANCH  77  78
ENDBRANCH  76  77
ENDBRANCH   1  76
TORSDOF 23
ENDMDL
