MODEL 1
REMARK VINA RESULT:     -11.2      0.000      0.000
REMARK SMILES Cc1ccn2c([C@@H]3C[C@H]3C(=O)OCCOCCOCCOC(=O)c3ccc(-c4c5nc(c(-c6c(F)cc(S(=O)(=O)[O-])cc6F)c6ccc([nH]6)c(-c6c(F)cc(S(=O)(=O)[O-])cc6F)c6nc(c(-c7c(F)cc(S(=O)(=O)[O-])cc7F)c7ccc4[nH]7)C=C6)C=C5)cc3)nnc2c1
REMARK SMILES IDX 17 1 16 2 15 3 14 4 13 5 12 6 10 7 11 8 9 9 7 10 8 11 6 12
REMARK SMILES IDX 1 13 2 14 3 15 93 16 4 17 92 18 5 19 91 20 90 21 18 22 19 23
REMARK SMILES IDX 20 24 21 25 22 26 23 27 24 28 25 29 89 30 26 31 88 32 27 33
REMARK SMILES IDX 28 34 29 35 82 36 30 37 87 38 81 39 83 40 31 41 86 42 80 43
REMARK SMILES IDX 79 44 32 46 66 47 45 48 65 49 46 50 49 51 64 52 84 53 47 54
REMARK SMILES IDX 48 55 63 57 85 58 50 59 33 60 34 61 43 62 35 63 36 64 42 65
REMARK SMILES IDX 44 66 37 67 38 68 39 69 40 70 41 71 67 72 68 73 77 74 69 75
REMARK SMILES IDX 70 76 76 77 78 78 71 79 72 80 73 81 74 82 75 83 51 84 52 85
REMARK SMILES IDX 61 86 53 87 54 88 60 89 62 90 55 91 56 92 57 93 58 94 59 95
REMARK H PARENT 83 45 49 56
REMARK Flexibility Score: inf
ROOT
ATOM      1  C   UNL A   1      42.815  18.268  26.184  1.00  0.00     0.188 C 
ENDROOT
BRANCH   1   2
ATOM      2  C   UNL A   1      42.459  19.067  27.462  1.00  0.00     0.188 C 
BRANCH   2   3
ATOM      3  O   UNL A   1      41.892  20.359  27.343  1.00  0.00    -0.376 OA
BRANCH   3   4
ATOM      4  C   UNL A   1      40.720  20.507  26.561  1.00  0.00     0.202 C 
BRANCH   4   5
ATOM      5  C   UNL A   1      39.894  21.790  26.742  1.00  0.00     0.261 C 
BRANCH   5   6
ATOM      6  O   UNL A   1      39.013  22.020  25.617  1.00  0.00    -0.463 OA
BRANCH   6   7
ATOM      7  C   UNL A   1      37.760  22.449  25.944  1.00  0.00     0.309 C 
ATOM      8  O   UNL A   1      37.487  23.600  26.202  1.00  0.00    -0.252 OA
BRANCH   7   9
ATOM      9  C   UNL A   1      36.670  21.420  25.724  1.00  0.00     0.110 C 
ATOM     10  C   UNL A   1      35.720  21.137  24.575  1.00  0.00     0.073 C 
ATOM     11  C   UNL A   1      37.036  20.438  24.630  1.00  0.00     0.028 C 
BRANCH  10  12
ATOM     12  C   UNL A   1      34.431  20.258  24.745  1.00  0.00     0.141 A 
ATOM     13  C   UNL A   1      32.651  14.961  25.489  1.00  0.00     0.044 C 
ATOM     14  C   UNL A   1      33.090  16.351  25.110  1.00  0.00    -0.046 A 
ATOM     15  C   UNL A   1      34.395  16.517  24.479  1.00  0.00     0.022 A 
ATOM     16  C   UNL A   1      32.342  17.444  25.382  1.00  0.00     0.053 A 
ATOM     17  C   UNL A   1      34.885  17.756  24.271  1.00  0.00     0.095 A 
ATOM     18  C   UNL A   1      32.853  18.755  25.133  1.00  0.00     0.161 A 
ATOM     19  N   UNL A   1      34.154  18.887  24.640  1.00  0.00    -0.286 N 
ATOM     20  N   UNL A   1      32.346  19.942  25.365  1.00  0.00    -0.130 NA
ATOM     21  N   UNL A   1      33.319  20.874  25.112  1.00  0.00    -0.134 NA
ENDBRANCH  10  12
ENDBRANCH   7   9
ENDBRANCH   6   7
ENDBRANCH   5   6
ENDBRANCH   4   5
ENDBRANCH   3   4
ENDBRANCH   2   3
ENDBRANCH   1   2
BRANCH   1  22
ATOM     22  O   UNL A   1      44.086  18.465  25.596  1.00  0.00    -0.376 OA
BRANCH  22  23
ATOM     23  C   UNL A   1      44.196  19.573  24.709  1.00  0.00     0.202 C 
BRANCH  23  24
ATOM     24  C   UNL A   1      45.142  20.715  25.135  1.00  0.00     0.261 C 
BRANCH  24  25
ATOM     25  O   UNL A   1      44.415  21.823  25.718  1.00  0.00    -0.460 OA
BRANCH  25  26
ATOM     26  C   UNL A   1      44.023  22.816  24.870  1.00  0.00     0.338 C 
ATOM     27  O   UNL A   1      43.570  22.669  23.748  1.00  0.00    -0.246 OA
BRANCH  26  28
ATOM     28  C   UNL A   1      43.884  24.065  25.676  1.00  0.00     0.060 A 
ATOM     29  C   UNL A   1      44.572  24.300  26.876  1.00  0.00     0.016 A 
ATOM     30  C   UNL A   1      42.829  24.907  25.330  1.00  0.00     0.016 A 
ATOM     31  C   UNL A   1      44.133  25.311  27.765  1.00  0.00     0.010 A 
ATOM     32  C   UNL A   1      42.389  25.874  26.240  1.00  0.00     0.010 A 
ATOM     33  C   UNL A   1      42.992  26.079  27.486  1.00  0.00    -0.014 A 
BRANCH  33  34
ATOM     34  C   UNL A   1      42.671  27.339  28.223  1.00  0.00     0.031 A 
ATOM     35  C   UNL A   1      43.715  28.366  28.020  1.00  0.00     0.074 A 
ATOM     36  C   UNL A   1      41.551  27.748  28.892  1.00  0.00     0.049 A 
ATOM     37  N   UNL A   1      44.334  28.960  28.982  1.00  0.00    -0.248 NA
ATOM     38  C   UNL A   1      44.204  28.713  26.680  1.00  0.00     0.031 C 
ATOM     39  C   UNL A   1      40.416  26.945  29.313  1.00  0.00     0.029 A 
ATOM     40  N   UNL A   1      41.132  29.013  29.291  1.00  0.00    -0.354 N 
ATOM     41  C   UNL A   1      45.089  29.945  28.380  1.00  0.00     0.074 A 
ATOM     42  C   UNL A   1      45.068  29.691  26.963  1.00  0.00     0.031 C 
ATOM     43  C   UNL A   1      39.343  27.722  29.602  1.00  0.00     0.029 A 
ATOM     44  C   UNL A   1      39.754  29.116  29.561  1.00  0.00     0.049 A 
ATOM     45  H   UNL A   1      41.748  29.776  29.376  1.00  0.00     0.167 HD
ATOM     46  C   UNL A   1      45.440  31.042  29.090  1.00  0.00     0.037 A 
ATOM     47  C   UNL A   1      39.004  30.166  30.004  1.00  0.00     0.037 A 
ATOM     48  C   UNL A   1      45.295  30.854  30.508  1.00  0.00     0.049 A 
ATOM     49  C   UNL A   1      39.852  30.899  30.958  1.00  0.00     0.074 A 
ATOM     50  C   UNL A   1      46.014  30.224  31.499  1.00  0.00     0.029 A 
ATOM     51  N   UNL A   1      44.037  31.069  30.999  1.00  0.00    -0.354 N 
ATOM     52  N   UNL A   1      40.256  30.389  32.087  1.00  0.00    -0.248 NA
ATOM     53  C   UNL A   1      40.470  32.159  30.570  1.00  0.00     0.031 C 
ATOM     54  C   UNL A   1      45.110  29.969  32.571  1.00  0.00     0.029 A 
ATOM     55  C   UNL A   1      43.863  30.472  32.226  1.00  0.00     0.049 A 
ATOM     56  H   UNL A   1      43.341  31.588  30.534  1.00  0.00     0.167 HD
ATOM     57  C   UNL A   1      41.475  30.988  32.283  1.00  0.00     0.074 A 
ATOM     58  C   UNL A   1      41.461  32.192  31.462  1.00  0.00     0.031 C 
ATOM     59  C   UNL A   1      42.529  30.264  32.745  1.00  0.00     0.037 A 
BRANCH  46  60
ATOM     60  C   UNL A   1      45.479  32.400  28.472  1.00  0.00     0.058 A 
ATOM     61  C   UNL A   1      46.703  33.058  28.300  1.00  0.00     0.135 A 
ATOM     62  C   UNL A   1      44.308  33.174  28.307  1.00  0.00     0.135 A 
ATOM     63  F   UNL A   1      47.859  32.399  28.481  1.00  0.00    -0.206 F 
ATOM     64  C   UNL A   1      46.767  34.415  27.992  1.00  0.00     0.059 A 
ATOM     65  C   UNL A   1      44.345  34.517  27.961  1.00  0.00     0.059 A 
ATOM     66  F   UNL A   1      43.095  32.663  28.570  1.00  0.00    -0.206 F 
ATOM     67  C   UNL A   1      45.582  35.135  27.833  1.00  0.00     0.060 A 
BRANCH  67  68
ATOM     68  S   UNL A   1      45.671  36.902  27.491  1.00  0.00     0.124 S 
ATOM     69  O   UNL A   1      46.845  36.970  26.629  1.00  0.00    -0.237 OA
ATOM     70  O   UNL A   1      44.386  37.153  26.847  1.00  0.00    -0.237 OA
ATOM     71  O   UNL A   1      45.822  37.488  28.820  1.00  0.00    -0.744 OA
ENDBRANCH  67  68
ENDBRANCH  46  60
BRANCH  47  72
ATOM     72  C   UNL A   1      37.619  30.661  29.708  1.00  0.00     0.058 A 
ATOM     73  C   UNL A   1      36.926  31.486  30.621  1.00  0.00     0.135 A 
ATOM     74  C   UNL A   1      37.098  30.640  28.401  1.00  0.00     0.135 A 
ATOM     75  F   UNL A   1      37.333  31.572  31.897  1.00  0.00    -0.206 F 
ATOM     76  C   UNL A   1      35.856  32.309  30.245  1.00  0.00     0.059 A 
ATOM     77  C   UNL A   1      36.028  31.455  27.998  1.00  0.00     0.059 A 
ATOM     78  F   UNL A   1      37.682  29.893  27.454  1.00  0.00    -0.206 F 
ATOM     79  C   UNL A   1      35.436  32.316  28.918  1.00  0.00     0.060 A 
BRANCH  79  80
ATOM     80  S   UNL A   1      34.207  33.545  28.397  1.00  0.00     0.124 S 
ATOM     81  O   UNL A   1      33.119  32.703  27.911  1.00  0.00    -0.237 OA
ATOM     82  O   UNL A   1      33.947  34.265  29.639  1.00  0.00    -0.237 OA
ATOM     83  O   UNL A   1      34.911  34.311  27.371  1.00  0.00    -0.744 OA
ENDBRANCH  79  80
ENDBRANCH  47  72
BRANCH  59  84
ATOM     84  C   UNL A   1      42.255  29.114  33.672  1.00  0.00     0.058 A 
ATOM     85  C   UNL A   1      42.209  27.759  33.300  1.00  0.00     0.135 A 
ATOM     86  C   UNL A   1      42.082  29.402  35.034  1.00  0.00     0.135 A 
ATOM     87  F   UNL A   1      42.419  27.386  32.033  1.00  0.00    -0.206 F 
ATOM     88  C   UNL A   1      41.992  26.742  34.233  1.00  0.00     0.059 A 
ATOM     89  C   UNL A   1      41.895  28.404  35.987  1.00  0.00     0.059 A 
ATOM     90  F   UNL A   1      42.132  30.675  35.461  1.00  0.00    -0.206 F 
ATOM     91  C   UNL A   1      41.846  27.074  35.579  1.00  0.00     0.060 A 
BRANCH  91  92
ATOM     92  S   UNL A   1      41.675  25.753  36.798  1.00  0.00     0.124 S 
ATOM     93  O   UNL A   1      40.467  26.147  37.513  1.00  0.00    -0.237 OA
ATOM     94  O   UNL A   1      41.556  24.564  35.958  1.00  0.00    -0.237 OA
ATOM     95  O   UNL A   1      42.912  25.838  37.569  1.00  0.00    -0.744 OA
ENDBRANCH  91  92
ENDBRANCH  59  84
ENDBRANCH  33  34
ENDBRANCH  26  28
ENDBRANCH  25  26
ENDBRANCH  24  25
ENDBRANCH  23  24
ENDBRANCH  22  23
ENDBRANCH   1  22
TORSDOF 21
ENDMDL
MODEL 2
REMARK VINA RESULT:     -11.0      3.260     10.116
REMARK SMILES Cc1ccn2c([C@@H]3C[C@H]3C(=O)OCCOCCOCCOC(=O)c3ccc(-c4c5nc(c(-c6c(F)cc(S(=O)(=O)[O-])cc6F)c6ccc([nH]6)c(-c6c(F)cc(S(=O)(=O)[O-])cc6F)c6nc(c(-c7c(F)cc(S(=O)(=O)[O-])cc7F)c7ccc4[nH]7)C=C6)C=C5)cc3)nnc2c1
REMARK SMILES IDX 17 1 16 2 15 3 14 4 13 5 12 6 10 7 11 8 9 9 7 10 8 11 6 12
REMARK SMILES IDX 1 13 2 14 3 15 93 16 4 17 92 18 5 19 91 20 90 21 18 22 19 23
REMARK SMILES IDX 20 24 21 25 22 26 23 27 24 28 25 29 89 30 26 31 88 32 27 33
REMARK SMILES IDX 28 34 29 35 82 36 30 37 87 38 81 39 83 40 31 41 86 42 80 43
REMARK SMILES IDX 79 44 32 46 66 47 45 48 65 49 46 50 49 51 64 52 84 53 47 54
REMARK SMILES IDX 48 55 63 57 85 58 50 59 33 60 34 61 43 62 35 63 36 64 42 65
REMARK SMILES IDX 44 66 37 67 38 68 39 69 40 70 41 71 67 72 68 73 77 74 69 75
REMARK SMILES IDX 70 76 76 77 78 78 71 79 72 80 73 81 74 82 75 83 51 84 52 85
REMARK SMILES IDX 61 86 53 87 54 88 60 89 62 90 55 91 56 92 57 93 58 94 59 95
REMARK H PARENT 83 45 49 56
REMARK Flexibility Score: inf
ROOT
ATOM      1  C   UNL A   1      31.324  29.278  24.433  1.00  0.00     0.188 C 
ENDROOT
BRANCH   1   2
ATOM      2  C   UNL A   1      30.473  28.102  23.893  1.00  0.00     0.188 C 
BRANCH   2   3
ATOM      3  O   UNL A   1      30.880  26.770  24.150  1.00  0.00    -0.376 OA
BRANCH   3   4
ATOM      4  C   UNL A   1      30.941  25.865  23.062  1.00  0.00     0.202 C 
BRANCH   4   5
ATOM      5  C   UNL A   1      32.159  24.935  22.969  1.00  0.00     0.261 C 
BRANCH   5   6
ATOM      6  O   UNL A   1      31.879  23.632  23.535  1.00  0.00    -0.463 OA
BRANCH   6   7
ATOM      7  C   UNL A   1      32.162  23.508  24.864  1.00  0.00     0.309 C 
ATOM      8  O   UNL A   1      31.325  23.556  25.738  1.00  0.00    -0.252 OA
BRANCH   7   9
ATOM      9  C   UNL A   1      33.577  23.058  25.164  1.00  0.00     0.110 C 
ATOM     10  C   UNL A   1      34.929  23.738  25.065  1.00  0.00     0.073 C 
ATOM     11  C   UNL A   1      34.166  23.803  26.344  1.00  0.00     0.028 C 
BRANCH  10  12
ATOM     12  C   UNL A   1      36.278  22.935  25.072  1.00  0.00     0.141 A 
ATOM     13  C   UNL A   1      41.131  22.296  27.869  1.00  0.00     0.044 C 
ATOM     14  C   UNL A   1      39.929  22.576  27.005  1.00  0.00    -0.046 A 
ATOM     15  C   UNL A   1      39.261  23.866  27.147  1.00  0.00     0.022 A 
ATOM     16  C   UNL A   1      39.424  21.659  26.151  1.00  0.00     0.053 A 
ATOM     17  C   UNL A   1      38.095  24.089  26.507  1.00  0.00     0.095 A 
ATOM     18  C   UNL A   1      38.203  21.910  25.453  1.00  0.00     0.161 A 
ATOM     19  N   UNL A   1      37.521  23.105  25.699  1.00  0.00    -0.286 N 
ATOM     20  N   UNL A   1      37.503  21.163  24.633  1.00  0.00    -0.130 NA
ATOM     21  N   UNL A   1      36.315  21.803  24.387  1.00  0.00    -0.134 NA
ENDBRANCH  10  12
ENDBRANCH   7   9
ENDBRANCH   6   7
ENDBRANCH   5   6
ENDBRANCH   4   5
ENDBRANCH   3   4
ENDBRANCH   2   3
ENDBRANCH   1   2
BRANCH   1  22
ATOM     22  O   UNL A   1      32.725  29.240  24.247  1.00  0.00    -0.376 OA
BRANCH  22  23
ATOM     23  C   UNL A   1      33.507  29.131  25.432  1.00  0.00     0.202 C 
BRANCH  23  24
ATOM     24  C   UNL A   1      33.215  30.147  26.556  1.00  0.00     0.261 C 
BRANCH  24  25
ATOM     25  O   UNL A   1      34.085  29.950  27.696  1.00  0.00    -0.460 OA
BRANCH  25  26
ATOM     26  C   UNL A   1      34.754  31.045  28.157  1.00  0.00     0.338 C 
ATOM     27  O   UNL A   1      34.253  32.101  28.505  1.00  0.00    -0.246 OA
BRANCH  26  28
ATOM     28  C   UNL A   1      36.135  30.608  28.519  1.00  0.00     0.060 A 
ATOM     29  C   UNL A   1      37.104  31.460  29.066  1.00  0.00     0.016 A 
ATOM     30  C   UNL A   1      36.528  29.357  28.046  1.00  0.00     0.016 A 
ATOM     31  C   UNL A   1      38.472  31.094  29.042  1.00  0.00     0.010 A 
ATOM     32  C   UNL A   1      37.887  29.033  27.998  1.00  0.00     0.010 A 
ATOM     33  C   UNL A   1      38.893  29.893  28.451  1.00  0.00    -0.014 A 
BRANCH  33  34
ATOM     34  C   UNL A   1      40.258  29.325  28.668  1.00  0.00     0.031 A 
ATOM     35  C   UNL A   1      40.516  29.069  30.102  1.00  0.00     0.074 A 
ATOM     36  C   UNL A   1      41.210  28.871  27.799  1.00  0.00     0.049 A 
ATOM     37  N   UNL A   1      41.530  29.537  30.744  1.00  0.00    -0.248 NA
ATOM     38  C   UNL A   1      39.559  28.333  30.937  1.00  0.00     0.031 C 
ATOM     39  C   UNL A   1      41.270  29.058  26.360  1.00  0.00     0.029 A 
ATOM     40  N   UNL A   1      42.322  28.058  27.998  1.00  0.00    -0.354 N 
ATOM     41  C   UNL A   1      41.489  28.937  31.984  1.00  0.00     0.074 A 
ATOM     42  C   UNL A   1      40.208  28.292  32.103  1.00  0.00     0.031 C 
ATOM     43  C   UNL A   1      42.119  28.171  25.783  1.00  0.00     0.029 A 
ATOM     44  C   UNL A   1      42.818  27.446  26.831  1.00  0.00     0.049 A 
ATOM     45  H   UNL A   1      42.728  27.921  28.884  1.00  0.00     0.167 HD
ATOM     46  C   UNL A   1      42.632  28.799  32.696  1.00  0.00     0.037 A 
ATOM     47  C   UNL A   1      43.895  26.633  26.636  1.00  0.00     0.037 A 
ATOM     48  C   UNL A   1      43.688  29.649  32.217  1.00  0.00     0.049 A 
ATOM     49  C   UNL A   1      44.946  27.123  27.542  1.00  0.00     0.074 A 
ATOM     50  C   UNL A   1      44.010  30.983  32.331  1.00  0.00     0.029 A 
ATOM     51  N   UNL A   1      44.408  29.150  31.167  1.00  0.00    -0.354 N 
ATOM     52  N   UNL A   1      45.498  28.296  27.423  1.00  0.00    -0.248 NA
ATOM     53  C   UNL A   1      45.256  26.393  28.764  1.00  0.00     0.031 C 
ATOM     54  C   UNL A   1      44.871  31.298  31.239  1.00  0.00     0.029 A 
ATOM     55  C   UNL A   1      45.080  30.144  30.495  1.00  0.00     0.049 A 
ATOM     56  H   UNL A   1      44.441  28.197  30.921  1.00  0.00     0.167 HD
ATOM     57  C   UNL A   1      45.803  28.632  28.717  1.00  0.00     0.074 A 
ATOM     58  C   UNL A   1      45.834  27.377  29.455  1.00  0.00     0.031 C 
ATOM     59  C   UNL A   1      45.592  29.898  29.165  1.00  0.00     0.037 A 
BRANCH  46  60
ATOM     60  C   UNL A   1      42.906  27.584  33.518  1.00  0.00     0.058 A 
ATOM     61  C   UNL A   1      42.910  27.670  34.916  1.00  0.00     0.135 A 
ATOM     62  C   UNL A   1      43.439  26.407  32.947  1.00  0.00     0.135 A 
ATOM     63  F   UNL A   1      42.457  28.775  35.530  1.00  0.00    -0.206 F 
ATOM     64  C   UNL A   1      43.426  26.647  35.709  1.00  0.00     0.059 A 
ATOM     65  C   UNL A   1      43.922  25.358  33.717  1.00  0.00     0.059 A 
ATOM     66  F   UNL A   1      43.590  26.286  31.619  1.00  0.00    -0.206 F 
ATOM     67  C   UNL A   1      43.936  25.500  35.098  1.00  0.00     0.060 A 
BRANCH  67  68
ATOM     68  S   UNL A   1      44.654  24.207  36.126  1.00  0.00     0.124 S 
ATOM     69  O   UNL A   1      43.986  23.020  35.605  1.00  0.00    -0.237 OA
ATOM     70  O   UNL A   1      46.076  24.328  35.820  1.00  0.00    -0.237 OA
ATOM     71  O   UNL A   1      44.275  24.609  37.477  1.00  0.00    -0.744 OA
ENDBRANCH  67  68
ENDBRANCH  46  60
BRANCH  47  72
ATOM     72  C   UNL A   1      44.161  25.442  25.762  1.00  0.00     0.058 A 
ATOM     73  C   UNL A   1      45.477  24.978  25.539  1.00  0.00     0.135 A 
ATOM     74  C   UNL A   1      43.139  24.535  25.430  1.00  0.00     0.135 A 
ATOM     75  F   UNL A   1      46.527  25.767  25.813  1.00  0.00    -0.206 F 
ATOM     76  C   UNL A   1      45.763  23.674  25.113  1.00  0.00     0.059 A 
ATOM     77  C   UNL A   1      43.399  23.222  25.001  1.00  0.00     0.059 A 
ATOM     78  F   UNL A   1      41.855  24.872  25.605  1.00  0.00    -0.206 F 
ATOM     79  C   UNL A   1      44.716  22.788  24.881  1.00  0.00     0.060 A 
BRANCH  79  80
ATOM     80  S   UNL A   1      45.102  21.045  24.552  1.00  0.00     0.124 S 
ATOM     81  O   UNL A   1      44.612  20.877  23.188  1.00  0.00    -0.237 OA
ATOM     82  O   UNL A   1      46.551  21.017  24.713  1.00  0.00    -0.237 OA
ATOM     83  O   UNL A   1      44.348  20.333  25.580  1.00  0.00    -0.744 OA
ENDBRANCH  79  80
ENDBRANCH  47  72
BRANCH  59  84
ATOM     84  C   UNL A   1      45.723  31.034  28.190  1.00  0.00     0.058 A 
ATOM     85  C   UNL A   1      44.673  31.590  27.438  1.00  0.00     0.135 A 
ATOM     86  C   UNL A   1      46.985  31.631  28.051  1.00  0.00     0.135 A 
ATOM     87  F   UNL A   1      43.425  31.122  27.549  1.00  0.00    -0.206 F 
ATOM     88  C   UNL A   1      44.870  32.676  26.583  1.00  0.00     0.059 A 
ATOM     89  C   UNL A   1      47.200  32.734  27.229  1.00  0.00     0.059 A 
ATOM     90  F   UNL A   1      48.029  31.160  28.753  1.00  0.00    -0.206 F 
ATOM     91  C   UNL A   1      46.137  33.250  26.493  1.00  0.00     0.060 A 
BRANCH  91  92
ATOM     92  S   UNL A   1      46.366  34.722  25.473  1.00  0.00     0.124 S 
ATOM     93  O   UNL A   1      45.379  34.524  24.417  1.00  0.00    -0.237 OA
ATOM     94  O   UNL A   1      46.082  35.804  26.412  1.00  0.00    -0.237 OA
ATOM     95  O   UNL A   1      47.760  34.629  25.048  1.00  0.00    -0.744 OA
ENDBRANCH  91  92
ENDBRANCH  59  84
ENDBRANCH  33  34
ENDBRANCH  26  28
ENDBRANCH  25  26
ENDBRANCH  24  25
ENDBRANCH  23  24
ENDBRANCH  22  23
ENDBRANCH   1  22
TORSDOF 21
ENDMDL
MODEL 3
REMARK VINA RESULT:     -10.7      3.829      6.728
REMARK SMILES Cc1ccn2c([C@@H]3C[C@H]3C(=O)OCCOCCOCCOC(=O)c3ccc(-c4c5nc(c(-c6c(F)cc(S(=O)(=O)[O-])cc6F)c6ccc([nH]6)c(-c6c(F)cc(S(=O)(=O)[O-])cc6F)c6nc(c(-c7c(F)cc(S(=O)(=O)[O-])cc7F)c7ccc4[nH]7)C=C6)C=C5)cc3)nnc2c1
REMARK SMILES IDX 17 1 16 2 15 3 14 4 13 5 12 6 10 7 11 8 9 9 7 10 8 11 6 12
REMARK SMILES IDX 1 13 2 14 3 15 93 16 4 17 92 18 5 19 91 20 90 21 18 22 19 23
REMARK SMILES IDX 20 24 21 25 22 26 23 27 24 28 25 29 89 30 26 31 88 32 27 33
REMARK SMILES IDX 28 34 29 35 82 36 30 37 87 38 81 39 83 40 31 41 86 42 80 43
REMARK SMILES IDX 79 44 32 46 66 47 45 48 65 49 46 50 49 51 64 52 84 53 47 54
REMARK SMILES IDX 48 55 63 57 85 58 50 59 33 60 34 61 43 62 35 63 36 64 42 65
REMARK SMILES IDX 44 66 37 67 38 68 39 69 40 70 41 71 67 72 68 73 77 74 69 75
REMARK SMILES IDX 70 76 76 77 78 78 71 79 72 80 73 81 74 82 75 83 51 84 52 85
REMARK SMILES IDX 61 86 53 87 54 88 60 89 62 90 55 91 56 92 57 93 58 94 59 95
REMARK H PARENT 83 45 49 56
REMARK Flexibility Score: inf
ROOT
ATOM      1  C   UNL A   1      42.421  18.640  25.409  1.00  0.00     0.188 C 
ENDROOT
BRANCH   1   2
ATOM      2  C   UNL A   1      43.753  18.529  26.191  1.00  0.00     0.188 C 
BRANCH   2   3
ATOM      3  O   UNL A   1      44.951  18.244  25.494  1.00  0.00    -0.376 OA
BRANCH   3   4
ATOM      4  C   UNL A   1      45.904  19.282  25.345  1.00  0.00     0.202 C 
BRANCH   4   5
ATOM      5  C   UNL A   1      45.382  20.707  25.104  1.00  0.00     0.261 C 
BRANCH   5   6
ATOM      6  O   UNL A   1      46.463  21.634  24.847  1.00  0.00    -0.463 OA
BRANCH   6   7
ATOM      7  C   UNL A   1      46.096  22.788  24.218  1.00  0.00     0.309 C 
ATOM      8  O   UNL A   1      45.236  22.847  23.367  1.00  0.00    -0.252 OA
BRANCH   7   9
ATOM      9  C   UNL A   1      46.672  24.046  24.833  1.00  0.00     0.110 C 
ATOM     10  C   UNL A   1      46.056  25.233  25.550  1.00  0.00     0.073 C 
ATOM     11  C   UNL A   1      46.520  24.057  26.340  1.00  0.00     0.028 C 
BRANCH  10  12
ATOM     12  C   UNL A   1      46.825  26.585  25.756  1.00  0.00     0.141 A 
ATOM     13  C   UNL A   1      49.697  29.609  29.548  1.00  0.00     0.044 C 
ATOM     14  C   UNL A   1      48.784  28.907  28.578  1.00  0.00    -0.046 A 
ATOM     15  C   UNL A   1      47.826  27.940  29.107  1.00  0.00     0.022 A 
ATOM     16  C   UNL A   1      48.858  29.103  27.244  1.00  0.00     0.053 A 
ATOM     17  C   UNL A   1      47.105  27.181  28.257  1.00  0.00     0.095 A 
ATOM     18  C   UNL A   1      48.071  28.316  26.348  1.00  0.00     0.161 A 
ATOM     19  N   UNL A   1      47.251  27.315  26.875  1.00  0.00    -0.286 N 
ATOM     20  N   UNL A   1      48.018  28.287  25.037  1.00  0.00    -0.130 NA
ATOM     21  N   UNL A   1      47.236  27.221  24.670  1.00  0.00    -0.134 NA
ENDBRANCH  10  12
ENDBRANCH   7   9
ENDBRANCH   6   7
ENDBRANCH   5   6
ENDBRANCH   4   5
ENDBRANCH   3   4
ENDBRANCH   2   3
ENDBRANCH   1   2
BRANCH   1  22
ATOM     22  O   UNL A   1      41.329  19.294  26.024  1.00  0.00    -0.376 OA
BRANCH  22  23
ATOM     23  C   UNL A   1      41.542  19.739  27.360  1.00  0.00     0.202 C 
BRANCH  23  24
ATOM     24  C   UNL A   1      41.410  21.254  27.620  1.00  0.00     0.261 C 
BRANCH  24  25
ATOM     25  O   UNL A   1      41.079  21.978  26.411  1.00  0.00    -0.460 OA
BRANCH  25  26
ATOM     26  C   UNL A   1      42.094  22.655  25.801  1.00  0.00     0.338 C 
ATOM     27  O   UNL A   1      42.578  22.399  24.712  1.00  0.00    -0.246 OA
BRANCH  26  28
ATOM     28  C   UNL A   1      42.246  23.963  26.504  1.00  0.00     0.060 A 
ATOM     29  C   UNL A   1      43.276  24.246  27.412  1.00  0.00     0.016 A 
ATOM     30  C   UNL A   1      41.159  24.833  26.427  1.00  0.00     0.016 A 
ATOM     31  C   UNL A   1      43.161  25.339  28.305  1.00  0.00     0.010 A 
ATOM     32  C   UNL A   1      41.049  25.883  27.343  1.00  0.00     0.010 A 
ATOM     33  C   UNL A   1      42.011  26.145  28.324  1.00  0.00    -0.014 A 
BRANCH  33  34
ATOM     34  C   UNL A   1      41.969  27.468  29.016  1.00  0.00     0.031 A 
ATOM     35  C   UNL A   1      43.052  28.359  28.547  1.00  0.00     0.074 A 
ATOM     36  C   UNL A   1      41.048  28.035  29.852  1.00  0.00     0.049 A 
ATOM     37  N   UNL A   1      43.903  28.928  29.330  1.00  0.00    -0.248 NA
ATOM     38  C   UNL A   1      43.304  28.580  27.117  1.00  0.00     0.031 C 
ATOM     39  C   UNL A   1      39.941  27.388  30.535  1.00  0.00     0.029 A 
ATOM     40  N   UNL A   1      40.844  29.358  30.231  1.00  0.00    -0.354 N 
ATOM     41  C   UNL A   1      44.622  29.789  28.528  1.00  0.00     0.074 A 
ATOM     42  C   UNL A   1      44.300  29.467  27.162  1.00  0.00     0.031 C 
ATOM     43  C   UNL A   1      39.029  28.295  30.964  1.00  0.00     0.029 A 
ATOM     44  C   UNL A   1      39.562  29.630  30.746  1.00  0.00     0.049 A 
ATOM     45  H   UNL A   1      41.539  30.049  30.144  1.00  0.00     0.167 HD
ATOM     46  C   UNL A   1      45.213  30.875  29.079  1.00  0.00     0.037 A 
ATOM     47  C   UNL A   1      39.023  30.779  31.246  1.00  0.00     0.037 A 
ATOM     48  C   UNL A   1      45.328  30.778  30.509  1.00  0.00     0.049 A 
ATOM     49  C   UNL A   1      40.110  31.459  31.969  1.00  0.00     0.074 A 
ATOM     50  C   UNL A   1      46.159  30.122  31.389  1.00  0.00     0.029 A 
ATOM     51  N   UNL A   1      44.218  31.158  31.211  1.00  0.00    -0.354 N 
ATOM     52  N   UNL A   1      40.672  30.966  33.035  1.00  0.00    -0.248 NA
ATOM     53  C   UNL A   1      40.765  32.620  31.381  1.00  0.00     0.031 C 
ATOM     54  C   UNL A   1      45.460  30.026  32.628  1.00  0.00     0.029 A 
ATOM     55  C   UNL A   1      44.227  30.647  32.488  1.00  0.00     0.049 A 
ATOM     56  H   UNL A   1      43.501  31.727  30.848  1.00  0.00     0.167 HD
ATOM     57  C   UNL A   1      41.960  31.433  32.955  1.00  0.00     0.074 A 
ATOM     58  C   UNL A   1      41.908  32.586  32.067  1.00  0.00     0.031 C 
ATOM     59  C   UNL A   1      43.005  30.618  33.261  1.00  0.00     0.037 A 
BRANCH  46  60
ATOM     60  C   UNL A   1      45.268  32.187  28.369  1.00  0.00     0.058 A 
ATOM     61  C   UNL A   1      46.502  32.720  27.975  1.00  0.00     0.135 A 
ATOM     62  C   UNL A   1      44.152  33.051  28.321  1.00  0.00     0.135 A 
ATOM     63  F   UNL A   1      47.614  31.971  28.033  1.00  0.00    -0.206 F 
ATOM     64  C   UNL A   1      46.627  34.046  27.568  1.00  0.00     0.059 A 
ATOM     65  C   UNL A   1      44.245  34.364  27.880  1.00  0.00     0.059 A 
ATOM     66  F   UNL A   1      42.955  32.668  28.792  1.00  0.00    -0.206 F 
ATOM     67  C   UNL A   1      45.493  34.860  27.532  1.00  0.00     0.060 A 
BRANCH  67  68
ATOM     68  S   UNL A   1      45.672  36.589  27.059  1.00  0.00     0.124 S 
ATOM     69  O   UNL A   1      44.297  36.940  26.724  1.00  0.00    -0.237 OA
ATOM     70  O   UNL A   1      46.207  37.185  28.279  1.00  0.00    -0.237 OA
ATOM     71  O   UNL A   1      46.605  36.530  25.937  1.00  0.00    -0.744 OA
ENDBRANCH  67  68
ENDBRANCH  46  60
BRANCH  47  72
ATOM     72  C   UNL A   1      37.664  31.411  31.180  1.00  0.00     0.058 A 
ATOM     73  C   UNL A   1      36.703  31.185  32.191  1.00  0.00     0.135 A 
ATOM     74  C   UNL A   1      37.408  32.511  30.341  1.00  0.00     0.135 A 
ATOM     75  F   UNL A   1      36.844  30.157  33.041  1.00  0.00    -0.206 F 
ATOM     76  C   UNL A   1      35.620  32.045  32.418  1.00  0.00     0.059 A 
ATOM     77  C   UNL A   1      36.331  33.388  30.548  1.00  0.00     0.059 A 
ATOM     78  F   UNL A   1      38.258  32.817  29.352  1.00  0.00    -0.206 F 
ATOM     79  C   UNL A   1      35.461  33.169  31.613  1.00  0.00     0.060 A 
BRANCH  79  80
ATOM     80  S   UNL A   1      34.196  34.391  32.056  1.00  0.00     0.124 S 
ATOM     81  O   UNL A   1      33.499  34.583  30.789  1.00  0.00    -0.237 OA
ATOM     82  O   UNL A   1      33.444  33.691  33.093  1.00  0.00    -0.237 OA
ATOM     83  O   UNL A   1      34.977  35.534  32.520  1.00  0.00    -0.744 OA
ENDBRANCH  79  80
ENDBRANCH  47  72
BRANCH  59  84
ATOM     84  C   UNL A   1      42.802  29.555  34.303  1.00  0.00     0.058 A 
ATOM     85  C   UNL A   1      42.764  29.770  35.692  1.00  0.00     0.135 A 
ATOM     86  C   UNL A   1      42.578  28.243  33.860  1.00  0.00     0.135 A 
ATOM     87  F   UNL A   1      42.911  30.997  36.203  1.00  0.00    -0.206 F 
ATOM     88  C   UNL A   1      42.527  28.731  36.596  1.00  0.00     0.059 A 
ATOM     89  C   UNL A   1      42.309  27.197  34.739  1.00  0.00     0.059 A 
ATOM     90  F   UNL A   1      42.583  27.970  32.545  1.00  0.00    -0.206 F 
ATOM     91  C   UNL A   1      42.288  27.448  36.108  1.00  0.00     0.060 A 
BRANCH  91  92
ATOM     92  S   UNL A   1      41.872  26.129  37.269  1.00  0.00     0.124 S 
ATOM     93  O   UNL A   1      42.117  24.929  36.476  1.00  0.00    -0.237 OA
ATOM     94  O   UNL A   1      42.809  26.366  38.365  1.00  0.00    -0.237 OA
ATOM     95  O   UNL A   1      40.472  26.387  37.592  1.00  0.00    -0.744 OA
ENDBRANCH  91  92
ENDBRANCH  59  84
ENDBRANCH  33  34
ENDBRANCH  26  28
ENDBRANCH  25  26
ENDBRANCH  24  25
ENDBRANCH  23  24
ENDBRANCH  22  23
ENDBRANCH   1  22
TORSDOF 21
ENDMDL
