MODEL 1
REMARK VINA RESULT:     -10.0      0.000      0.000
REMARK SMILES CS(=O)(=O)c1ccc(C2=NN(c3ccc(C(=O)OCCOCCOCCOC(=O)c4ccc(-c5c6nc(c(-c7c(F)cc(S(=O)(=O)[O-])cc7F)c7ccc([nH]7)c(-c7c(F)cc(S(=O)(=O)[O-])cc7F)c7nc(c(-c8c(F)cc(S(=O)(=O)[O-])cc8F)c8ccc5[nH]8)C=C7)C=C6)cc4)cc3)[C@H](c3ccccc3)C2)cc1
REMARK SMILES IDX 22 1 21 2 20 3 19 4 18 5 16 6 17 7 15 8 12 9 13 10 97 11
REMARK SMILES IDX 14 12 96 13 11 14 9 15 10 16 105 17 98 18 8 19 5 20 6 21
REMARK SMILES IDX 107 22 7 23 106 24 2 25 1 26 3 27 4 28 99 29 100 30 104 31
REMARK SMILES IDX 101 32 103 33 102 34 23 35 24 36 25 37 26 38 27 39 28 40
REMARK SMILES IDX 29 41 30 42 31 43 95 44 32 45 94 46 33 47 34 48 35 49 88 50
REMARK SMILES IDX 36 51 93 52 87 53 89 54 37 55 92 56 86 57 85 58 38 60 72 61
REMARK SMILES IDX 51 62 71 63 52 64 55 65 70 66 90 67 53 68 54 69 69 71 91 72
REMARK SMILES IDX 56 73 39 74 40 75 49 76 41 77 42 78 48 79 50 80 43 81 44 82
REMARK SMILES IDX 45 83 46 84 47 85 73 86 74 87 83 88 75 89 76 90 82 91 84 92
REMARK SMILES IDX 77 93 78 94 79 95 80 96 81 97 57 98 58 99 67 100 59 101
REMARK SMILES IDX 60 102 66 103 68 104 61 105 62 106 63 107 64 108 65 109
REMARK H PARENT 89 59 55 70
REMARK Flexibility Score: inf
ROOT
ATOM      1  C   UNL A   1      42.932  23.865  25.700  1.00  0.00     0.188 C 
ENDROOT
BRANCH   1   2
ATOM      2  O   UNL A   1      42.255  24.177  26.896  1.00  0.00    -0.376 OA
BRANCH   2   3
ATOM      3  C   UNL A   1      41.815  23.155  27.774  1.00  0.00     0.202 C 
BRANCH   3   4
ATOM      4  C   UNL A   1      40.467  22.419  27.678  1.00  0.00     0.261 C 
BRANCH   4   5
ATOM      5  O   UNL A   1      39.584  22.819  26.628  1.00  0.00    -0.460 OA
BRANCH   5   6
ATOM      6  C   UNL A   1      39.068  21.807  25.883  1.00  0.00     0.338 C 
ATOM      7  O   UNL A   1      39.644  20.787  25.543  1.00  0.00    -0.246 OA
BRANCH   6   8
ATOM      8  C   UNL A   1      37.623  22.034  25.641  1.00  0.00     0.060 A 
ATOM      9  C   UNL A   1      34.911  22.428  25.011  1.00  0.00     0.060 A 
ATOM     10  C   UNL A   1      35.512  21.180  24.801  1.00  0.00     0.029 A 
ATOM     11  C   UNL A   1      35.655  23.429  25.655  1.00  0.00     0.029 A 
ATOM     12  C   UNL A   1      36.863  20.984  25.106  1.00  0.00     0.018 A 
ATOM     13  C   UNL A   1      37.007  23.248  25.952  1.00  0.00     0.018 A 
BRANCH   9  14
ATOM     14  N   UNL A   1      33.659  22.747  24.462  1.00  0.00    -0.257 N 
ATOM     15  C   UNL A   1      32.093  24.194  24.293  1.00  0.00     0.071 C 
ATOM     16  N   UNL A   1      33.375  24.050  24.171  1.00  0.00    -0.176 NA
ATOM     17  C   UNL A   1      31.337  22.993  24.786  1.00  0.00     0.091 C 
ATOM     18  C   UNL A   1      32.487  21.993  24.964  1.00  0.00     0.144 C 
BRANCH  15  19
ATOM     19  C   UNL A   1      31.378  25.426  23.914  1.00  0.00    -0.002 A 
ATOM     20  C   UNL A   1      30.024  27.802  23.361  1.00  0.00     0.067 A 
ATOM     21  C   UNL A   1      29.474  26.889  24.262  1.00  0.00     0.021 A 
ATOM     22  C   UNL A   1      31.240  27.523  22.721  1.00  0.00     0.021 A 
ATOM     23  C   UNL A   1      30.148  25.693  24.528  1.00  0.00     0.011 A 
ATOM     24  C   UNL A   1      31.926  26.338  23.008  1.00  0.00     0.011 A 
BRANCH  20  25
ATOM     25  S   UNL A   1      29.224  29.349  22.994  1.00  0.00     0.175 S 
ATOM     26  C   UNL A   1      29.870  29.921  21.447  1.00  0.00     0.163 C 
ATOM     27  O   UNL A   1      29.647  30.289  24.013  1.00  0.00    -0.224 OA
ATOM     28  O   UNL A   1      27.820  29.037  22.804  1.00  0.00    -0.224 OA
ENDBRANCH  20  25
ENDBRANCH  15  19
BRANCH  18  29
ATOM     29  C   UNL A   1      32.368  20.628  24.288  1.00  0.00    -0.023 A 
ATOM     30  C   UNL A   1      32.195  20.443  22.909  1.00  0.00     0.006 A 
ATOM     31  C   UNL A   1      32.505  19.472  25.084  1.00  0.00     0.006 A 
ATOM     32  C   UNL A   1      32.186  19.157  22.352  1.00  0.00     0.000 A 
ATOM     33  C   UNL A   1      32.553  18.194  24.523  1.00  0.00     0.000 A 
ATOM     34  C   UNL A   1      32.390  18.037  23.154  1.00  0.00     0.000 A 
ENDBRANCH  18  29
ENDBRANCH   9  14
ENDBRANCH   6   8
ENDBRANCH   5   6
ENDBRANCH   4   5
ENDBRANCH   3   4
ENDBRANCH   2   3
ENDBRANCH   1   2
BRANCH   1  35
ATOM     35  C   UNL A   1      42.793  22.441  25.126  1.00  0.00     0.188 C 
BRANCH  35  36
ATOM     36  O   UNL A   1      43.756  21.946  24.221  1.00  0.00    -0.376 OA
BRANCH  36  37
ATOM     37  C   UNL A   1      45.101  21.796  24.640  1.00  0.00     0.202 C 
BRANCH  37  38
ATOM     38  C   UNL A   1      46.237  22.782  24.303  1.00  0.00     0.261 C 
BRANCH  38  39
ATOM     39  O   UNL A   1      45.932  24.179  24.338  1.00  0.00    -0.460 OA
BRANCH  39  40
ATOM     40  C   UNL A   1      46.956  24.991  24.701  1.00  0.00     0.338 C 
ATOM     41  O   UNL A   1      47.906  25.338  24.014  1.00  0.00    -0.246 OA
BRANCH  40  42
ATOM     42  C   UNL A   1      46.671  25.545  26.035  1.00  0.00     0.060 A 
ATOM     43  C   UNL A   1      47.230  26.778  26.406  1.00  0.00     0.016 A 
ATOM     44  C   UNL A   1      45.873  24.829  26.926  1.00  0.00     0.016 A 
ATOM     45  C   UNL A   1      46.988  27.299  27.678  1.00  0.00     0.010 A 
ATOM     46  C   UNL A   1      45.659  25.338  28.207  1.00  0.00     0.010 A 
ATOM     47  C   UNL A   1      46.231  26.564  28.597  1.00  0.00    -0.014 A 
BRANCH  47  48
ATOM     48  C   UNL A   1      46.162  26.965  30.022  1.00  0.00     0.031 A 
ATOM     49  C   UNL A   1      47.280  26.540  30.932  1.00  0.00     0.074 A 
ATOM     50  C   UNL A   1      45.107  27.642  30.508  1.00  0.00     0.049 A 
ATOM     51  N   UNL A   1      47.362  26.606  32.233  1.00  0.00    -0.248 NA
ATOM     52  C   UNL A   1      48.462  25.948  30.280  1.00  0.00     0.031 C 
ATOM     53  C   UNL A   1      43.990  28.152  29.715  1.00  0.00     0.029 A 
ATOM     54  N   UNL A   1      44.791  27.987  31.799  1.00  0.00    -0.354 N 
ATOM     55  C   UNL A   1      48.589  26.043  32.561  1.00  0.00     0.074 A 
ATOM     56  C   UNL A   1      49.212  25.626  31.324  1.00  0.00     0.031 C 
ATOM     57  C   UNL A   1      43.094  28.719  30.543  1.00  0.00     0.029 A 
ATOM     58  C   UNL A   1      43.551  28.569  31.924  1.00  0.00     0.049 A 
ATOM     59  H   UNL A   1      45.395  27.834  32.561  1.00  0.00     0.167 HD
ATOM     60  C   UNL A   1      49.144  25.888  33.786  1.00  0.00     0.037 A 
ATOM     61  C   UNL A   1      42.850  28.900  33.028  1.00  0.00     0.037 A 
ATOM     62  C   UNL A   1      48.512  26.304  35.010  1.00  0.00     0.049 A 
ATOM     63  C   UNL A   1      43.452  28.643  34.389  1.00  0.00     0.074 A 
ATOM     64  C   UNL A   1      48.998  26.210  36.302  1.00  0.00     0.029 A 
ATOM     65  N   UNL A   1      47.254  26.882  35.097  1.00  0.00    -0.354 N 
ATOM     66  N   UNL A   1      44.620  28.125  34.691  1.00  0.00    -0.248 NA
ATOM     67  C   UNL A   1      42.642  29.009  35.559  1.00  0.00     0.031 C 
ATOM     68  C   UNL A   1      48.009  26.672  37.174  1.00  0.00     0.029 A 
ATOM     69  C   UNL A   1      46.935  27.123  36.422  1.00  0.00     0.049 A 
ATOM     70  H   UNL A   1      46.674  27.091  34.329  1.00  0.00     0.167 HD
ATOM     71  C   UNL A   1      44.698  28.141  36.081  1.00  0.00     0.074 A 
ATOM     72  C   UNL A   1      43.461  28.718  36.561  1.00  0.00     0.031 C 
ATOM     73  C   UNL A   1      45.707  27.723  36.885  1.00  0.00     0.037 A 
BRANCH  60  74
ATOM     74  C   UNL A   1      50.483  25.206  33.868  1.00  0.00     0.058 A 
ATOM     75  C   UNL A   1      50.601  23.811  33.953  1.00  0.00     0.135 A 
ATOM     76  C   UNL A   1      51.666  25.963  33.822  1.00  0.00     0.135 A 
ATOM     77  F   UNL A   1      49.505  23.040  34.019  1.00  0.00    -0.206 F 
ATOM     78  C   UNL A   1      51.845  23.191  34.015  1.00  0.00     0.059 A 
ATOM     79  C   UNL A   1      52.920  25.361  33.850  1.00  0.00     0.059 A 
ATOM     80  F   UNL A   1      51.610  27.302  33.744  1.00  0.00    -0.206 F 
ATOM     81  C   UNL A   1      52.999  23.974  33.960  1.00  0.00     0.060 A 
BRANCH  81  82
ATOM     82  S   UNL A   1      54.603  23.150  34.032  1.00  0.00     0.124 S 
ATOM     83  O   UNL A   1      55.412  24.013  33.177  1.00  0.00    -0.237 OA
ATOM     84  O   UNL A   1      54.914  23.199  35.457  1.00  0.00    -0.237 OA
ATOM     85  O   UNL A   1      54.328  21.819  33.498  1.00  0.00    -0.744 OA
ENDBRANCH  81  82
ENDBRANCH  60  74
BRANCH  61  86
ATOM     86  C   UNL A   1      41.489  29.489  32.900  1.00  0.00     0.058 A 
ATOM     87  C   UNL A   1      40.344  28.682  32.963  1.00  0.00     0.135 A 
ATOM     88  C   UNL A   1      41.305  30.868  32.706  1.00  0.00     0.135 A 
ATOM     89  F   UNL A   1      40.465  27.356  33.132  1.00  0.00    -0.206 F 
ATOM     90  C   UNL A   1      39.066  29.216  32.826  1.00  0.00     0.059 A 
ATOM     91  C   UNL A   1      40.036  31.429  32.595  1.00  0.00     0.059 A 
ATOM     92  F   UNL A   1      42.366  31.687  32.643  1.00  0.00    -0.206 F 
ATOM     93  C   UNL A   1      38.923  30.593  32.647  1.00  0.00     0.060 A 
BRANCH  93  94
ATOM     94  S   UNL A   1      37.256  31.278  32.516  1.00  0.00     0.124 S 
ATOM     95  O   UNL A   1      37.362  32.083  31.304  1.00  0.00    -0.237 OA
ATOM     96  O   UNL A   1      36.440  30.072  32.412  1.00  0.00    -0.237 OA
ATOM     97  O   UNL A   1      37.101  32.026  33.759  1.00  0.00    -0.744 OA
ENDBRANCH  93  94
ENDBRANCH  61  86
BRANCH  73  98
ATOM     98  C   UNL A   1      45.561  27.922  38.370  1.00  0.00     0.058 A 
ATOM     99  C   UNL A   1      45.126  26.894  39.220  1.00  0.00     0.135 A 
ATOM    100  C   UNL A   1      45.965  29.131  38.961  1.00  0.00     0.135 A 
ATOM    101  F   UNL A   1      44.721  25.719  38.710  1.00  0.00    -0.206 F 
ATOM    102  C   UNL A   1      45.096  27.058  40.602  1.00  0.00     0.059 A 
ATOM    103  C   UNL A   1      45.971  29.308  40.340  1.00  0.00     0.059 A 
ATOM    104  F   UNL A   1      46.398  30.146  38.194  1.00  0.00    -0.206 F 
ATOM    105  C   UNL A   1      45.533  28.265  41.154  1.00  0.00     0.060 A 
BRANCH 105 106
ATOM    106  S   UNL A   1      45.561  28.435  42.951  1.00  0.00     0.124 S 
ATOM    107  O   UNL A   1      46.796  27.739  43.295  1.00  0.00    -0.237 OA
ATOM    108  O   UNL A   1      45.580  29.885  43.126  1.00  0.00    -0.237 OA
ATOM    109  O   UNL A   1      44.329  27.776  43.375  1.00  0.00    -0.744 OA
ENDBRANCH 105 106
ENDBRANCH  73  98
ENDBRANCH  47  48
ENDBRANCH  40  42
ENDBRANCH  39  40
ENDBRANCH  38  39
ENDBRANCH  37  38
ENDBRANCH  36  37
ENDBRANCH  35  36
ENDBRANCH   1  35
TORSDOF 24
ENDMDL
MODEL 2
REMARK VINA RESULT:      -9.6      4.346      6.937
REMARK SMILES CS(=O)(=O)c1ccc(C2=NN(c3ccc(C(=O)OCCOCCOCCOC(=O)c4ccc(-c5c6nc(c(-c7c(F)cc(S(=O)(=O)[O-])cc7F)c7ccc([nH]7)c(-c7c(F)cc(S(=O)(=O)[O-])cc7F)c7nc(c(-c8c(F)cc(S(=O)(=O)[O-])cc8F)c8ccc5[nH]8)C=C7)C=C6)cc4)cc3)[C@H](c3ccccc3)C2)cc1
REMARK SMILES IDX 22 1 21 2 20 3 19 4 18 5 16 6 17 7 15 8 12 9 13 10 97 11
REMARK SMILES IDX 14 12 96 13 11 14 9 15 10 16 105 17 98 18 8 19 5 20 6 21
REMARK SMILES IDX 107 22 7 23 106 24 2 25 1 26 3 27 4 28 99 29 100 30 104 31
REMARK SMILES IDX 101 32 103 33 102 34 23 35 24 36 25 37 26 38 27 39 28 40
REMARK SMILES IDX 29 41 30 42 31 43 95 44 32 45 94 46 33 47 34 48 35 49 88 50
REMARK SMILES IDX 36 51 93 52 87 53 89 54 37 55 92 56 86 57 85 58 38 60 72 61
REMARK SMILES IDX 51 62 71 63 52 64 55 65 70 66 90 67 53 68 54 69 69 71 91 72
REMARK SMILES IDX 56 73 39 74 40 75 49 76 41 77 42 78 48 79 50 80 43 81 44 82
REMARK SMILES IDX 45 83 46 84 47 85 73 86 74 87 83 88 75 89 76 90 82 91 84 92
REMARK SMILES IDX 77 93 78 94 79 95 80 96 81 97 57 98 58 99 67 100 59 101
REMARK SMILES IDX 60 102 66 103 68 104 61 105 62 106 63 107 64 108 65 109
REMARK H PARENT 89 59 55 70
REMARK Flexibility Score: inf
ROOT
ATOM      1  C   UNL A   1      44.397  23.318  26.770  1.00  0.00     0.188 C 
ENDROOT
BRANCH   1   2
ATOM      2  O   UNL A   1      43.214  23.220  27.531  1.00  0.00    -0.376 OA
BRANCH   2   3
ATOM      3  C   UNL A   1      41.947  23.457  26.943  1.00  0.00     0.202 C 
BRANCH   3   4
ATOM      4  C   UNL A   1      40.615  22.851  27.424  1.00  0.00     0.261 C 
BRANCH   4   5
ATOM      5  O   UNL A   1      39.472  23.063  26.593  1.00  0.00    -0.460 OA
BRANCH   5   6
ATOM      6  C   UNL A   1      38.952  21.947  26.020  1.00  0.00     0.338 C 
ATOM      7  O   UNL A   1      39.516  20.876  25.872  1.00  0.00    -0.246 OA
BRANCH   6   8
ATOM      8  C   UNL A   1      37.516  22.150  25.711  1.00  0.00     0.060 A 
ATOM      9  C   UNL A   1      34.832  22.506  24.954  1.00  0.00     0.060 A 
ATOM     10  C   UNL A   1      35.474  21.281  24.728  1.00  0.00     0.029 A 
ATOM     11  C   UNL A   1      35.516  23.498  25.674  1.00  0.00     0.029 A 
ATOM     12  C   UNL A   1      36.811  21.105  25.097  1.00  0.00     0.018 A 
ATOM     13  C   UNL A   1      36.855  23.336  26.035  1.00  0.00     0.018 A 
BRANCH   9  14
ATOM     14  N   UNL A   1      33.603  22.818  24.352  1.00  0.00    -0.257 N 
ATOM     15  C   UNL A   1      32.030  24.251  24.127  1.00  0.00     0.071 C 
ATOM     16  N   UNL A   1      33.319  24.120  24.060  1.00  0.00    -0.176 NA
ATOM     17  C   UNL A   1      31.265  23.038  24.574  1.00  0.00     0.091 C 
ATOM     18  C   UNL A   1      32.417  22.048  24.794  1.00  0.00     0.144 C 
BRANCH  15  19
ATOM     19  C   UNL A   1      31.321  25.479  23.727  1.00  0.00    -0.002 A 
ATOM     20  C   UNL A   1      30.001  27.863  23.127  1.00  0.00     0.067 A 
ATOM     21  C   UNL A   1      29.545  27.069  24.182  1.00  0.00     0.021 A 
ATOM     22  C   UNL A   1      31.103  27.460  22.360  1.00  0.00     0.021 A 
ATOM     23  C   UNL A   1      30.201  25.869  24.472  1.00  0.00     0.011 A 
ATOM     24  C   UNL A   1      31.773  26.271  22.668  1.00  0.00     0.011 A 
BRANCH  20  25
ATOM     25  S   UNL A   1      29.222  29.411  22.720  1.00  0.00     0.175 S 
ATOM     26  C   UNL A   1      27.471  29.161  22.826  1.00  0.00     0.163 C 
ATOM     27  O   UNL A   1      29.536  29.684  21.332  1.00  0.00    -0.224 OA
ATOM     28  O   UNL A   1      29.604  30.339  23.768  1.00  0.00    -0.224 OA
ENDBRANCH  20  25
ENDBRANCH  15  19
BRANCH  18  29
ATOM     29  C   UNL A   1      32.343  20.688  24.102  1.00  0.00    -0.023 A 
ATOM     30  C   UNL A   1      32.179  20.514  22.720  1.00  0.00     0.006 A 
ATOM     31  C   UNL A   1      32.513  19.527  24.885  1.00  0.00     0.006 A 
ATOM     32  C   UNL A   1      32.212  19.236  22.147  1.00  0.00     0.000 A 
ATOM     33  C   UNL A   1      32.602  18.259  24.309  1.00  0.00     0.000 A 
ATOM     34  C   UNL A   1      32.448  18.113  22.937  1.00  0.00     0.000 A 
ENDBRANCH  18  29
ENDBRANCH   9  14
ENDBRANCH   6   8
ENDBRANCH   5   6
ENDBRANCH   4   5
ENDBRANCH   3   4
ENDBRANCH   2   3
ENDBRANCH   1   2
BRANCH   1  35
ATOM     35  C   UNL A   1      45.257  24.590  26.907  1.00  0.00     0.188 C 
BRANCH  35  36
ATOM     36  O   UNL A   1      45.939  24.856  28.113  1.00  0.00    -0.376 OA
BRANCH  36  37
ATOM     37  C   UNL A   1      45.402  24.394  29.340  1.00  0.00     0.202 C 
BRANCH  37  38
ATOM     38  C   UNL A   1      45.318  25.235  30.630  1.00  0.00     0.261 C 
BRANCH  38  39
ATOM     39  O   UNL A   1      45.264  26.657  30.489  1.00  0.00    -0.460 OA
BRANCH  39  40
ATOM     40  C   UNL A   1      46.285  27.340  31.064  1.00  0.00     0.338 C 
ATOM     41  O   UNL A   1      47.428  27.456  30.645  1.00  0.00    -0.246 OA
BRANCH  40  42
ATOM     42  C   UNL A   1      45.764  28.081  32.225  1.00  0.00     0.060 A 
ATOM     43  C   UNL A   1      44.926  27.428  33.143  1.00  0.00     0.016 A 
ATOM     44  C   UNL A   1      46.085  29.427  32.389  1.00  0.00     0.016 A 
ATOM     45  C   UNL A   1      44.406  28.127  34.233  1.00  0.00     0.010 A 
ATOM     46  C   UNL A   1      45.538  30.131  33.462  1.00  0.00     0.010 A 
ATOM     47  C   UNL A   1      44.681  29.492  34.377  1.00  0.00    -0.014 A 
BRANCH  47  48
ATOM     48  C   UNL A   1      43.953  30.314  35.371  1.00  0.00     0.031 A 
ATOM     49  C   UNL A   1      44.487  30.367  36.775  1.00  0.00     0.074 A 
ATOM     50  C   UNL A   1      42.814  30.953  35.050  1.00  0.00     0.049 A 
ATOM     51  N   UNL A   1      43.940  30.859  37.853  1.00  0.00    -0.248 NA
ATOM     52  C   UNL A   1      45.818  29.773  36.988  1.00  0.00     0.031 C 
ATOM     53  C   UNL A   1      42.227  31.018  33.714  1.00  0.00     0.029 A 
ATOM     54  N   UNL A   1      41.930  31.646  35.842  1.00  0.00    -0.354 N 
ATOM     55  C   UNL A   1      44.845  30.611  38.879  1.00  0.00     0.074 A 
ATOM     56  C   UNL A   1      45.969  29.913  38.297  1.00  0.00     0.031 C 
ATOM     57  C   UNL A   1      41.062  31.687  33.783  1.00  0.00     0.029 A 
ATOM     58  C   UNL A   1      40.799  32.053  35.175  1.00  0.00     0.049 A 
ATOM     59  H   UNL A   1      42.092  31.833  36.795  1.00  0.00     0.167 HD
ATOM     60  C   UNL A   1      44.742  30.938  40.189  1.00  0.00     0.037 A 
ATOM     61  C   UNL A   1      39.666  32.617  35.642  1.00  0.00     0.037 A 
ATOM     62  C   UNL A   1      43.615  31.630  40.756  1.00  0.00     0.049 A 
ATOM     63  C   UNL A   1      39.538  32.899  37.120  1.00  0.00     0.074 A 
ATOM     64  C   UNL A   1      43.422  32.025  42.068  1.00  0.00     0.029 A 
ATOM     65  N   UNL A   1      42.486  32.019  40.051  1.00  0.00    -0.354 N 
ATOM     66  N   UNL A   1      40.404  32.677  38.081  1.00  0.00    -0.248 NA
ATOM     67  C   UNL A   1      38.278  33.502  37.580  1.00  0.00     0.031 C 
ATOM     68  C   UNL A   1      42.151  32.597  42.168  1.00  0.00     0.029 A 
ATOM     69  C   UNL A   1      41.581  32.624  40.905  1.00  0.00     0.049 A 
ATOM     70  H   UNL A   1      42.350  31.886  39.085  1.00  0.00     0.167 HD
ATOM     71  C   UNL A   1      39.809  33.150  39.249  1.00  0.00     0.074 A 
ATOM     72  C   UNL A   1      38.511  33.667  38.875  1.00  0.00     0.031 C 
ATOM     73  C   UNL A   1      40.299  33.159  40.513  1.00  0.00     0.037 A 
BRANCH  60  74
ATOM     74  C   UNL A   1      45.859  30.517  41.105  1.00  0.00     0.058 A 
ATOM     75  C   UNL A   1      45.851  29.278  41.764  1.00  0.00     0.135 A 
ATOM     76  C   UNL A   1      46.971  31.354  41.296  1.00  0.00     0.135 A 
ATOM     77  F   UNL A   1      44.806  28.446  41.633  1.00  0.00    -0.206 F 
ATOM     78  C   UNL A   1      46.896  28.894  42.598  1.00  0.00     0.059 A 
ATOM     79  C   UNL A   1      48.040  30.976  42.101  1.00  0.00     0.059 A 
ATOM     80  F   UNL A   1      47.027  32.552  40.694  1.00  0.00    -0.206 F 
ATOM     81  C   UNL A   1      47.988  29.748  42.759  1.00  0.00     0.060 A 
BRANCH  81  82
ATOM     82  S   UNL A   1      49.337  29.228  43.838  1.00  0.00     0.124 S 
ATOM     83  O   UNL A   1      48.606  28.637  44.955  1.00  0.00    -0.237 OA
ATOM     84  O   UNL A   1      50.067  28.289  42.992  1.00  0.00    -0.237 OA
ATOM     85  O   UNL A   1      50.036  30.474  44.136  1.00  0.00    -0.744 OA
ENDBRANCH  81  82
ENDBRANCH  60  74
BRANCH  61  86
ATOM     86  C   UNL A   1      38.550  32.934  34.710  1.00  0.00     0.058 A 
ATOM     87  C   UNL A   1      38.430  34.207  34.132  1.00  0.00     0.135 A 
ATOM     88  C   UNL A   1      37.578  31.976  34.380  1.00  0.00     0.135 A 
ATOM     89  F   UNL A   1      39.325  35.164  34.425  1.00  0.00    -0.206 F 
ATOM     90  C   UNL A   1      37.382  34.524  33.273  1.00  0.00     0.059 A 
ATOM     91  C   UNL A   1      36.536  32.260  33.502  1.00  0.00     0.059 A 
ATOM     92  F   UNL A   1      37.647  30.740  34.900  1.00  0.00    -0.206 F 
ATOM     93  C   UNL A   1      36.442  33.540  32.960  1.00  0.00     0.060 A 
BRANCH  93  94
ATOM     94  S   UNL A   1      35.112  33.952  31.809  1.00  0.00     0.124 S 
ATOM     95  O   UNL A   1      34.211  32.818  31.980  1.00  0.00    -0.237 OA
ATOM     96  O   UNL A   1      34.638  35.228  32.336  1.00  0.00    -0.237 OA
ATOM     97  O   UNL A   1      35.794  34.028  30.521  1.00  0.00    -0.744 OA
ENDBRANCH  93  94
ENDBRANCH  61  86
BRANCH  73  98
ATOM     98  C   UNL A   1      39.467  33.801  41.592  1.00  0.00     0.058 A 
ATOM     99  C   UNL A   1      38.436  33.111  42.247  1.00  0.00     0.135 A 
ATOM    100  C   UNL A   1      39.782  35.093  42.048  1.00  0.00     0.135 A 
ATOM    101  F   UNL A   1      38.088  31.877  41.849  1.00  0.00    -0.206 F 
ATOM    102  C   UNL A   1      37.745  33.679  43.313  1.00  0.00     0.059 A 
ATOM    103  C   UNL A   1      39.125  35.668  43.130  1.00  0.00     0.059 A 
ATOM    104  F   UNL A   1      40.766  35.794  41.462  1.00  0.00    -0.206 F 
ATOM    105  C   UNL A   1      38.106  34.955  43.756  1.00  0.00     0.060 A 
BRANCH 105 106
ATOM    106  S   UNL A   1      37.253  35.646  45.189  1.00  0.00     0.124 S 
ATOM    107  O   UNL A   1      35.864  35.626  44.746  1.00  0.00    -0.237 OA
ATOM    108  O   UNL A   1      37.597  34.697  46.244  1.00  0.00    -0.237 OA
ATOM    109  O   UNL A   1      37.848  36.973  45.332  1.00  0.00    -0.744 OA
ENDBRANCH 105 106
ENDBRANCH  73  98
ENDBRANCH  47  48
ENDBRANCH  40  42
ENDBRANCH  39  40
ENDBRANCH  38  39
ENDBRANCH  37  38
ENDBRANCH  36  37
ENDBRANCH  35  36
ENDBRANCH   1  35
TORSDOF 24
ENDMDL
MODEL 3
REMARK VINA RESULT:      -9.3      7.567     11.206
REMARK SMILES CS(=O)(=O)c1ccc(C2=NN(c3ccc(C(=O)OCCOCCOCCOC(=O)c4ccc(-c5c6nc(c(-c7c(F)cc(S(=O)(=O)[O-])cc7F)c7ccc([nH]7)c(-c7c(F)cc(S(=O)(=O)[O-])cc7F)c7nc(c(-c8c(F)cc(S(=O)(=O)[O-])cc8F)c8ccc5[nH]8)C=C7)C=C6)cc4)cc3)[C@H](c3ccccc3)C2)cc1
REMARK SMILES IDX 22 1 21 2 20 3 19 4 18 5 16 6 17 7 15 8 12 9 13 10 97 11
REMARK SMILES IDX 14 12 96 13 11 14 9 15 10 16 105 17 98 18 8 19 5 20 6 21
REMARK SMILES IDX 107 22 7 23 106 24 2 25 1 26 3 27 4 28 99 29 100 30 104 31
REMARK SMILES IDX 101 32 103 33 102 34 23 35 24 36 25 37 26 38 27 39 28 40
REMARK SMILES IDX 29 41 30 42 31 43 95 44 32 45 94 46 33 47 34 48 35 49 88 50
REMARK SMILES IDX 36 51 93 52 87 53 89 54 37 55 92 56 86 57 85 58 38 60 72 61
REMARK SMILES IDX 51 62 71 63 52 64 55 65 70 66 90 67 53 68 54 69 69 71 91 72
REMARK SMILES IDX 56 73 39 74 40 75 49 76 41 77 42 78 48 79 50 80 43 81 44 82
REMARK SMILES IDX 45 83 46 84 47 85 73 86 74 87 83 88 75 89 76 90 82 91 84 92
REMARK SMILES IDX 77 93 78 94 79 95 80 96 81 97 57 98 58 99 67 100 59 101
REMARK SMILES IDX 60 102 66 103 68 104 61 105 62 106 63 107 64 108 65 109
REMARK H PARENT 89 59 55 70
REMARK Flexibility Score: inf
ROOT
ATOM      1  C   UNL A   1      36.990  32.237  30.993  1.00  0.00     0.188 C 
ENDROOT
BRANCH   1   2
ATOM      2  O   UNL A   1      35.915  32.746  30.237  1.00  0.00    -0.376 OA
BRANCH   2   3
ATOM      3  C   UNL A   1      36.112  33.220  28.916  1.00  0.00     0.202 C 
BRANCH   3   4
ATOM      4  C   UNL A   1      35.884  32.401  27.633  1.00  0.00     0.261 C 
BRANCH   4   5
ATOM      5  O   UNL A   1      35.216  31.145  27.777  1.00  0.00    -0.460 OA
BRANCH   5   6
ATOM      6  C   UNL A   1      33.867  31.183  27.634  1.00  0.00     0.338 C 
ATOM      7  O   UNL A   1      33.117  32.055  28.042  1.00  0.00    -0.246 OA
BRANCH   6   8
ATOM      8  C   UNL A   1      33.410  30.068  26.771  1.00  0.00     0.060 A 
ATOM      9  C   UNL A   1      32.405  27.933  25.242  1.00  0.00     0.060 A 
ATOM     10  C   UNL A   1      31.654  29.105  25.398  1.00  0.00     0.029 A 
ATOM     11  C   UNL A   1      33.711  27.900  25.756  1.00  0.00     0.029 A 
ATOM     12  C   UNL A   1      32.149  30.165  26.165  1.00  0.00     0.018 A 
ATOM     13  C   UNL A   1      34.208  28.947  26.534  1.00  0.00     0.018 A 
BRANCH   9  14
ATOM     14  N   UNL A   1      31.838  26.755  24.731  1.00  0.00    -0.257 N 
ATOM     15  C   UNL A   1      32.153  24.721  24.146  1.00  0.00     0.071 C 
ATOM     16  N   UNL A   1      32.343  25.550  25.125  1.00  0.00    -0.176 NA
ATOM     17  C   UNL A   1      31.559  25.302  22.894  1.00  0.00     0.091 C 
ATOM     18  C   UNL A   1      31.406  26.770  23.314  1.00  0.00     0.144 C 
BRANCH  15  19
ATOM     19  C   UNL A   1      32.426  23.276  24.247  1.00  0.00    -0.002 A 
ATOM     20  C   UNL A   1      33.013  20.549  24.282  1.00  0.00     0.067 A 
ATOM     21  C   UNL A   1      32.239  21.074  23.245  1.00  0.00     0.021 A 
ATOM     22  C   UNL A   1      33.479  21.379  25.311  1.00  0.00     0.021 A 
ATOM     23  C   UNL A   1      31.935  22.438  23.237  1.00  0.00     0.011 A 
ATOM     24  C   UNL A   1      33.196  22.749  25.286  1.00  0.00     0.011 A 
BRANCH  20  25
ATOM     25  S   UNL A   1      33.449  18.824  24.339  1.00  0.00     0.175 S 
ATOM     26  C   UNL A   1      32.645  18.125  25.754  1.00  0.00     0.163 C 
ATOM     27  O   UNL A   1      34.878  18.762  24.580  1.00  0.00    -0.224 OA
ATOM     28  O   UNL A   1      32.866  18.225  23.153  1.00  0.00    -0.224 OA
ENDBRANCH  20  25
ENDBRANCH  15  19
BRANCH  18  29
ATOM     29  C   UNL A   1      30.037  27.428  23.153  1.00  0.00    -0.023 A 
ATOM     30  C   UNL A   1      28.850  26.925  23.706  1.00  0.00     0.006 A 
ATOM     31  C   UNL A   1      29.959  28.654  22.461  1.00  0.00     0.006 A 
ATOM     32  C   UNL A   1      27.647  27.635  23.593  1.00  0.00     0.000 A 
ATOM     33  C   UNL A   1      28.774  29.388  22.395  1.00  0.00     0.000 A 
ATOM     34  C   UNL A   1      27.614  28.875  22.960  1.00  0.00     0.000 A 
ENDBRANCH  18  29
ENDBRANCH   9  14
ENDBRANCH   6   8
ENDBRANCH   5   6
ENDBRANCH   4   5
ENDBRANCH   3   4
ENDBRANCH   2   3
ENDBRANCH   1   2
BRANCH   1  35
ATOM     35  C   UNL A   1      38.290  31.851  30.258  1.00  0.00     0.188 C 
BRANCH  35  36
ATOM     36  O   UNL A   1      38.349  30.658  29.505  1.00  0.00    -0.376 OA
BRANCH  36  37
ATOM     37  C   UNL A   1      37.767  29.474  30.020  1.00  0.00     0.202 C 
BRANCH  37  38
ATOM     38  C   UNL A   1      38.480  28.109  30.091  1.00  0.00     0.261 C 
BRANCH  38  39
ATOM     39  O   UNL A   1      39.359  27.879  31.196  1.00  0.00    -0.460 OA
BRANCH  39  40
ATOM     40  C   UNL A   1      38.823  28.096  32.423  1.00  0.00     0.338 C 
ATOM     41  O   UNL A   1      38.076  27.355  33.047  1.00  0.00    -0.246 OA
BRANCH  40  42
ATOM     42  C   UNL A   1      39.414  29.320  32.988  1.00  0.00     0.060 A 
ATOM     43  C   UNL A   1      38.576  30.300  33.542  1.00  0.00     0.016 A 
ATOM     44  C   UNL A   1      40.795  29.507  32.944  1.00  0.00     0.016 A 
ATOM     45  C   UNL A   1      39.123  31.476  34.057  1.00  0.00     0.010 A 
ATOM     46  C   UNL A   1      41.335  30.697  33.432  1.00  0.00     0.010 A 
ATOM     47  C   UNL A   1      40.503  31.695  33.971  1.00  0.00    -0.014 A 
BRANCH  47  48
ATOM     48  C   UNL A   1      41.084  33.024  34.277  1.00  0.00     0.031 A 
ATOM     49  C   UNL A   1      41.967  33.666  33.245  1.00  0.00     0.074 A 
ATOM     50  C   UNL A   1      40.878  33.620  35.465  1.00  0.00     0.049 A 
ATOM     51  N   UNL A   1      42.729  34.721  33.345  1.00  0.00    -0.248 NA
ATOM     52  C   UNL A   1      42.001  33.017  31.922  1.00  0.00     0.031 C 
ATOM     53  C   UNL A   1      40.002  33.121  36.523  1.00  0.00     0.029 A 
ATOM     54  N   UNL A   1      41.423  34.766  35.990  1.00  0.00    -0.354 N 
ATOM     55  C   UNL A   1      43.353  34.851  32.110  1.00  0.00     0.074 A 
ATOM     56  C   UNL A   1      42.893  33.758  31.282  1.00  0.00     0.031 C 
ATOM     57  C   UNL A   1      40.093  33.941  37.585  1.00  0.00     0.029 A 
ATOM     58  C   UNL A   1      41.068  34.993  37.299  1.00  0.00     0.049 A 
ATOM     59  H   UNL A   1      42.010  35.368  35.478  1.00  0.00     0.167 HD
ATOM     60  C   UNL A   1      44.232  35.798  31.707  1.00  0.00     0.037 A 
ATOM     61  C   UNL A   1      41.513  35.917  38.176  1.00  0.00     0.037 A 
ATOM     62  C   UNL A   1      44.685  36.878  32.542  1.00  0.00     0.049 A 
ATOM     63  C   UNL A   1      42.556  36.914  37.731  1.00  0.00     0.074 A 
ATOM     64  C   UNL A   1      45.560  37.902  32.223  1.00  0.00     0.029 A 
ATOM     65  N   UNL A   1      44.310  37.071  33.863  1.00  0.00    -0.354 N 
ATOM     66  N   UNL A   1      43.130  37.041  36.557  1.00  0.00    -0.248 NA
ATOM     67  C   UNL A   1      43.017  37.891  38.729  1.00  0.00     0.031 C 
ATOM     68  C   UNL A   1      45.762  38.676  33.369  1.00  0.00     0.029 A 
ATOM     69  C   UNL A   1      44.957  38.178  34.383  1.00  0.00     0.049 A 
ATOM     70  H   UNL A   1      43.675  36.503  34.359  1.00  0.00     0.167 HD
ATOM     71  C   UNL A   1      43.986  38.133  36.666  1.00  0.00     0.074 A 
ATOM     72  C   UNL A   1      43.859  38.631  38.019  1.00  0.00     0.031 C 
ATOM     73  C   UNL A   1      44.800  38.678  35.727  1.00  0.00     0.037 A 
BRANCH  60  74
ATOM     74  C   UNL A   1      44.793  35.687  30.315  1.00  0.00     0.058 A 
ATOM     75  C   UNL A   1      44.133  36.232  29.203  1.00  0.00     0.135 A 
ATOM     76  C   UNL A   1      46.029  35.056  30.098  1.00  0.00     0.135 A 
ATOM     77  F   UNL A   1      42.939  36.830  29.349  1.00  0.00    -0.206 F 
ATOM     78  C   UNL A   1      44.666  36.135  27.922  1.00  0.00     0.059 A 
ATOM     79  C   UNL A   1      46.596  34.975  28.830  1.00  0.00     0.059 A 
ATOM     80  F   UNL A   1      46.700  34.513  31.125  1.00  0.00    -0.206 F 
ATOM     81  C   UNL A   1      45.900  35.507  27.746  1.00  0.00     0.060 A 
BRANCH  81  82
ATOM     82  S   UNL A   1      46.581  35.399  26.078  1.00  0.00     0.124 S 
ATOM     83  O   UNL A   1      45.458  34.829  25.341  1.00  0.00    -0.237 OA
ATOM     84  O   UNL A   1      46.892  36.793  25.779  1.00  0.00    -0.237 OA
ATOM     85  O   UNL A   1      47.737  34.521  26.237  1.00  0.00    -0.744 OA
ENDBRANCH  81  82
ENDBRANCH  60  74
BRANCH  61  86
ATOM     86  C   UNL A   1      40.996  35.932  39.571  1.00  0.00     0.058 A 
ATOM     87  C   UNL A   1      39.840  36.653  39.906  1.00  0.00     0.135 A 
ATOM     88  C   UNL A   1      41.646  35.232  40.600  1.00  0.00     0.135 A 
ATOM     89  F   UNL A   1      39.188  37.351  38.962  1.00  0.00    -0.206 F 
ATOM     90  C   UNL A   1      39.354  36.692  41.209  1.00  0.00     0.059 A 
ATOM     91  C   UNL A   1      41.164  35.232  41.906  1.00  0.00     0.059 A 
ATOM     92  F   UNL A   1      42.754  34.521  40.336  1.00  0.00    -0.206 F 
ATOM     93  C   UNL A   1      40.022  35.973  42.202  1.00  0.00     0.060 A 
BRANCH  93  94
ATOM     94  S   UNL A   1      39.355  35.996  43.881  1.00  0.00     0.124 S 
ATOM     95  O   UNL A   1      40.272  35.100  44.576  1.00  0.00    -0.237 OA
ATOM     96  O   UNL A   1      39.458  37.410  44.229  1.00  0.00    -0.237 OA
ATOM     97  O   UNL A   1      37.994  35.498  43.709  1.00  0.00    -0.744 OA
ENDBRANCH  93  94
ENDBRANCH  61  86
BRANCH  73  98
ATOM     98  C   UNL A   1      45.578  39.915  36.093  1.00  0.00     0.058 A 
ATOM     99  C   UNL A   1      46.878  39.850  36.614  1.00  0.00     0.135 A 
ATOM    100  C   UNL A   1      45.048  41.186  35.814  1.00  0.00     0.135 A 
ATOM    101  F   UNL A   1      47.432  38.662  36.907  1.00  0.00    -0.206 F 
ATOM    102  C   UNL A   1      47.625  41.001  36.849  1.00  0.00     0.059 A 
ATOM    103  C   UNL A   1      45.786  42.348  36.012  1.00  0.00     0.059 A 
ATOM    104  F   UNL A   1      43.810  41.306  35.305  1.00  0.00    -0.206 F 
ATOM    105  C   UNL A   1      47.075  42.245  36.532  1.00  0.00     0.060 A 
BRANCH 105 106
ATOM    106  S   UNL A   1      48.085  43.723  36.769  1.00  0.00     0.124 S 
ATOM    107  O   UNL A   1      48.519  44.007  35.406  1.00  0.00    -0.237 OA
ATOM    108  O   UNL A   1      47.127  44.666  37.339  1.00  0.00    -0.237 OA
ATOM    109  O   UNL A   1      49.133  43.276  37.682  1.00  0.00    -0.744 OA
ENDBRANCH 105 106
ENDBRANCH  73  98
ENDBRANCH  47  48
ENDBRANCH  40  42
ENDBRANCH  39  40
ENDBRANCH  38  39
ENDBRANCH  37  38
ENDBRANCH  36  37
ENDBRANCH  35  36
ENDBRANCH   1  35
TORSDOF 24
ENDMDL
