MODEL 1
REMARK VINA RESULT:      -8.9      0.000      0.000
REMARK SMILES O=C(OCCOCCOCCOC(=O)[C@H]1C[C@H]2CCCC[C@@H]2[N@@H+]1CC[C@@H]1CCCO1)c1ccc(-c2c3nc(c(-c4c(F)cc(S(=O)(=O)[O-])cc4F)c4ccc([nH]4)c(-c4c(F)cc(S(=O)(=O)[O-])cc4F)c4nc(c(-c5c(F)cc(S(=O)(=O)[O-])cc5F)c5ccc2[nH]5)C=C4)C=C3)cc1
REMARK SMILES IDX 7 1 6 2 5 3 4 4 3 5 2 6 1 7 31 8 32 9 96 10 33 11 95 12
REMARK SMILES IDX 34 13 35 14 36 15 89 16 37 17 94 18 88 19 90 20 38 21 93 22
REMARK SMILES IDX 87 23 86 24 39 26 73 27 52 28 72 29 53 30 56 31 71 32 91 33
REMARK SMILES IDX 54 34 55 35 70 37 92 38 57 39 40 40 41 41 50 42 42 43 43 44
REMARK SMILES IDX 49 45 51 46 44 47 45 48 46 49 47 50 48 51 74 52 75 53 84 54
REMARK SMILES IDX 76 55 77 56 83 57 85 58 78 59 79 60 80 61 81 62 82 63 58 64
REMARK SMILES IDX 59 65 68 66 60 67 61 68 67 69 69 70 62 71 63 72 64 73 65 74
REMARK SMILES IDX 66 75 8 76 9 77 10 78 11 79 12 80 13 81 14 82 15 83 16 84
REMARK SMILES IDX 23 85 17 86 22 87 18 89 21 90 19 91 20 92 24 93 25 94 26 95
REMARK SMILES IDX 27 96 30 97 28 98 29 99
REMARK H PARENT 90 25 56 36 23 88
REMARK Flexibility Score: inf
ROOT
ATOM      1  C   UNL A   1      42.674  18.608  26.072  1.00  0.00     0.188 C 
ENDROOT
BRANCH   1   2
ATOM      2  O   UNL A   1      41.341  19.006  25.755  1.00  0.00    -0.376 OA
BRANCH   2   3
ATOM      3  C   UNL A   1      40.787  20.001  26.619  1.00  0.00     0.202 C 
BRANCH   3   4
ATOM      4  C   UNL A   1      39.626  20.847  26.052  1.00  0.00     0.261 C 
BRANCH   4   5
ATOM      5  O   UNL A   1      39.886  22.265  25.972  1.00  0.00    -0.460 OA
BRANCH   5   6
ATOM      6  C   UNL A   1      39.015  23.303  26.122  1.00  0.00     0.338 C 
ATOM      7  O   UNL A   1      37.888  23.208  25.651  1.00  0.00    -0.246 OA
BRANCH   6   8
ATOM      8  C   UNL A   1      39.381  24.560  26.839  1.00  0.00     0.060 A 
ATOM      9  C   UNL A   1      40.084  25.598  26.245  1.00  0.00     0.016 A 
ATOM     10  C   UNL A   1      38.963  24.735  28.167  1.00  0.00     0.016 A 
ATOM     11  C   UNL A   1      40.532  26.685  26.960  1.00  0.00     0.010 A 
ATOM     12  C   UNL A   1      39.314  25.894  28.877  1.00  0.00     0.010 A 
ATOM     13  C   UNL A   1      40.145  26.850  28.280  1.00  0.00    -0.014 A 
BRANCH  13  14
ATOM     14  C   UNL A   1      40.762  27.980  29.000  1.00  0.00     0.031 A 
ATOM     15  C   UNL A   1      39.920  29.189  29.262  1.00  0.00     0.074 A 
ATOM     16  C   UNL A   1      41.967  27.815  29.584  1.00  0.00     0.049 A 
ATOM     17  N   UNL A   1      40.225  30.279  29.910  1.00  0.00    -0.248 NA
ATOM     18  C   UNL A   1      38.532  29.153  28.763  1.00  0.00     0.031 C 
ATOM     19  C   UNL A   1      42.773  26.589  29.527  1.00  0.00     0.029 A 
ATOM     20  N   UNL A   1      42.711  28.646  30.375  1.00  0.00    -0.354 N 
ATOM     21  C   UNL A   1      39.073  31.055  29.895  1.00  0.00     0.074 A 
ATOM     22  C   UNL A   1      38.073  30.335  29.143  1.00  0.00     0.031 C 
ATOM     23  C   UNL A   1      43.902  26.756  30.227  1.00  0.00     0.029 A 
ATOM     24  C   UNL A   1      43.919  28.109  30.756  1.00  0.00     0.049 A 
ATOM     25  H   UNL A   1      42.410  29.543  30.646  1.00  0.00     0.167 HD
ATOM     26  C   UNL A   1      38.874  32.257  30.479  1.00  0.00     0.037 A 
ATOM     27  C   UNL A   1      44.938  28.661  31.436  1.00  0.00     0.037 A 
ATOM     28  C   UNL A   1      39.897  32.945  31.217  1.00  0.00     0.049 A 
ATOM     29  C   UNL A   1      44.739  30.057  31.953  1.00  0.00     0.074 A 
ATOM     30  C   UNL A   1      39.859  34.206  31.777  1.00  0.00     0.029 A 
ATOM     31  N   UNL A   1      41.149  32.413  31.502  1.00  0.00    -0.354 N 
ATOM     32  N   UNL A   1      43.673  30.818  31.862  1.00  0.00    -0.248 NA
ATOM     33  C   UNL A   1      45.862  30.667  32.669  1.00  0.00     0.031 C 
ATOM     34  C   UNL A   1      41.106  34.456  32.358  1.00  0.00     0.029 A 
ATOM     35  C   UNL A   1      41.901  33.328  32.212  1.00  0.00     0.049 A 
ATOM     36  H   UNL A   1      41.455  31.516  31.235  1.00  0.00     0.167 HD
ATOM     37  C   UNL A   1      43.989  31.994  32.527  1.00  0.00     0.074 A 
ATOM     38  C   UNL A   1      45.337  31.825  33.038  1.00  0.00     0.031 C 
ATOM     39  C   UNL A   1      43.243  33.114  32.697  1.00  0.00     0.037 A 
BRANCH  26  40
ATOM     40  C   UNL A   1      37.532  32.902  30.284  1.00  0.00     0.058 A 
ATOM     41  C   UNL A   1      36.467  32.689  31.174  1.00  0.00     0.135 A 
ATOM     42  C   UNL A   1      37.301  33.730  29.174  1.00  0.00     0.135 A 
ATOM     43  F   UNL A   1      36.620  31.871  32.229  1.00  0.00    -0.206 F 
ATOM     44  C   UNL A   1      35.217  33.262  30.963  1.00  0.00     0.059 A 
ATOM     45  C   UNL A   1      36.067  34.334  28.956  1.00  0.00     0.059 A 
ATOM     46  F   UNL A   1      38.277  33.948  28.279  1.00  0.00    -0.206 F 
ATOM     47  C   UNL A   1      35.028  34.086  29.852  1.00  0.00     0.060 A 
BRANCH  47  48
ATOM     48  S   UNL A   1      33.403  34.831  29.599  1.00  0.00     0.124 S 
ATOM     49  O   UNL A   1      32.766  33.855  28.720  1.00  0.00    -0.237 OA
ATOM     50  O   UNL A   1      32.878  34.897  30.960  1.00  0.00    -0.237 OA
ATOM     51  O   UNL A   1      33.712  36.119  28.985  1.00  0.00    -0.744 OA
ENDBRANCH  47  48
ENDBRANCH  26  40
BRANCH  27  52
ATOM     52  C   UNL A   1      46.223  27.928  31.605  1.00  0.00     0.058 A 
ATOM     53  C   UNL A   1      46.518  27.204  32.768  1.00  0.00     0.135 A 
ATOM     54  C   UNL A   1      47.203  27.960  30.596  1.00  0.00     0.135 A 
ATOM     55  F   UNL A   1      45.618  27.131  33.759  1.00  0.00    -0.206 F 
ATOM     56  C   UNL A   1      47.749  26.574  32.945  1.00  0.00     0.059 A 
ATOM     57  C   UNL A   1      48.427  27.313  30.734  1.00  0.00     0.059 A 
ATOM     58  F   UNL A   1      46.968  28.617  29.449  1.00  0.00    -0.206 F 
ATOM     59  C   UNL A   1      48.699  26.641  31.923  1.00  0.00     0.060 A 
BRANCH  59  60
ATOM     60  S   UNL A   1      50.297  25.837  32.168  1.00  0.00     0.124 S 
ATOM     61  O   UNL A   1      51.220  26.890  31.763  1.00  0.00    -0.237 OA
ATOM     62  O   UNL A   1      50.267  25.524  33.592  1.00  0.00    -0.237 OA
ATOM     63  O   UNL A   1      50.230  24.682  31.277  1.00  0.00    -0.744 OA
ENDBRANCH  59  60
ENDBRANCH  27  52
BRANCH  39  64
ATOM     64  C   UNL A   1      43.875  34.220  33.488  1.00  0.00     0.058 A 
ATOM     65  C   UNL A   1      43.724  34.304  34.880  1.00  0.00     0.135 A 
ATOM     66  C   UNL A   1      44.661  35.188  32.845  1.00  0.00     0.135 A 
ATOM     67  F   UNL A   1      42.974  33.405  35.536  1.00  0.00    -0.206 F 
ATOM     68  C   UNL A   1      44.301  35.338  35.606  1.00  0.00     0.059 A 
ATOM     69  C   UNL A   1      45.278  36.209  33.556  1.00  0.00     0.059 A 
ATOM     70  F   UNL A   1      44.845  35.140  31.516  1.00  0.00    -0.206 F 
ATOM     71  C   UNL A   1      45.076  36.286  34.934  1.00  0.00     0.060 A 
BRANCH  71  72
ATOM     72  S   UNL A   1      45.832  37.613  35.890  1.00  0.00     0.124 S 
ATOM     73  O   UNL A   1      45.493  37.220  37.253  1.00  0.00    -0.237 OA
ATOM     74  O   UNL A   1      47.241  37.496  35.526  1.00  0.00    -0.237 OA
ATOM     75  O   UNL A   1      45.160  38.812  35.395  1.00  0.00    -0.744 OA
ENDBRANCH  71  72
ENDBRANCH  39  64
ENDBRANCH  13  14
ENDBRANCH   6   8
ENDBRANCH   5   6
ENDBRANCH   4   5
ENDBRANCH   3   4
ENDBRANCH   2   3
ENDBRANCH   1   2
BRANCH   1  76
ATOM     76  C   UNL A   1      43.685  18.948  24.979  1.00  0.00     0.188 C 
BRANCH  76  77
ATOM     77  O   UNL A   1      45.055  18.996  25.359  1.00  0.00    -0.376 OA
BRANCH  77  78
ATOM     78  C   UNL A   1      45.631  20.283  25.543  1.00  0.00     0.202 C 
BRANCH  78  79
ATOM     79  C   UNL A   1      46.389  20.954  24.380  1.00  0.00     0.261 C 
BRANCH  79  80
ATOM     80  O   UNL A   1      46.316  22.389  24.252  1.00  0.00    -0.459 OA
BRANCH  80  81
ATOM     81  C   UNL A   1      45.039  22.877  24.221  1.00  0.00     0.365 C 
ATOM     82  O   UNL A   1      44.129  22.319  23.609  1.00  0.00    -0.245 OA
BRANCH  81  83
ATOM     83  C   UNL A   1      44.869  24.210  25.006  1.00  0.00     0.295 C 
ATOM     84  C   UNL A   1      43.390  24.247  25.454  1.00  0.00     0.087 C 
ATOM     85  N   UNL A   1      45.686  24.236  26.268  1.00  0.00    -0.320 N 
ATOM     86  C   UNL A   1      43.449  24.030  26.956  1.00  0.00     0.054 C 
ATOM     87  C   UNL A   1      44.854  23.529  27.241  1.00  0.00     0.188 C 
ATOM     88  H   UNL A   1      46.589  23.782  26.118  1.00  0.00     0.349 HD
ATOM     89  C   UNL A   1      42.441  23.128  27.640  1.00  0.00     0.010 C 
ATOM     90  C   UNL A   1      45.204  23.601  28.724  1.00  0.00     0.065 C 
ATOM     91  C   UNL A   1      42.696  23.158  29.157  1.00  0.00     0.001 C 
ATOM     92  C   UNL A   1      44.151  22.875  29.566  1.00  0.00     0.006 C 
BRANCH  85  93
ATOM     93  C   UNL A   1      46.180  25.561  26.718  1.00  0.00     0.265 C 
BRANCH  93  94
ATOM     94  C   UNL A   1      47.543  25.808  27.423  1.00  0.00     0.093 C 
BRANCH  94  95
ATOM     95  C   UNL A   1      48.894  25.354  26.820  1.00  0.00     0.123 C 
ATOM     96  C   UNL A   1      50.061  25.121  27.775  1.00  0.00     0.034 C 
ATOM     97  O   UNL A   1      49.408  26.185  25.782  1.00  0.00    -0.378 OA
ATOM     98  C   UNL A   1      51.282  25.647  27.036  1.00  0.00     0.031 C 
ATOM     99  C   UNL A   1      50.792  25.884  25.630  1.00  0.00     0.160 C 
ENDBRANCH  94  95
ENDBRANCH  93  94
ENDBRANCH  85  93
ENDBRANCH  81  83
ENDBRANCH  80  81
ENDBRANCH  79  80
ENDBRANCH  78  79
ENDBRANCH  77  78
ENDBRANCH  76  77
ENDBRANCH   1  76
TORSDOF 23
ENDMDL
MODEL 2
REMARK VINA RESULT:      -8.9      4.442     11.129
REMARK SMILES O=C(OCCOCCOCCOC(=O)[C@H]1C[C@H]2CCCC[C@@H]2[N@@H+]1CC[C@@H]1CCCO1)c1ccc(-c2c3nc(c(-c4c(F)cc(S(=O)(=O)[O-])cc4F)c4ccc([nH]4)c(-c4c(F)cc(S(=O)(=O)[O-])cc4F)c4nc(c(-c5c(F)cc(S(=O)(=O)[O-])cc5F)c5ccc2[nH]5)C=C4)C=C3)cc1
REMARK SMILES IDX 7 1 6 2 5 3 4 4 3 5 2 6 1 7 31 8 32 9 96 10 33 11 95 12
REMARK SMILES IDX 34 13 35 14 36 15 89 16 37 17 94 18 88 19 90 20 38 21 93 22
REMARK SMILES IDX 87 23 86 24 39 26 73 27 52 28 72 29 53 30 56 31 71 32 91 33
REMARK SMILES IDX 54 34 55 35 70 37 92 38 57 39 40 40 41 41 50 42 42 43 43 44
REMARK SMILES IDX 49 45 51 46 44 47 45 48 46 49 47 50 48 51 74 52 75 53 84 54
REMARK SMILES IDX 76 55 77 56 83 57 85 58 78 59 79 60 80 61 81 62 82 63 58 64
REMARK SMILES IDX 59 65 68 66 60 67 61 68 67 69 69 70 62 71 63 72 64 73 65 74
REMARK SMILES IDX 66 75 8 76 9 77 10 78 11 79 12 80 13 81 14 82 15 83 16 84
REMARK SMILES IDX 23 85 17 86 22 87 18 89 21 90 19 91 20 92 24 93 25 94 26 95
REMARK SMILES IDX 27 96 30 97 28 98 29 99
REMARK H PARENT 90 25 56 36 23 88
REMARK Flexibility Score: inf
ROOT
ATOM      1  C   UNL A   1      35.648  20.082  25.002  1.00  0.00     0.188 C 
ENDROOT
BRANCH   1   2
ATOM      2  O   UNL A   1      35.461  21.176  25.898  1.00  0.00    -0.376 OA
BRANCH   2   3
ATOM      3  C   UNL A   1      35.563  22.471  25.301  1.00  0.00     0.202 C 
BRANCH   3   4
ATOM      4  C   UNL A   1      36.927  23.186  25.416  1.00  0.00     0.261 C 
BRANCH   4   5
ATOM      5  O   UNL A   1      37.960  22.426  26.079  1.00  0.00    -0.460 OA
BRANCH   5   6
ATOM      6  C   UNL A   1      39.246  22.788  26.350  1.00  0.00     0.338 C 
ATOM      7  O   UNL A   1      40.146  21.981  26.151  1.00  0.00    -0.246 OA
BRANCH   6   8
ATOM      8  C   UNL A   1      39.605  24.136  26.882  1.00  0.00     0.060 A 
ATOM      9  C   UNL A   1      40.085  25.165  26.086  1.00  0.00     0.016 A 
ATOM     10  C   UNL A   1      39.412  24.405  28.245  1.00  0.00     0.016 A 
ATOM     11  C   UNL A   1      40.541  26.351  26.615  1.00  0.00     0.010 A 
ATOM     12  C   UNL A   1      39.765  25.653  28.781  1.00  0.00     0.010 A 
ATOM     13  C   UNL A   1      40.378  26.613  27.965  1.00  0.00    -0.014 A 
BRANCH  13  14
ATOM     14  C   UNL A   1      40.996  27.855  28.464  1.00  0.00     0.031 A 
ATOM     15  C   UNL A   1      42.473  28.023  28.288  1.00  0.00     0.074 A 
ATOM     16  C   UNL A   1      40.208  28.878  28.854  1.00  0.00     0.049 A 
ATOM     17  N   UNL A   1      43.229  29.038  28.602  1.00  0.00    -0.248 NA
ATOM     18  C   UNL A   1      43.195  26.914  27.635  1.00  0.00     0.031 C 
ATOM     19  C   UNL A   1      38.741  28.853  28.877  1.00  0.00     0.029 A 
ATOM     20  N   UNL A   1      40.509  30.148  29.262  1.00  0.00    -0.354 N 
ATOM     21  C   UNL A   1      44.508  28.692  28.187  1.00  0.00     0.074 A 
ATOM     22  C   UNL A   1      44.441  27.360  27.634  1.00  0.00     0.031 C 
ATOM     23  C   UNL A   1      38.273  30.034  29.298  1.00  0.00     0.029 A 
ATOM     24  C   UNL A   1      39.404  30.892  29.606  1.00  0.00     0.049 A 
ATOM     25  H   UNL A   1      41.429  30.496  29.304  1.00  0.00     0.167 HD
ATOM     26  C   UNL A   1      45.632  29.439  28.251  1.00  0.00     0.037 A 
ATOM     27  C   UNL A   1      39.320  32.124  30.138  1.00  0.00     0.037 A 
ATOM     28  C   UNL A   1      45.659  30.762  28.811  1.00  0.00     0.049 A 
ATOM     29  C   UNL A   1      40.604  32.877  30.328  1.00  0.00     0.074 A 
ATOM     30  C   UNL A   1      46.745  31.589  29.024  1.00  0.00     0.029 A 
ATOM     31  N   UNL A   1      44.534  31.452  29.245  1.00  0.00    -0.354 N 
ATOM     32  N   UNL A   1      41.824  32.508  30.009  1.00  0.00    -0.248 NA
ATOM     33  C   UNL A   1      40.511  34.207  30.934  1.00  0.00     0.031 C 
ATOM     34  C   UNL A   1      46.280  32.760  29.631  1.00  0.00     0.029 A 
ATOM     35  C   UNL A   1      44.899  32.688  29.743  1.00  0.00     0.049 A 
ATOM     36  H   UNL A   1      43.611  31.110  29.204  1.00  0.00     0.167 HD
ATOM     37  C   UNL A   1      42.645  33.570  30.358  1.00  0.00     0.074 A 
ATOM     38  C   UNL A   1      41.774  34.605  30.886  1.00  0.00     0.031 C 
ATOM     39  C   UNL A   1      43.992  33.684  30.262  1.00  0.00     0.037 A 
BRANCH  26  40
ATOM     40  C   UNL A   1      46.904  28.812  27.755  1.00  0.00     0.058 A 
ATOM     41  C   UNL A   1      47.797  28.158  28.619  1.00  0.00     0.135 A 
ATOM     42  C   UNL A   1      47.244  28.886  26.395  1.00  0.00     0.135 A 
ATOM     43  F   UNL A   1      47.541  28.096  29.936  1.00  0.00    -0.206 F 
ATOM     44  C   UNL A   1      48.990  27.613  28.155  1.00  0.00     0.059 A 
ATOM     45  C   UNL A   1      48.419  28.327  25.905  1.00  0.00     0.059 A 
ATOM     46  F   UNL A   1      46.437  29.521  25.531  1.00  0.00    -0.206 F 
ATOM     47  C   UNL A   1      49.291  27.700  26.794  1.00  0.00     0.060 A 
BRANCH  47  48
ATOM     48  S   UNL A   1      50.836  26.977  26.206  1.00  0.00     0.124 S 
ATOM     49  O   UNL A   1      50.968  25.816  27.081  1.00  0.00    -0.237 OA
ATOM     50  O   UNL A   1      50.530  26.686  24.808  1.00  0.00    -0.237 OA
ATOM     51  O   UNL A   1      51.814  28.040  26.423  1.00  0.00    -0.744 OA
ENDBRANCH  47  48
ENDBRANCH  26  40
BRANCH  27  52
ATOM     52  C   UNL A   1      38.006  32.674  30.571  1.00  0.00     0.058 A 
ATOM     53  C   UNL A   1      37.125  33.291  29.672  1.00  0.00     0.135 A 
ATOM     54  C   UNL A   1      37.613  32.610  31.920  1.00  0.00     0.135 A 
ATOM     55  F   UNL A   1      37.443  33.372  28.372  1.00  0.00    -0.206 F 
ATOM     56  C   UNL A   1      35.926  33.860  30.096  1.00  0.00     0.059 A 
ATOM     57  C   UNL A   1      36.406  33.142  32.365  1.00  0.00     0.059 A 
ATOM     58  F   UNL A   1      38.402  32.009  32.825  1.00  0.00    -0.206 F 
ATOM     59  C   UNL A   1      35.580  33.786  31.448  1.00  0.00     0.060 A 
BRANCH  59  60
ATOM     60  S   UNL A   1      34.033  34.542  31.992  1.00  0.00     0.124 S 
ATOM     61  O   UNL A   1      33.337  34.727  30.725  1.00  0.00    -0.237 OA
ATOM     62  O   UNL A   1      33.488  33.519  32.878  1.00  0.00    -0.237 OA
ATOM     63  O   UNL A   1      34.473  35.767  32.653  1.00  0.00    -0.744 OA
ENDBRANCH  59  60
ENDBRANCH  27  52
BRANCH  39  64
ATOM     64  C   UNL A   1      44.585  34.983  30.717  1.00  0.00     0.058 A 
ATOM     65  C   UNL A   1      44.723  36.073  29.844  1.00  0.00     0.135 A 
ATOM     66  C   UNL A   1      44.992  35.146  32.050  1.00  0.00     0.135 A 
ATOM     67  F   UNL A   1      44.354  35.960  28.558  1.00  0.00    -0.206 F 
ATOM     68  C   UNL A   1      45.284  37.270  30.268  1.00  0.00     0.059 A 
ATOM     69  C   UNL A   1      45.521  36.346  32.505  1.00  0.00     0.059 A 
ATOM     70  F   UNL A   1      44.866  34.135  32.926  1.00  0.00    -0.206 F 
ATOM     71  C   UNL A   1      45.680  37.396  31.601  1.00  0.00     0.060 A 
BRANCH  71  72
ATOM     72  S   UNL A   1      46.392  38.960  32.143  1.00  0.00     0.124 S 
ATOM     73  O   UNL A   1      46.335  39.747  30.916  1.00  0.00    -0.237 OA
ATOM     74  O   UNL A   1      45.475  39.369  33.203  1.00  0.00    -0.237 OA
ATOM     75  O   UNL A   1      47.731  38.586  32.589  1.00  0.00    -0.744 OA
ENDBRANCH  71  72
ENDBRANCH  39  64
ENDBRANCH  13  14
ENDBRANCH   6   8
ENDBRANCH   5   6
ENDBRANCH   4   5
ENDBRANCH   3   4
ENDBRANCH   2   3
ENDBRANCH   1   2
BRANCH   1  76
ATOM     76  C   UNL A   1      34.345  19.395  24.602  1.00  0.00     0.188 C 
BRANCH  76  77
ATOM     77  O   UNL A   1      33.201  19.662  25.406  1.00  0.00    -0.376 OA
BRANCH  77  78
ATOM     78  C   UNL A   1      32.162  20.433  24.818  1.00  0.00     0.202 C 
BRANCH  78  79
ATOM     79  C   UNL A   1      32.004  21.919  25.200  1.00  0.00     0.261 C 
BRANCH  79  80
ATOM     80  O   UNL A   1      30.728  22.365  25.704  1.00  0.00    -0.459 OA
BRANCH  80  81
ATOM     81  C   UNL A   1      30.752  23.627  26.230  1.00  0.00     0.365 C 
ATOM     82  O   UNL A   1      30.779  23.841  27.441  1.00  0.00    -0.245 OA
BRANCH  81  83
ATOM     83  C   UNL A   1      30.711  24.746  25.149  1.00  0.00     0.295 C 
ATOM     84  C   UNL A   1      30.050  25.965  25.832  1.00  0.00     0.087 C 
ATOM     85  N   UNL A   1      32.088  25.194  24.741  1.00  0.00    -0.320 N 
ATOM     86  C   UNL A   1      31.186  26.959  26.004  1.00  0.00     0.054 C 
ATOM     87  C   UNL A   1      32.460  26.166  25.767  1.00  0.00     0.188 C 
ATOM     88  H   UNL A   1      32.725  24.397  24.703  1.00  0.00     0.349 HD
ATOM     89  C   UNL A   1      31.317  27.758  27.285  1.00  0.00     0.010 C 
ATOM     90  C   UNL A   1      33.670  27.069  25.545  1.00  0.00     0.065 C 
ATOM     91  C   UNL A   1      32.503  28.728  27.145  1.00  0.00     0.001 C 
ATOM     92  C   UNL A   1      33.818  28.070  26.694  1.00  0.00     0.006 C 
BRANCH  85  93
ATOM     93  C   UNL A   1      32.249  25.670  23.345  1.00  0.00     0.265 C 
BRANCH  93  94
ATOM     94  C   UNL A   1      31.090  26.171  22.438  1.00  0.00     0.093 C 
BRANCH  94  95
ATOM     95  C   UNL A   1      30.649  27.654  22.382  1.00  0.00     0.123 C 
ATOM     96  C   UNL A   1      31.552  28.693  23.040  1.00  0.00     0.034 C 
ATOM     97  O   UNL A   1      29.338  27.918  22.874  1.00  0.00    -0.378 OA
ATOM     98  C   UNL A   1      30.598  29.686  23.686  1.00  0.00     0.031 C 
ATOM     99  C   UNL A   1      29.245  29.316  23.133  1.00  0.00     0.160 C 
ENDBRANCH  94  95
ENDBRANCH  93  94
ENDBRANCH  85  93
ENDBRANCH  81  83
ENDBRANCH  80  81
ENDBRANCH  79  80
ENDBRANCH  78  79
ENDBRANCH  77  78
ENDBRANCH  76  77
ENDBRANCH   1  76
TORSDOF 23
ENDMDL
MODEL 3
REMARK VINA RESULT:      -8.8      4.500      8.366
REMARK SMILES O=C(OCCOCCOCCOC(=O)[C@H]1C[C@H]2CCCC[C@@H]2[N@@H+]1CC[C@@H]1CCCO1)c1ccc(-c2c3nc(c(-c4c(F)cc(S(=O)(=O)[O-])cc4F)c4ccc([nH]4)c(-c4c(F)cc(S(=O)(=O)[O-])cc4F)c4nc(c(-c5c(F)cc(S(=O)(=O)[O-])cc5F)c5ccc2[nH]5)C=C4)C=C3)cc1
REMARK SMILES IDX 7 1 6 2 5 3 4 4 3 5 2 6 1 7 31 8 32 9 96 10 33 11 95 12
REMARK SMILES IDX 34 13 35 14 36 15 89 16 37 17 94 18 88 19 90 20 38 21 93 22
REMARK SMILES IDX 87 23 86 24 39 26 73 27 52 28 72 29 53 30 56 31 71 32 91 33
REMARK SMILES IDX 54 34 55 35 70 37 92 38 57 39 40 40 41 41 50 42 42 43 43 44
REMARK SMILES IDX 49 45 51 46 44 47 45 48 46 49 47 50 48 51 74 52 75 53 84 54
REMARK SMILES IDX 76 55 77 56 83 57 85 58 78 59 79 60 80 61 81 62 82 63 58 64
REMARK SMILES IDX 59 65 68 66 60 67 61 68 67 69 69 70 62 71 63 72 64 73 65 74
REMARK SMILES IDX 66 75 8 76 9 77 10 78 11 79 12 80 13 81 14 82 15 83 16 84
REMARK SMILES IDX 23 85 17 86 22 87 18 89 21 90 19 91 20 92 24 93 25 94 26 95
REMARK SMILES IDX 27 96 30 97 28 98 29 99
REMARK H PARENT 90 25 56 36 23 88
REMARK Flexibility Score: inf
ROOT
ATOM      1  C   UNL A   1      40.609  21.742  26.512  1.00  0.00     0.188 C 
ENDROOT
BRANCH   1   2
ATOM      2  O   UNL A   1      41.028  20.473  27.015  1.00  0.00    -0.376 OA
BRANCH   2   3
ATOM      3  C   UNL A   1      41.446  19.537  26.018  1.00  0.00     0.202 C 
BRANCH   3   4
ATOM      4  C   UNL A   1      42.650  18.636  26.371  1.00  0.00     0.261 C 
BRANCH   4   5
ATOM      5  O   UNL A   1      43.886  18.984  25.712  1.00  0.00    -0.460 OA
BRANCH   5   6
ATOM      6  C   UNL A   1      44.125  19.985  24.817  1.00  0.00     0.338 C 
ATOM      7  O   UNL A   1      44.230  19.708  23.628  1.00  0.00    -0.246 OA
BRANCH   6   8
ATOM      8  C   UNL A   1      44.266  21.413  25.230  1.00  0.00     0.060 A 
ATOM      9  C   UNL A   1      44.059  22.478  24.366  1.00  0.00     0.016 A 
ATOM     10  C   UNL A   1      44.579  21.710  26.565  1.00  0.00     0.016 A 
ATOM     11  C   UNL A   1      44.329  23.778  24.726  1.00  0.00     0.010 A 
ATOM     12  C   UNL A   1      44.744  23.042  26.977  1.00  0.00     0.010 A 
ATOM     13  C   UNL A   1      44.665  24.076  26.036  1.00  0.00    -0.014 A 
BRANCH  13  14
ATOM     14  C   UNL A   1      45.047  25.476  26.306  1.00  0.00     0.031 A 
ATOM     15  C   UNL A   1      43.994  26.400  26.832  1.00  0.00     0.074 A 
ATOM     16  C   UNL A   1      46.350  25.823  26.283  1.00  0.00     0.049 A 
ATOM     17  N   UNL A   1      44.101  27.652  27.183  1.00  0.00    -0.248 NA
ATOM     18  C   UNL A   1      42.647  25.832  27.029  1.00  0.00     0.031 C 
ATOM     19  C   UNL A   1      47.460  24.920  25.957  1.00  0.00     0.029 A 
ATOM     20  N   UNL A   1      46.978  27.001  26.580  1.00  0.00    -0.354 N 
ATOM     21  C   UNL A   1      42.842  28.018  27.639  1.00  0.00     0.074 A 
ATOM     22  C   UNL A   1      41.974  26.875  27.486  1.00  0.00     0.031 C 
ATOM     23  C   UNL A   1      48.622  25.578  26.046  1.00  0.00     0.029 A 
ATOM     24  C   UNL A   1      48.341  26.958  26.404  1.00  0.00     0.049 A 
ATOM     25  H   UNL A   1      46.498  27.803  26.890  1.00  0.00     0.167 HD
ATOM     26  C   UNL A   1      42.459  29.207  28.156  1.00  0.00     0.037 A 
ATOM     27  C   UNL A   1      49.260  27.935  26.498  1.00  0.00     0.037 A 
ATOM     28  C   UNL A   1      43.353  30.324  28.290  1.00  0.00     0.049 A 
ATOM     29  C   UNL A   1      48.778  29.286  26.942  1.00  0.00     0.074 A 
ATOM     30  C   UNL A   1      43.073  31.610  28.707  1.00  0.00     0.029 A 
ATOM     31  N   UNL A   1      44.712  30.276  28.008  1.00  0.00    -0.354 N 
ATOM     32  N   UNL A   1      47.564  29.648  27.291  1.00  0.00    -0.248 NA
ATOM     33  C   UNL A   1      49.776  30.356  27.015  1.00  0.00     0.031 C 
ATOM     34  C   UNL A   1      44.255  32.353  28.632  1.00  0.00     0.029 A 
ATOM     35  C   UNL A   1      45.284  31.516  28.224  1.00  0.00     0.049 A 
ATOM     36  H   UNL A   1      45.198  29.477  27.699  1.00  0.00     0.167 HD
ATOM     37  C   UNL A   1      47.655  30.985  27.647  1.00  0.00     0.074 A 
ATOM     38  C   UNL A   1      49.051  31.356  27.495  1.00  0.00     0.031 C 
ATOM     39  C   UNL A   1      46.681  31.836  28.054  1.00  0.00     0.037 A 
BRANCH  26  40
ATOM     40  C   UNL A   1      41.017  29.353  28.550  1.00  0.00     0.058 A 
ATOM     41  C   UNL A   1      39.988  29.418  27.596  1.00  0.00     0.135 A 
ATOM     42  C   UNL A   1      40.661  29.451  29.904  1.00  0.00     0.135 A 
ATOM     43  F   UNL A   1      40.277  29.373  26.285  1.00  0.00    -0.206 F 
ATOM     44  C   UNL A   1      38.659  29.591  27.971  1.00  0.00     0.059 A 
ATOM     45  C   UNL A   1      39.336  29.599  30.303  1.00  0.00     0.059 A 
ATOM     46  F   UNL A   1      41.607  29.418  30.855  1.00  0.00    -0.206 F 
ATOM     47  C   UNL A   1      38.343  29.678  29.328  1.00  0.00     0.060 A 
BRANCH  47  48
ATOM     48  S   UNL A   1      36.614  29.889  29.798  1.00  0.00     0.124 S 
ATOM     49  O   UNL A   1      35.924  29.376  28.618  1.00  0.00    -0.237 OA
ATOM     50  O   UNL A   1      36.516  29.064  30.998  1.00  0.00    -0.237 OA
ATOM     51  O   UNL A   1      36.494  31.328  30.017  1.00  0.00    -0.744 OA
ENDBRANCH  47  48
ENDBRANCH  26  40
BRANCH  27  52
ATOM     52  C   UNL A   1      50.676  27.685  26.114  1.00  0.00     0.058 A 
ATOM     53  C   UNL A   1      51.659  27.373  27.063  1.00  0.00     0.135 A 
ATOM     54  C   UNL A   1      51.080  27.776  24.770  1.00  0.00     0.135 A 
ATOM     55  F   UNL A   1      51.330  27.263  28.359  1.00  0.00    -0.206 F 
ATOM     56  C   UNL A   1      52.995  27.203  26.704  1.00  0.00     0.059 A 
ATOM     57  C   UNL A   1      52.402  27.580  24.380  1.00  0.00     0.059 A 
ATOM     58  F   UNL A   1      50.179  28.048  23.812  1.00  0.00    -0.206 F 
ATOM     59  C   UNL A   1      53.356  27.316  25.359  1.00  0.00     0.060 A 
BRANCH  59  60
ATOM     60  S   UNL A   1      55.092  27.111  24.905  1.00  0.00     0.124 S 
ATOM     61  O   UNL A   1      55.708  26.869  26.204  1.00  0.00    -0.237 OA
ATOM     62  O   UNL A   1      55.038  25.969  23.999  1.00  0.00    -0.237 OA
ATOM     63  O   UNL A   1      55.427  28.387  24.277  1.00  0.00    -0.744 OA
ENDBRANCH  59  60
ENDBRANCH  27  52
BRANCH  39  64
ATOM     64  C   UNL A   1      47.111  33.234  28.382  1.00  0.00     0.058 A 
ATOM     65  C   UNL A   1      47.540  33.586  29.670  1.00  0.00     0.135 A 
ATOM     66  C   UNL A   1      47.120  34.222  27.386  1.00  0.00     0.135 A 
ATOM     67  F   UNL A   1      47.541  32.675  30.656  1.00  0.00    -0.206 F 
ATOM     68  C   UNL A   1      47.926  34.886  29.970  1.00  0.00     0.059 A 
ATOM     69  C   UNL A   1      47.537  35.519  27.655  1.00  0.00     0.059 A 
ATOM     70  F   UNL A   1      46.731  33.927  26.135  1.00  0.00    -0.206 F 
ATOM     71  C   UNL A   1      47.921  35.844  28.955  1.00  0.00     0.060 A 
BRANCH  71  72
ATOM     72  S   UNL A   1      48.439  37.524  29.355  1.00  0.00     0.124 S 
ATOM     73  O   UNL A   1      49.595  37.276  30.210  1.00  0.00    -0.237 OA
ATOM     74  O   UNL A   1      48.729  38.082  28.038  1.00  0.00    -0.237 OA
ATOM     75  O   UNL A   1      47.270  38.088  30.025  1.00  0.00    -0.744 OA
ENDBRANCH  71  72
ENDBRANCH  39  64
ENDBRANCH  13  14
ENDBRANCH   6   8
ENDBRANCH   5   6
ENDBRANCH   4   5
ENDBRANCH   3   4
ENDBRANCH   2   3
ENDBRANCH   1   2
BRANCH   1  76
ATOM     76  C   UNL A   1      40.719  22.867  27.538  1.00  0.00     0.188 C 
BRANCH  76  77
ATOM     77  O   UNL A   1      39.599  23.735  27.668  1.00  0.00    -0.376 OA
BRANCH  77  78
ATOM     78  C   UNL A   1      39.103  24.335  26.478  1.00  0.00     0.202 C 
BRANCH  78  79
ATOM     79  C   UNL A   1      37.798  23.812  25.845  1.00  0.00     0.261 C 
BRANCH  79  80
ATOM     80  O   UNL A   1      37.138  22.689  26.464  1.00  0.00    -0.459 OA
BRANCH  80  81
ATOM     81  C   UNL A   1      36.600  21.803  25.572  1.00  0.00     0.365 C 
ATOM     82  O   UNL A   1      37.287  21.138  24.800  1.00  0.00    -0.245 OA
BRANCH  81  83
ATOM     83  C   UNL A   1      35.045  21.751  25.617  1.00  0.00     0.295 C 
ATOM     84  C   UNL A   1      34.606  22.995  26.423  1.00  0.00     0.087 C 
ATOM     85  N   UNL A   1      34.430  21.900  24.253  1.00  0.00    -0.320 N 
ATOM     86  C   UNL A   1      33.979  23.910  25.384  1.00  0.00     0.054 C 
ATOM     87  C   UNL A   1      34.398  23.346  24.038  1.00  0.00     0.188 C 
ATOM     88  H   UNL A   1      34.989  21.410  23.554  1.00  0.00     0.349 HD
ATOM     89  C   UNL A   1      34.248  25.402  25.416  1.00  0.00     0.010 C 
ATOM     90  C   UNL A   1      33.573  23.919  22.889  1.00  0.00     0.065 C 
ATOM     91  C   UNL A   1      33.429  26.076  24.302  1.00  0.00     0.001 C 
ATOM     92  C   UNL A   1      33.604  25.449  22.909  1.00  0.00     0.006 C 
BRANCH  85  93
ATOM     93  C   UNL A   1      33.137  21.209  24.023  1.00  0.00     0.265 C 
BRANCH  93  94
ATOM     94  C   UNL A   1      32.505  20.164  24.985  1.00  0.00     0.093 C 
BRANCH  94  95
ATOM     95  C   UNL A   1      33.069  18.734  25.159  1.00  0.00     0.123 C 
ATOM     96  C   UNL A   1      33.902  18.151  24.020  1.00  0.00     0.034 C 
ATOM     97  O   UNL A   1      32.105  17.734  25.480  1.00  0.00    -0.378 OA
ATOM     98  C   UNL A   1      33.499  16.686  23.952  1.00  0.00     0.031 C 
ATOM     99  C   UNL A   1      32.689  16.464  25.204  1.00  0.00     0.160 C 
ENDBRANCH  94  95
ENDBRANCH  93  94
ENDBRANCH  85  93
ENDBRANCH  81  83
ENDBRANCH  80  81
ENDBRANCH  79  80
ENDBRANCH  78  79
ENDBRANCH  77  78
ENDBRANCH  76  77
ENDBRANCH   1  76
TORSDOF 23
ENDMDL
