MODEL 1
REMARK VINA RESULT:      -8.4      0.000      0.000
REMARK SMILES NS(=O)(=O)CCNC(=O)N1[C@@H]2CC[C@H]1C[C@H](CC(=O)OCCOCCOCCOC(=O)c1ccc(-c3c4nc(c(-c5c(F)cc(S(=O)(=O)[O-])cc5F)c5ccc([nH]5)c(-c5c(F)cc(S(=O)(=O)[O-])cc5F)c5nc(c(-c6c(F)cc(S(=O)(=O)[O-])cc6F)c6ccc3[nH]6)C=C5)C=C4)cc1)C2
REMARK SMILES IDX 23 1 22 2 21 3 20 4 18 5 19 6 17 7 16 8 10 9 11 10 14 11
REMARK SMILES IDX 12 12 98 13 13 14 15 15 8 16 7 17 9 19 6 20 5 21 2 22 3 23
REMARK SMILES IDX 4 24 1 25 24 28 25 29 26 30 27 31 28 32 29 33 30 34 31 35
REMARK SMILES IDX 32 36 33 37 97 38 34 39 96 40 35 41 36 42 37 43 90 44 38 45
REMARK SMILES IDX 95 46 89 47 91 48 39 49 94 50 88 51 87 52 40 54 74 55 53 56
REMARK SMILES IDX 73 57 54 58 57 59 72 60 92 61 55 62 56 63 71 65 93 66 58 67
REMARK SMILES IDX 41 68 42 69 51 70 43 71 44 72 50 73 52 74 45 75 46 76 47 77
REMARK SMILES IDX 48 78 49 79 75 80 76 81 85 82 77 83 78 84 84 85 86 86 79 87
REMARK SMILES IDX 80 88 81 89 82 90 83 91 59 92 60 93 69 94 61 95 62 96 68 97
REMARK SMILES IDX 70 98 63 99 64 100 65 101 66 102 67 103
REMARK H PARENT 7 18 1 26 1 27 91 53 57 64
REMARK Flexibility Score: inf
ROOT
ATOM      1  O   UNL A   1      46.463  41.691  29.590  1.00  0.00    -0.376 OA
ENDROOT
BRANCH   1   2
ATOM      2  C   UNL A   1      45.258  41.395  28.886  1.00  0.00     0.202 C 
BRANCH   2   3
ATOM      3  C   UNL A   1      44.625  42.556  28.105  1.00  0.00     0.261 C 
BRANCH   3   4
ATOM      4  O   UNL A   1      44.831  42.471  26.680  1.00  0.00    -0.463 OA
BRANCH   4   5
ATOM      5  C   UNL A   1      44.893  43.650  26.011  1.00  0.00     0.306 C 
ATOM      6  O   UNL A   1      45.547  44.620  26.377  1.00  0.00    -0.252 OA
BRANCH   5   7
ATOM      7  C   UNL A   1      44.124  43.674  24.700  1.00  0.00     0.126 C 
BRANCH   7   8
ATOM      8  C   UNL A   1      44.838  43.676  23.329  1.00  0.00     0.004 C 
ATOM      9  N   UNL A   1      43.859  43.794  20.629  1.00  0.00    -0.319 N 
ATOM     10  C   UNL A   1      44.628  44.950  21.062  1.00  0.00     0.087 C 
ATOM     11  C   UNL A   1      44.660  42.639  20.970  1.00  0.00     0.087 C 
ATOM     12  C   UNL A   1      46.057  44.610  20.646  1.00  0.00     0.027 C 
ATOM     13  C   UNL A   1      44.479  45.012  22.593  1.00  0.00     0.029 C 
ATOM     14  C   UNL A   1      46.083  43.080  20.593  1.00  0.00     0.027 C 
ATOM     15  C   UNL A   1      44.525  42.421  22.482  1.00  0.00     0.029 C 
BRANCH   9  16
ATOM     16  C   UNL A   1      42.668  43.911  19.998  1.00  0.00     0.317 C 
ATOM     17  N   UNL A   1      42.593  44.213  18.684  1.00  0.00    -0.337 N 
ATOM     18  H   UNL A   1      41.773  44.697  18.431  1.00  0.00     0.165 HD
ATOM     19  O   UNL A   1      41.597  43.717  20.576  1.00  0.00    -0.249 OA
BRANCH  17  20
ATOM     20  C   UNL A   1      43.497  43.959  17.568  1.00  0.00     0.135 C 
BRANCH  20  21
ATOM     21  C   UNL A   1      44.286  45.196  17.166  1.00  0.00     0.175 C 
BRANCH  21  22
ATOM     22  S   UNL A   1      43.375  46.703  17.465  1.00  0.00     0.210 S 
ATOM     23  O   UNL A   1      43.674  47.190  18.793  1.00  0.00    -0.213 OA
ATOM     24  O   UNL A   1      42.018  46.552  17.000  1.00  0.00    -0.213 OA
BRANCH  22  25
ATOM     25  N   UNL A   1      44.096  47.797  16.421  1.00  0.00    -0.229 NA
ATOM     26  H   UNL A   1      44.597  48.502  16.961  1.00  0.00     0.137 HD
ATOM     27  H   UNL A   1      43.379  48.248  15.854  1.00  0.00     0.137 HD
ENDBRANCH  22  25
ENDBRANCH  21  22
ENDBRANCH  20  21
ENDBRANCH  17  20
ENDBRANCH   9  16
ENDBRANCH   7   8
ENDBRANCH   5   7
ENDBRANCH   4   5
ENDBRANCH   3   4
ENDBRANCH   2   3
ENDBRANCH   1   2
BRANCH   1  28
ATOM     28  C   UNL A   1      47.543  42.201  28.817  1.00  0.00     0.188 C 
BRANCH  28  29
ATOM     29  C   UNL A   1      48.134  41.249  27.777  1.00  0.00     0.188 C 
BRANCH  29  30
ATOM     30  O   UNL A   1      49.510  40.925  27.916  1.00  0.00    -0.376 OA
BRANCH  30  31
ATOM     31  C   UNL A   1      49.820  39.552  28.176  1.00  0.00     0.202 C 
BRANCH  31  32
ATOM     32  C   UNL A   1      48.785  38.694  28.939  1.00  0.00     0.261 C 
BRANCH  32  33
ATOM     33  O   UNL A   1      48.393  37.443  28.330  1.00  0.00    -0.460 OA
BRANCH  33  34
ATOM     34  C   UNL A   1      49.230  36.381  28.429  1.00  0.00     0.338 C 
ATOM     35  O   UNL A   1      50.389  36.416  28.804  1.00  0.00    -0.246 OA
BRANCH  34  36
ATOM     36  C   UNL A   1      48.427  35.127  28.293  1.00  0.00     0.060 A 
ATOM     37  C   UNL A   1      48.262  34.321  29.431  1.00  0.00     0.016 A 
ATOM     38  C   UNL A   1      47.771  34.779  27.107  1.00  0.00     0.016 A 
ATOM     39  C   UNL A   1      47.487  33.157  29.375  1.00  0.00     0.010 A 
ATOM     40  C   UNL A   1      47.007  33.603  27.049  1.00  0.00     0.010 A 
ATOM     41  C   UNL A   1      46.888  32.764  28.172  1.00  0.00    -0.014 A 
BRANCH  41  42
ATOM     42  C   UNL A   1      46.330  31.390  28.029  1.00  0.00     0.031 A 
ATOM     43  C   UNL A   1      47.250  30.296  27.547  1.00  0.00     0.074 A 
ATOM     44  C   UNL A   1      45.053  31.090  28.340  1.00  0.00     0.049 A 
ATOM     45  N   UNL A   1      46.994  29.039  27.294  1.00  0.00    -0.248 NA
ATOM     46  C   UNL A   1      48.654  30.679  27.318  1.00  0.00     0.031 C 
ATOM     47  C   UNL A   1      44.064  32.029  28.861  1.00  0.00     0.029 A 
ATOM     48  N   UNL A   1      44.369  29.899  28.249  1.00  0.00    -0.354 N 
ATOM     49  C   UNL A   1      48.196  28.485  26.867  1.00  0.00     0.074 A 
ATOM     50  C   UNL A   1      49.175  29.549  26.867  1.00  0.00     0.031 C 
ATOM     51  C   UNL A   1      42.896  31.383  29.033  1.00  0.00     0.029 A 
ATOM     52  C   UNL A   1      43.042  29.992  28.600  1.00  0.00     0.049 A 
ATOM     53  H   UNL A   1      44.790  29.058  27.960  1.00  0.00     0.167 HD
ATOM     54  C   UNL A   1      48.468  27.205  26.516  1.00  0.00     0.037 A 
ATOM     55  C   UNL A   1      42.054  29.072  28.555  1.00  0.00     0.037 A 
ATOM     56  C   UNL A   1      47.497  26.141  26.515  1.00  0.00     0.049 A 
ATOM     57  C   UNL A   1      42.359  27.670  28.082  1.00  0.00     0.074 A 
ATOM     58  C   UNL A   1      47.683  24.810  26.189  1.00  0.00     0.029 A 
ATOM     59  N   UNL A   1      46.158  26.287  26.844  1.00  0.00    -0.354 N 
ATOM     60  N   UNL A   1      43.505  27.155  27.701  1.00  0.00    -0.248 NA
ATOM     61  C   UNL A   1      41.236  26.721  28.035  1.00  0.00     0.031 C 
ATOM     62  C   UNL A   1      46.446  24.163  26.262  1.00  0.00     0.029 A 
ATOM     63  C   UNL A   1      45.501  25.075  26.699  1.00  0.00     0.049 A 
ATOM     64  H   UNL A   1      45.736  27.127  27.136  1.00  0.00     0.167 HD
ATOM     65  C   UNL A   1      43.246  25.819  27.404  1.00  0.00     0.074 A 
ATOM     66  C   UNL A   1      41.838  25.601  27.657  1.00  0.00     0.031 C 
ATOM     67  C   UNL A   1      44.098  24.859  26.964  1.00  0.00     0.037 A 
BRANCH  54  68
ATOM     68  C   UNL A   1      49.869  26.887  26.070  1.00  0.00     0.058 A 
ATOM     69  C   UNL A   1      50.266  26.996  24.728  1.00  0.00     0.135 A 
ATOM     70  C   UNL A   1      50.839  26.497  27.009  1.00  0.00     0.135 A 
ATOM     71  F   UNL A   1      49.375  27.344  23.786  1.00  0.00    -0.206 F 
ATOM     72  C   UNL A   1      51.565  26.703  24.327  1.00  0.00     0.059 A 
ATOM     73  C   UNL A   1      52.153  26.232  26.636  1.00  0.00     0.059 A 
ATOM     74  F   UNL A   1      50.515  26.374  28.305  1.00  0.00    -0.206 F 
ATOM     75  C   UNL A   1      52.502  26.323  25.290  1.00  0.00     0.060 A 
BRANCH  75  76
ATOM     76  S   UNL A   1      54.185  25.950  24.754  1.00  0.00     0.124 S 
ATOM     77  O   UNL A   1      54.973  26.697  25.730  1.00  0.00    -0.237 OA
ATOM     78  O   UNL A   1      54.236  24.496  24.879  1.00  0.00    -0.237 OA
ATOM     79  O   UNL A   1      54.230  26.461  23.388  1.00  0.00    -0.744 OA
ENDBRANCH  75  76
ENDBRANCH  54  68
BRANCH  55  80
ATOM     80  C   UNL A   1      40.664  29.444  28.949  1.00  0.00     0.058 A 
ATOM     81  C   UNL A   1      39.657  29.626  27.989  1.00  0.00     0.135 A 
ATOM     82  C   UNL A   1      40.322  29.647  30.295  1.00  0.00     0.135 A 
ATOM     83  F   UNL A   1      39.936  29.465  26.686  1.00  0.00    -0.206 F 
ATOM     84  C   UNL A   1      38.367  30.008  28.346  1.00  0.00     0.059 A 
ATOM     85  C   UNL A   1      39.031  29.999  30.680  1.00  0.00     0.059 A 
ATOM     86  F   UNL A   1      41.246  29.487  31.256  1.00  0.00    -0.206 F 
ATOM     87  C   UNL A   1      38.062  30.187  29.696  1.00  0.00     0.060 A 
BRANCH  87  88
ATOM     88  S   UNL A   1      36.372  30.633  30.151  1.00  0.00     0.124 S 
ATOM     89  O   UNL A   1      36.521  32.041  30.499  1.00  0.00    -0.237 OA
ATOM     90  O   UNL A   1      35.641  30.353  28.919  1.00  0.00    -0.237 OA
ATOM     91  O   UNL A   1      36.076  29.736  31.264  1.00  0.00    -0.744 OA
ENDBRANCH  87  88
ENDBRANCH  55  80
BRANCH  67  92
ATOM     92  C   UNL A   1      43.558  23.466  26.770  1.00  0.00     0.058 A 
ATOM     93  C   UNL A   1      43.292  22.940  25.496  1.00  0.00     0.135 A 
ATOM     94  C   UNL A   1      43.360  22.621  27.877  1.00  0.00     0.135 A 
ATOM     95  F   UNL A   1      43.459  23.701  24.402  1.00  0.00    -0.206 F 
ATOM     96  C   UNL A   1      42.829  21.638  25.326  1.00  0.00     0.059 A 
ATOM     97  C   UNL A   1      42.928  21.306  27.729  1.00  0.00     0.059 A 
ATOM     98  F   UNL A   1      43.609  23.066  29.118  1.00  0.00    -0.206 F 
ATOM     99  C   UNL A   1      42.653  20.826  26.450  1.00  0.00     0.060 A 
BRANCH  99 100
ATOM    100  S   UNL A   1      42.083  19.130  26.213  1.00  0.00     0.124 S 
ATOM    101  O   UNL A   1      42.803  18.742  25.004  1.00  0.00    -0.237 OA
ATOM    102  O   UNL A   1      42.518  18.481  27.446  1.00  0.00    -0.237 OA
ATOM    103  O   UNL A   1      40.638  19.272  26.064  1.00  0.00    -0.744 OA
ENDBRANCH  99 100
ENDBRANCH  67  92
ENDBRANCH  41  42
ENDBRANCH  34  36
ENDBRANCH  33  34
ENDBRANCH  32  33
ENDBRANCH  31  32
ENDBRANCH  30  31
ENDBRANCH  29  30
ENDBRANCH  28  29
ENDBRANCH   1  28
TORSDOF 26
ENDMDL
MODEL 2
REMARK VINA RESULT:      -8.2      4.393      5.905
REMARK SMILES NS(=O)(=O)CCNC(=O)N1[C@@H]2CC[C@H]1C[C@H](CC(=O)OCCOCCOCCOC(=O)c1ccc(-c3c4nc(c(-c5c(F)cc(S(=O)(=O)[O-])cc5F)c5ccc([nH]5)c(-c5c(F)cc(S(=O)(=O)[O-])cc5F)c5nc(c(-c6c(F)cc(S(=O)(=O)[O-])cc6F)c6ccc3[nH]6)C=C5)C=C4)cc1)C2
REMARK SMILES IDX 23 1 22 2 21 3 20 4 18 5 19 6 17 7 16 8 10 9 11 10 14 11
REMARK SMILES IDX 12 12 98 13 13 14 15 15 8 16 7 17 9 19 6 20 5 21 2 22 3 23
REMARK SMILES IDX 4 24 1 25 24 28 25 29 26 30 27 31 28 32 29 33 30 34 31 35
REMARK SMILES IDX 32 36 33 37 97 38 34 39 96 40 35 41 36 42 37 43 90 44 38 45
REMARK SMILES IDX 95 46 89 47 91 48 39 49 94 50 88 51 87 52 40 54 74 55 53 56
REMARK SMILES IDX 73 57 54 58 57 59 72 60 92 61 55 62 56 63 71 65 93 66 58 67
REMARK SMILES IDX 41 68 42 69 51 70 43 71 44 72 50 73 52 74 45 75 46 76 47 77
REMARK SMILES IDX 48 78 49 79 75 80 76 81 85 82 77 83 78 84 84 85 86 86 79 87
REMARK SMILES IDX 80 88 81 89 82 90 83 91 59 92 60 93 69 94 61 95 62 96 68 97
REMARK SMILES IDX 70 98 63 99 64 100 65 101 66 102 67 103
REMARK H PARENT 7 18 1 26 1 27 91 53 57 64
REMARK Flexibility Score: inf
ROOT
ATOM      1  O   UNL A   1      44.591  34.106  34.520  1.00  0.00    -0.376 OA
ENDROOT
BRANCH   1   2
ATOM      2  C   UNL A   1      43.212  33.936  34.196  1.00  0.00     0.202 C 
BRANCH   2   3
ATOM      3  C   UNL A   1      42.891  33.638  32.724  1.00  0.00     0.261 C 
BRANCH   3   4
ATOM      4  O   UNL A   1      41.504  33.843  32.385  1.00  0.00    -0.463 OA
BRANCH   4   5
ATOM      5  C   UNL A   1      41.256  34.314  31.137  1.00  0.00     0.306 C 
ATOM      6  O   UNL A   1      40.241  34.070  30.494  1.00  0.00    -0.252 OA
BRANCH   5   7
ATOM      7  C   UNL A   1      42.322  35.251  30.592  1.00  0.00     0.126 C 
BRANCH   7   8
ATOM      8  C   UNL A   1      42.743  35.239  29.105  1.00  0.00     0.004 C 
ATOM      9  N   UNL A   1      43.273  37.343  27.220  1.00  0.00    -0.319 N 
ATOM     10  C   UNL A   1      44.422  36.527  27.579  1.00  0.00     0.087 C 
ATOM     11  C   UNL A   1      42.226  36.412  26.862  1.00  0.00     0.087 C 
ATOM     12  C   UNL A   1      44.429  35.427  26.521  1.00  0.00     0.027 C 
ATOM     13  C   UNL A   1      44.125  35.967  28.982  1.00  0.00     0.029 C 
ATOM     14  C   UNL A   1      42.974  35.342  26.051  1.00  0.00     0.027 C 
ATOM     15  C   UNL A   1      41.666  35.832  28.168  1.00  0.00     0.029 C 
BRANCH   9  16
ATOM     16  C   UNL A   1      43.318  38.695  27.212  1.00  0.00     0.317 C 
ATOM     17  N   UNL A   1      43.039  39.416  28.320  1.00  0.00    -0.337 N 
ATOM     18  H   UNL A   1      42.669  40.309  28.132  1.00  0.00     0.165 HD
ATOM     19  O   UNL A   1      43.644  39.336  26.212  1.00  0.00    -0.249 OA
BRANCH  17  20
ATOM     20  C   UNL A   1      43.183  39.121  29.740  1.00  0.00     0.135 C 
BRANCH  20  21
ATOM     21  C   UNL A   1      44.484  39.660  30.317  1.00  0.00     0.175 C 
BRANCH  21  22
ATOM     22  S   UNL A   1      44.751  41.375  29.891  1.00  0.00     0.210 S 
ATOM     23  O   UNL A   1      45.187  41.467  28.517  1.00  0.00    -0.213 OA
ATOM     24  O   UNL A   1      45.462  42.035  30.959  1.00  0.00    -0.213 OA
BRANCH  22  25
ATOM     25  N   UNL A   1      43.204  42.017  29.909  1.00  0.00    -0.229 NA
ATOM     26  H   UNL A   1      43.126  42.692  30.668  1.00  0.00     0.137 HD
ATOM     27  H   UNL A   1      42.527  41.268  30.048  1.00  0.00     0.137 HD
ENDBRANCH  22  25
ENDBRANCH  21  22
ENDBRANCH  20  21
ENDBRANCH  17  20
ENDBRANCH   9  16
ENDBRANCH   7   8
ENDBRANCH   5   7
ENDBRANCH   4   5
ENDBRANCH   3   4
ENDBRANCH   2   3
ENDBRANCH   1   2
BRANCH   1  28
ATOM     28  C   UNL A   1      45.131  35.410  34.339  1.00  0.00     0.188 C 
BRANCH  28  29
ATOM     29  C   UNL A   1      46.642  35.543  34.526  1.00  0.00     0.188 C 
BRANCH  29  30
ATOM     30  O   UNL A   1      47.375  36.095  33.441  1.00  0.00    -0.376 OA
BRANCH  30  31
ATOM     31  C   UNL A   1      46.931  37.364  32.951  1.00  0.00     0.202 C 
BRANCH  31  32
ATOM     32  C   UNL A   1      47.616  37.951  31.696  1.00  0.00     0.261 C 
BRANCH  32  33
ATOM     33  O   UNL A   1      48.538  37.091  30.989  1.00  0.00    -0.460 OA
BRANCH  33  34
ATOM     34  C   UNL A   1      48.337  36.869  29.666  1.00  0.00     0.338 C 
ATOM     35  O   UNL A   1      48.640  37.626  28.760  1.00  0.00    -0.246 OA
BRANCH  34  36
ATOM     36  C   UNL A   1      47.961  35.435  29.475  1.00  0.00     0.060 A 
ATOM     37  C   UNL A   1      47.659  34.998  28.175  1.00  0.00     0.016 A 
ATOM     38  C   UNL A   1      47.984  34.506  30.521  1.00  0.00     0.016 A 
ATOM     39  C   UNL A   1      47.340  33.658  27.928  1.00  0.00     0.010 A 
ATOM     40  C   UNL A   1      47.649  33.165  30.274  1.00  0.00     0.010 A 
ATOM     41  C   UNL A   1      47.289  32.738  28.983  1.00  0.00    -0.014 A 
BRANCH  41  42
ATOM     42  C   UNL A   1      46.659  31.403  28.779  1.00  0.00     0.031 A 
ATOM     43  C   UNL A   1      47.505  30.302  28.186  1.00  0.00     0.074 A 
ATOM     44  C   UNL A   1      45.384  31.141  29.127  1.00  0.00     0.049 A 
ATOM     45  N   UNL A   1      47.178  29.078  27.866  1.00  0.00    -0.248 NA
ATOM     46  C   UNL A   1      48.914  30.636  27.919  1.00  0.00     0.031 C 
ATOM     47  C   UNL A   1      44.464  32.088  29.752  1.00  0.00     0.029 A 
ATOM     48  N   UNL A   1      44.640  29.991  28.992  1.00  0.00    -0.354 N 
ATOM     49  C   UNL A   1      48.333  28.499  27.351  1.00  0.00     0.074 A 
ATOM     50  C   UNL A   1      49.361  29.516  27.374  1.00  0.00     0.031 C 
ATOM     51  C   UNL A   1      43.274  31.485  29.934  1.00  0.00     0.029 A 
ATOM     52  C   UNL A   1      43.335  30.121  29.408  1.00  0.00     0.049 A 
ATOM     53  H   UNL A   1      45.008  29.153  28.631  1.00  0.00     0.167 HD
ATOM     54  C   UNL A   1      48.528  27.234  26.907  1.00  0.00     0.037 A 
ATOM     55  C   UNL A   1      42.303  29.251  29.349  1.00  0.00     0.037 A 
ATOM     56  C   UNL A   1      47.508  26.218  26.882  1.00  0.00     0.049 A 
ATOM     57  C   UNL A   1      42.520  27.871  28.775  1.00  0.00     0.074 A 
ATOM     58  C   UNL A   1      47.616  24.904  26.464  1.00  0.00     0.029 A 
ATOM     59  N   UNL A   1      46.192  26.402  27.280  1.00  0.00    -0.354 N 
ATOM     60  N   UNL A   1      43.623  27.331  28.311  1.00  0.00    -0.248 NA
ATOM     61  C   UNL A   1      41.352  26.978  28.718  1.00  0.00     0.031 C 
ATOM     62  C   UNL A   1      46.354  24.310  26.552  1.00  0.00     0.029 A 
ATOM     63  C   UNL A   1      45.473  25.233  27.089  1.00  0.00     0.049 A 
ATOM     64  H   UNL A   1      45.824  27.239  27.644  1.00  0.00     0.167 HD
ATOM     65  C   UNL A   1      43.288  26.030  27.940  1.00  0.00     0.074 A 
ATOM     66  C   UNL A   1      41.883  25.860  28.243  1.00  0.00     0.031 C 
ATOM     67  C   UNL A   1      44.074  25.064  27.402  1.00  0.00     0.037 A 
BRANCH  54  68
ATOM     68  C   UNL A   1      49.892  26.883  26.379  1.00  0.00     0.058 A 
ATOM     69  C   UNL A   1      50.869  26.278  27.185  1.00  0.00     0.135 A 
ATOM     70  C   UNL A   1      50.215  27.128  25.034  1.00  0.00     0.135 A 
ATOM     71  F   UNL A   1      50.622  26.039  28.483  1.00  0.00    -0.206 F 
ATOM     72  C   UNL A   1      52.126  25.953  26.686  1.00  0.00     0.059 A 
ATOM     73  C   UNL A   1      51.454  26.782  24.504  1.00  0.00     0.059 A 
ATOM     74  F   UNL A   1      49.321  27.707  24.218  1.00  0.00    -0.206 F 
ATOM     75  C   UNL A   1      52.409  26.208  25.343  1.00  0.00     0.060 A 
BRANCH  75  76
ATOM     76  S   UNL A   1      54.043  25.778  24.709  1.00  0.00     0.124 S 
ATOM     77  O   UNL A   1      54.905  26.626  25.529  1.00  0.00    -0.237 OA
ATOM     78  O   UNL A   1      54.117  24.347  24.986  1.00  0.00    -0.237 OA
ATOM     79  O   UNL A   1      53.968  26.138  23.297  1.00  0.00    -0.744 OA
ENDBRANCH  75  76
ENDBRANCH  54  68
BRANCH  55  80
ATOM     80  C   UNL A   1      40.951  29.658  29.829  1.00  0.00     0.058 A 
ATOM     81  C   UNL A   1      39.895  29.883  28.932  1.00  0.00     0.135 A 
ATOM     82  C   UNL A   1      40.694  29.854  31.195  1.00  0.00     0.135 A 
ATOM     83  F   UNL A   1      40.092  29.731  27.613  1.00  0.00    -0.206 F 
ATOM     84  C   UNL A   1      38.640  30.297  29.368  1.00  0.00     0.059 A 
ATOM     85  C   UNL A   1      39.440  30.240  31.659  1.00  0.00     0.059 A 
ATOM     86  F   UNL A   1      41.668  29.655  32.097  1.00  0.00    -0.206 F 
ATOM     87  C   UNL A   1      38.421  30.468  30.736  1.00  0.00     0.060 A 
BRANCH  87  88
ATOM     88  S   UNL A   1      36.774  30.958  31.295  1.00  0.00     0.124 S 
ATOM     89  O   UNL A   1      36.261  29.705  31.837  1.00  0.00    -0.237 OA
ATOM     90  O   UNL A   1      37.081  31.998  32.273  1.00  0.00    -0.237 OA
ATOM     91  O   UNL A   1      36.131  31.427  30.073  1.00  0.00    -0.744 OA
ENDBRANCH  87  88
ENDBRANCH  55  80
BRANCH  67  92
ATOM     92  C   UNL A   1      43.459  23.712  27.145  1.00  0.00     0.058 A 
ATOM     93  C   UNL A   1      43.105  23.288  25.854  1.00  0.00     0.135 A 
ATOM     94  C   UNL A   1      43.279  22.802  28.201  1.00  0.00     0.135 A 
ATOM     95  F   UNL A   1      43.252  24.114  24.807  1.00  0.00    -0.206 F 
ATOM     96  C   UNL A   1      42.573  22.022  25.623  1.00  0.00     0.059 A 
ATOM     97  C   UNL A   1      42.778  21.521  27.989  1.00  0.00     0.059 A 
ATOM     98  F   UNL A   1      43.611  23.148  29.455  1.00  0.00    -0.206 F 
ATOM     99  C   UNL A   1      42.416  21.143  26.697  1.00  0.00     0.060 A 
BRANCH  99 100
ATOM    100  S   UNL A   1      41.757  19.493  26.379  1.00  0.00     0.124 S 
ATOM    101  O   UNL A   1      42.361  19.177  25.089  1.00  0.00    -0.237 OA
ATOM    102  O   UNL A   1      42.258  18.732  27.519  1.00  0.00    -0.237 OA
ATOM    103  O   UNL A   1      40.312  19.701  26.359  1.00  0.00    -0.744 OA
ENDBRANCH  99 100
ENDBRANCH  67  92
ENDBRANCH  41  42
ENDBRANCH  34  36
ENDBRANCH  33  34
ENDBRANCH  32  33
ENDBRANCH  31  32
ENDBRANCH  30  31
ENDBRANCH  29  30
ENDBRANCH  28  29
ENDBRANCH   1  28
TORSDOF 26
ENDMDL
MODEL 3
REMARK VINA RESULT:      -8.1      7.104     13.803
REMARK SMILES NS(=O)(=O)CCNC(=O)N1[C@@H]2CC[C@H]1C[C@H](CC(=O)OCCOCCOCCOC(=O)c1ccc(-c3c4nc(c(-c5c(F)cc(S(=O)(=O)[O-])cc5F)c5ccc([nH]5)c(-c5c(F)cc(S(=O)(=O)[O-])cc5F)c5nc(c(-c6c(F)cc(S(=O)(=O)[O-])cc6F)c6ccc3[nH]6)C=C5)C=C4)cc1)C2
REMARK SMILES IDX 23 1 22 2 21 3 20 4 18 5 19 6 17 7 16 8 10 9 11 10 14 11
REMARK SMILES IDX 12 12 98 13 13 14 15 15 8 16 7 17 9 19 6 20 5 21 2 22 3 23
REMARK SMILES IDX 4 24 1 25 24 28 25 29 26 30 27 31 28 32 29 33 30 34 31 35
REMARK SMILES IDX 32 36 33 37 97 38 34 39 96 40 35 41 36 42 37 43 90 44 38 45
REMARK SMILES IDX 95 46 89 47 91 48 39 49 94 50 88 51 87 52 40 54 74 55 53 56
REMARK SMILES IDX 73 57 54 58 57 59 72 60 92 61 55 62 56 63 71 65 93 66 58 67
REMARK SMILES IDX 41 68 42 69 51 70 43 71 44 72 50 73 52 74 45 75 46 76 47 77
REMARK SMILES IDX 48 78 49 79 75 80 76 81 85 82 77 83 78 84 84 85 86 86 79 87
REMARK SMILES IDX 80 88 81 89 82 90 83 91 59 92 60 93 69 94 61 95 62 96 68 97
REMARK SMILES IDX 70 98 63 99 64 100 65 101 66 102 67 103
REMARK H PARENT 7 18 1 26 1 27 91 53 57 64
REMARK Flexibility Score: inf
ROOT
ATOM      1  O   UNL A   1      42.452  25.215  27.419  1.00  0.00    -0.376 OA
ENDROOT
BRANCH   1   2
ATOM      2  C   UNL A   1      41.305  25.562  28.192  1.00  0.00     0.202 C 
BRANCH   2   3
ATOM      3  C   UNL A   1      40.033  25.905  27.403  1.00  0.00     0.261 C 
BRANCH   3   4
ATOM      4  O   UNL A   1      39.420  27.145  27.813  1.00  0.00    -0.463 OA
BRANCH   4   5
ATOM      5  C   UNL A   1      40.079  28.281  27.470  1.00  0.00     0.306 C 
ATOM      6  O   UNL A   1      40.555  28.498  26.361  1.00  0.00    -0.252 OA
BRANCH   5   7
ATOM      7  C   UNL A   1      40.136  29.333  28.567  1.00  0.00     0.126 C 
BRANCH   7   8
ATOM      8  C   UNL A   1      38.887  29.738  29.382  1.00  0.00     0.004 C 
ATOM      9  N   UNL A   1      37.446  32.213  29.626  1.00  0.00    -0.319 N 
ATOM     10  C   UNL A   1      36.714  31.128  28.992  1.00  0.00     0.087 C 
ATOM     11  C   UNL A   1      37.984  31.663  30.850  1.00  0.00     0.087 C 
ATOM     12  C   UNL A   1      35.981  30.460  30.154  1.00  0.00     0.027 C 
ATOM     13  C   UNL A   1      37.775  30.199  28.378  1.00  0.00     0.029 C 
ATOM     14  C   UNL A   1      36.826  30.805  31.384  1.00  0.00     0.027 C 
ATOM     15  C   UNL A   1      39.191  30.796  30.468  1.00  0.00     0.029 C 
BRANCH   9  16
ATOM     16  C   UNL A   1      37.495  33.459  29.100  1.00  0.00     0.317 C 
ATOM     17  N   UNL A   1      36.376  34.098  28.694  1.00  0.00    -0.337 N 
ATOM     18  H   UNL A   1      36.526  34.741  27.963  1.00  0.00     0.165 HD
ATOM     19  O   UNL A   1      38.551  34.086  28.994  1.00  0.00    -0.249 OA
BRANCH  17  20
ATOM     20  C   UNL A   1      34.989  34.015  29.134  1.00  0.00     0.135 C 
BRANCH  20  21
ATOM     21  C   UNL A   1      34.709  34.895  30.343  1.00  0.00     0.175 C 
BRANCH  21  22
ATOM     22  S   UNL A   1      33.077  35.619  30.288  1.00  0.00     0.210 S 
ATOM     23  O   UNL A   1      32.366  35.295  31.503  1.00  0.00    -0.213 OA
ATOM     24  O   UNL A   1      32.493  35.403  28.986  1.00  0.00    -0.213 OA
BRANCH  22  25
ATOM     25  N   UNL A   1      33.387  37.262  30.381  1.00  0.00    -0.229 NA
ATOM     26  H   UNL A   1      33.121  37.606  31.303  1.00  0.00     0.137 HD
ATOM     27  H   UNL A   1      32.848  37.751  29.667  1.00  0.00     0.137 HD
ENDBRANCH  22  25
ENDBRANCH  21  22
ENDBRANCH  20  21
ENDBRANCH  17  20
ENDBRANCH   9  16
ENDBRANCH   7   8
ENDBRANCH   5   7
ENDBRANCH   4   5
ENDBRANCH   3   4
ENDBRANCH   2   3
ENDBRANCH   1   2
BRANCH   1  28
ATOM     28  C   UNL A   1      42.273  25.144  26.009  1.00  0.00     0.188 C 
BRANCH  28  29
ATOM     29  C   UNL A   1      43.531  25.332  25.162  1.00  0.00     0.188 C 
BRANCH  29  30
ATOM     30  O   UNL A   1      44.285  24.164  24.869  1.00  0.00    -0.376 OA
BRANCH  30  31
ATOM     31  C   UNL A   1      45.118  23.662  25.918  1.00  0.00     0.202 C 
BRANCH  31  32
ATOM     32  C   UNL A   1      46.241  24.570  26.468  1.00  0.00     0.261 C 
BRANCH  32  33
ATOM     33  O   UNL A   1      45.918  25.394  27.612  1.00  0.00    -0.460 OA
BRANCH  33  34
ATOM     34  C   UNL A   1      46.925  25.811  28.418  1.00  0.00     0.338 C 
ATOM     35  O   UNL A   1      47.947  25.195  28.663  1.00  0.00    -0.246 OA
BRANCH  34  36
ATOM     36  C   UNL A   1      46.724  27.262  28.719  1.00  0.00     0.060 A 
ATOM     37  C   UNL A   1      47.454  27.824  29.778  1.00  0.00     0.016 A 
ATOM     38  C   UNL A   1      45.908  28.087  27.937  1.00  0.00     0.016 A 
ATOM     39  C   UNL A   1      47.339  29.186  30.082  1.00  0.00     0.010 A 
ATOM     40  C   UNL A   1      45.782  29.448  28.252  1.00  0.00     0.010 A 
ATOM     41  C   UNL A   1      46.467  30.001  29.349  1.00  0.00    -0.014 A 
BRANCH  41  42
ATOM     42  C   UNL A   1      46.112  31.358  29.854  1.00  0.00     0.031 A 
ATOM     43  C   UNL A   1      46.947  32.528  29.395  1.00  0.00     0.074 A 
ATOM     44  C   UNL A   1      45.066  31.575  30.675  1.00  0.00     0.049 A 
ATOM     45  N   UNL A   1      46.873  33.789  29.730  1.00  0.00    -0.248 NA
ATOM     46  C   UNL A   1      48.014  32.226  28.425  1.00  0.00     0.031 C 
ATOM     47  C   UNL A   1      44.144  30.553  31.163  1.00  0.00     0.029 A 
ATOM     48  N   UNL A   1      44.611  32.738  31.252  1.00  0.00    -0.354 N 
ATOM     49  C   UNL A   1      47.886  34.429  29.022  1.00  0.00     0.074 A 
ATOM     50  C   UNL A   1      48.579  33.412  28.263  1.00  0.00     0.031 C 
ATOM     51  C   UNL A   1      43.240  31.131  31.976  1.00  0.00     0.029 A 
ATOM     52  C   UNL A   1      43.539  32.559  32.096  1.00  0.00     0.049 A 
ATOM     53  H   UNL A   1      45.015  33.619  31.077  1.00  0.00     0.167 HD
ATOM     54  C   UNL A   1      48.207  35.745  28.996  1.00  0.00     0.037 A 
ATOM     55  C   UNL A   1      42.891  33.436  32.893  1.00  0.00     0.037 A 
ATOM     56  C   UNL A   1      47.520  36.762  29.749  1.00  0.00     0.049 A 
ATOM     57  C   UNL A   1      43.316  34.886  32.911  1.00  0.00     0.074 A 
ATOM     58  C   UNL A   1      47.764  38.123  29.773  1.00  0.00     0.029 A 
ATOM     59  N   UNL A   1      46.463  36.531  30.617  1.00  0.00    -0.354 N 
ATOM     60  N   UNL A   1      44.262  35.480  32.221  1.00  0.00    -0.248 NA
ATOM     61  C   UNL A   1      42.584  35.787  33.815  1.00  0.00     0.031 C 
ATOM     62  C   UNL A   1      46.897  38.708  30.701  1.00  0.00     0.029 A 
ATOM     63  C   UNL A   1      46.066  37.722  31.204  1.00  0.00     0.049 A 
ATOM     64  H   UNL A   1      46.056  35.652  30.790  1.00  0.00     0.167 HD
ATOM     65  C   UNL A   1      44.215  36.825  32.583  1.00  0.00     0.074 A 
ATOM     66  C   UNL A   1      43.142  36.960  33.545  1.00  0.00     0.031 C 
ATOM     67  C   UNL A   1      44.988  37.854  32.155  1.00  0.00     0.037 A 
BRANCH  54  68
ATOM     68  C   UNL A   1      49.377  36.160  28.146  1.00  0.00     0.058 A 
ATOM     69  C   UNL A   1      50.692  36.155  28.637  1.00  0.00     0.135 A 
ATOM     70  C   UNL A   1      49.181  36.538  26.807  1.00  0.00     0.135 A 
ATOM     71  F   UNL A   1      50.936  35.822  29.915  1.00  0.00    -0.206 F 
ATOM     72  C   UNL A   1      51.768  36.536  27.841  1.00  0.00     0.059 A 
ATOM     73  C   UNL A   1      50.245  36.892  25.984  1.00  0.00     0.059 A 
ATOM     74  F   UNL A   1      47.945  36.564  26.286  1.00  0.00    -0.206 F 
ATOM     75  C   UNL A   1      51.534  36.902  26.515  1.00  0.00     0.060 A 
BRANCH  75  76
ATOM     76  S   UNL A   1      52.940  37.391  25.495  1.00  0.00     0.124 S 
ATOM     77  O   UNL A   1      53.025  38.821  25.783  1.00  0.00    -0.237 OA
ATOM     78  O   UNL A   1      54.018  36.571  26.039  1.00  0.00    -0.237 OA
ATOM     79  O   UNL A   1      52.517  37.048  24.142  1.00  0.00    -0.744 OA
ENDBRANCH  75  76
ENDBRANCH  54  68
BRANCH  55  80
ATOM     80  C   UNL A   1      41.773  32.973  33.765  1.00  0.00     0.058 A 
ATOM     81  C   UNL A   1      40.435  33.078  33.356  1.00  0.00     0.135 A 
ATOM     82  C   UNL A   1      42.022  32.437  35.039  1.00  0.00     0.135 A 
ATOM     83  F   UNL A   1      40.141  33.604  32.157  1.00  0.00    -0.206 F 
ATOM     84  C   UNL A   1      39.385  32.683  34.179  1.00  0.00     0.059 A 
ATOM     85  C   UNL A   1      40.990  32.006  35.869  1.00  0.00     0.059 A 
ATOM     86  F   UNL A   1      43.283  32.314  35.483  1.00  0.00    -0.206 F 
ATOM     87  C   UNL A   1      39.674  32.142  35.433  1.00  0.00     0.060 A 
BRANCH  87  88
ATOM     88  S   UNL A   1      38.305  31.585  36.472  1.00  0.00     0.124 S 
ATOM     89  O   UNL A   1      38.682  32.127  37.772  1.00  0.00    -0.237 OA
ATOM     90  O   UNL A   1      37.157  32.214  35.826  1.00  0.00    -0.237 OA
ATOM     91  O   UNL A   1      38.363  30.132  36.353  1.00  0.00    -0.744 OA
ENDBRANCH  87  88
ENDBRANCH  55  80
BRANCH  67  92
ATOM     92  C   UNL A   1      44.682  39.234  32.676  1.00  0.00     0.058 A 
ATOM     93  C   UNL A   1      43.765  40.086  32.040  1.00  0.00     0.135 A 
ATOM     94  C   UNL A   1      45.271  39.688  33.870  1.00  0.00     0.135 A 
ATOM     95  F   UNL A   1      43.173  39.708  30.895  1.00  0.00    -0.206 F 
ATOM     96  C   UNL A   1      43.461  41.345  32.552  1.00  0.00     0.059 A 
ATOM     97  C   UNL A   1      44.958  40.930  34.417  1.00  0.00     0.059 A 
ATOM     98  F   UNL A   1      46.145  38.912  34.529  1.00  0.00    -0.206 F 
ATOM     99  C   UNL A   1      44.061  41.757  33.744  1.00  0.00     0.060 A 
BRANCH  99 100
ATOM    100  S   UNL A   1      43.632  43.377  34.416  1.00  0.00     0.124 S 
ATOM    101  O   UNL A   1      44.762  43.638  35.302  1.00  0.00    -0.237 OA
ATOM    102  O   UNL A   1      43.564  44.203  33.214  1.00  0.00    -0.237 OA
ATOM    103  O   UNL A   1      42.354  43.145  35.081  1.00  0.00    -0.744 OA
ENDBRANCH  99 100
ENDBRANCH  67  92
ENDBRANCH  41  42
ENDBRANCH  34  36
ENDBRANCH  33  34
ENDBRANCH  32  33
ENDBRANCH  31  32
ENDBRANCH  30  31
ENDBRANCH  29  30
ENDBRANCH  28  29
ENDBRANCH   1  28
TORSDOF 26
ENDMDL
