MODEL 1
REMARK VINA RESULT:     -11.3      0.000      0.000
REMARK SMILES COC(=O)c1ccc([C@H]2Nc3c(C(=O)OCCOCCOCCOC(=O)c4ccc(-c5c6nc(c(-c7c(F)cc(S(=O)(=O)[O-])cc7F)c7ccc([nH]7)c(-c7c(F)cc(S(=O)(=O)[O-])cc7F)c7nc(c(-c8c(F)cc(S(=O)(=O)[O-])cc8F)c8ccc5[nH]8)C=C7)C=C6)cc4)cccc3[C@@H]3[C@@H]4CC[C@@H](C4)[C@@H]32)cc1
REMARK SMILES IDX 19 1 18 2 17 3 16 4 15 5 13 6 14 7 12 8 9 9 10 10 103 11
REMARK SMILES IDX 11 12 97 14 101 15 96 16 98 17 100 18 102 19 93 20 95 21
REMARK SMILES IDX 99 22 94 23 8 24 5 25 6 26 105 27 7 28 104 29 3 30 4 31 2 32
REMARK SMILES IDX 1 33 20 34 21 35 22 36 23 37 24 38 25 39 26 40 27 41 28 42
REMARK SMILES IDX 92 43 29 44 91 45 30 46 31 47 32 48 85 49 33 50 90 51 84 52
REMARK SMILES IDX 86 53 34 54 89 55 83 56 82 57 35 59 69 60 48 61 68 62 49 63
REMARK SMILES IDX 52 64 67 65 87 66 50 67 51 68 66 70 88 71 53 72 36 73 37 74
REMARK SMILES IDX 46 75 38 76 39 77 45 78 47 79 40 80 41 81 42 82 43 83 44 84
REMARK SMILES IDX 70 85 71 86 80 87 72 88 73 89 79 90 81 91 74 92 75 93 76 94
REMARK SMILES IDX 77 95 78 96 54 97 55 98 64 99 56 100 57 101 63 102 65 103
REMARK SMILES IDX 58 104 59 105 60 106 61 107 62 108
REMARK H PARENT 10 13 86 58 52 69
REMARK Flexibility Score: inf
ROOT
ATOM      1  C   UNL A   1      31.953  29.689  27.184  1.00  0.00     0.188 C 
ENDROOT
BRANCH   1   2
ATOM      2  O   UNL A   1      31.775  28.388  27.722  1.00  0.00    -0.376 OA
BRANCH   2   3
ATOM      3  C   UNL A   1      31.976  27.283  26.859  1.00  0.00     0.202 C 
BRANCH   3   4
ATOM      4  C   UNL A   1      30.747  26.669  26.173  1.00  0.00     0.261 C 
BRANCH   4   5
ATOM      5  O   UNL A   1      30.486  25.290  26.497  1.00  0.00    -0.460 OA
BRANCH   5   6
ATOM      6  C   UNL A   1      30.800  24.354  25.559  1.00  0.00     0.340 C 
ATOM      7  O   UNL A   1      30.409  24.344  24.402  1.00  0.00    -0.246 OA
BRANCH   6   8
ATOM      8  C   UNL A   1      31.839  23.402  26.057  1.00  0.00     0.083 A 
ATOM      9  C   UNL A   1      34.250  23.970  23.708  1.00  0.00     0.113 C 
ATOM     10  N   UNL A   1      32.970  23.281  23.910  1.00  0.00    -0.377 N 
ATOM     11  C   UNL A   1      35.252  22.803  23.559  1.00  0.00     0.027 C 
ATOM     12  C   UNL A   1      32.853  22.894  25.234  1.00  0.00     0.053 A 
ATOM     13  H   UNL A   1      32.297  23.117  23.210  1.00  0.00     0.161 HD
ATOM     14  C   UNL A   1      34.997  21.714  24.726  1.00  0.00     0.030 C 
ATOM     15  C   UNL A   1      36.777  23.055  23.712  1.00  0.00    -0.005 C 
ATOM     16  C   UNL A   1      33.893  22.078  25.722  1.00  0.00    -0.020 A 
ATOM     17  C   UNL A   1      36.425  21.487  25.286  1.00  0.00    -0.003 C 
ATOM     18  C   UNL A   1      37.149  23.766  25.027  1.00  0.00     0.004 C 
ATOM     19  C   UNL A   1      37.280  21.632  24.020  1.00  0.00     0.008 C 
ATOM     20  C   UNL A   1      31.875  23.095  27.415  1.00  0.00     0.018 A 
ATOM     21  C   UNL A   1      33.866  21.722  27.070  1.00  0.00     0.006 A 
ATOM     22  C   UNL A   1      36.916  22.695  26.098  1.00  0.00     0.004 C 
ATOM     23  C   UNL A   1      32.875  22.250  27.912  1.00  0.00     0.001 A 
BRANCH   9  24
ATOM     24  C   UNL A   1      33.767  25.081  22.779  1.00  0.00    -0.025 A 
ATOM     25  C   UNL A   1      31.838  27.081  22.389  1.00  0.00     0.060 A 
ATOM     26  C   UNL A   1      32.924  27.340  23.219  1.00  0.00     0.016 A 
ATOM     27  C   UNL A   1      31.824  25.918  21.601  1.00  0.00     0.016 A 
ATOM     28  C   UNL A   1      33.909  26.372  23.366  1.00  0.00     0.007 A 
ATOM     29  C   UNL A   1      32.793  24.910  21.792  1.00  0.00     0.007 A 
BRANCH  25  30
ATOM     30  C   UNL A   1      30.672  27.990  22.534  1.00  0.00     0.337 C 
ATOM     31  O   UNL A   1      30.746  29.205  22.464  1.00  0.00    -0.246 OA
BRANCH  30  32
ATOM     32  O   UNL A   1      29.608  27.277  22.992  1.00  0.00    -0.465 OA
ATOM     33  C   UNL A   1      28.404  28.038  23.183  1.00  0.00     0.282 C 
ENDBRANCH  30  32
ENDBRANCH  25  30
ENDBRANCH   9  24
ENDBRANCH   6   8
ENDBRANCH   5   6
ENDBRANCH   4   5
ENDBRANCH   3   4
ENDBRANCH   2   3
ENDBRANCH   1   2
BRANCH   1  34
ATOM     34  C   UNL A   1      33.305  30.063  26.530  1.00  0.00     0.188 C 
BRANCH  34  35
ATOM     35  O   UNL A   1      34.429  29.996  27.395  1.00  0.00    -0.376 OA
BRANCH  35  36
ATOM     36  C   UNL A   1      35.040  31.249  27.671  1.00  0.00     0.202 C 
BRANCH  36  37
ATOM     37  C   UNL A   1      35.039  31.607  29.161  1.00  0.00     0.261 C 
BRANCH  37  38
ATOM     38  O   UNL A   1      36.337  31.684  29.779  1.00  0.00    -0.460 OA
BRANCH  38  39
ATOM     39  C   UNL A   1      36.727  30.688  30.608  1.00  0.00     0.338 C 
ATOM     40  O   UNL A   1      36.054  30.139  31.465  1.00  0.00    -0.246 OA
BRANCH  39  41
ATOM     41  C   UNL A   1      38.031  30.195  30.097  1.00  0.00     0.060 A 
ATOM     42  C   UNL A   1      38.934  29.578  30.981  1.00  0.00     0.016 A 
ATOM     43  C   UNL A   1      38.298  30.227  28.727  1.00  0.00     0.016 A 
ATOM     44  C   UNL A   1      40.113  29.004  30.493  1.00  0.00     0.010 A 
ATOM     45  C   UNL A   1      39.490  29.685  28.246  1.00  0.00     0.010 A 
ATOM     46  C   UNL A   1      40.418  29.105  29.130  1.00  0.00    -0.014 A 
BRANCH  46  47
ATOM     47  C   UNL A   1      41.813  28.930  28.657  1.00  0.00     0.031 A 
ATOM     48  C   UNL A   1      42.197  27.547  28.204  1.00  0.00     0.074 A 
ATOM     49  C   UNL A   1      42.725  29.917  28.684  1.00  0.00     0.049 A 
ATOM     50  N   UNL A   1      43.370  27.060  27.907  1.00  0.00    -0.248 NA
ATOM     51  C   UNL A   1      41.094  26.574  28.095  1.00  0.00     0.031 C 
ATOM     52  C   UNL A   1      42.471  31.304  29.063  1.00  0.00     0.029 A 
ATOM     53  N   UNL A   1      44.072  29.884  28.407  1.00  0.00    -0.354 N 
ATOM     54  C   UNL A   1      43.151  25.721  27.599  1.00  0.00     0.074 A 
ATOM     55  C   UNL A   1      41.739  25.467  27.771  1.00  0.00     0.031 C 
ATOM     56  C   UNL A   1      43.632  31.986  29.021  1.00  0.00     0.029 A 
ATOM     57  C   UNL A   1      44.716  31.073  28.655  1.00  0.00     0.049 A 
ATOM     58  H   UNL A   1      44.531  29.084  28.064  1.00  0.00     0.167 HD
ATOM     59  C   UNL A   1      44.045  24.787  27.208  1.00  0.00     0.037 A 
ATOM     60  C   UNL A   1      46.032  31.373  28.624  1.00  0.00     0.037 A 
ATOM     61  C   UNL A   1      45.451  25.042  27.057  1.00  0.00     0.049 A 
ATOM     62  C   UNL A   1      47.027  30.298  28.252  1.00  0.00     0.074 A 
ATOM     63  C   UNL A   1      46.445  24.169  26.656  1.00  0.00     0.029 A 
ATOM     64  N   UNL A   1      46.063  26.261  27.317  1.00  0.00    -0.354 N 
ATOM     65  N   UNL A   1      46.810  29.040  27.942  1.00  0.00    -0.248 NA
ATOM     66  C   UNL A   1      48.447  30.682  28.225  1.00  0.00     0.031 C 
ATOM     67  C   UNL A   1      47.668  24.844  26.728  1.00  0.00     0.029 A 
ATOM     68  C   UNL A   1      47.427  26.156  27.106  1.00  0.00     0.049 A 
ATOM     69  H   UNL A   1      45.598  27.077  27.608  1.00  0.00     0.167 HD
ATOM     70  C   UNL A   1      48.059  28.496  27.646  1.00  0.00     0.074 A 
ATOM     71  C   UNL A   1      49.025  29.561  27.815  1.00  0.00     0.031 C 
ATOM     72  C   UNL A   1      48.374  27.234  27.262  1.00  0.00     0.037 A 
BRANCH  59  73
ATOM     73  C   UNL A   1      43.526  23.396  26.965  1.00  0.00     0.058 A 
ATOM     74  C   UNL A   1      43.182  22.536  28.022  1.00  0.00     0.135 A 
ATOM     75  C   UNL A   1      43.381  22.913  25.655  1.00  0.00     0.135 A 
ATOM     76  F   UNL A   1      43.328  22.937  29.295  1.00  0.00    -0.206 F 
ATOM     77  C   UNL A   1      42.750  21.236  27.787  1.00  0.00     0.059 A 
ATOM     78  C   UNL A   1      42.917  21.627  25.396  1.00  0.00     0.059 A 
ATOM     79  F   UNL A   1      43.703  23.689  24.608  1.00  0.00    -0.206 F 
ATOM     80  C   UNL A   1      42.621  20.791  26.471  1.00  0.00     0.060 A 
BRANCH  80  81
ATOM     81  S   UNL A   1      42.066  19.097  26.187  1.00  0.00     0.124 S 
ATOM     82  O   UNL A   1      42.284  18.496  27.499  1.00  0.00    -0.237 OA
ATOM     83  O   UNL A   1      40.672  19.288  25.801  1.00  0.00    -0.237 OA
ATOM     84  O   UNL A   1      42.949  18.623  25.126  1.00  0.00    -0.744 OA
ENDBRANCH  80  81
ENDBRANCH  59  73
BRANCH  60  85
ATOM     85  C   UNL A   1      46.492  32.749  28.965  1.00  0.00     0.058 A 
ATOM     86  C   UNL A   1      46.568  33.750  27.985  1.00  0.00     0.135 A 
ATOM     87  C   UNL A   1      46.858  33.093  30.276  1.00  0.00     0.135 A 
ATOM     88  F   UNL A   1      46.250  33.468  26.713  1.00  0.00    -0.206 F 
ATOM     89  C   UNL A   1      46.995  35.039  28.289  1.00  0.00     0.059 A 
ATOM     90  C   UNL A   1      47.261  34.383  30.610  1.00  0.00     0.059 A 
ATOM     91  F   UNL A   1      46.805  32.174  31.252  1.00  0.00    -0.206 F 
ATOM     92  C   UNL A   1      47.331  35.350  29.609  1.00  0.00     0.060 A 
BRANCH  92  93
ATOM     93  S   UNL A   1      47.818  37.045  30.000  1.00  0.00     0.124 S 
ATOM     94  O   UNL A   1      46.523  37.685  30.206  1.00  0.00    -0.237 OA
ATOM     95  O   UNL A   1      48.636  36.859  31.194  1.00  0.00    -0.237 OA
ATOM     96  O   UNL A   1      48.547  37.468  28.808  1.00  0.00    -0.744 OA
ENDBRANCH  92  93
ENDBRANCH  60  85
BRANCH  72  97
ATOM     97  C   UNL A   1      49.814  26.933  26.932  1.00  0.00     0.058 A 
ATOM     98  C   UNL A   1      50.730  26.508  27.904  1.00  0.00     0.135 A 
ATOM     99  C   UNL A   1      50.253  26.990  25.598  1.00  0.00     0.135 A 
ATOM    100  F   UNL A   1      50.364  26.437  29.194  1.00  0.00    -0.206 F 
ATOM    101  C   UNL A   1      52.038  26.166  27.569  1.00  0.00     0.059 A 
ATOM    102  C   UNL A   1      51.545  26.623  25.236  1.00  0.00     0.059 A 
ATOM    103  F   UNL A   1      49.413  27.377  24.625  1.00  0.00    -0.206 F 
ATOM    104  C   UNL A   1      52.434  26.222  26.230  1.00  0.00     0.060 A 
BRANCH 104 105
ATOM    105  S   UNL A   1      54.118  25.729  25.803  1.00  0.00     0.124 S 
ATOM    106  O   UNL A   1      53.879  24.747  24.751  1.00  0.00    -0.237 OA
ATOM    107  O   UNL A   1      54.713  26.990  25.373  1.00  0.00    -0.237 OA
ATOM    108  O   UNL A   1      54.643  25.190  27.055  1.00  0.00    -0.744 OA
ENDBRANCH 104 105
ENDBRANCH  72  97
ENDBRANCH  46  47
ENDBRANCH  39  41
ENDBRANCH  38  39
ENDBRANCH  37  38
ENDBRANCH  36  37
ENDBRANCH  35  36
ENDBRANCH  34  35
ENDBRANCH   1  34
TORSDOF 23
ENDMDL
MODEL 2
REMARK VINA RESULT:     -10.9      4.927      9.739
REMARK SMILES COC(=O)c1ccc([C@H]2Nc3c(C(=O)OCCOCCOCCOC(=O)c4ccc(-c5c6nc(c(-c7c(F)cc(S(=O)(=O)[O-])cc7F)c7ccc([nH]7)c(-c7c(F)cc(S(=O)(=O)[O-])cc7F)c7nc(c(-c8c(F)cc(S(=O)(=O)[O-])cc8F)c8ccc5[nH]8)C=C7)C=C6)cc4)cccc3[C@@H]3[C@@H]4CC[C@@H](C4)[C@@H]32)cc1
REMARK SMILES IDX 19 1 18 2 17 3 16 4 15 5 13 6 14 7 12 8 9 9 10 10 103 11
REMARK SMILES IDX 11 12 97 14 101 15 96 16 98 17 100 18 102 19 93 20 95 21
REMARK SMILES IDX 99 22 94 23 8 24 5 25 6 26 105 27 7 28 104 29 3 30 4 31 2 32
REMARK SMILES IDX 1 33 20 34 21 35 22 36 23 37 24 38 25 39 26 40 27 41 28 42
REMARK SMILES IDX 92 43 29 44 91 45 30 46 31 47 32 48 85 49 33 50 90 51 84 52
REMARK SMILES IDX 86 53 34 54 89 55 83 56 82 57 35 59 69 60 48 61 68 62 49 63
REMARK SMILES IDX 52 64 67 65 87 66 50 67 51 68 66 70 88 71 53 72 36 73 37 74
REMARK SMILES IDX 46 75 38 76 39 77 45 78 47 79 40 80 41 81 42 82 43 83 44 84
REMARK SMILES IDX 70 85 71 86 80 87 72 88 73 89 79 90 81 91 74 92 75 93 76 94
REMARK SMILES IDX 77 95 78 96 54 97 55 98 64 99 56 100 57 101 63 102 65 103
REMARK SMILES IDX 58 104 59 105 60 106 61 107 62 108
REMARK H PARENT 10 13 86 58 52 69
REMARK Flexibility Score: inf
ROOT
ATOM      1  C   UNL A   1      33.417  20.472  24.270  1.00  0.00     0.188 C 
ENDROOT
BRANCH   1   2
ATOM      2  O   UNL A   1      33.346  21.778  23.718  1.00  0.00    -0.376 OA
BRANCH   2   3
ATOM      3  C   UNL A   1      32.378  22.019  22.714  1.00  0.00     0.202 C 
BRANCH   3   4
ATOM      4  C   UNL A   1      32.808  22.813  21.472  1.00  0.00     0.261 C 
BRANCH   4   5
ATOM      5  O   UNL A   1      33.429  24.084  21.739  1.00  0.00    -0.460 OA
BRANCH   5   6
ATOM      6  C   UNL A   1      32.700  25.010  22.420  1.00  0.00     0.340 C 
ATOM      7  O   UNL A   1      31.544  25.324  22.182  1.00  0.00    -0.246 OA
BRANCH   6   8
ATOM      8  C   UNL A   1      33.424  25.499  23.633  1.00  0.00     0.083 A 
ATOM      9  C   UNL A   1      31.685  28.388  24.162  1.00  0.00     0.113 C 
ATOM     10  N   UNL A   1      32.723  27.802  23.307  1.00  0.00    -0.377 N 
ATOM     11  C   UNL A   1      32.466  29.436  24.988  1.00  0.00     0.027 C 
ATOM     12  C   UNL A   1      33.428  26.846  24.017  1.00  0.00     0.053 A 
ATOM     13  H   UNL A   1      32.893  28.052  22.369  1.00  0.00     0.161 HD
ATOM     14  C   UNL A   1      33.827  28.774  25.557  1.00  0.00     0.030 C 
ATOM     15  C   UNL A   1      31.853  30.026  26.287  1.00  0.00    -0.005 C 
ATOM     16  C   UNL A   1      34.023  27.296  25.214  1.00  0.00    -0.020 A 
ATOM     17  C   UNL A   1      33.784  29.166  27.057  1.00  0.00    -0.003 C 
ATOM     18  C   UNL A   1      31.399  28.950  27.291  1.00  0.00     0.004 C 
ATOM     19  C   UNL A   1      33.117  30.546  26.997  1.00  0.00     0.008 C 
ATOM     20  C   UNL A   1      34.021  24.569  24.481  1.00  0.00     0.018 A 
ATOM     21  C   UNL A   1      34.680  26.358  26.008  1.00  0.00     0.006 A 
ATOM     22  C   UNL A   1      32.715  28.369  27.821  1.00  0.00     0.004 C 
ATOM     23  C   UNL A   1      34.656  25.000  25.652  1.00  0.00     0.001 A 
BRANCH   9  24
ATOM     24  C   UNL A   1      30.560  28.470  23.133  1.00  0.00    -0.025 A 
ATOM     25  C   UNL A   1      28.684  30.153  21.900  1.00  0.00     0.060 A 
ATOM     26  C   UNL A   1      29.998  30.154  21.443  1.00  0.00     0.016 A 
ATOM     27  C   UNL A   1      28.265  29.176  22.819  1.00  0.00     0.016 A 
ATOM     28  C   UNL A   1      30.913  29.279  22.014  1.00  0.00     0.007 A 
ATOM     29  C   UNL A   1      29.204  28.326  23.441  1.00  0.00     0.007 A 
BRANCH  25  30
ATOM     30  C   UNL A   1      27.852  31.319  21.504  1.00  0.00     0.337 C 
ATOM     31  O   UNL A   1      27.597  31.607  20.347  1.00  0.00    -0.246 OA
BRANCH  30  32
ATOM     32  O   UNL A   1      27.654  32.112  22.591  1.00  0.00    -0.465 OA
ATOM     33  C   UNL A   1      28.783  32.916  22.969  1.00  0.00     0.282 C 
ENDBRANCH  30  32
ENDBRANCH  25  30
ENDBRANCH   9  24
ENDBRANCH   6   8
ENDBRANCH   5   6
ENDBRANCH   4   5
ENDBRANCH   3   4
ENDBRANCH   2   3
ENDBRANCH   1   2
BRANCH   1  34
ATOM     34  C   UNL A   1      34.710  20.020  24.991  1.00  0.00     0.188 C 
BRANCH  34  35
ATOM     35  O   UNL A   1      35.659  21.050  25.224  1.00  0.00    -0.376 OA
BRANCH  35  36
ATOM     36  C   UNL A   1      37.016  20.639  25.120  1.00  0.00     0.202 C 
BRANCH  36  37
ATOM     37  C   UNL A   1      37.998  21.812  25.037  1.00  0.00     0.261 C 
BRANCH  37  38
ATOM     38  O   UNL A   1      38.547  22.249  26.294  1.00  0.00    -0.460 OA
BRANCH  38  39
ATOM     39  C   UNL A   1      39.882  22.450  26.391  1.00  0.00     0.338 C 
ATOM     40  O   UNL A   1      40.764  21.794  25.860  1.00  0.00    -0.246 OA
BRANCH  39  41
ATOM     41  C   UNL A   1      40.067  23.777  27.029  1.00  0.00     0.060 A 
ATOM     42  C   UNL A   1      41.307  24.432  26.919  1.00  0.00     0.016 A 
ATOM     43  C   UNL A   1      38.979  24.424  27.618  1.00  0.00     0.016 A 
ATOM     44  C   UNL A   1      41.461  25.732  27.413  1.00  0.00     0.010 A 
ATOM     45  C   UNL A   1      39.143  25.707  28.142  1.00  0.00     0.010 A 
ATOM     46  C   UNL A   1      40.392  26.351  28.074  1.00  0.00    -0.014 A 
BRANCH  46  47
ATOM     47  C   UNL A   1      40.634  27.496  28.985  1.00  0.00     0.031 A 
ATOM     48  C   UNL A   1      41.806  27.371  29.920  1.00  0.00     0.074 A 
ATOM     49  C   UNL A   1      39.827  28.570  29.042  1.00  0.00     0.049 A 
ATOM     50  N   UNL A   1      42.155  28.120  30.930  1.00  0.00    -0.248 NA
ATOM     51  C   UNL A   1      42.696  26.217  29.690  1.00  0.00     0.031 C 
ATOM     52  C   UNL A   1      38.686  28.828  28.168  1.00  0.00     0.029 A 
ATOM     53  N   UNL A   1      39.839  29.638  29.908  1.00  0.00    -0.354 N 
ATOM     54  C   UNL A   1      43.288  27.519  31.467  1.00  0.00     0.074 A 
ATOM     55  C   UNL A   1      43.552  26.329  30.690  1.00  0.00     0.031 C 
ATOM     56  C   UNL A   1      38.089  29.970  28.559  1.00  0.00     0.029 A 
ATOM     57  C   UNL A   1      38.779  30.498  29.736  1.00  0.00     0.049 A 
ATOM     58  H   UNL A   1      40.539  29.775  30.585  1.00  0.00     0.167 HD
ATOM     59  C   UNL A   1      44.041  27.919  32.515  1.00  0.00     0.037 A 
ATOM     60  C   UNL A   1      38.396  31.564  30.472  1.00  0.00     0.037 A 
ATOM     61  C   UNL A   1      43.762  29.093  33.294  1.00  0.00     0.049 A 
ATOM     62  C   UNL A   1      39.211  31.960  31.681  1.00  0.00     0.074 A 
ATOM     63  C   UNL A   1      44.467  29.598  34.372  1.00  0.00     0.029 A 
ATOM     64  N   UNL A   1      42.680  29.938  33.088  1.00  0.00    -0.354 N 
ATOM     65  N   UNL A   1      40.292  31.398  32.171  1.00  0.00    -0.248 NA
ATOM     66  C   UNL A   1      38.754  33.134  32.440  1.00  0.00     0.031 C 
ATOM     67  C   UNL A   1      43.779  30.717  34.853  1.00  0.00     0.029 A 
ATOM     68  C   UNL A   1      42.686  30.949  34.033  1.00  0.00     0.049 A 
ATOM     69  H   UNL A   1      42.009  29.834  32.377  1.00  0.00     0.167 HD
ATOM     70  C   UNL A   1      40.664  32.173  33.269  1.00  0.00     0.074 A 
ATOM     71  C   UNL A   1      39.693  33.241  33.370  1.00  0.00     0.031 C 
ATOM     72  C   UNL A   1      41.719  32.018  34.109  1.00  0.00     0.037 A 
BRANCH  59  73
ATOM     73  C   UNL A   1      45.208  27.050  32.897  1.00  0.00     0.058 A 
ATOM     74  C   UNL A   1      46.497  27.268  32.381  1.00  0.00     0.135 A 
ATOM     75  C   UNL A   1      45.031  25.975  33.782  1.00  0.00     0.135 A 
ATOM     76  F   UNL A   1      46.717  28.265  31.508  1.00  0.00    -0.206 F 
ATOM     77  C   UNL A   1      47.558  26.429  32.701  1.00  0.00     0.059 A 
ATOM     78  C   UNL A   1      46.087  25.144  34.143  1.00  0.00     0.059 A 
ATOM     79  F   UNL A   1      43.819  25.715  34.297  1.00  0.00    -0.206 F 
ATOM     80  C   UNL A   1      47.342  25.369  33.582  1.00  0.00     0.060 A 
BRANCH  80  81
ATOM     81  S   UNL A   1      48.730  24.286  33.979  1.00  0.00     0.124 S 
ATOM     82  O   UNL A   1      49.491  24.319  32.734  1.00  0.00    -0.237 OA
ATOM     83  O   UNL A   1      49.342  24.968  35.115  1.00  0.00    -0.237 OA
ATOM     84  O   UNL A   1      48.089  23.011  34.288  1.00  0.00    -0.744 OA
ENDBRANCH  80  81
ENDBRANCH  59  73
BRANCH  60  85
ATOM     85  C   UNL A   1      37.176  32.332  30.093  1.00  0.00     0.058 A 
ATOM     86  C   UNL A   1      35.901  31.909  30.497  1.00  0.00     0.135 A 
ATOM     87  C   UNL A   1      37.259  33.504  29.325  1.00  0.00     0.135 A 
ATOM     88  F   UNL A   1      35.764  30.784  31.214  1.00  0.00    -0.206 F 
ATOM     89  C   UNL A   1      34.753  32.616  30.151  1.00  0.00     0.059 A 
ATOM     90  C   UNL A   1      36.128  34.244  28.990  1.00  0.00     0.059 A 
ATOM     91  F   UNL A   1      38.454  33.953  28.910  1.00  0.00    -0.206 F 
ATOM     92  C   UNL A   1      34.878  33.789  29.405  1.00  0.00     0.060 A 
BRANCH  92  93
ATOM     93  S   UNL A   1      33.384  34.732  29.022  1.00  0.00     0.124 S 
ATOM     94  O   UNL A   1      32.792  34.898  30.344  1.00  0.00    -0.237 OA
ATOM     95  O   UNL A   1      33.934  35.938  28.412  1.00  0.00    -0.237 OA
ATOM     96  O   UNL A   1      32.657  33.853  28.111  1.00  0.00    -0.744 OA
ENDBRANCH  92  93
ENDBRANCH  60  85
BRANCH  72  97
ATOM     97  C   UNL A   1      41.928  33.057  35.180  1.00  0.00     0.058 A 
ATOM     98  C   UNL A   1      42.502  34.307  34.906  1.00  0.00     0.135 A 
ATOM     99  C   UNL A   1      41.463  32.822  36.485  1.00  0.00     0.135 A 
ATOM    100  F   UNL A   1      42.964  34.585  33.677  1.00  0.00    -0.206 F 
ATOM    101  C   UNL A   1      42.623  35.282  35.893  1.00  0.00     0.059 A 
ATOM    102  C   UNL A   1      41.545  33.792  37.478  1.00  0.00     0.059 A 
ATOM    103  F   UNL A   1      40.893  31.647  36.799  1.00  0.00    -0.206 F 
ATOM    104  C   UNL A   1      42.136  35.017  37.175  1.00  0.00     0.060 A 
BRANCH 104 105
ATOM    105  S   UNL A   1      42.255  36.308  38.432  1.00  0.00     0.124 S 
ATOM    106  O   UNL A   1      41.237  37.250  37.982  1.00  0.00    -0.237 OA
ATOM    107  O   UNL A   1      41.948  35.578  39.659  1.00  0.00    -0.237 OA
ATOM    108  O   UNL A   1      43.635  36.771  38.315  1.00  0.00    -0.744 OA
ENDBRANCH 104 105
ENDBRANCH  72  97
ENDBRANCH  46  47
ENDBRANCH  39  41
ENDBRANCH  38  39
ENDBRANCH  37  38
ENDBRANCH  36  37
ENDBRANCH  35  36
ENDBRANCH  34  35
ENDBRANCH   1  34
TORSDOF 23
ENDMDL
MODEL 3
REMARK VINA RESULT:     -10.6      1.561      8.081
REMARK SMILES COC(=O)c1ccc([C@H]2Nc3c(C(=O)OCCOCCOCCOC(=O)c4ccc(-c5c6nc(c(-c7c(F)cc(S(=O)(=O)[O-])cc7F)c7ccc([nH]7)c(-c7c(F)cc(S(=O)(=O)[O-])cc7F)c7nc(c(-c8c(F)cc(S(=O)(=O)[O-])cc8F)c8ccc5[nH]8)C=C7)C=C6)cc4)cccc3[C@@H]3[C@@H]4CC[C@@H](C4)[C@@H]32)cc1
REMARK SMILES IDX 19 1 18 2 17 3 16 4 15 5 13 6 14 7 12 8 9 9 10 10 103 11
REMARK SMILES IDX 11 12 97 14 101 15 96 16 98 17 100 18 102 19 93 20 95 21
REMARK SMILES IDX 99 22 94 23 8 24 5 25 6 26 105 27 7 28 104 29 3 30 4 31 2 32
REMARK SMILES IDX 1 33 20 34 21 35 22 36 23 37 24 38 25 39 26 40 27 41 28 42
REMARK SMILES IDX 92 43 29 44 91 45 30 46 31 47 32 48 85 49 33 50 90 51 84 52
REMARK SMILES IDX 86 53 34 54 89 55 83 56 82 57 35 59 69 60 48 61 68 62 49 63
REMARK SMILES IDX 52 64 67 65 87 66 50 67 51 68 66 70 88 71 53 72 36 73 37 74
REMARK SMILES IDX 46 75 38 76 39 77 45 78 47 79 40 80 41 81 42 82 43 83 44 84
REMARK SMILES IDX 70 85 71 86 80 87 72 88 73 89 79 90 81 91 74 92 75 93 76 94
REMARK SMILES IDX 77 95 78 96 54 97 55 98 64 99 56 100 57 101 63 102 65 103
REMARK SMILES IDX 58 104 59 105 60 106 61 107 62 108
REMARK H PARENT 10 13 86 58 52 69
REMARK Flexibility Score: inf
ROOT
ATOM      1  C   UNL A   1      34.116  28.805  25.974  1.00  0.00     0.188 C 
ENDROOT
BRANCH   1   2
ATOM      2  O   UNL A   1      33.797  29.313  24.688  1.00  0.00    -0.376 OA
BRANCH   2   3
ATOM      3  C   UNL A   1      34.279  28.607  23.560  1.00  0.00     0.202 C 
BRANCH   3   4
ATOM      4  C   UNL A   1      33.352  28.472  22.342  1.00  0.00     0.261 C 
BRANCH   4   5
ATOM      5  O   UNL A   1      33.558  27.295  21.539  1.00  0.00    -0.460 OA
BRANCH   5   6
ATOM      6  C   UNL A   1      32.586  26.342  21.559  1.00  0.00     0.340 C 
ATOM      7  O   UNL A   1      31.500  26.418  21.006  1.00  0.00    -0.246 OA
BRANCH   6   8
ATOM      8  C   UNL A   1      33.063  25.082  22.206  1.00  0.00     0.083 A 
ATOM      9  C   UNL A   1      31.402  25.347  25.176  1.00  0.00     0.113 C 
ATOM     10  N   UNL A   1      32.565  25.869  24.450  1.00  0.00    -0.377 N 
ATOM     11  C   UNL A   1      32.045  24.527  26.317  1.00  0.00     0.027 C 
ATOM     12  C   UNL A   1      33.056  24.897  23.594  1.00  0.00     0.053 A 
ATOM     13  H   UNL A   1      32.941  26.773  24.555  1.00  0.00     0.161 HD
ATOM     14  C   UNL A   1      33.220  23.592  25.720  1.00  0.00     0.030 C 
ATOM     15  C   UNL A   1      31.204  23.485  27.104  1.00  0.00    -0.005 C 
ATOM     16  C   UNL A   1      33.408  23.675  24.203  1.00  0.00    -0.020 A 
ATOM     17  C   UNL A   1      32.883  22.206  26.328  1.00  0.00    -0.003 C 
ATOM     18  C   UNL A   1      30.495  22.463  26.197  1.00  0.00     0.004 C 
ATOM     19  C   UNL A   1      32.315  22.599  27.698  1.00  0.00     0.008 C 
ATOM     20  C   UNL A   1      33.421  24.005  21.399  1.00  0.00     0.018 A 
ATOM     21  C   UNL A   1      33.835  22.635  23.379  1.00  0.00     0.006 A 
ATOM     22  C   UNL A   1      31.638  21.586  25.674  1.00  0.00     0.004 C 
ATOM     23  C   UNL A   1      33.817  22.796  21.985  1.00  0.00     0.001 A 
BRANCH   9  24
ATOM     24  C   UNL A   1      30.524  26.595  25.128  1.00  0.00    -0.025 A 
ATOM     25  C   UNL A   1      29.660  28.744  23.546  1.00  0.00     0.060 A 
ATOM     26  C   UNL A   1      29.052  27.503  23.392  1.00  0.00     0.016 A 
ATOM     27  C   UNL A   1      30.541  28.962  24.618  1.00  0.00     0.016 A 
ATOM     28  C   UNL A   1      29.439  26.453  24.216  1.00  0.00     0.007 A 
ATOM     29  C   UNL A   1      30.978  27.885  25.419  1.00  0.00     0.007 A 
BRANCH  25  30
ATOM     30  C   UNL A   1      29.459  29.714  22.438  1.00  0.00     0.337 C 
ATOM     31  O   UNL A   1      30.037  29.648  21.366  1.00  0.00    -0.246 OA
BRANCH  30  32
ATOM     32  O   UNL A   1      28.750  30.777  22.902  1.00  0.00    -0.465 OA
ATOM     33  C   UNL A   1      28.025  31.508  21.900  1.00  0.00     0.282 C 
ENDBRANCH  30  32
ENDBRANCH  25  30
ENDBRANCH   9  24
ENDBRANCH   6   8
ENDBRANCH   5   6
ENDBRANCH   4   5
ENDBRANCH   3   4
ENDBRANCH   2   3
ENDBRANCH   1   2
BRANCH   1  34
ATOM     34  C   UNL A   1      34.795  29.731  27.012  1.00  0.00     0.188 C 
BRANCH  34  35
ATOM     35  O   UNL A   1      33.903  30.508  27.796  1.00  0.00    -0.376 OA
BRANCH  35  36
ATOM     36  C   UNL A   1      34.125  31.910  27.731  1.00  0.00     0.202 C 
BRANCH  36  37
ATOM     37  C   UNL A   1      34.842  32.466  28.965  1.00  0.00     0.261 C 
BRANCH  37  38
ATOM     38  O   UNL A   1      35.510  31.490  29.786  1.00  0.00    -0.460 OA
BRANCH  38  39
ATOM     39  C   UNL A   1      36.474  31.902  30.641  1.00  0.00     0.338 C 
ATOM     40  O   UNL A   1      36.326  32.589  31.639  1.00  0.00    -0.246 OA
BRANCH  39  41
ATOM     41  C   UNL A   1      37.699  31.136  30.303  1.00  0.00     0.060 A 
ATOM     42  C   UNL A   1      38.491  30.603  31.336  1.00  0.00     0.016 A 
ATOM     43  C   UNL A   1      37.987  30.839  28.970  1.00  0.00     0.016 A 
ATOM     44  C   UNL A   1      39.582  29.782  31.031  1.00  0.00     0.010 A 
ATOM     45  C   UNL A   1      39.096  30.047  28.666  1.00  0.00     0.010 A 
ATOM     46  C   UNL A   1      39.918  29.546  29.692  1.00  0.00    -0.014 A 
BRANCH  46  47
ATOM     47  C   UNL A   1      41.279  29.084  29.329  1.00  0.00     0.031 A 
ATOM     48  C   UNL A   1      42.356  30.134  29.297  1.00  0.00     0.074 A 
ATOM     49  C   UNL A   1      41.552  27.815  28.977  1.00  0.00     0.049 A 
ATOM     50  N   UNL A   1      43.582  30.063  28.855  1.00  0.00    -0.248 NA
ATOM     51  C   UNL A   1      41.980  31.461  29.821  1.00  0.00     0.031 C 
ATOM     52  C   UNL A   1      40.610  26.700  29.004  1.00  0.00     0.029 A 
ATOM     53  N   UNL A   1      42.716  27.263  28.496  1.00  0.00    -0.354 N 
ATOM     54  C   UNL A   1      44.115  31.336  29.026  1.00  0.00     0.074 A 
ATOM     55  C   UNL A   1      43.073  32.166  29.585  1.00  0.00     0.031 C 
ATOM     56  C   UNL A   1      41.226  25.599  28.532  1.00  0.00     0.029 A 
ATOM     57  C   UNL A   1      42.590  25.943  28.130  1.00  0.00     0.049 A 
ATOM     58  H   UNL A   1      43.559  27.765  28.421  1.00  0.00     0.167 HD
ATOM     59  C   UNL A   1      45.361  31.776  28.741  1.00  0.00     0.037 A 
ATOM     60  C   UNL A   1      43.468  25.125  27.510  1.00  0.00     0.037 A 
ATOM     61  C   UNL A   1      46.386  30.949  28.168  1.00  0.00     0.049 A 
ATOM     62  C   UNL A   1      44.834  25.652  27.136  1.00  0.00     0.074 A 
ATOM     63  C   UNL A   1      47.687  31.291  27.849  1.00  0.00     0.029 A 
ATOM     64  N   UNL A   1      46.219  29.618  27.813  1.00  0.00    -0.354 N 
ATOM     65  N   UNL A   1      45.337  26.851  27.319  1.00  0.00    -0.248 NA
ATOM     66  C   UNL A   1      45.752  24.715  26.471  1.00  0.00     0.031 C 
ATOM     67  C   UNL A   1      48.291  30.181  27.248  1.00  0.00     0.029 A 
ATOM     68  C   UNL A   1      47.388  29.128  27.257  1.00  0.00     0.049 A 
ATOM     69  H   UNL A   1      45.393  29.098  27.938  1.00  0.00     0.167 HD
ATOM     70  C   UNL A   1      46.641  26.800  26.828  1.00  0.00     0.074 A 
ATOM     71  C   UNL A   1      46.847  25.452  26.340  1.00  0.00     0.031 C 
ATOM     72  C   UNL A   1      47.582  27.776  26.792  1.00  0.00     0.037 A 
BRANCH  59  73
ATOM     73  C   UNL A   1      45.656  33.226  29.007  1.00  0.00     0.058 A 
ATOM     74  C   UNL A   1      46.178  33.664  30.236  1.00  0.00     0.135 A 
ATOM     75  C   UNL A   1      45.401  34.194  28.023  1.00  0.00     0.135 A 
ATOM     76  F   UNL A   1      46.414  32.785  31.224  1.00  0.00    -0.206 F 
ATOM     77  C   UNL A   1      46.401  35.013  30.491  1.00  0.00     0.059 A 
ATOM     78  C   UNL A   1      45.650  35.545  28.243  1.00  0.00     0.059 A 
ATOM     79  F   UNL A   1      44.894  33.832  26.834  1.00  0.00    -0.206 F 
ATOM     80  C   UNL A   1      46.132  35.946  29.487  1.00  0.00     0.060 A 
BRANCH  80  81
ATOM     81  S   UNL A   1      46.420  37.692  29.839  1.00  0.00     0.124 S 
ATOM     82  O   UNL A   1      47.247  38.085  28.702  1.00  0.00    -0.237 OA
ATOM     83  O   UNL A   1      45.065  38.234  29.854  1.00  0.00    -0.237 OA
ATOM     84  O   UNL A   1      47.100  37.672  31.130  1.00  0.00    -0.744 OA
ENDBRANCH  80  81
ENDBRANCH  59  73
BRANCH  60  85
ATOM     85  C   UNL A   1      43.081  23.721  27.191  1.00  0.00     0.058 A 
ATOM     86  C   UNL A   1      42.731  23.346  25.886  1.00  0.00     0.135 A 
ATOM     87  C   UNL A   1      43.059  22.727  28.182  1.00  0.00     0.135 A 
ATOM     88  F   UNL A   1      42.715  24.262  24.906  1.00  0.00    -0.206 F 
ATOM     89  C   UNL A   1      42.368  22.038  25.574  1.00  0.00     0.059 A 
ATOM     90  C   UNL A   1      42.727  21.407  27.889  1.00  0.00     0.059 A 
ATOM     91  F   UNL A   1      43.383  23.032  29.448  1.00  0.00    -0.206 F 
ATOM     92  C   UNL A   1      42.378  21.072  26.582  1.00  0.00     0.060 A 
BRANCH  92  93
ATOM     93  S   UNL A   1      41.971  19.367  26.147  1.00  0.00     0.124 S 
ATOM     94  O   UNL A   1      42.808  19.153  24.972  1.00  0.00    -0.237 OA
ATOM     95  O   UNL A   1      42.365  18.644  27.352  1.00  0.00    -0.237 OA
ATOM     96  O   UNL A   1      40.534  19.418  25.897  1.00  0.00    -0.744 OA
ENDBRANCH  92  93
ENDBRANCH  60  85
BRANCH  72  97
ATOM     97  C   UNL A   1      48.950  27.422  26.267  1.00  0.00     0.058 A 
ATOM     98  C   UNL A   1      49.997  27.033  27.115  1.00  0.00     0.135 A 
ATOM     99  C   UNL A   1      49.181  27.388  24.882  1.00  0.00     0.135 A 
ATOM    100  F   UNL A   1      49.831  27.047  28.446  1.00  0.00    -0.206 F 
ATOM    101  C   UNL A   1      51.234  26.640  26.607  1.00  0.00     0.059 A 
ATOM    102  C   UNL A   1      50.397  26.970  24.352  1.00  0.00     0.059 A 
ATOM    103  F   UNL A   1      48.209  27.737  24.024  1.00  0.00    -0.206 F 
ATOM    104  C   UNL A   1      51.422  26.607  25.224  1.00  0.00     0.060 A 
BRANCH 104 105
ATOM    105  S   UNL A   1      53.013  26.048  24.578  1.00  0.00     0.124 S 
ATOM    106  O   UNL A   1      53.049  24.666  25.042  1.00  0.00    -0.237 OA
ATOM    107  O   UNL A   1      52.849  26.232  23.140  1.00  0.00    -0.237 OA
ATOM    108  O   UNL A   1      53.973  26.948  25.214  1.00  0.00    -0.744 OA
ENDBRANCH 104 105
ENDBRANCH  72  97
ENDBRANCH  46  47
ENDBRANCH  39  41
ENDBRANCH  38  39
ENDBRANCH  37  38
ENDBRANCH  36  37
ENDBRANCH  35  36
ENDBRANCH  34  35
ENDBRANCH   1  34
TORSDOF 23
ENDMDL
