MODEL 1
REMARK VINA RESULT:     -12.4      0.000      0.000
REMARK SMILES Cc1c(CC(=O)OCCOCCOCCOC(=O)c2ccc(-c3c4nc(c(-c5c(F)cc(S(=O)(=O)[O-])cc5F)c5ccc([nH]5)c(-c5c(F)cc(S(=O)(=O)[O-])cc5F)c5nc(c(-c6c(F)cc(S(=O)(=O)[O-])cc6F)c6ccc3[nH]6)C=C5)C=C4)cc2)cc(-c2ccccc2)cc1-c1ccccc1
REMARK SMILES IDX 12 1 11 2 10 3 9 4 8 5 7 6 5 7 6 8 4 9 3 10 1 11 2 12 94 13
REMARK SMILES IDX 85 14 93 15 86 16 95 17 96 18 100 19 97 20 99 21 98 22 87 23
REMARK SMILES IDX 88 24 92 25 89 26 91 27 90 28 13 29 14 30 15 31 16 32 17 33
REMARK SMILES IDX 18 34 19 35 20 36 84 37 21 38 83 39 22 40 23 41 24 42 77 43
REMARK SMILES IDX 25 44 82 45 76 46 78 47 26 48 81 49 75 50 74 51 27 53 61 54
REMARK SMILES IDX 40 55 60 56 41 57 44 58 59 59 79 60 42 61 43 62 58 64 80 65
REMARK SMILES IDX 45 66 28 67 29 68 38 69 30 70 31 71 37 72 39 73 32 74 33 75
REMARK SMILES IDX 34 76 35 77 36 78 62 79 63 80 72 81 64 82 65 83 71 84 73 85
REMARK SMILES IDX 66 86 67 87 68 88 69 89 70 90 46 91 47 92 56 93 48 94 49 95
REMARK SMILES IDX 55 96 57 97 50 98 51 99 52 100 53 101 54 102
REMARK H PARENT 78 52 44 63
REMARK Flexibility Score: inf
ROOT
ATOM      1  C   UNL A   1      34.984  23.027  24.043  1.00  0.00     0.188 C 
ENDROOT
BRANCH   1   2
ATOM      2  C   UNL A   1      34.088  23.301  22.823  1.00  0.00     0.188 C 
BRANCH   2   3
ATOM      3  O   UNL A   1      33.897  24.599  22.202  1.00  0.00    -0.376 OA
BRANCH   3   4
ATOM      4  C   UNL A   1      32.631  25.227  21.901  1.00  0.00     0.202 C 
BRANCH   4   5
ATOM      5  C   UNL A   1      31.278  25.394  22.964  1.00  0.00     0.261 C 
BRANCH   5   6
ATOM      6  O   UNL A   1      31.161  25.259  24.644  1.00  0.00    -0.463 OA
BRANCH   6   7
ATOM      7  C   UNL A   1      31.466  26.000  25.832  1.00  0.00     0.310 C 
ATOM      8  O   UNL A   1      30.880  26.058  26.918  1.00  0.00    -0.252 OA
BRANCH   7   9
ATOM      9  C   UNL A   1      32.699  26.807  25.961  1.00  0.00     0.158 C 
BRANCH   9  10
ATOM     10  C   UNL A   1      32.475  28.244  25.870  1.00  0.00    -0.033 A 
ATOM     11  C   UNL A   1      34.268  28.723  27.594  1.00  0.00     0.045 C 
ATOM     12  C   UNL A   1      33.141  29.168  26.678  1.00  0.00    -0.039 A 
ATOM     13  C   UNL A   1      32.755  30.510  26.550  1.00  0.00    -0.015 A 
ATOM     14  C   UNL A   1      31.505  28.603  24.954  1.00  0.00     0.013 A 
ATOM     15  C   UNL A   1      31.696  30.857  25.668  1.00  0.00     0.017 A 
ATOM     16  C   UNL A   1      31.076  29.905  24.856  1.00  0.00    -0.017 A 
BRANCH  13  17
ATOM     17  C   UNL A   1      33.441  31.545  27.319  1.00  0.00    -0.018 A 
ATOM     18  C   UNL A   1      34.805  31.431  27.614  1.00  0.00     0.009 A 
ATOM     19  C   UNL A   1      32.755  32.713  27.694  1.00  0.00     0.009 A 
ATOM     20  C   UNL A   1      35.464  32.456  28.289  1.00  0.00     0.001 A 
ATOM     21  C   UNL A   1      33.417  33.741  28.358  1.00  0.00     0.001 A 
ATOM     22  C   UNL A   1      34.769  33.607  28.663  1.00  0.00     0.000 A 
ENDBRANCH  13  17
BRANCH  16  23
ATOM     23  C   UNL A   1      29.963  30.119  23.943  1.00  0.00    -0.018 A 
ATOM     24  C   UNL A   1      29.930  29.444  22.717  1.00  0.00     0.009 A 
ATOM     25  C   UNL A   1      29.100  31.212  24.141  1.00  0.00     0.009 A 
ATOM     26  C   UNL A   1      29.046  29.846  21.716  1.00  0.00     0.001 A 
ATOM     27  C   UNL A   1      28.224  31.618  23.138  1.00  0.00     0.001 A 
ATOM     28  C   UNL A   1      28.198  30.933  21.926  1.00  0.00     0.000 A 
ENDBRANCH  16  23
ENDBRANCH   9  10
ENDBRANCH   7   9
ENDBRANCH   6   7
ENDBRANCH   5   6
ENDBRANCH   4   5
ENDBRANCH   3   4
ENDBRANCH   2   3
ENDBRANCH   1   2
BRANCH   1  29
ATOM     29  O   UNL A   1      34.710  21.764  24.628  1.00  0.00    -0.376 OA
BRANCH  29  30
ATOM     30  C   UNL A   1      35.852  20.981  24.962  1.00  0.00     0.202 C 
BRANCH  30  31
ATOM     31  C   UNL A   1      37.221  21.688  24.778  1.00  0.00     0.261 C 
BRANCH  31  32
ATOM     32  O   UNL A   1      37.843  22.016  26.044  1.00  0.00    -0.460 OA
BRANCH  32  33
ATOM     33  C   UNL A   1      39.233  22.046  26.119  1.00  0.00     0.338 C 
ATOM     34  O   UNL A   1      39.909  21.080  25.914  1.00  0.00    -0.246 OA
BRANCH  33  35
ATOM     35  C   UNL A   1      39.694  23.473  26.373  1.00  0.00     0.060 A 
ATOM     36  C   UNL A   1      40.916  24.125  26.133  1.00  0.00     0.016 A 
ATOM     37  C   UNL A   1      38.817  24.221  27.065  1.00  0.00     0.016 A 
ATOM     38  C   UNL A   1      41.274  25.427  26.757  1.00  0.00     0.010 A 
ATOM     39  C   UNL A   1      39.306  25.297  27.787  1.00  0.00     0.010 A 
ATOM     40  C   UNL A   1      40.463  26.061  27.704  1.00  0.00    -0.014 A 
BRANCH  40  41
ATOM     41  C   UNL A   1      40.718  27.302  28.727  1.00  0.00     0.031 A 
ATOM     42  C   UNL A   1      39.925  28.754  29.117  1.00  0.00     0.074 A 
ATOM     43  C   UNL A   1      41.813  27.099  29.489  1.00  0.00     0.049 A 
ATOM     44  N   UNL A   1      40.515  29.774  29.722  1.00  0.00    -0.248 NA
ATOM     45  C   UNL A   1      38.521  29.251  28.828  1.00  0.00     0.031 C 
ATOM     46  C   UNL A   1      42.253  27.818  30.675  1.00  0.00     0.029 A 
ATOM     47  N   UNL A   1      42.870  26.231  29.208  1.00  0.00    -0.354 N 
ATOM     48  C   UNL A   1      39.564  30.774  29.970  1.00  0.00     0.074 A 
ATOM     49  C   UNL A   1      38.483  30.533  29.119  1.00  0.00     0.031 C 
ATOM     50  C   UNL A   1      43.568  27.610  30.833  1.00  0.00     0.029 A 
ATOM     51  C   UNL A   1      44.034  26.841  29.694  1.00  0.00     0.049 A 
ATOM     52  H   UNL A   1      42.809  25.360  28.756  1.00  0.00     0.167 HD
ATOM     53  C   UNL A   1      39.613  31.686  30.977  1.00  0.00     0.037 A 
ATOM     54  C   UNL A   1      44.984  27.206  28.785  1.00  0.00     0.037 A 
ATOM     55  C   UNL A   1      40.988  31.850  31.372  1.00  0.00     0.049 A 
ATOM     56  C   UNL A   1      45.085  28.713  28.641  1.00  0.00     0.074 A 
ATOM     57  C   UNL A   1      41.787  31.336  32.369  1.00  0.00     0.029 A 
ATOM     58  N   UNL A   1      41.844  32.320  30.389  1.00  0.00    -0.354 N 
ATOM     59  N   UNL A   1      44.538  29.576  29.461  1.00  0.00    -0.248 NA
ATOM     60  C   UNL A   1      45.766  29.372  27.526  1.00  0.00     0.031 C 
ATOM     61  C   UNL A   1      43.121  31.279  31.839  1.00  0.00     0.029 A 
ATOM     62  C   UNL A   1      43.124  31.826  30.564  1.00  0.00     0.049 A 
ATOM     63  H   UNL A   1      41.577  32.927  29.662  1.00  0.00     0.167 HD
ATOM     64  C   UNL A   1      44.660  30.834  28.942  1.00  0.00     0.074 A 
ATOM     65  C   UNL A   1      45.485  30.665  27.757  1.00  0.00     0.031 C 
ATOM     66  C   UNL A   1      44.052  31.944  29.448  1.00  0.00     0.037 A 
BRANCH  53  67
ATOM     67  C   UNL A   1      38.371  32.380  31.567  1.00  0.00     0.058 A 
ATOM     68  C   UNL A   1      37.904  33.598  31.037  1.00  0.00     0.135 A 
ATOM     69  C   UNL A   1      37.660  31.966  32.735  1.00  0.00     0.135 A 
ATOM     70  F   UNL A   1      38.513  34.154  29.980  1.00  0.00    -0.206 F 
ATOM     71  C   UNL A   1      36.829  34.321  31.595  1.00  0.00     0.059 A 
ATOM     72  C   UNL A   1      36.538  32.621  33.255  1.00  0.00     0.059 A 
ATOM     73  F   UNL A   1      38.065  30.947  33.506  1.00  0.00    -0.206 F 
ATOM     74  C   UNL A   1      36.146  33.822  32.701  1.00  0.00     0.060 A 
BRANCH  74  75
ATOM     75  S   UNL A   1      34.814  34.772  33.470  1.00  0.00     0.124 S 
ATOM     76  O   UNL A   1      35.011  34.469  34.884  1.00  0.00    -0.237 OA
ATOM     77  O   UNL A   1      35.119  36.138  33.062  1.00  0.00    -0.237 OA
ATOM     78  O   UNL A   1      33.604  34.205  32.879  1.00  0.00    -0.744 OA
ENDBRANCH  74  75
ENDBRANCH  53  67
BRANCH  54  79
ATOM     79  C   UNL A   1      45.185  26.132  27.751  1.00  0.00     0.058 A 
ATOM     80  C   UNL A   1      45.685  24.893  28.224  1.00  0.00     0.135 A 
ATOM     81  C   UNL A   1      44.578  26.117  26.489  1.00  0.00     0.135 A 
ATOM     82  F   UNL A   1      46.286  24.826  29.424  1.00  0.00    -0.206 F 
ATOM     83  C   UNL A   1      45.448  23.689  27.567  1.00  0.00     0.059 A 
ATOM     84  C   UNL A   1      44.363  24.916  25.788  1.00  0.00     0.059 A 
ATOM     85  F   UNL A   1      44.053  27.238  25.973  1.00  0.00    -0.206 F 
ATOM     86  C   UNL A   1      44.741  23.706  26.372  1.00  0.00     0.060 A 
BRANCH  86  87
ATOM     87  S   UNL A   1      44.174  22.109  25.728  1.00  0.00     0.124 S 
ATOM     88  O   UNL A   1      45.412  21.337  25.691  1.00  0.00    -0.237 OA
ATOM     89  O   UNL A   1      43.215  21.715  26.759  1.00  0.00    -0.237 OA
ATOM     90  O   UNL A   1      43.611  22.456  24.429  1.00  0.00    -0.744 OA
ENDBRANCH  86  87
ENDBRANCH  54  79
BRANCH  66  91
ATOM     91  C   UNL A   1      44.342  33.285  28.856  1.00  0.00     0.058 A 
ATOM     92  C   UNL A   1      44.967  34.261  29.643  1.00  0.00     0.135 A 
ATOM     93  C   UNL A   1      43.889  33.673  27.583  1.00  0.00     0.135 A 
ATOM     94  F   UNL A   1      45.425  33.954  30.868  1.00  0.00    -0.206 F 
ATOM     95  C   UNL A   1      45.125  35.567  29.199  1.00  0.00     0.059 A 
ATOM     96  C   UNL A   1      43.998  34.985  27.133  1.00  0.00     0.059 A 
ATOM     97  F   UNL A   1      43.315  32.784  26.756  1.00  0.00    -0.206 F 
ATOM     98  C   UNL A   1      44.624  35.924  27.948  1.00  0.00     0.060 A 
BRANCH  98  99
ATOM     99  S   UNL A   1      44.747  37.637  27.403  1.00  0.00     0.124 S 
ATOM    100  O   UNL A   1      45.957  37.633  26.584  1.00  0.00    -0.237 OA
ATOM    101  O   UNL A   1      43.494  37.801  26.675  1.00  0.00    -0.237 OA
ATOM    102  O   UNL A   1      44.853  38.375  28.658  1.00  0.00    -0.744 OA
ENDBRANCH  98  99
ENDBRANCH  66  91
ENDBRANCH  40  41
ENDBRANCH  33  35
ENDBRANCH  32  33
ENDBRANCH  31  32
ENDBRANCH  30  31
ENDBRANCH  29  30
ENDBRANCH   1  29
TORSDOF 23
ENDMDL
MODEL 2
REMARK VINA RESULT:     -12.1      3.778     10.665
REMARK SMILES Cc1c(CC(=O)OCCOCCOCCOC(=O)c2ccc(-c3c4nc(c(-c5c(F)cc(S(=O)(=O)[O-])cc5F)c5ccc([nH]5)c(-c5c(F)cc(S(=O)(=O)[O-])cc5F)c5nc(c(-c6c(F)cc(S(=O)(=O)[O-])cc6F)c6ccc3[nH]6)C=C5)C=C4)cc2)cc(-c2ccccc2)cc1-c1ccccc1
REMARK SMILES IDX 12 1 11 2 10 3 9 4 8 5 7 6 5 7 6 8 4 9 3 10 1 11 2 12 94 13
REMARK SMILES IDX 85 14 93 15 86 16 95 17 96 18 100 19 97 20 99 21 98 22 87 23
REMARK SMILES IDX 88 24 92 25 89 26 91 27 90 28 13 29 14 30 15 31 16 32 17 33
REMARK SMILES IDX 18 34 19 35 20 36 84 37 21 38 83 39 22 40 23 41 24 42 77 43
REMARK SMILES IDX 25 44 82 45 76 46 78 47 26 48 81 49 75 50 74 51 27 53 61 54
REMARK SMILES IDX 40 55 60 56 41 57 44 58 59 59 79 60 42 61 43 62 58 64 80 65
REMARK SMILES IDX 45 66 28 67 29 68 38 69 30 70 31 71 37 72 39 73 32 74 33 75
REMARK SMILES IDX 34 76 35 77 36 78 62 79 63 80 72 81 64 82 65 83 71 84 73 85
REMARK SMILES IDX 66 86 67 87 68 88 69 89 70 90 46 91 47 92 56 93 48 94 49 95
REMARK SMILES IDX 55 96 57 97 50 98 51 99 52 100 53 101 54 102
REMARK H PARENT 78 52 44 63
REMARK Flexibility Score: inf
ROOT
ATOM      1  C   UNL A   1      32.387  31.612  26.986  1.00  0.00     0.188 C 
ENDROOT
BRANCH   1   2
ATOM      2  C   UNL A   1      32.180  30.111  27.251  1.00  0.00     0.188 C 
BRANCH   2   3
ATOM      3  O   UNL A   1      32.157  29.078  26.232  1.00  0.00    -0.376 OA
BRANCH   3   4
ATOM      4  C   UNL A   1      32.365  27.664  26.442  1.00  0.00     0.202 C 
BRANCH   4   5
ATOM      5  C   UNL A   1      31.145  26.442  26.556  1.00  0.00     0.261 C 
BRANCH   5   6
ATOM      6  O   UNL A   1      31.207  24.863  27.149  1.00  0.00    -0.463 OA
BRANCH   6   7
ATOM      7  C   UNL A   1      30.651  23.567  26.890  1.00  0.00     0.310 C 
ATOM      8  O   UNL A   1      29.617  23.036  27.308  1.00  0.00    -0.252 OA
BRANCH   7   9
ATOM      9  C   UNL A   1      31.258  22.630  25.920  1.00  0.00     0.158 C 
BRANCH   9  10
ATOM     10  C   UNL A   1      32.485  23.126  25.310  1.00  0.00    -0.033 A 
ATOM     11  C   UNL A   1      33.869  21.305  26.399  1.00  0.00     0.045 C 
ATOM     12  C   UNL A   1      33.741  22.574  25.574  1.00  0.00    -0.039 A 
ATOM     13  C   UNL A   1      34.844  23.215  24.993  1.00  0.00    -0.015 A 
ATOM     14  C   UNL A   1      32.300  24.226  24.494  1.00  0.00     0.013 A 
ATOM     15  C   UNL A   1      34.652  24.396  24.227  1.00  0.00     0.017 A 
ATOM     16  C   UNL A   1      33.375  24.898  23.963  1.00  0.00    -0.017 A 
BRANCH  13  17
ATOM     17  C   UNL A   1      36.187  22.667  25.175  1.00  0.00    -0.018 A 
ATOM     18  C   UNL A   1      37.157  23.376  25.892  1.00  0.00     0.009 A 
ATOM     19  C   UNL A   1      36.489  21.377  24.707  1.00  0.00     0.009 A 
ATOM     20  C   UNL A   1      38.412  22.816  26.117  1.00  0.00     0.001 A 
ATOM     21  C   UNL A   1      37.739  20.812  24.943  1.00  0.00     0.001 A 
ATOM     22  C   UNL A   1      38.702  21.537  25.639  1.00  0.00     0.000 A 
ENDBRANCH  13  17
BRANCH  16  23
ATOM     23  C   UNL A   1      33.041  26.110  23.230  1.00  0.00    -0.018 A 
ATOM     24  C   UNL A   1      33.912  27.206  23.263  1.00  0.00     0.009 A 
ATOM     25  C   UNL A   1      31.730  26.298  22.757  1.00  0.00     0.009 A 
ATOM     26  C   UNL A   1      33.485  28.458  22.822  1.00  0.00     0.001 A 
ATOM     27  C   UNL A   1      31.301  27.550  22.326  1.00  0.00     0.001 A 
ATOM     28  C   UNL A   1      32.182  28.629  22.358  1.00  0.00     0.000 A 
ENDBRANCH  16  23
ENDBRANCH   9  10
ENDBRANCH   7   9
ENDBRANCH   6   7
ENDBRANCH   5   6
ENDBRANCH   4   5
ENDBRANCH   3   4
ENDBRANCH   2   3
ENDBRANCH   1   2
BRANCH   1  29
ATOM     29  O   UNL A   1      33.611  32.082  27.530  1.00  0.00    -0.376 OA
BRANCH  29  30
ATOM     30  C   UNL A   1      33.604  33.434  27.978  1.00  0.00     0.202 C 
BRANCH  30  31
ATOM     31  C   UNL A   1      34.492  33.729  29.216  1.00  0.00     0.261 C 
BRANCH  31  32
ATOM     32  O   UNL A   1      34.570  32.600  30.118  1.00  0.00    -0.460 OA
BRANCH  32  33
ATOM     33  C   UNL A   1      35.514  32.622  31.141  1.00  0.00     0.338 C 
ATOM     34  O   UNL A   1      35.468  33.407  32.042  1.00  0.00    -0.246 OA
BRANCH  33  35
ATOM     35  C   UNL A   1      36.476  31.457  30.965  1.00  0.00     0.060 A 
ATOM     36  C   UNL A   1      36.667  30.274  31.700  1.00  0.00     0.016 A 
ATOM     37  C   UNL A   1      37.397  31.642  30.004  1.00  0.00     0.016 A 
ATOM     38  C   UNL A   1      37.879  29.423  31.562  1.00  0.00     0.010 A 
ATOM     39  C   UNL A   1      38.589  30.942  30.100  1.00  0.00     0.010 A 
ATOM     40  C   UNL A   1      38.967  29.780  30.760  1.00  0.00    -0.014 A 
BRANCH  40  41
ATOM     41  C   UNL A   1      40.487  29.209  30.637  1.00  0.00     0.031 A 
ATOM     42  C   UNL A   1      41.233  27.835  29.969  1.00  0.00     0.074 A 
ATOM     43  C   UNL A   1      41.384  30.073  31.158  1.00  0.00     0.049 A 
ATOM     44  N   UNL A   1      42.441  27.416  30.312  1.00  0.00    -0.248 NA
ATOM     45  C   UNL A   1      40.737  26.790  28.988  1.00  0.00     0.031 C 
ATOM     46  C   UNL A   1      42.834  30.076  31.036  1.00  0.00     0.029 A 
ATOM     47  N   UNL A   1      41.119  31.089  32.078  1.00  0.00    -0.354 N 
ATOM     48  C   UNL A   1      42.788  26.314  29.518  1.00  0.00     0.074 A 
ATOM     49  C   UNL A   1      41.601  25.798  28.991  1.00  0.00     0.031 C 
ATOM     50  C   UNL A   1      43.342  30.794  32.049  1.00  0.00     0.029 A 
ATOM     51  C   UNL A   1      42.241  31.183  32.911  1.00  0.00     0.049 A 
ATOM     52  H   UNL A   1      40.302  31.635  32.130  1.00  0.00     0.167 HD
ATOM     53  C   UNL A   1      44.051  25.941  29.181  1.00  0.00     0.037 A 
ATOM     54  C   UNL A   1      42.077  30.874  34.230  1.00  0.00     0.037 A 
ATOM     55  C   UNL A   1      44.954  26.456  30.178  1.00  0.00     0.049 A 
ATOM     56  C   UNL A   1      42.771  29.577  34.601  1.00  0.00     0.074 A 
ATOM     57  C   UNL A   1      45.764  27.565  30.284  1.00  0.00     0.029 A 
ATOM     58  N   UNL A   1      44.752  25.995  31.468  1.00  0.00    -0.354 N 
ATOM     59  N   UNL A   1      43.642  28.956  33.845  1.00  0.00    -0.248 NA
ATOM     60  C   UNL A   1      42.497  28.842  35.837  1.00  0.00     0.031 C 
ATOM     61  C   UNL A   1      45.823  27.899  31.679  1.00  0.00     0.029 A 
ATOM     62  C   UNL A   1      45.114  26.949  32.401  1.00  0.00     0.049 A 
ATOM     63  H   UNL A   1      44.397  25.104  31.692  1.00  0.00     0.167 HD
ATOM     64  C   UNL A   1      43.925  27.736  34.387  1.00  0.00     0.074 A 
ATOM     65  C   UNL A   1      43.229  27.729  35.663  1.00  0.00     0.031 C 
ATOM     66  C   UNL A   1      44.656  26.763  33.771  1.00  0.00     0.037 A 
BRANCH  53  67
ATOM     67  C   UNL A   1      44.398  25.122  27.923  1.00  0.00     0.058 A 
ATOM     68  C   UNL A   1      44.844  23.791  28.028  1.00  0.00     0.135 A 
ATOM     69  C   UNL A   1      44.431  25.622  26.585  1.00  0.00     0.135 A 
ATOM     70  F   UNL A   1      44.936  23.200  29.229  1.00  0.00    -0.206 F 
ATOM     71  C   UNL A   1      45.261  23.026  26.919  1.00  0.00     0.059 A 
ATOM     72  C   UNL A   1      44.758  24.858  25.460  1.00  0.00     0.059 A 
ATOM     73  F   UNL A   1      44.238  26.916  26.291  1.00  0.00    -0.206 F 
ATOM     74  C   UNL A   1      45.209  23.566  25.636  1.00  0.00     0.060 A 
BRANCH  74  75
ATOM     75  S   UNL A   1      45.807  22.624  24.213  1.00  0.00     0.124 S 
ATOM     76  O   UNL A   1      46.791  23.539  23.643  1.00  0.00    -0.237 OA
ATOM     77  O   UNL A   1      46.342  21.417  24.832  1.00  0.00    -0.237 OA
ATOM     78  O   UNL A   1      44.606  22.424  23.405  1.00  0.00    -0.744 OA
ENDBRANCH  74  75
ENDBRANCH  53  67
BRANCH  54  79
ATOM     79  C   UNL A   1      40.804  31.465  34.770  1.00  0.00     0.058 A 
ATOM     80  C   UNL A   1      39.711  30.574  34.914  1.00  0.00     0.135 A 
ATOM     81  C   UNL A   1      40.722  32.670  35.481  1.00  0.00     0.135 A 
ATOM     82  F   UNL A   1      39.713  29.400  34.259  1.00  0.00    -0.206 F 
ATOM     83  C   UNL A   1      38.688  30.784  35.832  1.00  0.00     0.059 A 
ATOM     84  C   UNL A   1      39.675  32.922  36.386  1.00  0.00     0.059 A 
ATOM     85  F   UNL A   1      41.722  33.562  35.426  1.00  0.00    -0.206 F 
ATOM     86  C   UNL A   1      38.705  31.940  36.602  1.00  0.00     0.060 A 
BRANCH  86  87
ATOM     87  S   UNL A   1      37.553  32.017  37.999  1.00  0.00     0.124 S 
ATOM     88  O   UNL A   1      37.075  30.641  38.078  1.00  0.00    -0.237 OA
ATOM     89  O   UNL A   1      38.447  32.438  39.077  1.00  0.00    -0.237 OA
ATOM     90  O   UNL A   1      36.569  33.001  37.563  1.00  0.00    -0.744 OA
ENDBRANCH  86  87
ENDBRANCH  54  79
BRANCH  66  91
ATOM     91  C   UNL A   1      44.988  25.506  34.505  1.00  0.00     0.058 A 
ATOM     92  C   UNL A   1      46.314  25.266  34.891  1.00  0.00     0.135 A 
ATOM     93  C   UNL A   1      44.059  24.471  34.709  1.00  0.00     0.135 A 
ATOM     94  F   UNL A   1      47.250  26.215  34.725  1.00  0.00    -0.206 F 
ATOM     95  C   UNL A   1      46.708  24.053  35.438  1.00  0.00     0.059 A 
ATOM     96  C   UNL A   1      44.437  23.232  35.217  1.00  0.00     0.059 A 
ATOM     97  F   UNL A   1      42.762  24.639  34.401  1.00  0.00    -0.206 F 
ATOM     98  C   UNL A   1      45.765  23.036  35.585  1.00  0.00     0.060 A 
BRANCH  98  99
ATOM     99  S   UNL A   1      46.289  21.431  36.214  1.00  0.00     0.124 S 
ATOM    100  O   UNL A   1      45.474  20.495  35.444  1.00  0.00    -0.237 OA
ATOM    101  O   UNL A   1      47.711  21.442  35.889  1.00  0.00    -0.237 OA
ATOM    102  O   UNL A   1      45.963  21.510  37.634  1.00  0.00    -0.744 OA
ENDBRANCH  98  99
ENDBRANCH  66  91
ENDBRANCH  40  41
ENDBRANCH  33  35
ENDBRANCH  32  33
ENDBRANCH  31  32
ENDBRANCH  30  31
ENDBRANCH  29  30
ENDBRANCH   1  29
TORSDOF 23
ENDMDL
MODEL 3
REMARK VINA RESULT:     -11.6      3.719     10.443
REMARK SMILES Cc1c(CC(=O)OCCOCCOCCOC(=O)c2ccc(-c3c4nc(c(-c5c(F)cc(S(=O)(=O)[O-])cc5F)c5ccc([nH]5)c(-c5c(F)cc(S(=O)(=O)[O-])cc5F)c5nc(c(-c6c(F)cc(S(=O)(=O)[O-])cc6F)c6ccc3[nH]6)C=C5)C=C4)cc2)cc(-c2ccccc2)cc1-c1ccccc1
REMARK SMILES IDX 12 1 11 2 10 3 9 4 8 5 7 6 5 7 6 8 4 9 3 10 1 11 2 12 94 13
REMARK SMILES IDX 85 14 93 15 86 16 95 17 96 18 100 19 97 20 99 21 98 22 87 23
REMARK SMILES IDX 88 24 92 25 89 26 91 27 90 28 13 29 14 30 15 31 16 32 17 33
REMARK SMILES IDX 18 34 19 35 20 36 84 37 21 38 83 39 22 40 23 41 24 42 77 43
REMARK SMILES IDX 25 44 82 45 76 46 78 47 26 48 81 49 75 50 74 51 27 53 61 54
REMARK SMILES IDX 40 55 60 56 41 57 44 58 59 59 79 60 42 61 43 62 58 64 80 65
REMARK SMILES IDX 45 66 28 67 29 68 38 69 30 70 31 71 37 72 39 73 32 74 33 75
REMARK SMILES IDX 34 76 35 77 36 78 62 79 63 80 72 81 64 82 65 83 71 84 73 85
REMARK SMILES IDX 66 86 67 87 68 88 69 89 70 90 46 91 47 92 56 93 48 94 49 95
REMARK SMILES IDX 55 96 57 97 50 98 51 99 52 100 53 101 54 102
REMARK H PARENT 78 52 44 63
REMARK Flexibility Score: inf
ROOT
ATOM      1  C   UNL A   1      34.024  29.958  26.966  1.00  0.00     0.188 C 
ENDROOT
BRANCH   1   2
ATOM      2  C   UNL A   1      33.035  28.829  27.300  1.00  0.00     0.188 C 
BRANCH   2   3
ATOM      3  O   UNL A   1      32.327  28.023  26.324  1.00  0.00    -0.376 OA
BRANCH   3   4
ATOM      4  C   UNL A   1      32.739  26.734  25.816  1.00  0.00     0.202 C 
BRANCH   4   5
ATOM      5  C   UNL A   1      32.105  25.190  26.269  1.00  0.00     0.261 C 
BRANCH   5   6
ATOM      6  O   UNL A   1      31.601  23.878  25.333  1.00  0.00    -0.463 OA
BRANCH   6   7
ATOM      7  C   UNL A   1      31.443  23.501  23.959  1.00  0.00     0.310 C 
ATOM      8  O   UNL A   1      30.461  23.572  23.212  1.00  0.00    -0.252 OA
BRANCH   7   9
ATOM      9  C   UNL A   1      32.575  23.011  23.143  1.00  0.00     0.158 C 
BRANCH   9  10
ATOM     10  C   UNL A   1      33.541  22.216  23.891  1.00  0.00    -0.033 A 
ATOM     11  C   UNL A   1      35.034  24.226  24.272  1.00  0.00     0.045 C 
ATOM     12  C   UNL A   1      34.745  22.738  24.370  1.00  0.00    -0.039 A 
ATOM     13  C   UNL A   1      35.621  21.835  24.987  1.00  0.00    -0.015 A 
ATOM     14  C   UNL A   1      33.184  20.889  24.031  1.00  0.00     0.013 A 
ATOM     15  C   UNL A   1      35.283  20.456  25.049  1.00  0.00     0.017 A 
ATOM     16  C   UNL A   1      34.056  19.980  24.583  1.00  0.00    -0.017 A 
BRANCH  13  17
ATOM     17  C   UNL A   1      36.875  22.312  25.565  1.00  0.00    -0.018 A 
ATOM     18  C   UNL A   1      38.033  21.528  25.505  1.00  0.00     0.009 A 
ATOM     19  C   UNL A   1      36.953  23.606  26.107  1.00  0.00     0.009 A 
ATOM     20  C   UNL A   1      39.239  22.020  25.998  1.00  0.00     0.001 A 
ATOM     21  C   UNL A   1      38.160  24.102  26.588  1.00  0.00     0.001 A 
ATOM     22  C   UNL A   1      39.300  23.304  26.542  1.00  0.00     0.000 A 
ENDBRANCH  13  17
BRANCH  16  23
ATOM     23  C   UNL A   1      33.602  18.597  24.552  1.00  0.00    -0.018 A 
ATOM     24  C   UNL A   1      32.727  18.131  25.539  1.00  0.00     0.009 A 
ATOM     25  C   UNL A   1      34.271  17.664  23.740  1.00  0.00     0.009 A 
ATOM     26  C   UNL A   1      32.514  16.762  25.703  1.00  0.00     0.001 A 
ATOM     27  C   UNL A   1      34.066  16.297  23.909  1.00  0.00     0.001 A 
ATOM     28  C   UNL A   1      33.185  15.848  24.891  1.00  0.00     0.000 A 
ENDBRANCH  16  23
ENDBRANCH   9  10
ENDBRANCH   7   9
ENDBRANCH   6   7
ENDBRANCH   5   6
ENDBRANCH   4   5
ENDBRANCH   3   4
ENDBRANCH   2   3
ENDBRANCH   1   2
BRANCH   1  29
ATOM     29  O   UNL A   1      35.372  29.552  27.145  1.00  0.00    -0.376 OA
BRANCH  29  30
ATOM     30  C   UNL A   1      36.203  30.474  27.845  1.00  0.00     0.202 C 
BRANCH  30  31
ATOM     31  C   UNL A   1      35.735  30.837  29.279  1.00  0.00     0.261 C 
BRANCH  31  32
ATOM     32  O   UNL A   1      35.943  29.752  30.215  1.00  0.00    -0.460 OA
BRANCH  32  33
ATOM     33  C   UNL A   1      36.684  29.996  31.369  1.00  0.00     0.338 C 
ATOM     34  O   UNL A   1      36.179  30.338  32.398  1.00  0.00    -0.246 OA
BRANCH  33  35
ATOM     35  C   UNL A   1      38.142  29.645  31.114  1.00  0.00     0.060 A 
ATOM     36  C   UNL A   1      39.325  30.396  31.228  1.00  0.00     0.016 A 
ATOM     37  C   UNL A   1      38.330  28.434  30.562  1.00  0.00     0.016 A 
ATOM     38  C   UNL A   1      40.614  29.973  30.614  1.00  0.00     0.010 A 
ATOM     39  C   UNL A   1      39.485  28.225  29.826  1.00  0.00     0.010 A 
ATOM     40  C   UNL A   1      40.728  28.844  29.797  1.00  0.00    -0.014 A 
BRANCH  40  41
ATOM     41  C   UNL A   1      41.900  28.315  28.798  1.00  0.00     0.031 A 
ATOM     42  C   UNL A   1      42.649  26.826  28.464  1.00  0.00     0.074 A 
ATOM     43  C   UNL A   1      42.355  29.304  28.001  1.00  0.00     0.049 A 
ATOM     44  N   UNL A   1      43.826  26.714  27.868  1.00  0.00    -0.248 NA
ATOM     45  C   UNL A   1      42.262  25.399  28.803  1.00  0.00     0.031 C 
ATOM     46  C   UNL A   1      43.202  29.217  26.820  1.00  0.00     0.029 A 
ATOM     47  N   UNL A   1      42.238  30.676  28.231  1.00  0.00    -0.354 N 
ATOM     48  C   UNL A   1      44.113  25.356  27.670  1.00  0.00     0.074 A 
ATOM     49  C   UNL A   1      43.299  24.632  28.545  1.00  0.00     0.031 C 
ATOM     50  C   UNL A   1      43.776  30.413  26.622  1.00  0.00     0.029 A 
ATOM     51  C   UNL A   1      43.401  31.273  27.729  1.00  0.00     0.049 A 
ATOM     52  H   UNL A   1      41.483  31.136  28.664  1.00  0.00     0.167 HD
ATOM     53  C   UNL A   1      44.897  24.844  26.684  1.00  0.00     0.037 A 
ATOM     54  C   UNL A   1      44.236  31.882  28.620  1.00  0.00     0.037 A 
ATOM     55  C   UNL A   1      45.812  25.870  26.256  1.00  0.00     0.049 A 
ATOM     56  C   UNL A   1      45.534  31.118  28.797  1.00  0.00     0.074 A 
ATOM     57  C   UNL A   1      45.845  26.783  25.225  1.00  0.00     0.029 A 
ATOM     58  N   UNL A   1      46.681  26.344  27.226  1.00  0.00    -0.354 N 
ATOM     59  N   UNL A   1      45.940  30.150  28.014  1.00  0.00    -0.248 NA
ATOM     60  C   UNL A   1      46.459  31.347  29.908  1.00  0.00     0.031 C 
ATOM     61  C   UNL A   1      46.551  27.933  25.717  1.00  0.00     0.029 A 
ATOM     62  C   UNL A   1      46.998  27.671  27.004  1.00  0.00     0.049 A 
ATOM     63  H   UNL A   1      47.026  25.807  27.975  1.00  0.00     0.167 HD
ATOM     64  C   UNL A   1      47.043  29.558  28.559  1.00  0.00     0.074 A 
ATOM     65  C   UNL A   1      47.367  30.375  29.716  1.00  0.00     0.031 C 
ATOM     66  C   UNL A   1      47.616  28.410  28.097  1.00  0.00     0.037 A 
BRANCH  53  67
ATOM     67  C   UNL A   1      44.769  23.406  26.145  1.00  0.00     0.058 A 
ATOM     68  C   UNL A   1      45.900  22.576  26.024  1.00  0.00     0.135 A 
ATOM     69  C   UNL A   1      43.580  22.818  25.615  1.00  0.00     0.135 A 
ATOM     70  F   UNL A   1      47.105  23.014  26.414  1.00  0.00    -0.206 F 
ATOM     71  C   UNL A   1      45.854  21.287  25.453  1.00  0.00     0.059 A 
ATOM     72  C   UNL A   1      43.493  21.511  25.123  1.00  0.00     0.059 A 
ATOM     73  F   UNL A   1      42.442  23.507  25.451  1.00  0.00    -0.206 F 
ATOM     74  C   UNL A   1      44.643  20.759  25.011  1.00  0.00     0.060 A 
BRANCH  74  75
ATOM     75  S   UNL A   1      44.581  19.138  24.212  1.00  0.00     0.124 S 
ATOM     76  O   UNL A   1      43.456  18.511  24.900  1.00  0.00    -0.237 OA
ATOM     77  O   UNL A   1      44.362  19.479  22.812  1.00  0.00    -0.237 OA
ATOM     78  O   UNL A   1      45.889  18.558  24.510  1.00  0.00    -0.744 OA
ENDBRANCH  74  75
ENDBRANCH  53  67
BRANCH  54  79
ATOM     79  C   UNL A   1      43.460  32.692  29.621  1.00  0.00     0.058 A 
ATOM     80  C   UNL A   1      43.400  32.171  30.938  1.00  0.00     0.135 A 
ATOM     81  C   UNL A   1      43.141  34.049  29.475  1.00  0.00     0.135 A 
ATOM     82  F   UNL A   1      43.687  30.876  31.159  1.00  0.00    -0.206 F 
ATOM     83  C   UNL A   1      43.204  32.975  32.056  1.00  0.00     0.059 A 
ATOM     84  C   UNL A   1      42.900  34.874  30.589  1.00  0.00     0.059 A 
ATOM     85  F   UNL A   1      43.196  34.635  28.270  1.00  0.00    -0.206 F 
ATOM     86  C   UNL A   1      43.005  34.337  31.874  1.00  0.00     0.060 A 
BRANCH  86  87
ATOM     87  S   UNL A   1      43.084  35.386  33.350  1.00  0.00     0.124 S 
ATOM     88  O   UNL A   1      44.054  34.677  34.178  1.00  0.00    -0.237 OA
ATOM     89  O   UNL A   1      43.548  36.647  32.774  1.00  0.00    -0.237 OA
ATOM     90  O   UNL A   1      41.711  35.373  33.841  1.00  0.00    -0.744 OA
ENDBRANCH  86  87
ENDBRANCH  54  79
BRANCH  66  91
ATOM     91  C   UNL A   1      48.883  27.912  28.712  1.00  0.00     0.058 A 
ATOM     92  C   UNL A   1      48.824  27.179  29.906  1.00  0.00     0.135 A 
ATOM     93  C   UNL A   1      50.157  28.262  28.232  1.00  0.00     0.135 A 
ATOM     94  F   UNL A   1      47.638  26.811  30.417  1.00  0.00    -0.206 F 
ATOM     95  C   UNL A   1      49.971  26.822  30.602  1.00  0.00     0.059 A 
ATOM     96  C   UNL A   1      51.318  27.953  28.932  1.00  0.00     0.059 A 
ATOM     97  F   UNL A   1      50.297  28.931  27.074  1.00  0.00    -0.206 F 
ATOM     98  C   UNL A   1      51.214  27.226  30.114  1.00  0.00     0.060 A 
BRANCH  98  99
ATOM     99  S   UNL A   1      52.699  26.841  31.059  1.00  0.00     0.124 S 
ATOM    100  O   UNL A   1      52.191  25.997  32.138  1.00  0.00    -0.237 OA
ATOM    101  O   UNL A   1      53.512  26.160  30.057  1.00  0.00    -0.237 OA
ATOM    102  O   UNL A   1      53.176  28.156  31.475  1.00  0.00    -0.744 OA
ENDBRANCH  98  99
ENDBRANCH  66  91
ENDBRANCH  40  41
ENDBRANCH  33  35
ENDBRANCH  32  33
ENDBRANCH  31  32
ENDBRANCH  30  31
ENDBRANCH  29  30
ENDBRANCH   1  29
TORSDOF 23
ENDMDL
