MODEL 1
REMARK VINA RESULT:     -10.0      0.000      0.000
REMARK SMILES COc1ccc(C[N@@H+]2CCO[C@H](Cc3ccc(F)cc3)C2)cc1C(=O)OCCOCCOCCOC(=O)c1ccc(-c2c3nc(c(-c4c(F)cc(S(=O)(=O)[O-])cc4F)c4ccc([nH]4)c(-c4c(F)cc(S(=O)(=O)[O-])cc4F)c4nc(c(-c5c(F)cc(S(=O)(=O)[O-])cc5F)c5ccc2[nH]5)C=C4)C=C3)cc1
REMARK SMILES IDX 30 1 29 2 28 3 27 4 26 5 24 6 25 7 23 8 3 9 4 10 5 11 22 12
REMARK SMILES IDX 6 13 2 14 1 15 7 16 8 17 9 18 21 19 10 21 12 22 11 23 13 24
REMARK SMILES IDX 14 25 15 26 20 27 16 28 19 29 17 30 18 31 31 32 32 33 33 34
REMARK SMILES IDX 34 35 35 36 36 37 37 38 38 39 39 40 103 41 40 42 102 43
REMARK SMILES IDX 41 44 42 45 43 46 96 47 44 48 101 49 95 50 97 51 45 52
REMARK SMILES IDX 100 53 94 54 93 55 46 57 80 58 59 59 79 60 60 61 63 62 78 63
REMARK SMILES IDX 98 64 61 65 62 66 77 68 99 69 64 70 47 71 48 72 57 73 49 74
REMARK SMILES IDX 50 75 56 76 58 77 51 78 52 79 53 80 54 81 55 82 81 83 82 84
REMARK SMILES IDX 91 85 83 86 84 87 90 88 92 89 85 90 86 91 87 92 88 93 89 94
REMARK SMILES IDX 65 95 66 96 75 97 67 98 68 99 74 100 76 101 69 102 70 103
REMARK SMILES IDX 71 104 72 105 73 106
REMARK H PARENT 8 20 97 56 63 67
REMARK Flexibility Score: inf
ROOT
ATOM      1  C   UNL A   1      37.740  22.487  25.626  1.00  0.00     0.188 C 
ENDROOT
BRANCH   1   2
ATOM      2  O   UNL A   1      37.082  21.227  25.727  1.00  0.00    -0.376 OA
BRANCH   2   3
ATOM      3  C   UNL A   1      35.926  20.980  24.945  1.00  0.00     0.202 C 
BRANCH   3   4
ATOM      4  C   UNL A   1      35.098  22.197  24.539  1.00  0.00     0.261 C 
BRANCH   4   5
ATOM      5  O   UNL A   1      33.841  22.295  25.225  1.00  0.00    -0.460 OA
BRANCH   5   6
ATOM      6  C   UNL A   1      33.870  23.000  26.383  1.00  0.00     0.342 C 
ATOM      7  O   UNL A   1      34.441  22.697  27.415  1.00  0.00    -0.246 OA
BRANCH   6   8
ATOM      8  C   UNL A   1      33.124  24.263  26.236  1.00  0.00     0.102 A 
ATOM      9  C   UNL A   1      31.859  24.436  26.807  1.00  0.00     0.133 A 
ATOM     10  C   UNL A   1      31.323  25.725  26.876  1.00  0.00     0.048 A 
ATOM     11  C   UNL A   1      32.017  26.820  26.345  1.00  0.00     0.013 A 
ATOM     12  C   UNL A   1      33.813  25.365  25.684  1.00  0.00     0.029 A 
ATOM     13  C   UNL A   1      33.257  26.661  25.708  1.00  0.00     0.007 A 
BRANCH   9  14
ATOM     14  O   UNL A   1      31.147  23.469  27.463  1.00  0.00    -0.496 OA
ATOM     15  C   UNL A   1      29.878  23.179  26.881  1.00  0.00     0.278 C 
ENDBRANCH   9  14
BRANCH  13  16
ATOM     16  C   UNL A   1      34.024  27.853  25.151  1.00  0.00     0.299 C 
BRANCH  16  17
ATOM     17  N   UNL A   1      33.306  28.861  24.375  1.00  0.00    -0.327 N 
ATOM     18  C   UNL A   1      32.586  29.937  25.035  1.00  0.00     0.291 C 
ATOM     19  C   UNL A   1      32.758  28.546  23.055  1.00  0.00     0.295 C 
ATOM     20  H   UNL A   1      34.223  29.257  24.171  1.00  0.00     0.348 HD
ATOM     21  C   UNL A   1      31.060  29.756  24.992  1.00  0.00     0.222 C 
ATOM     22  C   UNL A   1      31.207  28.398  23.021  1.00  0.00     0.177 C 
ATOM     23  O   UNL A   1      30.571  29.514  23.668  1.00  0.00    -0.366 OA
BRANCH  22  24
ATOM     24  C   UNL A   1      30.814  27.045  23.620  1.00  0.00     0.073 C 
BRANCH  24  25
ATOM     25  C   UNL A   1      31.277  25.747  23.008  1.00  0.00    -0.045 A 
ATOM     26  C   UNL A   1      30.666  24.560  23.451  1.00  0.00     0.007 A 
ATOM     27  C   UNL A   1      32.389  25.659  22.167  1.00  0.00     0.007 A 
ATOM     28  C   UNL A   1      31.197  23.315  23.133  1.00  0.00     0.039 A 
ATOM     29  C   UNL A   1      32.932  24.408  21.858  1.00  0.00     0.039 A 
ATOM     30  C   UNL A   1      32.344  23.252  22.360  1.00  0.00     0.123 A 
ATOM     31  F   UNL A   1      32.901  22.059  22.112  1.00  0.00    -0.207 F 
ENDBRANCH  24  25
ENDBRANCH  22  24
ENDBRANCH  16  17
ENDBRANCH  13  16
ENDBRANCH   6   8
ENDBRANCH   5   6
ENDBRANCH   4   5
ENDBRANCH   3   4
ENDBRANCH   2   3
ENDBRANCH   1   2
BRANCH   1  32
ATOM     32  C   UNL A   1      38.991  22.787  26.473  1.00  0.00     0.188 C 
BRANCH  32  33
ATOM     33  O   UNL A   1      40.123  21.994  26.136  1.00  0.00    -0.376 OA
BRANCH  33  34
ATOM     34  C   UNL A   1      40.225  20.749  26.815  1.00  0.00     0.202 C 
BRANCH  34  35
ATOM     35  C   UNL A   1      40.753  19.652  25.888  1.00  0.00     0.261 C 
BRANCH  35  36
ATOM     36  O   UNL A   1      42.066  19.187  26.247  1.00  0.00    -0.460 OA
BRANCH  36  37
ATOM     37  C   UNL A   1      43.073  19.661  25.481  1.00  0.00     0.338 C 
ATOM     38  O   UNL A   1      43.598  19.105  24.532  1.00  0.00    -0.246 OA
BRANCH  37  39
ATOM     39  C   UNL A   1      43.321  21.065  25.852  1.00  0.00     0.060 A 
ATOM     40  C   UNL A   1      43.375  22.003  24.821  1.00  0.00     0.016 A 
ATOM     41  C   UNL A   1      43.527  21.457  27.175  1.00  0.00     0.016 A 
ATOM     42  C   UNL A   1      43.659  23.335  25.097  1.00  0.00     0.010 A 
ATOM     43  C   UNL A   1      43.822  22.797  27.454  1.00  0.00     0.010 A 
ATOM     44  C   UNL A   1      43.909  23.738  26.412  1.00  0.00    -0.014 A 
BRANCH  44  45
ATOM     45  C   UNL A   1      44.388  25.119  26.654  1.00  0.00     0.031 A 
ATOM     46  C   UNL A   1      43.430  26.144  27.191  1.00  0.00     0.074 A 
ATOM     47  C   UNL A   1      45.680  25.441  26.467  1.00  0.00     0.049 A 
ATOM     48  N   UNL A   1      43.640  27.398  27.494  1.00  0.00    -0.248 NA
ATOM     49  C   UNL A   1      42.050  25.688  27.423  1.00  0.00     0.031 C 
ATOM     50  C   UNL A   1      46.718  24.529  25.990  1.00  0.00     0.029 A 
ATOM     51  N   UNL A   1      46.337  26.630  26.661  1.00  0.00    -0.354 N 
ATOM     52  C   UNL A   1      42.423  27.886  27.951  1.00  0.00     0.074 A 
ATOM     53  C   UNL A   1      41.471  26.798  27.857  1.00  0.00     0.031 C 
ATOM     54  C   UNL A   1      47.882  25.197  25.912  1.00  0.00     0.029 A 
ATOM     55  C   UNL A   1      47.665  26.588  26.311  1.00  0.00     0.049 A 
ATOM     56  H   UNL A   1      45.899  27.437  27.015  1.00  0.00     0.167 HD
ATOM     57  C   UNL A   1      42.123  29.124  28.412  1.00  0.00     0.037 A 
ATOM     58  C   UNL A   1      48.594  27.563  26.294  1.00  0.00     0.037 A 
ATOM     59  C   UNL A   1      43.061  30.213  28.489  1.00  0.00     0.049 A 
ATOM     60  C   UNL A   1      48.229  28.947  26.763  1.00  0.00     0.074 A 
ATOM     61  C   UNL A   1      42.846  31.507  28.931  1.00  0.00     0.029 A 
ATOM     62  N   UNL A   1      44.392  30.140  28.104  1.00  0.00    -0.354 N 
ATOM     63  N   UNL A   1      47.074  29.394  27.195  1.00  0.00    -0.248 NA
ATOM     64  C   UNL A   1      49.298  29.955  26.750  1.00  0.00     0.031 C 
ATOM     65  C   UNL A   1      44.039  32.226  28.777  1.00  0.00     0.029 A 
ATOM     66  C   UNL A   1      45.008  31.369  28.282  1.00  0.00     0.049 A 
ATOM     67  H   UNL A   1      44.834  29.332  27.754  1.00  0.00     0.167 HD
ATOM     68  C   UNL A   1      47.280  30.732  27.519  1.00  0.00     0.074 A 
ATOM     69  C   UNL A   1      48.675  31.015  27.248  1.00  0.00     0.031 C 
ATOM     70  C   UNL A   1      46.395  31.643  27.997  1.00  0.00     0.037 A 
BRANCH  57  71
ATOM     71  C   UNL A   1      40.698  29.362  28.827  1.00  0.00     0.058 A 
ATOM     72  C   UNL A   1      39.668  29.507  27.883  1.00  0.00     0.135 A 
ATOM     73  C   UNL A   1      40.365  29.482  30.185  1.00  0.00     0.135 A 
ATOM     74  F   UNL A   1      39.938  29.421  26.570  1.00  0.00    -0.206 F 
ATOM     75  C   UNL A   1      38.367  29.812  28.268  1.00  0.00     0.059 A 
ATOM     76  C   UNL A   1      39.065  29.763  30.594  1.00  0.00     0.059 A 
ATOM     77  F   UNL A   1      41.312  29.355  31.127  1.00  0.00    -0.206 F 
ATOM     78  C   UNL A   1      38.079  29.951  29.627  1.00  0.00     0.060 A 
BRANCH  78  79
ATOM     79  S   UNL A   1      36.400  30.400  30.115  1.00  0.00     0.124 S 
ATOM     80  O   UNL A   1      36.531  31.842  30.304  1.00  0.00    -0.237 OA
ATOM     81  O   UNL A   1      35.612  29.982  28.960  1.00  0.00    -0.237 OA
ATOM     82  O   UNL A   1      36.182  29.625  31.332  1.00  0.00    -0.744 OA
ENDBRANCH  78  79
ENDBRANCH  57  71
BRANCH  58  83
ATOM     83  C   UNL A   1      49.960  27.261  25.796  1.00  0.00     0.058 A 
ATOM     84  C   UNL A   1      50.968  26.808  26.660  1.00  0.00     0.135 A 
ATOM     85  C   UNL A   1      50.273  27.392  24.434  1.00  0.00     0.135 A 
ATOM     86  F   UNL A   1      50.720  26.681  27.972  1.00  0.00    -0.206 F 
ATOM     87  C   UNL A   1      52.239  26.494  26.191  1.00  0.00     0.059 A 
ATOM     88  C   UNL A   1      51.529  27.061  23.938  1.00  0.00     0.059 A 
ATOM     89  F   UNL A   1      49.338  27.814  23.569  1.00  0.00    -0.206 F 
ATOM     90  C   UNL A   1      52.508  26.616  24.826  1.00  0.00     0.060 A 
BRANCH  90  91
ATOM     91  S   UNL A   1      54.133  26.124  24.212  1.00  0.00     0.124 S 
ATOM     92  O   UNL A   1      54.967  27.230  24.668  1.00  0.00    -0.237 OA
ATOM     93  O   UNL A   1      54.341  24.847  24.888  1.00  0.00    -0.237 OA
ATOM     94  O   UNL A   1      53.933  26.036  22.769  1.00  0.00    -0.744 OA
ENDBRANCH  90  91
ENDBRANCH  58  83
BRANCH  70  95
ATOM     95  C   UNL A   1      46.917  33.027  28.275  1.00  0.00     0.058 A 
ATOM     96  C   UNL A   1      46.875  34.042  27.306  1.00  0.00     0.135 A 
ATOM     97  C   UNL A   1      47.456  33.346  29.532  1.00  0.00     0.135 A 
ATOM     98  F   UNL A   1      46.371  33.791  26.087  1.00  0.00    -0.206 F 
ATOM     99  C   UNL A   1      47.386  35.312  27.558  1.00  0.00     0.059 A 
ATOM    100  C   UNL A   1      47.950  34.617  29.815  1.00  0.00     0.059 A 
ATOM    101  F   UNL A   1      47.508  32.419  30.501  1.00  0.00    -0.206 F 
ATOM    102  C   UNL A   1      47.929  35.587  28.815  1.00  0.00     0.060 A 
BRANCH 102 103
ATOM    103  S   UNL A   1      48.598  37.235  29.133  1.00  0.00     0.124 S 
ATOM    104  O   UNL A   1      47.390  38.052  29.098  1.00  0.00    -0.237 OA
ATOM    105  O   UNL A   1      49.219  37.076  30.445  1.00  0.00    -0.237 OA
ATOM    106  O   UNL A   1      49.529  37.440  28.027  1.00  0.00    -0.744 OA
ENDBRANCH 102 103
ENDBRANCH  70  95
ENDBRANCH  44  45
ENDBRANCH  37  39
ENDBRANCH  36  37
ENDBRANCH  35  36
ENDBRANCH  34  35
ENDBRANCH  33  34
ENDBRANCH  32  33
ENDBRANCH   1  32
TORSDOF 25
ENDMDL
MODEL 2
REMARK VINA RESULT:      -9.0      2.501      8.661
REMARK SMILES COc1ccc(C[N@@H+]2CCO[C@H](Cc3ccc(F)cc3)C2)cc1C(=O)OCCOCCOCCOC(=O)c1ccc(-c2c3nc(c(-c4c(F)cc(S(=O)(=O)[O-])cc4F)c4ccc([nH]4)c(-c4c(F)cc(S(=O)(=O)[O-])cc4F)c4nc(c(-c5c(F)cc(S(=O)(=O)[O-])cc5F)c5ccc2[nH]5)C=C4)C=C3)cc1
REMARK SMILES IDX 30 1 29 2 28 3 27 4 26 5 24 6 25 7 23 8 3 9 4 10 5 11 22 12
REMARK SMILES IDX 6 13 2 14 1 15 7 16 8 17 9 18 21 19 10 21 12 22 11 23 13 24
REMARK SMILES IDX 14 25 15 26 20 27 16 28 19 29 17 30 18 31 31 32 32 33 33 34
REMARK SMILES IDX 34 35 35 36 36 37 37 38 38 39 39 40 103 41 40 42 102 43
REMARK SMILES IDX 41 44 42 45 43 46 96 47 44 48 101 49 95 50 97 51 45 52
REMARK SMILES IDX 100 53 94 54 93 55 46 57 80 58 59 59 79 60 60 61 63 62 78 63
REMARK SMILES IDX 98 64 61 65 62 66 77 68 99 69 64 70 47 71 48 72 57 73 49 74
REMARK SMILES IDX 50 75 56 76 58 77 51 78 52 79 53 80 54 81 55 82 81 83 82 84
REMARK SMILES IDX 91 85 83 86 84 87 90 88 92 89 85 90 86 91 87 92 88 93 89 94
REMARK SMILES IDX 65 95 66 96 75 97 67 98 68 99 74 100 76 101 69 102 70 103
REMARK SMILES IDX 71 104 72 105 73 106
REMARK H PARENT 8 20 97 56 63 67
REMARK Flexibility Score: inf
ROOT
ATOM      1  C   UNL A   1      33.904  29.774  26.972  1.00  0.00     0.188 C 
ENDROOT
BRANCH   1   2
ATOM      2  O   UNL A   1      32.779  29.193  26.318  1.00  0.00    -0.376 OA
BRANCH   2   3
ATOM      3  C   UNL A   1      32.403  29.659  25.033  1.00  0.00     0.202 C 
BRANCH   3   4
ATOM      4  C   UNL A   1      31.079  29.143  24.475  1.00  0.00     0.261 C 
BRANCH   4   5
ATOM      5  O   UNL A   1      31.231  28.103  23.496  1.00  0.00    -0.460 OA
BRANCH   5   6
ATOM      6  C   UNL A   1      30.694  26.907  23.839  1.00  0.00     0.342 C 
ATOM      7  O   UNL A   1      29.616  26.458  23.495  1.00  0.00    -0.246 OA
BRANCH   6   8
ATOM      8  C   UNL A   1      31.626  26.149  24.693  1.00  0.00     0.102 A 
ATOM      9  C   UNL A   1      31.222  25.610  25.919  1.00  0.00     0.133 A 
ATOM     10  C   UNL A   1      32.051  24.679  26.550  1.00  0.00     0.048 A 
ATOM     11  C   UNL A   1      33.284  24.320  25.990  1.00  0.00     0.013 A 
ATOM     12  C   UNL A   1      32.878  25.800  24.141  1.00  0.00     0.029 A 
ATOM     13  C   UNL A   1      33.740  24.896  24.795  1.00  0.00     0.007 A 
BRANCH   9  14
ATOM     14  O   UNL A   1      29.995  25.790  26.498  1.00  0.00    -0.496 OA
ATOM     15  C   UNL A   1      29.309  24.579  26.805  1.00  0.00     0.278 C 
ENDBRANCH   9  14
BRANCH  13  16
ATOM     16  C   UNL A   1      35.070  24.491  24.173  1.00  0.00     0.299 C 
BRANCH  16  17
ATOM     17  N   UNL A   1      35.316  23.083  23.877  1.00  0.00    -0.327 N 
ATOM     18  C   UNL A   1      34.532  22.038  24.515  1.00  0.00     0.291 C 
ATOM     19  C   UNL A   1      36.644  22.619  23.473  1.00  0.00     0.295 C 
ATOM     20  H   UNL A   1      34.838  23.255  22.993  1.00  0.00     0.348 HD
ATOM     21  C   UNL A   1      35.311  21.275  25.598  1.00  0.00     0.222 C 
ATOM     22  C   UNL A   1      37.408  21.819  24.570  1.00  0.00     0.177 C 
ATOM     23  O   UNL A   1      36.574  20.789  25.129  1.00  0.00    -0.366 OA
BRANCH  22  24
ATOM     24  C   UNL A   1      37.954  22.792  25.619  1.00  0.00     0.073 C 
BRANCH  24  25
ATOM     25  C   UNL A   1      39.133  22.435  26.488  1.00  0.00    -0.045 A 
ATOM     26  C   UNL A   1      39.629  23.424  27.357  1.00  0.00     0.007 A 
ATOM     27  C   UNL A   1      39.852  21.246  26.341  1.00  0.00     0.007 A 
ATOM     28  C   UNL A   1      40.851  23.269  28.001  1.00  0.00     0.039 A 
ATOM     29  C   UNL A   1      41.087  21.096  26.976  1.00  0.00     0.039 A 
ATOM     30  C   UNL A   1      41.584  22.115  27.782  1.00  0.00     0.123 A 
ATOM     31  F   UNL A   1      42.795  21.993  28.341  1.00  0.00    -0.207 F 
ENDBRANCH  24  25
ENDBRANCH  22  24
ENDBRANCH  16  17
ENDBRANCH  13  16
ENDBRANCH   6   8
ENDBRANCH   5   6
ENDBRANCH   4   5
ENDBRANCH   3   4
ENDBRANCH   2   3
ENDBRANCH   1   2
BRANCH   1  32
ATOM     32  C   UNL A   1      33.729  30.993  27.896  1.00  0.00     0.188 C 
BRANCH  32  33
ATOM     33  O   UNL A   1      34.681  32.027  27.677  1.00  0.00    -0.376 OA
BRANCH  33  34
ATOM     34  C   UNL A   1      36.044  31.626  27.728  1.00  0.00     0.202 C 
BRANCH  34  35
ATOM     35  C   UNL A   1      36.658  31.914  29.101  1.00  0.00     0.261 C 
BRANCH  35  36
ATOM     36  O   UNL A   1      36.999  30.724  29.832  1.00  0.00    -0.460 OA
BRANCH  36  37
ATOM     37  C   UNL A   1      37.257  29.637  29.072  1.00  0.00     0.338 C 
ATOM     38  O   UNL A   1      36.444  28.895  28.551  1.00  0.00    -0.246 OA
BRANCH  37  39
ATOM     39  C   UNL A   1      38.705  29.591  28.801  1.00  0.00     0.060 A 
ATOM     40  C   UNL A   1      39.107  29.442  27.474  1.00  0.00     0.016 A 
ATOM     41  C   UNL A   1      39.653  29.660  29.823  1.00  0.00     0.016 A 
ATOM     42  C   UNL A   1      40.456  29.337  27.155  1.00  0.00     0.010 A 
ATOM     43  C   UNL A   1      41.012  29.546  29.505  1.00  0.00     0.010 A 
ATOM     44  C   UNL A   1      41.417  29.363  28.170  1.00  0.00    -0.014 A 
BRANCH  44  45
ATOM     45  C   UNL A   1      42.827  29.066  27.823  1.00  0.00     0.031 A 
ATOM     46  C   UNL A   1      43.859  30.150  27.954  1.00  0.00     0.074 A 
ATOM     47  C   UNL A   1      43.198  27.825  27.463  1.00  0.00     0.049 A 
ATOM     48  N   UNL A   1      45.145  30.103  27.726  1.00  0.00    -0.248 NA
ATOM     49  C   UNL A   1      43.373  31.461  28.413  1.00  0.00     0.031 C 
ATOM     50  C   UNL A   1      42.302  26.677  27.337  1.00  0.00     0.029 A 
ATOM     51  N   UNL A   1      44.435  27.326  27.139  1.00  0.00    -0.354 N 
ATOM     52  C   UNL A   1      45.626  31.374  28.009  1.00  0.00     0.074 A 
ATOM     53  C   UNL A   1      44.486  32.179  28.399  1.00  0.00     0.031 C 
ATOM     54  C   UNL A   1      43.017  25.608  26.947  1.00  0.00     0.029 A 
ATOM     55  C   UNL A   1      44.415  26.002  26.772  1.00  0.00     0.049 A 
ATOM     56  H   UNL A   1      45.258  27.866  27.165  1.00  0.00     0.167 HD
ATOM     57  C   UNL A   1      46.900  31.833  27.956  1.00  0.00     0.037 A 
ATOM     58  C   UNL A   1      45.406  25.206  26.327  1.00  0.00     0.037 A 
ATOM     59  C   UNL A   1      48.032  31.041  27.551  1.00  0.00     0.049 A 
ATOM     60  C   UNL A   1      46.808  25.746  26.226  1.00  0.00     0.074 A 
ATOM     61  C   UNL A   1      49.360  31.422  27.454  1.00  0.00     0.029 A 
ATOM     62  N   UNL A   1      47.971  29.710  27.164  1.00  0.00    -0.354 N 
ATOM     63  N   UNL A   1      47.249  26.951  26.500  1.00  0.00    -0.248 NA
ATOM     64  C   UNL A   1      47.846  24.816  25.765  1.00  0.00     0.031 C 
ATOM     65  C   UNL A   1      50.094  30.331  26.972  1.00  0.00     0.029 A 
ATOM     66  C   UNL A   1      49.233  29.258  26.812  1.00  0.00     0.049 A 
ATOM     67  H   UNL A   1      47.150  29.167  27.143  1.00  0.00     0.167 HD
ATOM     68  C   UNL A   1      48.620  26.919  26.257  1.00  0.00     0.074 A 
ATOM     69  C   UNL A   1      48.934  25.570  25.831  1.00  0.00     0.031 C 
ATOM     70  C   UNL A   1      49.533  27.916  26.377  1.00  0.00     0.037 A 
BRANCH  57  71
ATOM     71  C   UNL A   1      47.112  33.277  28.309  1.00  0.00     0.058 A 
ATOM     72  C   UNL A   1      47.521  33.671  29.594  1.00  0.00     0.135 A 
ATOM     73  C   UNL A   1      46.868  34.284  27.362  1.00  0.00     0.135 A 
ATOM     74  F   UNL A   1      47.748  32.749  30.544  1.00  0.00    -0.206 F 
ATOM     75  C   UNL A   1      47.633  35.014  29.942  1.00  0.00     0.059 A 
ATOM     76  C   UNL A   1      46.997  35.631  27.680  1.00  0.00     0.059 A 
ATOM     77  F   UNL A   1      46.472  33.961  26.121  1.00  0.00    -0.206 F 
ATOM     78  C   UNL A   1      47.355  35.987  28.980  1.00  0.00     0.060 A 
BRANCH  78  79
ATOM     79  S   UNL A   1      47.450  37.726  29.455  1.00  0.00     0.124 S 
ATOM     80  O   UNL A   1      48.826  37.818  29.935  1.00  0.00    -0.237 OA
ATOM     81  O   UNL A   1      47.170  38.412  28.198  1.00  0.00    -0.237 OA
ATOM     82  O   UNL A   1      46.418  37.853  30.479  1.00  0.00    -0.744 OA
ENDBRANCH  78  79
ENDBRANCH  57  71
BRANCH  58  83
ATOM     83  C   UNL A   1      45.095  23.810  25.926  1.00  0.00     0.058 A 
ATOM     84  C   UNL A   1      44.383  23.530  24.751  1.00  0.00     0.135 A 
ATOM     85  C   UNL A   1      45.534  22.725  26.702  1.00  0.00     0.135 A 
ATOM     86  F   UNL A   1      43.931  24.533  23.985  1.00  0.00    -0.206 F 
ATOM     87  C   UNL A   1      44.119  22.222  24.356  1.00  0.00     0.059 A 
ATOM     88  C   UNL A   1      45.302  21.410  26.316  1.00  0.00     0.059 A 
ATOM     89  F   UNL A   1      46.226  22.945  27.831  1.00  0.00    -0.206 F 
ATOM     90  C   UNL A   1      44.590  21.168  25.142  1.00  0.00     0.060 A 
BRANCH  90  91
ATOM     91  S   UNL A   1      44.317  19.475  24.578  1.00  0.00     0.124 S 
ATOM     92  O   UNL A   1      45.307  18.742  25.359  1.00  0.00    -0.237 OA
ATOM     93  O   UNL A   1      42.922  19.252  24.944  1.00  0.00    -0.237 OA
ATOM     94  O   UNL A   1      44.577  19.555  23.144  1.00  0.00    -0.744 OA
ENDBRANCH  90  91
ENDBRANCH  58  83
BRANCH  70  95
ATOM     95  C   UNL A   1      50.965  27.576  26.059  1.00  0.00     0.058 A 
ATOM     96  C   UNL A   1      51.782  26.892  26.973  1.00  0.00     0.135 A 
ATOM     97  C   UNL A   1      51.523  27.931  24.820  1.00  0.00     0.135 A 
ATOM     98  F   UNL A   1      51.300  26.531  28.172  1.00  0.00    -0.206 F 
ATOM     99  C   UNL A   1      53.114  26.606  26.686  1.00  0.00     0.059 A 
ATOM    100  C   UNL A   1      52.845  27.632  24.501  1.00  0.00     0.059 A 
ATOM    101  F   UNL A   1      50.783  28.573  23.903  1.00  0.00    -0.206 F 
ATOM    102  C   UNL A   1      53.639  26.988  25.449  1.00  0.00     0.060 A 
BRANCH 102 103
ATOM    103  S   UNL A   1      55.371  26.622  25.087  1.00  0.00     0.124 S 
ATOM    104  O   UNL A   1      56.051  27.701  25.795  1.00  0.00    -0.237 OA
ATOM    105  O   UNL A   1      55.537  25.287  25.653  1.00  0.00    -0.237 OA
ATOM    106  O   UNL A   1      55.431  26.690  23.630  1.00  0.00    -0.744 OA
ENDBRANCH 102 103
ENDBRANCH  70  95
ENDBRANCH  44  45
ENDBRANCH  37  39
ENDBRANCH  36  37
ENDBRANCH  35  36
ENDBRANCH  34  35
ENDBRANCH  33  34
ENDBRANCH  32  33
ENDBRANCH   1  32
TORSDOF 25
ENDMDL
MODEL 3
REMARK VINA RESULT:      -9.0      5.615     10.017
REMARK SMILES COc1ccc(C[N@@H+]2CCO[C@H](Cc3ccc(F)cc3)C2)cc1C(=O)OCCOCCOCCOC(=O)c1ccc(-c2c3nc(c(-c4c(F)cc(S(=O)(=O)[O-])cc4F)c4ccc([nH]4)c(-c4c(F)cc(S(=O)(=O)[O-])cc4F)c4nc(c(-c5c(F)cc(S(=O)(=O)[O-])cc5F)c5ccc2[nH]5)C=C4)C=C3)cc1
REMARK SMILES IDX 30 1 29 2 28 3 27 4 26 5 24 6 25 7 23 8 3 9 4 10 5 11 22 12
REMARK SMILES IDX 6 13 2 14 1 15 7 16 8 17 9 18 21 19 10 21 12 22 11 23 13 24
REMARK SMILES IDX 14 25 15 26 20 27 16 28 19 29 17 30 18 31 31 32 32 33 33 34
REMARK SMILES IDX 34 35 35 36 36 37 37 38 38 39 39 40 103 41 40 42 102 43
REMARK SMILES IDX 41 44 42 45 43 46 96 47 44 48 101 49 95 50 97 51 45 52
REMARK SMILES IDX 100 53 94 54 93 55 46 57 80 58 59 59 79 60 60 61 63 62 78 63
REMARK SMILES IDX 98 64 61 65 62 66 77 68 99 69 64 70 47 71 48 72 57 73 49 74
REMARK SMILES IDX 50 75 56 76 58 77 51 78 52 79 53 80 54 81 55 82 81 83 82 84
REMARK SMILES IDX 91 85 83 86 84 87 90 88 92 89 85 90 86 91 87 92 88 93 89 94
REMARK SMILES IDX 65 95 66 96 75 97 67 98 68 99 74 100 76 101 69 102 70 103
REMARK SMILES IDX 71 104 72 105 73 106
REMARK H PARENT 8 20 97 56 63 67
REMARK Flexibility Score: inf
ROOT
ATOM      1  C   UNL A   1      33.569  28.476  26.809  1.00  0.00     0.188 C 
ENDROOT
BRANCH   1   2
ATOM      2  O   UNL A   1      33.769  27.603  25.700  1.00  0.00    -0.376 OA
BRANCH   2   3
ATOM      3  C   UNL A   1      34.090  28.150  24.433  1.00  0.00     0.202 C 
BRANCH   3   4
ATOM      4  C   UNL A   1      33.063  29.091  23.810  1.00  0.00     0.261 C 
BRANCH   4   5
ATOM      5  O   UNL A   1      32.178  28.447  22.880  1.00  0.00    -0.460 OA
BRANCH   5   6
ATOM      6  C   UNL A   1      31.007  28.013  23.407  1.00  0.00     0.342 C 
ATOM      7  O   UNL A   1      30.058  28.694  23.751  1.00  0.00    -0.246 OA
BRANCH   6   8
ATOM      8  C   UNL A   1      30.991  26.542  23.487  1.00  0.00     0.102 A 
ATOM      9  C   UNL A   1      31.208  25.745  22.359  1.00  0.00     0.133 A 
ATOM     10  C   UNL A   1      31.456  24.381  22.536  1.00  0.00     0.048 A 
ATOM     11  C   UNL A   1      31.446  23.811  23.815  1.00  0.00     0.013 A 
ATOM     12  C   UNL A   1      30.961  25.961  24.773  1.00  0.00     0.029 A 
ATOM     13  C   UNL A   1      31.164  24.577  24.956  1.00  0.00     0.007 A 
BRANCH   9  14
ATOM     14  O   UNL A   1      31.363  26.207  21.080  1.00  0.00    -0.496 OA
ATOM     15  C   UNL A   1      32.503  25.686  20.402  1.00  0.00     0.278 C 
ENDBRANCH   9  14
BRANCH  13  16
ATOM     16  C   UNL A   1      31.175  23.963  26.350  1.00  0.00     0.299 C 
BRANCH  16  17
ATOM     17  N   UNL A   1      32.452  23.605  26.960  1.00  0.00    -0.327 N 
ATOM     18  C   UNL A   1      33.685  24.254  26.544  1.00  0.00     0.291 C 
ATOM     19  C   UNL A   1      32.679  22.266  27.502  1.00  0.00     0.295 C 
ATOM     20  H   UNL A   1      32.141  24.146  27.766  1.00  0.00     0.348 HD
ATOM     21  C   UNL A   1      34.582  23.349  25.684  1.00  0.00     0.222 C 
ATOM     22  C   UNL A   1      33.616  21.371  26.636  1.00  0.00     0.177 C 
ATOM     23  O   UNL A   1      34.823  22.075  26.292  1.00  0.00    -0.366 OA
BRANCH  22  24
ATOM     24  C   UNL A   1      32.844  20.859  25.417  1.00  0.00     0.073 C 
BRANCH  24  25
ATOM     25  C   UNL A   1      33.348  19.700  24.595  1.00  0.00    -0.045 A 
ATOM     26  C   UNL A   1      32.465  19.128  23.661  1.00  0.00     0.007 A 
ATOM     27  C   UNL A   1      34.569  19.068  24.842  1.00  0.00     0.007 A 
ATOM     28  C   UNL A   1      32.753  17.913  23.049  1.00  0.00     0.039 A 
ATOM     29  C   UNL A   1      34.853  17.840  24.238  1.00  0.00     0.039 A 
ATOM     30  C   UNL A   1      33.935  17.265  23.365  1.00  0.00     0.123 A 
ATOM     31  F   UNL A   1      34.183  16.060  22.835  1.00  0.00    -0.207 F 
ENDBRANCH  24  25
ENDBRANCH  22  24
ENDBRANCH  16  17
ENDBRANCH  13  16
ENDBRANCH   6   8
ENDBRANCH   5   6
ENDBRANCH   4   5
ENDBRANCH   3   4
ENDBRANCH   2   3
ENDBRANCH   1   2
BRANCH   1  32
ATOM     32  C   UNL A   1      32.211  29.170  27.023  1.00  0.00     0.188 C 
BRANCH  32  33
ATOM     33  O   UNL A   1      32.277  30.591  27.006  1.00  0.00    -0.376 OA
BRANCH  33  34
ATOM     34  C   UNL A   1      33.577  31.147  27.163  1.00  0.00     0.202 C 
BRANCH  34  35
ATOM     35  C   UNL A   1      33.528  32.464  27.941  1.00  0.00     0.261 C 
BRANCH  35  36
ATOM     36  O   UNL A   1      34.226  32.409  29.196  1.00  0.00    -0.460 OA
BRANCH  36  37
ATOM     37  C   UNL A   1      34.515  33.609  29.746  1.00  0.00     0.338 C 
ATOM     38  O   UNL A   1      33.723  34.461  30.108  1.00  0.00    -0.246 OA
BRANCH  37  39
ATOM     39  C   UNL A   1      35.961  33.657  30.027  1.00  0.00     0.060 A 
ATOM     40  C   UNL A   1      36.812  33.015  29.129  1.00  0.00     0.016 A 
ATOM     41  C   UNL A   1      36.476  34.289  31.160  1.00  0.00     0.016 A 
ATOM     42  C   UNL A   1      38.182  32.975  29.363  1.00  0.00     0.010 A 
ATOM     43  C   UNL A   1      37.854  34.243  31.403  1.00  0.00     0.010 A 
ATOM     44  C   UNL A   1      38.711  33.568  30.514  1.00  0.00    -0.014 A 
BRANCH  44  45
ATOM     45  C   UNL A   1      40.142  33.353  30.831  1.00  0.00     0.031 A 
ATOM     46  C   UNL A   1      41.164  34.313  30.292  1.00  0.00     0.074 A 
ATOM     47  C   UNL A   1      40.522  32.357  31.650  1.00  0.00     0.049 A 
ATOM     48  N   UNL A   1      42.460  34.326  30.463  1.00  0.00    -0.248 NA
ATOM     49  C   UNL A   1      40.652  35.409  29.456  1.00  0.00     0.031 C 
ATOM     50  C   UNL A   1      39.625  31.383  32.270  1.00  0.00     0.029 A 
ATOM     51  N   UNL A   1      41.769  32.002  32.099  1.00  0.00    -0.354 N 
ATOM     52  C   UNL A   1      42.924  35.428  29.754  1.00  0.00     0.074 A 
ATOM     53  C   UNL A   1      41.770  36.041  29.129  1.00  0.00     0.031 C 
ATOM     54  C   UNL A   1      40.354  30.530  33.009  1.00  0.00     0.029 A 
ATOM     55  C   UNL A   1      41.770  30.883  32.895  1.00  0.00     0.049 A 
ATOM     56  H   UNL A   1      42.586  32.503  31.873  1.00  0.00     0.167 HD
ATOM     57  C   UNL A   1      44.191  35.892  29.638  1.00  0.00     0.037 A 
ATOM     58  C   UNL A   1      42.794  30.207  33.450  1.00  0.00     0.037 A 
ATOM     59  C   UNL A   1      45.342  35.274  30.242  1.00  0.00     0.049 A 
ATOM     60  C   UNL A   1      44.202  30.709  33.268  1.00  0.00     0.074 A 
ATOM     61  C   UNL A   1      46.668  35.665  30.171  1.00  0.00     0.029 A 
ATOM     62  N   UNL A   1      45.307  34.127  31.023  1.00  0.00    -0.354 N 
ATOM     63  N   UNL A   1      44.626  31.754  32.598  1.00  0.00    -0.248 NA
ATOM     64  C   UNL A   1      45.270  29.944  33.927  1.00  0.00     0.031 C 
ATOM     65  C   UNL A   1      47.438  34.732  30.877  1.00  0.00     0.029 A 
ATOM     66  C   UNL A   1      46.588  33.786  31.426  1.00  0.00     0.049 A 
ATOM     67  H   UNL A   1      44.490  33.629  31.255  1.00  0.00     0.167 HD
ATOM     68  C   UNL A   1      46.008  31.780  32.765  1.00  0.00     0.074 A 
ATOM     69  C   UNL A   1      46.344  30.656  33.614  1.00  0.00     0.031 C 
ATOM     70  C   UNL A   1      46.914  32.656  32.261  1.00  0.00     0.037 A 
BRANCH  57  71
ATOM     71  C   UNL A   1      44.386  37.111  28.782  1.00  0.00     0.058 A 
ATOM     72  C   UNL A   1      44.747  37.013  27.427  1.00  0.00     0.135 A 
ATOM     73  C   UNL A   1      44.247  38.395  29.331  1.00  0.00     0.135 A 
ATOM     74  F   UNL A   1      44.913  35.807  26.858  1.00  0.00    -0.206 F 
ATOM     75  C   UNL A   1      45.010  38.143  26.661  1.00  0.00     0.059 A 
ATOM     76  C   UNL A   1      44.482  39.540  28.578  1.00  0.00     0.059 A 
ATOM     77  F   UNL A   1      43.907  38.544  30.621  1.00  0.00    -0.206 F 
ATOM     78  C   UNL A   1      44.888  39.403  27.251  1.00  0.00     0.060 A 
BRANCH  78  79
ATOM     79  S   UNL A   1      45.284  40.863  26.265  1.00  0.00     0.124 S 
ATOM     80  O   UNL A   1      45.025  41.934  27.222  1.00  0.00    -0.237 OA
ATOM     81  O   UNL A   1      46.686  40.643  25.925  1.00  0.00    -0.237 OA
ATOM     82  O   UNL A   1      44.350  40.779  25.147  1.00  0.00    -0.744 OA
ENDBRANCH  78  79
ENDBRANCH  57  71
BRANCH  58  83
ATOM     83  C   UNL A   1      42.519  28.966  34.219  1.00  0.00     0.058 A 
ATOM     84  C   UNL A   1      42.611  27.702  33.620  1.00  0.00     0.135 A 
ATOM     85  C   UNL A   1      42.186  29.026  35.582  1.00  0.00     0.135 A 
ATOM     86  F   UNL A   1      42.912  27.596  32.318  1.00  0.00    -0.206 F 
ATOM     87  C   UNL A   1      42.385  26.537  34.347  1.00  0.00     0.059 A 
ATOM     88  C   UNL A   1      41.979  27.875  36.334  1.00  0.00     0.059 A 
ATOM     89  F   UNL A   1      42.095  30.214  36.199  1.00  0.00    -0.206 F 
ATOM     90  C   UNL A   1      42.078  26.634  35.706  1.00  0.00     0.060 A 
BRANCH  90  91
ATOM     91  S   UNL A   1      41.871  25.115  36.660  1.00  0.00     0.124 S 
ATOM     92  O   UNL A   1      41.788  24.113  35.604  1.00  0.00    -0.237 OA
ATOM     93  O   UNL A   1      43.087  25.093  37.467  1.00  0.00    -0.237 OA
ATOM     94  O   UNL A   1      40.638  25.352  37.404  1.00  0.00    -0.744 OA
ENDBRANCH  90  91
ENDBRANCH  58  83
BRANCH  70  95
ATOM     95  C   UNL A   1      48.357  32.441  32.634  1.00  0.00     0.058 A 
ATOM     96  C   UNL A   1      48.916  33.015  33.786  1.00  0.00     0.135 A 
ATOM     97  C   UNL A   1      49.187  31.640  31.833  1.00  0.00     0.135 A 
ATOM     98  F   UNL A   1      48.167  33.791  34.585  1.00  0.00    -0.206 F 
ATOM     99  C   UNL A   1      50.258  32.837  34.110  1.00  0.00     0.059 A 
ATOM    100  C   UNL A   1      50.526  31.427  32.152  1.00  0.00     0.059 A 
ATOM    101  F   UNL A   1      48.701  31.054  30.728  1.00  0.00    -0.206 F 
ATOM    102  C   UNL A   1      51.057  32.047  33.282  1.00  0.00     0.060 A 
BRANCH 102 103
ATOM    103  S   UNL A   1      52.800  31.827  33.703  1.00  0.00     0.124 S 
ATOM    104  O   UNL A   1      53.087  33.069  34.414  1.00  0.00    -0.237 OA
ATOM    105  O   UNL A   1      52.777  30.619  34.522  1.00  0.00    -0.237 OA
ATOM    106  O   UNL A   1      53.446  31.683  32.402  1.00  0.00    -0.744 OA
ENDBRANCH 102 103
ENDBRANCH  70  95
ENDBRANCH  44  45
ENDBRANCH  37  39
ENDBRANCH  36  37
ENDBRANCH  35  36
ENDBRANCH  34  35
ENDBRANCH  33  34
ENDBRANCH  32  33
ENDBRANCH   1  32
TORSDOF 25
ENDMDL
