MODEL 1
REMARK VINA RESULT:     -11.1      0.000      0.000
REMARK SMILES NS(=O)(=O)c1ccc(-n2ccnc2-c2ccc(O)c(C(=O)OCCOCCOCCOC(=O)c3ccc(-c4c5nc(c(-c6c(F)cc(S(=O)(=O)[O-])cc6F)c6ccc([nH]6)c(-c6c(F)cc(S(=O)(=O)[O-])cc6F)c6nc(c(-c7c(F)cc(S(=O)(=O)[O-])cc7F)c7ccc4[nH]7)C=C6)C=C5)cc3)c2)cc1
REMARK SMILES IDX 26 1 25 2 24 3 23 4 22 5 20 6 21 7 19 8 14 9 15 10 100 11
REMARK SMILES IDX 16 12 17 13 13 14 9 15 10 16 11 17 12 18 8 19 5 20 6 21
REMARK SMILES IDX 102 22 7 23 101 24 2 25 3 26 4 27 1 28 18 31 27 33 28 34
REMARK SMILES IDX 29 35 30 36 31 37 32 38 33 39 34 40 35 41 99 42 36 43 98 44
REMARK SMILES IDX 37 45 38 46 39 47 92 48 40 49 97 50 91 51 93 52 41 53 96 54
REMARK SMILES IDX 90 55 89 56 42 58 76 59 55 60 75 61 56 62 59 63 74 64 94 65
REMARK SMILES IDX 57 66 58 67 73 69 95 70 60 71 43 72 44 73 53 74 45 75 46 76
REMARK SMILES IDX 52 77 54 78 47 79 48 80 49 81 50 82 51 83 77 84 78 85 87 86
REMARK SMILES IDX 79 87 80 88 86 89 88 90 81 91 82 92 83 93 84 94 85 95 61 96
REMARK SMILES IDX 62 97 71 98 63 99 64 100 70 101 72 102 65 103 66 104 67 105
REMARK SMILES IDX 68 106 69 107
REMARK H PARENT 1 29 1 30 18 32 93 57 59 68
REMARK Flexibility Score: inf
ROOT
ATOM      1  C   UNL A   1      34.303  23.365  26.128  1.00  0.00     0.188 C 
ENDROOT
BRANCH   1   2
ATOM      2  O   UNL A   1      32.936  23.737  26.122  1.00  0.00    -0.376 OA
BRANCH   2   3
ATOM      3  C   UNL A   1      32.528  25.057  25.808  1.00  0.00     0.202 C 
BRANCH   3   4
ATOM      4  C   UNL A   1      33.373  26.315  26.107  1.00  0.00     0.261 C 
BRANCH   4   5
ATOM      5  O   UNL A   1      32.714  27.421  26.737  1.00  0.00    -0.460 OA
BRANCH   5   6
ATOM      6  C   UNL A   1      33.421  28.570  26.814  1.00  0.00     0.342 C 
ATOM      7  O   UNL A   1      34.632  28.681  26.935  1.00  0.00    -0.246 OA
BRANCH   6   8
ATOM      8  C   UNL A   1      32.564  29.731  26.484  1.00  0.00     0.102 A 
ATOM      9  C   UNL A   1      30.860  30.813  25.119  1.00  0.00     0.019 A 
ATOM     10  C   UNL A   1      31.035  31.991  25.855  1.00  0.00     0.016 A 
ATOM     11  C   UNL A   1      31.678  29.702  25.402  1.00  0.00     0.031 A 
ATOM     12  C   UNL A   1      31.952  32.038  26.907  1.00  0.00     0.048 A 
ATOM     13  C   UNL A   1      32.688  30.903  27.240  1.00  0.00     0.130 A 
BRANCH   9  14
ATOM     14  C   UNL A   1      29.802  30.740  24.101  1.00  0.00     0.144 A 
ATOM     15  N   UNL A   1      29.776  29.826  23.050  1.00  0.00    -0.300 N 
ATOM     16  C   UNL A   1      28.786  30.239  22.188  1.00  0.00     0.113 A 
ATOM     17  C   UNL A   1      28.142  31.263  22.838  1.00  0.00     0.132 A 
ATOM     18  N   UNL A   1      28.761  31.552  24.024  1.00  0.00    -0.236 NA
BRANCH  15  19
ATOM     19  C   UNL A   1      30.596  28.683  22.881  1.00  0.00     0.047 A 
ATOM     20  C   UNL A   1      32.152  26.450  22.321  1.00  0.00     0.082 A 
ATOM     21  C   UNL A   1      32.715  27.722  22.207  1.00  0.00     0.024 A 
ATOM     22  C   UNL A   1      30.822  26.288  22.733  1.00  0.00     0.024 A 
ATOM     23  C   UNL A   1      31.932  28.842  22.483  1.00  0.00     0.028 A 
ATOM     24  C   UNL A   1      30.046  27.407  23.040  1.00  0.00     0.028 A 
BRANCH  20  25
ATOM     25  S   UNL A   1      33.081  25.008  21.894  1.00  0.00     0.238 S 
ATOM     26  O   UNL A   1      34.252  24.950  22.732  1.00  0.00    -0.207 OA
ATOM     27  O   UNL A   1      33.145  24.927  20.450  1.00  0.00    -0.207 OA
BRANCH  25  28
ATOM     28  N   UNL A   1      32.116  23.724  22.386  1.00  0.00    -0.225 NA
ATOM     29  H   UNL A   1      32.615  22.848  22.240  1.00  0.00     0.137 HD
ATOM     30  H   UNL A   1      31.253  23.720  21.841  1.00  0.00     0.137 HD
ENDBRANCH  25  28
ENDBRANCH  20  25
ENDBRANCH  15  19
ENDBRANCH   9  14
BRANCH  13  31
ATOM     31  O   UNL A   1      33.550  31.026  28.296  1.00  0.00    -0.507 OA
ATOM     32  H   UNL A   1      33.215  31.143  29.164  1.00  0.00     0.293 HD
ENDBRANCH  13  31
ENDBRANCH   6   8
ENDBRANCH   5   6
ENDBRANCH   4   5
ENDBRANCH   3   4
ENDBRANCH   2   3
ENDBRANCH   1   2
BRANCH   1  33
ATOM     33  C   UNL A   1      34.725  21.883  26.221  1.00  0.00     0.188 C 
BRANCH  33  34
ATOM     34  O   UNL A   1      35.529  21.408  25.165  1.00  0.00    -0.376 OA
BRANCH  34  35
ATOM     35  C   UNL A   1      36.845  20.929  25.388  1.00  0.00     0.202 C 
BRANCH  35  36
ATOM     36  C   UNL A   1      38.118  21.769  25.288  1.00  0.00     0.261 C 
BRANCH  36  37
ATOM     37  O   UNL A   1      38.390  22.649  26.355  1.00  0.00    -0.460 OA
BRANCH  37  38
ATOM     38  C   UNL A   1      39.635  22.517  26.858  1.00  0.00     0.338 C 
ATOM     39  O   UNL A   1      40.131  21.507  27.328  1.00  0.00    -0.246 OA
BRANCH  38  40
ATOM     40  C   UNL A   1      40.278  23.829  26.866  1.00  0.00     0.060 A 
ATOM     41  C   UNL A   1      41.467  23.925  27.587  1.00  0.00     0.016 A 
ATOM     42  C   UNL A   1      39.497  24.945  26.534  1.00  0.00     0.016 A 
ATOM     43  C   UNL A   1      41.730  25.117  28.218  1.00  0.00     0.010 A 
ATOM     44  C   UNL A   1      39.749  26.124  27.186  1.00  0.00     0.010 A 
ATOM     45  C   UNL A   1      40.803  26.158  28.095  1.00  0.00    -0.014 A 
BRANCH  45  46
ATOM     46  C   UNL A   1      41.044  27.371  28.841  1.00  0.00     0.031 A 
ATOM     47  C   UNL A   1      42.183  28.119  28.272  1.00  0.00     0.074 A 
ATOM     48  C   UNL A   1      40.251  27.776  29.852  1.00  0.00     0.049 A 
ATOM     49  N   UNL A   1      43.362  28.235  28.783  1.00  0.00    -0.248 NA
ATOM     50  C   UNL A   1      42.094  28.556  26.868  1.00  0.00     0.031 C 
ATOM     51  C   UNL A   1      38.991  27.186  30.308  1.00  0.00     0.029 A 
ATOM     52  N   UNL A   1      40.367  28.879  30.639  1.00  0.00    -0.354 N 
ATOM     53  C   UNL A   1      44.064  29.025  27.884  1.00  0.00     0.074 A 
ATOM     54  C   UNL A   1      43.345  28.958  26.642  1.00  0.00     0.031 C 
ATOM     55  C   UNL A   1      38.352  28.065  31.115  1.00  0.00     0.029 A 
ATOM     56  C   UNL A   1      39.204  29.222  31.328  1.00  0.00     0.049 A 
ATOM     57  H   UNL A   1      41.202  29.393  30.715  1.00  0.00     0.167 HD
ATOM     58  C   UNL A   1      44.967  29.933  28.341  1.00  0.00     0.037 A 
ATOM     59  C   UNL A   1      38.961  30.410  31.947  1.00  0.00     0.037 A 
ATOM     60  C   UNL A   1      45.381  29.609  29.687  1.00  0.00     0.049 A 
ATOM     61  C   UNL A   1      40.286  31.051  32.189  1.00  0.00     0.074 A 
ATOM     62  C   UNL A   1      45.935  28.491  30.285  1.00  0.00     0.029 A 
ATOM     63  N   UNL A   1      44.860  30.364  30.711  1.00  0.00    -0.354 N 
ATOM     64  N   UNL A   1      41.164  30.580  33.034  1.00  0.00    -0.248 NA
ATOM     65  C   UNL A   1      40.831  31.892  31.133  1.00  0.00     0.031 C 
ATOM     66  C   UNL A   1      45.305  28.401  31.560  1.00  0.00     0.029 A 
ATOM     67  C   UNL A   1      44.473  29.510  31.712  1.00  0.00     0.049 A 
ATOM     68  H   UNL A   1      44.779  31.345  30.724  1.00  0.00     0.167 HD
ATOM     69  C   UNL A   1      42.379  30.675  32.371  1.00  0.00     0.074 A 
ATOM     70  C   UNL A   1      42.122  31.558  31.232  1.00  0.00     0.031 C 
ATOM     71  C   UNL A   1      43.391  29.795  32.627  1.00  0.00     0.037 A 
BRANCH  58  72
ATOM     72  C   UNL A   1      45.109  31.322  27.759  1.00  0.00     0.058 A 
ATOM     73  C   UNL A   1      46.357  31.701  27.225  1.00  0.00     0.135 A 
ATOM     74  C   UNL A   1      44.191  32.378  27.962  1.00  0.00     0.135 A 
ATOM     75  F   UNL A   1      47.308  30.783  26.990  1.00  0.00    -0.206 F 
ATOM     76  C   UNL A   1      46.697  33.034  27.000  1.00  0.00     0.059 A 
ATOM     77  C   UNL A   1      44.490  33.706  27.693  1.00  0.00     0.059 A 
ATOM     78  F   UNL A   1      42.988  32.205  28.520  1.00  0.00    -0.206 F 
ATOM     79  C   UNL A   1      45.758  34.030  27.252  1.00  0.00     0.060 A 
BRANCH  79  80
ATOM     80  S   UNL A   1      46.217  35.755  27.043  1.00  0.00     0.124 S 
ATOM     81  O   UNL A   1      46.621  36.114  28.397  1.00  0.00    -0.237 OA
ATOM     82  O   UNL A   1      47.288  35.660  26.057  1.00  0.00    -0.237 OA
ATOM     83  O   UNL A   1      44.985  36.374  26.565  1.00  0.00    -0.744 OA
ENDBRANCH  79  80
ENDBRANCH  58  72
BRANCH  59  84
ATOM     84  C   UNL A   1      37.683  31.177  32.019  1.00  0.00     0.058 A 
ATOM     85  C   UNL A   1      37.158  31.616  33.251  1.00  0.00     0.135 A 
ATOM     86  C   UNL A   1      37.101  31.748  30.870  1.00  0.00     0.135 A 
ATOM     87  F   UNL A   1      37.657  31.143  34.404  1.00  0.00    -0.206 F 
ATOM     88  C   UNL A   1      36.161  32.597  33.338  1.00  0.00     0.059 A 
ATOM     89  C   UNL A   1      36.101  32.720  30.930  1.00  0.00     0.059 A 
ATOM     90  F   UNL A   1      37.551  31.450  29.642  1.00  0.00    -0.206 F 
ATOM     91  C   UNL A   1      35.655  33.162  32.168  1.00  0.00     0.060 A 
BRANCH  91  92
ATOM     92  S   UNL A   1      34.512  34.563  32.265  1.00  0.00     0.124 S 
ATOM     93  O   UNL A   1      33.387  33.987  32.993  1.00  0.00    -0.237 OA
ATOM     94  O   UNL A   1      35.299  35.557  32.987  1.00  0.00    -0.237 OA
ATOM     95  O   UNL A   1      34.248  34.883  30.864  1.00  0.00    -0.744 OA
ENDBRANCH  91  92
ENDBRANCH  59  84
BRANCH  71  96
ATOM     96  C   UNL A   1      43.289  28.926  33.855  1.00  0.00     0.058 A 
ATOM     97  C   UNL A   1      43.669  29.310  35.153  1.00  0.00     0.135 A 
ATOM     98  C   UNL A   1      42.665  27.677  33.715  1.00  0.00     0.135 A 
ATOM     99  F   UNL A   1      44.161  30.534  35.397  1.00  0.00    -0.206 F 
ATOM    100  C   UNL A   1      43.501  28.459  36.250  1.00  0.00     0.059 A 
ATOM    101  C   UNL A   1      42.454  26.830  34.797  1.00  0.00     0.059 A 
ATOM    102  F   UNL A   1      42.215  27.280  32.514  1.00  0.00    -0.206 F 
ATOM    103  C   UNL A   1      42.900  27.215  36.058  1.00  0.00     0.060 A 
BRANCH 103 104
ATOM    104  S   UNL A   1      42.674  26.112  37.469  1.00  0.00     0.124 S 
ATOM    105  O   UNL A   1      43.603  26.670  38.445  1.00  0.00    -0.237 OA
ATOM    106  O   UNL A   1      41.256  26.275  37.776  1.00  0.00    -0.237 OA
ATOM    107  O   UNL A   1      43.041  24.800  36.939  1.00  0.00    -0.744 OA
ENDBRANCH 103 104
ENDBRANCH  71  96
ENDBRANCH  45  46
ENDBRANCH  38  40
ENDBRANCH  37  38
ENDBRANCH  36  37
ENDBRANCH  35  36
ENDBRANCH  34  35
ENDBRANCH  33  34
ENDBRANCH   1  33
TORSDOF 25
ENDMDL
MODEL 2
REMARK VINA RESULT:     -11.1      3.091      9.639
REMARK SMILES NS(=O)(=O)c1ccc(-n2ccnc2-c2ccc(O)c(C(=O)OCCOCCOCCOC(=O)c3ccc(-c4c5nc(c(-c6c(F)cc(S(=O)(=O)[O-])cc6F)c6ccc([nH]6)c(-c6c(F)cc(S(=O)(=O)[O-])cc6F)c6nc(c(-c7c(F)cc(S(=O)(=O)[O-])cc7F)c7ccc4[nH]7)C=C6)C=C5)cc3)c2)cc1
REMARK SMILES IDX 26 1 25 2 24 3 23 4 22 5 20 6 21 7 19 8 14 9 15 10 100 11
REMARK SMILES IDX 16 12 17 13 13 14 9 15 10 16 11 17 12 18 8 19 5 20 6 21
REMARK SMILES IDX 102 22 7 23 101 24 2 25 3 26 4 27 1 28 18 31 27 33 28 34
REMARK SMILES IDX 29 35 30 36 31 37 32 38 33 39 34 40 35 41 99 42 36 43 98 44
REMARK SMILES IDX 37 45 38 46 39 47 92 48 40 49 97 50 91 51 93 52 41 53 96 54
REMARK SMILES IDX 90 55 89 56 42 58 76 59 55 60 75 61 56 62 59 63 74 64 94 65
REMARK SMILES IDX 57 66 58 67 73 69 95 70 60 71 43 72 44 73 53 74 45 75 46 76
REMARK SMILES IDX 52 77 54 78 47 79 48 80 49 81 50 82 51 83 77 84 78 85 87 86
REMARK SMILES IDX 79 87 80 88 86 89 88 90 81 91 82 92 83 93 84 94 85 95 61 96
REMARK SMILES IDX 62 97 71 98 63 99 64 100 70 101 72 102 65 103 66 104 67 105
REMARK SMILES IDX 68 106 69 107
REMARK H PARENT 1 29 1 30 18 32 93 57 59 68
REMARK Flexibility Score: inf
ROOT
ATOM      1  C   UNL A   1      30.736  29.327  24.023  1.00  0.00     0.188 C 
ENDROOT
BRANCH   1   2
ATOM      2  O   UNL A   1      30.945  28.806  22.721  1.00  0.00    -0.376 OA
BRANCH   2   3
ATOM      3  C   UNL A   1      30.817  27.422  22.447  1.00  0.00     0.202 C 
BRANCH   3   4
ATOM      4  C   UNL A   1      31.853  26.358  22.873  1.00  0.00     0.261 C 
BRANCH   4   5
ATOM      5  O   UNL A   1      31.393  25.277  23.694  1.00  0.00    -0.460 OA
BRANCH   5   6
ATOM      6  C   UNL A   1      31.334  25.521  25.022  1.00  0.00     0.342 C 
ATOM      7  O   UNL A   1      30.582  26.294  25.594  1.00  0.00    -0.246 OA
BRANCH   6   8
ATOM      8  C   UNL A   1      32.149  24.536  25.768  1.00  0.00     0.102 A 
ATOM      9  C   UNL A   1      34.227  23.316  26.133  1.00  0.00     0.019 A 
ATOM     10  C   UNL A   1      33.610  22.598  27.164  1.00  0.00     0.016 A 
ATOM     11  C   UNL A   1      33.466  24.244  25.395  1.00  0.00     0.031 A 
ATOM     12  C   UNL A   1      32.282  22.855  27.509  1.00  0.00     0.048 A 
ATOM     13  C   UNL A   1      31.567  23.842  26.836  1.00  0.00     0.130 A 
BRANCH   9  14
ATOM     14  C   UNL A   1      35.660  23.125  25.868  1.00  0.00     0.144 A 
ATOM     15  N   UNL A   1      36.237  21.925  25.457  1.00  0.00    -0.300 N 
ATOM     16  C   UNL A   1      37.599  22.080  25.566  1.00  0.00     0.113 A 
ATOM     17  C   UNL A   1      37.792  23.409  25.856  1.00  0.00     0.132 A 
ATOM     18  N   UNL A   1      36.594  24.050  26.019  1.00  0.00    -0.236 NA
BRANCH  15  19
ATOM     19  C   UNL A   1      35.570  20.758  25.007  1.00  0.00     0.047 A 
ATOM     20  C   UNL A   1      34.200  18.432  24.348  1.00  0.00     0.082 A 
ATOM     21  C   UNL A   1      33.507  19.642  24.402  1.00  0.00     0.024 A 
ATOM     22  C   UNL A   1      35.578  18.382  24.603  1.00  0.00     0.024 A 
ATOM     23  C   UNL A   1      34.194  20.808  24.737  1.00  0.00     0.028 A 
ATOM     24  C   UNL A   1      36.274  19.554  24.909  1.00  0.00     0.028 A 
BRANCH  20  25
ATOM     25  S   UNL A   1      33.352  16.916  24.016  1.00  0.00     0.238 S 
ATOM     26  O   UNL A   1      32.322  16.740  25.008  1.00  0.00    -0.207 OA
ATOM     27  O   UNL A   1      34.343  15.903  23.725  1.00  0.00    -0.207 OA
BRANCH  25  28
ATOM     28  N   UNL A   1      32.539  17.197  22.573  1.00  0.00    -0.225 NA
ATOM     29  H   UNL A   1      31.620  16.760  22.611  1.00  0.00     0.137 HD
ATOM     30  H   UNL A   1      33.074  16.800  21.800  1.00  0.00     0.137 HD
ENDBRANCH  25  28
ENDBRANCH  20  25
ENDBRANCH  15  19
ENDBRANCH   9  14
BRANCH  13  31
ATOM     31  O   UNL A   1      30.277  24.046  27.247  1.00  0.00    -0.507 OA
ATOM     32  H   UNL A   1      30.095  24.665  27.927  1.00  0.00     0.293 HD
ENDBRANCH  13  31
ENDBRANCH   6   8
ENDBRANCH   5   6
ENDBRANCH   4   5
ENDBRANCH   3   4
ENDBRANCH   2   3
ENDBRANCH   1   2
BRANCH   1  33
ATOM     33  C   UNL A   1      31.890  29.407  25.044  1.00  0.00     0.188 C 
BRANCH  33  34
ATOM     34  O   UNL A   1      31.884  30.536  25.888  1.00  0.00    -0.376 OA
BRANCH  34  35
ATOM     35  C   UNL A   1      32.601  30.556  27.111  1.00  0.00     0.202 C 
BRANCH  35  36
ATOM     36  C   UNL A   1      33.941  31.255  27.336  1.00  0.00     0.261 C 
BRANCH  36  37
ATOM     37  O   UNL A   1      34.001  32.205  28.376  1.00  0.00    -0.460 OA
BRANCH  37  38
ATOM     38  C   UNL A   1      34.863  31.872  29.360  1.00  0.00     0.338 C 
ATOM     39  O   UNL A   1      34.686  31.992  30.561  1.00  0.00    -0.246 OA
BRANCH  38  40
ATOM     40  C   UNL A   1      36.122  31.445  28.754  1.00  0.00     0.060 A 
ATOM     41  C   UNL A   1      36.287  30.071  28.584  1.00  0.00     0.016 A 
ATOM     42  C   UNL A   1      37.198  32.343  28.773  1.00  0.00     0.016 A 
ATOM     43  C   UNL A   1      37.557  29.565  28.714  1.00  0.00     0.010 A 
ATOM     44  C   UNL A   1      38.460  31.833  28.928  1.00  0.00     0.010 A 
ATOM     45  C   UNL A   1      38.604  30.449  28.997  1.00  0.00    -0.014 A 
BRANCH  45  46
ATOM     46  C   UNL A   1      39.917  29.894  29.225  1.00  0.00     0.031 A 
ATOM     47  C   UNL A   1      40.220  29.838  30.670  1.00  0.00     0.074 A 
ATOM     48  C   UNL A   1      40.689  29.414  28.232  1.00  0.00     0.049 A 
ATOM     49  N   UNL A   1      41.041  30.594  31.315  1.00  0.00    -0.248 NA
ATOM     50  C   UNL A   1      39.326  29.049  31.535  1.00  0.00     0.031 C 
ATOM     51  C   UNL A   1      40.347  29.246  26.817  1.00  0.00     0.029 A 
ATOM     52  N   UNL A   1      41.938  28.878  28.302  1.00  0.00    -0.354 N 
ATOM     53  C   UNL A   1      40.974  30.154  32.630  1.00  0.00     0.074 A 
ATOM     54  C   UNL A   1      39.744  29.420  32.745  1.00  0.00     0.031 C 
ATOM     55  C   UNL A   1      41.262  28.440  26.229  1.00  0.00     0.029 A 
ATOM     56  C   UNL A   1      42.312  28.133  27.185  1.00  0.00     0.049 A 
ATOM     57  H   UNL A   1      42.528  29.006  29.079  1.00  0.00     0.167 HD
ATOM     58  C   UNL A   1      42.096  30.136  33.396  1.00  0.00     0.037 A 
ATOM     59  C   UNL A   1      43.365  27.274  27.112  1.00  0.00     0.037 A 
ATOM     60  C   UNL A   1      43.104  31.014  32.848  1.00  0.00     0.049 A 
ATOM     61  C   UNL A   1      44.302  27.644  28.211  1.00  0.00     0.074 A 
ATOM     62  C   UNL A   1      43.139  32.356  32.514  1.00  0.00     0.029 A 
ATOM     63  N   UNL A   1      44.158  30.434  32.182  1.00  0.00    -0.354 N 
ATOM     64  N   UNL A   1      44.979  28.761  28.228  1.00  0.00    -0.248 NA
ATOM     65  C   UNL A   1      44.093  27.026  29.513  1.00  0.00     0.031 C 
ATOM     66  C   UNL A   1      43.901  32.421  31.312  1.00  0.00     0.029 A 
ATOM     67  C   UNL A   1      44.366  31.138  31.024  1.00  0.00     0.049 A 
ATOM     68  H   UNL A   1      44.673  29.651  32.483  1.00  0.00     0.167 HD
ATOM     69  C   UNL A   1      44.877  29.215  29.535  1.00  0.00     0.074 A 
ATOM     70  C   UNL A   1      44.382  28.069  30.298  1.00  0.00     0.031 C 
ATOM     71  C   UNL A   1      44.911  30.550  29.821  1.00  0.00     0.037 A 
BRANCH  58  72
ATOM     72  C   UNL A   1      42.431  29.005  34.343  1.00  0.00     0.058 A 
ATOM     73  C   UNL A   1      42.500  27.695  33.828  1.00  0.00     0.135 A 
ATOM     74  C   UNL A   1      42.397  29.099  35.754  1.00  0.00     0.135 A 
ATOM     75  F   UNL A   1      42.537  27.484  32.502  1.00  0.00    -0.206 F 
ATOM     76  C   UNL A   1      42.444  26.568  34.645  1.00  0.00     0.059 A 
ATOM     77  C   UNL A   1      42.395  27.991  36.589  1.00  0.00     0.059 A 
ATOM     78  F   UNL A   1      42.266  30.259  36.407  1.00  0.00    -0.206 F 
ATOM     79  C   UNL A   1      42.377  26.729  36.026  1.00  0.00     0.060 A 
BRANCH  79  80
ATOM     80  S   UNL A   1      42.221  25.282  37.082  1.00  0.00     0.124 S 
ATOM     81  O   UNL A   1      41.118  25.675  37.950  1.00  0.00    -0.237 OA
ATOM     82  O   UNL A   1      41.932  24.235  36.109  1.00  0.00    -0.237 OA
ATOM     83  O   UNL A   1      43.530  25.193  37.722  1.00  0.00    -0.744 OA
ENDBRANCH  79  80
ENDBRANCH  58  72
BRANCH  59  84
ATOM     84  C   UNL A   1      43.448  25.962  26.405  1.00  0.00     0.058 A 
ATOM     85  C   UNL A   1      44.406  25.730  25.396  1.00  0.00     0.135 A 
ATOM     86  C   UNL A   1      42.791  24.817  26.897  1.00  0.00     0.135 A 
ATOM     87  F   UNL A   1      45.097  26.754  24.874  1.00  0.00    -0.206 F 
ATOM     88  C   UNL A   1      44.729  24.442  24.948  1.00  0.00     0.059 A 
ATOM     89  C   UNL A   1      43.089  23.526  26.460  1.00  0.00     0.059 A 
ATOM     90  F   UNL A   1      41.898  24.904  27.894  1.00  0.00    -0.206 F 
ATOM     91  C   UNL A   1      44.080  23.341  25.506  1.00  0.00     0.060 A 
BRANCH  91  92
ATOM     92  S   UNL A   1      44.620  21.666  25.081  1.00  0.00     0.124 S 
ATOM     93  O   UNL A   1      45.965  21.628  25.644  1.00  0.00    -0.237 OA
ATOM     94  O   UNL A   1      43.623  20.838  25.751  1.00  0.00    -0.237 OA
ATOM     95  O   UNL A   1      44.557  21.650  23.621  1.00  0.00    -0.744 OA
ENDBRANCH  91  92
ENDBRANCH  59  84
BRANCH  71  96
ATOM     96  C   UNL A   1      45.375  31.500  28.746  1.00  0.00     0.058 A 
ATOM     97  C   UNL A   1      44.587  31.962  27.677  1.00  0.00     0.135 A 
ATOM     98  C   UNL A   1      46.658  32.053  28.880  1.00  0.00     0.135 A 
ATOM     99  F   UNL A   1      43.308  31.578  27.544  1.00  0.00    -0.206 F 
ATOM    100  C   UNL A   1      45.079  32.879  26.744  1.00  0.00     0.059 A 
ATOM    101  C   UNL A   1      47.155  32.994  27.985  1.00  0.00     0.059 A 
ATOM    102  F   UNL A   1      47.436  31.707  29.919  1.00  0.00    -0.206 F 
ATOM    103  C   UNL A   1      46.371  33.381  26.902  1.00  0.00     0.060 A 
BRANCH 103 104
ATOM    104  S   UNL A   1      47.013  34.570  25.705  1.00  0.00     0.124 S 
ATOM    105  O   UNL A   1      48.321  34.007  25.387  1.00  0.00    -0.237 OA
ATOM    106  O   UNL A   1      46.021  34.513  24.636  1.00  0.00    -0.237 OA
ATOM    107  O   UNL A   1      47.041  35.826  26.452  1.00  0.00    -0.744 OA
ENDBRANCH 103 104
ENDBRANCH  71  96
ENDBRANCH  45  46
ENDBRANCH  38  40
ENDBRANCH  37  38
ENDBRANCH  36  37
ENDBRANCH  35  36
ENDBRANCH  34  35
ENDBRANCH  33  34
ENDBRANCH   1  33
TORSDOF 25
ENDMDL
MODEL 3
REMARK VINA RESULT:      -9.9      3.973      8.225
REMARK SMILES NS(=O)(=O)c1ccc(-n2ccnc2-c2ccc(O)c(C(=O)OCCOCCOCCOC(=O)c3ccc(-c4c5nc(c(-c6c(F)cc(S(=O)(=O)[O-])cc6F)c6ccc([nH]6)c(-c6c(F)cc(S(=O)(=O)[O-])cc6F)c6nc(c(-c7c(F)cc(S(=O)(=O)[O-])cc7F)c7ccc4[nH]7)C=C6)C=C5)cc3)c2)cc1
REMARK SMILES IDX 26 1 25 2 24 3 23 4 22 5 20 6 21 7 19 8 14 9 15 10 100 11
REMARK SMILES IDX 16 12 17 13 13 14 9 15 10 16 11 17 12 18 8 19 5 20 6 21
REMARK SMILES IDX 102 22 7 23 101 24 2 25 3 26 4 27 1 28 18 31 27 33 28 34
REMARK SMILES IDX 29 35 30 36 31 37 32 38 33 39 34 40 35 41 99 42 36 43 98 44
REMARK SMILES IDX 37 45 38 46 39 47 92 48 40 49 97 50 91 51 93 52 41 53 96 54
REMARK SMILES IDX 90 55 89 56 42 58 76 59 55 60 75 61 56 62 59 63 74 64 94 65
REMARK SMILES IDX 57 66 58 67 73 69 95 70 60 71 43 72 44 73 53 74 45 75 46 76
REMARK SMILES IDX 52 77 54 78 47 79 48 80 49 81 50 82 51 83 77 84 78 85 87 86
REMARK SMILES IDX 79 87 80 88 86 89 88 90 81 91 82 92 83 93 84 94 85 95 61 96
REMARK SMILES IDX 62 97 71 98 63 99 64 100 70 101 72 102 65 103 66 104 67 105
REMARK SMILES IDX 68 106 69 107
REMARK H PARENT 1 29 1 30 18 32 93 57 59 68
REMARK Flexibility Score: inf
ROOT
ATOM      1  C   UNL A   1      32.783  27.634  24.477  1.00  0.00     0.188 C 
ENDROOT
BRANCH   1   2
ATOM      2  O   UNL A   1      32.455  26.255  24.492  1.00  0.00    -0.376 OA
BRANCH   2   3
ATOM      3  C   UNL A   1      33.168  25.332  25.296  1.00  0.00     0.202 C 
BRANCH   3   4
ATOM      4  C   UNL A   1      34.103  24.239  24.731  1.00  0.00     0.261 C 
BRANCH   4   5
ATOM      5  O   UNL A   1      35.417  24.137  25.294  1.00  0.00    -0.460 OA
BRANCH   5   6
ATOM      6  C   UNL A   1      36.290  23.347  24.630  1.00  0.00     0.342 C 
ATOM      7  O   UNL A   1      36.221  22.997  23.461  1.00  0.00    -0.246 OA
BRANCH   6   8
ATOM      8  C   UNL A   1      37.515  23.134  25.433  1.00  0.00     0.102 A 
ATOM      9  C   UNL A   1      39.356  23.975  26.790  1.00  0.00     0.019 A 
ATOM     10  C   UNL A   1      39.877  22.678  26.865  1.00  0.00     0.016 A 
ATOM     11  C   UNL A   1      38.203  24.204  26.014  1.00  0.00     0.031 A 
ATOM     12  C   UNL A   1      39.217  21.613  26.248  1.00  0.00     0.048 A 
ATOM     13  C   UNL A   1      38.025  21.837  25.563  1.00  0.00     0.130 A 
BRANCH   9  14
ATOM     14  C   UNL A   1      39.990  25.060  27.551  1.00  0.00     0.144 A 
ATOM     15  N   UNL A   1      41.366  25.227  27.696  1.00  0.00    -0.300 N 
ATOM     16  C   UNL A   1      41.551  26.181  28.670  1.00  0.00     0.113 A 
ATOM     17  C   UNL A   1      40.298  26.676  28.937  1.00  0.00     0.132 A 
ATOM     18  N   UNL A   1      39.345  25.996  28.229  1.00  0.00    -0.236 NA
BRANCH  15  19
ATOM     19  C   UNL A   1      42.394  24.559  26.987  1.00  0.00     0.047 A 
ATOM     20  C   UNL A   1      44.246  23.103  25.512  1.00  0.00     0.082 A 
ATOM     21  C   UNL A   1      43.570  24.163  24.906  1.00  0.00     0.024 A 
ATOM     22  C   UNL A   1      44.016  22.780  26.857  1.00  0.00     0.024 A 
ATOM     23  C   UNL A   1      42.638  24.889  25.645  1.00  0.00     0.028 A 
ATOM     24  C   UNL A   1      43.106  23.527  27.608  1.00  0.00     0.028 A 
BRANCH  20  25
ATOM     25  S   UNL A   1      45.370  22.098  24.588  1.00  0.00     0.238 S 
ATOM     26  O   UNL A   1      44.613  21.307  23.651  1.00  0.00    -0.207 OA
ATOM     27  O   UNL A   1      46.321  21.522  25.513  1.00  0.00    -0.207 OA
BRANCH  25  28
ATOM     28  N   UNL A   1      46.238  23.190  23.651  1.00  0.00    -0.225 NA
ATOM     29  H   UNL A   1      47.232  22.976  23.715  1.00  0.00     0.137 HD
ATOM     30  H   UNL A   1      46.070  24.137  23.992  1.00  0.00     0.137 HD
ENDBRANCH  25  28
ENDBRANCH  20  25
ENDBRANCH  15  19
ENDBRANCH   9  14
BRANCH  13  31
ATOM     31  O   UNL A   1      37.431  20.739  25.002  1.00  0.00    -0.507 OA
ATOM     32  H   UNL A   1      36.805  20.845  24.313  1.00  0.00     0.293 HD
ENDBRANCH  13  31
ENDBRANCH   6   8
ENDBRANCH   5   6
ENDBRANCH   4   5
ENDBRANCH   3   4
ENDBRANCH   2   3
ENDBRANCH   1   2
BRANCH   1  33
ATOM     33  C   UNL A   1      31.691  28.710  24.299  1.00  0.00     0.188 C 
BRANCH  33  34
ATOM     34  O   UNL A   1      31.589  29.656  25.340  1.00  0.00    -0.376 OA
BRANCH  34  35
ATOM     35  C   UNL A   1      32.688  29.955  26.185  1.00  0.00     0.202 C 
BRANCH  35  36
ATOM     36  C   UNL A   1      32.841  31.228  27.016  1.00  0.00     0.261 C 
BRANCH  36  37
ATOM     37  O   UNL A   1      34.102  31.464  27.601  1.00  0.00    -0.460 OA
BRANCH  37  38
ATOM     38  C   UNL A   1      34.176  32.635  28.267  1.00  0.00     0.338 C 
ATOM     39  O   UNL A   1      33.818  33.730  27.866  1.00  0.00    -0.246 OA
BRANCH  38  40
ATOM     40  C   UNL A   1      34.877  32.412  29.529  1.00  0.00     0.060 A 
ATOM     41  C   UNL A   1      34.883  33.480  30.426  1.00  0.00     0.016 A 
ATOM     42  C   UNL A   1      35.807  31.365  29.587  1.00  0.00     0.016 A 
ATOM     43  C   UNL A   1      35.999  33.641  31.210  1.00  0.00     0.010 A 
ATOM     44  C   UNL A   1      36.929  31.542  30.353  1.00  0.00     0.010 A 
ATOM     45  C   UNL A   1      37.050  32.727  31.074  1.00  0.00    -0.014 A 
BRANCH  45  46
ATOM     46  C   UNL A   1      38.255  32.963  31.834  1.00  0.00     0.031 A 
ATOM     47  C   UNL A   1      39.329  33.488  30.968  1.00  0.00     0.074 A 
ATOM     48  C   UNL A   1      38.318  32.803  33.170  1.00  0.00     0.049 A 
ATOM     49  N   UNL A   1      40.377  32.851  30.565  1.00  0.00    -0.248 NA
ATOM     50  C   UNL A   1      39.087  34.753  30.253  1.00  0.00     0.031 C 
ATOM     51  C   UNL A   1      37.227  32.498  34.099  1.00  0.00     0.029 A 
ATOM     52  N   UNL A   1      39.379  32.977  34.003  1.00  0.00    -0.354 N 
ATOM     53  C   UNL A   1      41.071  33.764  29.784  1.00  0.00     0.074 A 
ATOM     54  C   UNL A   1      40.124  34.781  29.416  1.00  0.00     0.031 C 
ATOM     55  C   UNL A   1      37.636  32.744  35.365  1.00  0.00     0.029 A 
ATOM     56  C   UNL A   1      39.043  33.109  35.349  1.00  0.00     0.049 A 
ATOM     57  H   UNL A   1      40.309  33.007  33.681  1.00  0.00     0.167 HD
ATOM     58  C   UNL A   1      42.430  33.781  29.808  1.00  0.00     0.037 A 
ATOM     59  C   UNL A   1      39.860  33.565  36.338  1.00  0.00     0.037 A 
ATOM     60  C   UNL A   1      42.948  32.529  30.309  1.00  0.00     0.049 A 
ATOM     61  C   UNL A   1      41.260  33.414  35.846  1.00  0.00     0.074 A 
ATOM     62  C   UNL A   1      42.793  31.203  29.943  1.00  0.00     0.029 A 
ATOM     63  N   UNL A   1      43.428  32.509  31.597  1.00  0.00    -0.354 N 
ATOM     64  N   UNL A   1      41.830  32.255  35.658  1.00  0.00    -0.248 NA
ATOM     65  C   UNL A   1      41.829  34.517  35.084  1.00  0.00     0.031 C 
ATOM     66  C   UNL A   1      42.731  30.484  31.172  1.00  0.00     0.029 A 
ATOM     67  C   UNL A   1      42.940  31.386  32.214  1.00  0.00     0.049 A 
ATOM     68  H   UNL A   1      44.019  33.183  32.005  1.00  0.00     0.167 HD
ATOM     69  C   UNL A   1      42.498  32.382  34.448  1.00  0.00     0.074 A 
ATOM     70  C   UNL A   1      42.521  33.820  34.177  1.00  0.00     0.031 C 
ATOM     71  C   UNL A   1      42.696  31.301  33.636  1.00  0.00     0.037 A 
BRANCH  58  72
ATOM     72  C   UNL A   1      43.240  35.058  29.818  1.00  0.00     0.058 A 
ATOM     73  C   UNL A   1      44.184  35.262  28.792  1.00  0.00     0.135 A 
ATOM     74  C   UNL A   1      43.347  35.935  30.923  1.00  0.00     0.135 A 
ATOM     75  F   UNL A   1      44.180  34.489  27.695  1.00  0.00    -0.206 F 
ATOM     76  C   UNL A   1      45.210  36.201  28.898  1.00  0.00     0.059 A 
ATOM     77  C   UNL A   1      44.326  36.913  31.024  1.00  0.00     0.059 A 
ATOM     78  F   UNL A   1      42.574  35.840  32.010  1.00  0.00    -0.206 F 
ATOM     79  C   UNL A   1      45.278  37.012  30.027  1.00  0.00     0.060 A 
BRANCH  79  80
ATOM     80  S   UNL A   1      46.644  38.166  30.209  1.00  0.00     0.124 S 
ATOM     81  O   UNL A   1      47.793  37.273  30.112  1.00  0.00    -0.237 OA
ATOM     82  O   UNL A   1      46.429  39.061  29.077  1.00  0.00    -0.237 OA
ATOM     83  O   UNL A   1      46.410  38.757  31.522  1.00  0.00    -0.744 OA
ENDBRANCH  79  80
ENDBRANCH  58  72
BRANCH  59  84
ATOM     84  C   UNL A   1      39.517  34.432  37.503  1.00  0.00     0.058 A 
ATOM     85  C   UNL A   1      39.378  33.900  38.801  1.00  0.00     0.135 A 
ATOM     86  C   UNL A   1      39.602  35.836  37.426  1.00  0.00     0.135 A 
ATOM     87  F   UNL A   1      39.305  32.572  38.981  1.00  0.00    -0.206 F 
ATOM     88  C   UNL A   1      39.383  34.703  39.949  1.00  0.00     0.059 A 
ATOM     89  C   UNL A   1      39.599  36.658  38.554  1.00  0.00     0.059 A 
ATOM     90  F   UNL A   1      39.789  36.458  36.252  1.00  0.00    -0.206 F 
ATOM     91  C   UNL A   1      39.519  36.084  39.815  1.00  0.00     0.060 A 
BRANCH  91  92
ATOM     92  S   UNL A   1      39.721  37.117  41.289  1.00  0.00     0.124 S 
ATOM     93  O   UNL A   1      39.080  36.306  42.318  1.00  0.00    -0.237 OA
ATOM     94  O   UNL A   1      41.172  37.241  41.385  1.00  0.00    -0.237 OA
ATOM     95  O   UNL A   1      39.017  38.349  40.939  1.00  0.00    -0.744 OA
ENDBRANCH  91  92
ENDBRANCH  59  84
BRANCH  71  96
ATOM     96  C   UNL A   1      42.467  29.926  34.209  1.00  0.00     0.058 A 
ATOM     97  C   UNL A   1      41.226  29.266  34.261  1.00  0.00     0.135 A 
ATOM     98  C   UNL A   1      43.595  29.201  34.623  1.00  0.00     0.135 A 
ATOM     99  F   UNL A   1      40.116  29.839  33.773  1.00  0.00    -0.206 F 
ATOM    100  C   UNL A   1      41.105  27.969  34.770  1.00  0.00     0.059 A 
ATOM    101  C   UNL A   1      43.502  27.897  35.099  1.00  0.00     0.059 A 
ATOM    102  F   UNL A   1      44.818  29.748  34.534  1.00  0.00    -0.206 F 
ATOM    103  C   UNL A   1      42.250  27.297  35.196  1.00  0.00     0.060 A 
BRANCH 103 104
ATOM    104  S   UNL A   1      42.104  25.621  35.849  1.00  0.00     0.124 S 
ATOM    105  O   UNL A   1      40.670  25.375  35.743  1.00  0.00    -0.237 OA
ATOM    106  O   UNL A   1      42.949  24.850  34.942  1.00  0.00    -0.237 OA
ATOM    107  O   UNL A   1      42.616  25.740  37.213  1.00  0.00    -0.744 OA
ENDBRANCH 103 104
ENDBRANCH  71  96
ENDBRANCH  45  46
ENDBRANCH  38  40
ENDBRANCH  37  38
ENDBRANCH  36  37
ENDBRANCH  35  36
ENDBRANCH  34  35
ENDBRANCH  33  34
ENDBRANCH   1  33
TORSDOF 25
ENDMDL
