MODEL 1
REMARK VINA RESULT:      -9.8      0.000      0.000
REMARK SMILES CNS(=O)(=O)c1cc(C(=O)OCCOCCOCCOC(=O)c2ccc(-c3c4nc(c(-c5c(F)cc(S(=O)(=O)[O-])cc5F)c5ccc([nH]5)c(-c5c(F)cc(S(=O)(=O)[O-])cc5F)c5nc(c(-c6c(F)cc(S(=O)(=O)[O-])cc6F)c6ccc3[nH]6)C=C5)C=C4)cc2)ccc1N(C)C
REMARK SMILES IDX 16 1 15 2 14 3 13 4 12 5 11 6 9 7 10 8 8 9 6 10 7 11 91 12
REMARK SMILES IDX 90 13 89 14 3 15 4 16 5 17 2 18 1 19 92 21 93 22 94 23 17 24
REMARK SMILES IDX 18 25 19 26 20 27 21 28 22 29 23 30 24 31 88 32 25 33 87 34
REMARK SMILES IDX 26 35 27 36 28 37 81 38 29 39 86 40 80 41 82 42 30 43 85 44
REMARK SMILES IDX 79 45 78 46 31 48 65 49 44 50 64 51 45 52 48 53 63 54 83 55
REMARK SMILES IDX 46 56 47 57 62 59 84 60 49 61 32 62 33 63 42 64 34 65 35 66
REMARK SMILES IDX 41 67 43 68 36 69 37 70 38 71 39 72 40 73 66 74 67 75 76 76
REMARK SMILES IDX 68 77 69 78 75 79 77 80 70 81 71 82 72 83 73 84 74 85 50 86
REMARK SMILES IDX 51 87 60 88 52 89 53 90 59 91 61 92 54 93 55 94 56 95 57 96
REMARK SMILES IDX 58 97
REMARK H PARENT 2 20 82 47 48 58
REMARK Flexibility Score: inf
ROOT
ATOM      1  C   UNL A   1      33.766  34.190  29.234  1.00  0.00     0.188 C 
ENDROOT
BRANCH   1   2
ATOM      2  C   UNL A   1      34.753  34.129  28.053  1.00  0.00     0.188 C 
BRANCH   2   3
ATOM      3  O   UNL A   1      35.256  32.879  27.633  1.00  0.00    -0.376 OA
BRANCH   3   4
ATOM      4  C   UNL A   1      34.417  31.736  27.594  1.00  0.00     0.202 C 
BRANCH   4   5
ATOM      5  C   UNL A   1      34.920  30.281  27.627  1.00  0.00     0.261 C 
BRANCH   5   6
ATOM      6  O   UNL A   1      34.450  29.414  26.587  1.00  0.00    -0.460 OA
BRANCH   6   7
ATOM      7  C   UNL A   1      33.243  28.833  26.809  1.00  0.00     0.338 C 
ATOM      8  O   UNL A   1      32.340  29.272  27.501  1.00  0.00    -0.246 OA
BRANCH   7   9
ATOM      9  C   UNL A   1      33.082  27.654  25.925  1.00  0.00     0.061 A 
ATOM     10  C   UNL A   1      31.972  26.642  23.953  1.00  0.00     0.106 A 
ATOM     11  C   UNL A   1      32.137  27.699  24.905  1.00  0.00     0.039 A 
ATOM     12  C   UNL A   1      32.693  25.426  24.094  1.00  0.00     0.056 A 
ATOM     13  C   UNL A   1      33.703  25.487  25.105  1.00  0.00     0.028 A 
ATOM     14  C   UNL A   1      33.900  26.550  26.004  1.00  0.00     0.018 A 
BRANCH  10  15
ATOM     15  S   UNL A   1      30.809  27.152  22.678  1.00  0.00     0.242 S 
ATOM     16  O   UNL A   1      29.475  27.022  23.226  1.00  0.00    -0.207 OA
ATOM     17  O   UNL A   1      31.125  26.659  21.364  1.00  0.00    -0.207 OA
BRANCH  15  18
ATOM     18  N   UNL A   1      31.187  28.789  22.498  1.00  0.00    -0.214 NA
ATOM     19  C   UNL A   1      30.166  29.725  22.045  1.00  0.00     0.120 C 
ATOM     20  H   UNL A   1      31.508  29.119  23.409  1.00  0.00     0.141 HD
ENDBRANCH  15  18
ENDBRANCH  10  15
BRANCH  12  21
ATOM     21  N   UNL A   1      32.534  24.210  23.433  1.00  0.00    -0.377 N 
ATOM     22  C   UNL A   1      33.202  23.872  22.167  1.00  0.00     0.143 C 
ATOM     23  C   UNL A   1      31.818  23.054  23.960  1.00  0.00     0.143 C 
ENDBRANCH  12  21
ENDBRANCH   7   9
ENDBRANCH   6   7
ENDBRANCH   5   6
ENDBRANCH   4   5
ENDBRANCH   3   4
ENDBRANCH   2   3
ENDBRANCH   1   2
BRANCH   1  24
ATOM     24  O   UNL A   1      34.241  34.623  30.487  1.00  0.00    -0.376 OA
BRANCH  24  25
ATOM     25  C   UNL A   1      35.162  33.828  31.217  1.00  0.00     0.202 C 
BRANCH  25  26
ATOM     26  C   UNL A   1      35.270  32.289  31.181  1.00  0.00     0.261 C 
BRANCH  26  27
ATOM     27  O   UNL A   1      36.408  31.698  30.549  1.00  0.00    -0.460 OA
BRANCH  27  28
ATOM     28  C   UNL A   1      36.856  30.543  31.106  1.00  0.00     0.338 C 
ATOM     29  O   UNL A   1      36.218  29.759  31.784  1.00  0.00    -0.246 OA
BRANCH  28  30
ATOM     30  C   UNL A   1      38.211  30.264  30.586  1.00  0.00     0.060 A 
ATOM     31  C   UNL A   1      38.412  30.291  29.201  1.00  0.00     0.016 A 
ATOM     32  C   UNL A   1      39.277  29.991  31.447  1.00  0.00     0.016 A 
ATOM     33  C   UNL A   1      39.687  30.069  28.679  1.00  0.00     0.010 A 
ATOM     34  C   UNL A   1      40.549  29.744  30.917  1.00  0.00     0.010 A 
ATOM     35  C   UNL A   1      40.768  29.789  29.531  1.00  0.00    -0.014 A 
BRANCH  35  36
ATOM     36  C   UNL A   1      42.096  29.446  28.956  1.00  0.00     0.031 A 
ATOM     37  C   UNL A   1      42.323  28.061  28.421  1.00  0.00     0.074 A 
ATOM     38  C   UNL A   1      43.083  30.360  28.874  1.00  0.00     0.049 A 
ATOM     39  N   UNL A   1      43.409  27.537  27.916  1.00  0.00    -0.248 NA
ATOM     40  C   UNL A   1      41.173  27.147  28.469  1.00  0.00     0.031 C 
ATOM     41  C   UNL A   1      42.975  31.754  29.300  1.00  0.00     0.029 A 
ATOM     42  N   UNL A   1      44.354  30.267  28.361  1.00  0.00    -0.354 N 
ATOM     43  C   UNL A   1      43.087  26.221  27.613  1.00  0.00     0.074 A 
ATOM     44  C   UNL A   1      41.697  26.034  27.979  1.00  0.00     0.031 C 
ATOM     45  C   UNL A   1      44.103  32.402  28.961  1.00  0.00     0.029 A 
ATOM     46  C   UNL A   1      45.058  31.449  28.396  1.00  0.00     0.049 A 
ATOM     47  H   UNL A   1      44.729  29.430  28.002  1.00  0.00     0.167 HD
ATOM     48  C   UNL A   1      43.882  25.248  27.107  1.00  0.00     0.037 A 
ATOM     49  C   UNL A   1      46.334  31.724  28.049  1.00  0.00     0.037 A 
ATOM     50  C   UNL A   1      45.276  25.423  26.788  1.00  0.00     0.049 A 
ATOM     51  C   UNL A   1      47.230  30.598  27.587  1.00  0.00     0.074 A 
ATOM     52  C   UNL A   1      46.172  24.484  26.309  1.00  0.00     0.029 A 
ATOM     53  N   UNL A   1      45.983  26.607  26.938  1.00  0.00    -0.354 N 
ATOM     54  N   UNL A   1      46.922  29.349  27.330  1.00  0.00    -0.248 NA
ATOM     55  C   UNL A   1      48.658  30.908  27.419  1.00  0.00     0.031 C 
ATOM     56  C   UNL A   1      47.433  25.081  26.232  1.00  0.00     0.029 A 
ATOM     57  C   UNL A   1      47.314  26.412  26.599  1.00  0.00     0.049 A 
ATOM     58  H   UNL A   1      45.597  27.461  27.241  1.00  0.00     0.167 HD
ATOM     59  C   UNL A   1      48.115  28.726  26.972  1.00  0.00     0.074 A 
ATOM     60  C   UNL A   1      49.146  29.743  27.016  1.00  0.00     0.031 C 
ATOM     61  C   UNL A   1      48.338  27.427  26.650  1.00  0.00     0.037 A 
BRANCH  48  62
ATOM     62  C   UNL A   1      43.272  23.882  26.955  1.00  0.00     0.058 A 
ATOM     63  C   UNL A   1      43.114  23.009  28.043  1.00  0.00     0.135 A 
ATOM     64  C   UNL A   1      42.866  23.429  25.688  1.00  0.00     0.135 A 
ATOM     65  F   UNL A   1      43.506  23.384  29.272  1.00  0.00    -0.206 F 
ATOM     66  C   UNL A   1      42.624  21.719  27.874  1.00  0.00     0.059 A 
ATOM     67  C   UNL A   1      42.342  22.155  25.501  1.00  0.00     0.059 A 
ATOM     68  F   UNL A   1      42.995  24.220  24.613  1.00  0.00    -0.206 F 
ATOM     69  C   UNL A   1      42.248  21.298  26.596  1.00  0.00     0.060 A 
BRANCH  69  70
ATOM     70  S   UNL A   1      41.663  19.604  26.385  1.00  0.00     0.124 S 
ATOM     71  O   UNL A   1      42.460  19.162  25.244  1.00  0.00    -0.237 OA
ATOM     72  O   UNL A   1      42.002  18.995  27.667  1.00  0.00    -0.237 OA
ATOM     73  O   UNL A   1      40.236  19.766  26.128  1.00  0.00    -0.744 OA
ENDBRANCH  69  70
ENDBRANCH  48  62
BRANCH  49  74
ATOM     74  C   UNL A   1      46.877  33.109  28.183  1.00  0.00     0.058 A 
ATOM     75  C   UNL A   1      47.464  33.547  29.381  1.00  0.00     0.135 A 
ATOM     76  C   UNL A   1      46.805  34.029  27.123  1.00  0.00     0.135 A 
ATOM     77  F   UNL A   1      47.529  32.723  30.436  1.00  0.00    -0.206 F 
ATOM     78  C   UNL A   1      47.963  34.840  29.521  1.00  0.00     0.059 A 
ATOM     79  C   UNL A   1      47.329  35.313  27.227  1.00  0.00     0.059 A 
ATOM     80  F   UNL A   1      46.244  33.671  25.958  1.00  0.00    -0.206 F 
ATOM     81  C   UNL A   1      47.900  35.714  28.434  1.00  0.00     0.060 A 
BRANCH  81  82
ATOM     82  S   UNL A   1      48.606  37.368  28.603  1.00  0.00     0.124 S 
ATOM     83  O   UNL A   1      47.606  38.186  27.927  1.00  0.00    -0.237 OA
ATOM     84  O   UNL A   1      48.684  37.520  30.052  1.00  0.00    -0.237 OA
ATOM     85  O   UNL A   1      49.892  37.254  27.922  1.00  0.00    -0.744 OA
ENDBRANCH  81  82
ENDBRANCH  49  74
BRANCH  61  86
ATOM     86  C   UNL A   1      49.749  27.012  26.316  1.00  0.00     0.058 A 
ATOM     87  C   UNL A   1      50.573  26.379  27.259  1.00  0.00     0.135 A 
ATOM     88  C   UNL A   1      50.248  27.164  25.011  1.00  0.00     0.135 A 
ATOM     89  F   UNL A   1      50.152  26.216  28.523  1.00  0.00    -0.206 F 
ATOM     90  C   UNL A   1      51.843  25.916  26.924  1.00  0.00     0.059 A 
ATOM     91  C   UNL A   1      51.503  26.682  24.646  1.00  0.00     0.059 A 
ATOM     92  F   UNL A   1      49.501  27.755  24.065  1.00  0.00    -0.206 F 
ATOM     93  C   UNL A   1      52.294  26.062  25.611  1.00  0.00     0.060 A 
BRANCH  93  94
ATOM     94  S   UNL A   1      53.912  25.388  25.174  1.00  0.00     0.124 S 
ATOM     95  O   UNL A   1      53.757  23.984  25.541  1.00  0.00    -0.237 OA
ATOM     96  O   UNL A   1      53.989  25.664  23.743  1.00  0.00    -0.237 OA
ATOM     97  O   UNL A   1      54.837  26.153  26.005  1.00  0.00    -0.744 OA
ENDBRANCH  93  94
ENDBRANCH  61  86
ENDBRANCH  35  36
ENDBRANCH  28  30
ENDBRANCH  27  28
ENDBRANCH  26  27
ENDBRANCH  25  26
ENDBRANCH  24  25
ENDBRANCH   1  24
TORSDOF 23
ENDMDL
MODEL 2
REMARK VINA RESULT:      -9.7      6.287     12.284
REMARK SMILES CNS(=O)(=O)c1cc(C(=O)OCCOCCOCCOC(=O)c2ccc(-c3c4nc(c(-c5c(F)cc(S(=O)(=O)[O-])cc5F)c5ccc([nH]5)c(-c5c(F)cc(S(=O)(=O)[O-])cc5F)c5nc(c(-c6c(F)cc(S(=O)(=O)[O-])cc6F)c6ccc3[nH]6)C=C5)C=C4)cc2)ccc1N(C)C
REMARK SMILES IDX 16 1 15 2 14 3 13 4 12 5 11 6 9 7 10 8 8 9 6 10 7 11 91 12
REMARK SMILES IDX 90 13 89 14 3 15 4 16 5 17 2 18 1 19 92 21 93 22 94 23 17 24
REMARK SMILES IDX 18 25 19 26 20 27 21 28 22 29 23 30 24 31 88 32 25 33 87 34
REMARK SMILES IDX 26 35 27 36 28 37 81 38 29 39 86 40 80 41 82 42 30 43 85 44
REMARK SMILES IDX 79 45 78 46 31 48 65 49 44 50 64 51 45 52 48 53 63 54 83 55
REMARK SMILES IDX 46 56 47 57 62 59 84 60 49 61 32 62 33 63 42 64 34 65 35 66
REMARK SMILES IDX 41 67 43 68 36 69 37 70 38 71 39 72 40 73 66 74 67 75 76 76
REMARK SMILES IDX 68 77 69 78 75 79 77 80 70 81 71 82 72 83 73 84 74 85 50 86
REMARK SMILES IDX 51 87 60 88 52 89 53 90 59 91 61 92 54 93 55 94 56 95 57 96
REMARK SMILES IDX 58 97
REMARK H PARENT 2 20 82 47 48 58
REMARK Flexibility Score: inf
ROOT
ATOM      1  C   UNL A   1      42.180  21.368  27.679  1.00  0.00     0.188 C 
ENDROOT
BRANCH   1   2
ATOM      2  C   UNL A   1      40.845  22.136  27.737  1.00  0.00     0.188 C 
BRANCH   2   3
ATOM      3  O   UNL A   1      40.208  22.511  26.535  1.00  0.00    -0.376 OA
BRANCH   3   4
ATOM      4  C   UNL A   1      39.071  21.803  26.066  1.00  0.00     0.202 C 
BRANCH   4   5
ATOM      5  C   UNL A   1      37.712  22.451  25.737  1.00  0.00     0.261 C 
BRANCH   5   6
ATOM      6  O   UNL A   1      37.067  22.018  24.534  1.00  0.00    -0.460 OA
BRANCH   6   7
ATOM      7  C   UNL A   1      35.835  21.469  24.695  1.00  0.00     0.338 C 
ATOM      8  O   UNL A   1      35.582  20.373  25.163  1.00  0.00    -0.246 OA
BRANCH   7   9
ATOM      9  C   UNL A   1      34.792  22.480  24.397  1.00  0.00     0.061 A 
ATOM     10  C   UNL A   1      32.773  23.702  25.154  1.00  0.00     0.106 A 
ATOM     11  C   UNL A   1      33.772  22.690  25.319  1.00  0.00     0.039 A 
ATOM     12  C   UNL A   1      32.706  24.460  23.954  1.00  0.00     0.056 A 
ATOM     13  C   UNL A   1      33.833  24.253  23.097  1.00  0.00     0.028 A 
ATOM     14  C   UNL A   1      34.843  23.296  23.289  1.00  0.00     0.018 A 
BRANCH  10  15
ATOM     15  S   UNL A   1      31.762  23.803  26.640  1.00  0.00     0.242 S 
ATOM     16  O   UNL A   1      31.443  25.198  26.858  1.00  0.00    -0.207 OA
ATOM     17  O   UNL A   1      32.218  22.966  27.718  1.00  0.00    -0.207 OA
BRANCH  15  18
ATOM     18  N   UNL A   1      30.368  22.973  26.167  1.00  0.00    -0.214 NA
ATOM     19  C   UNL A   1      29.353  22.636  27.157  1.00  0.00     0.120 C 
ATOM     20  H   UNL A   1      29.910  23.546  25.458  1.00  0.00     0.141 HD
ENDBRANCH  15  18
ENDBRANCH  10  15
BRANCH  12  21
ATOM     21  N   UNL A   1      31.712  25.321  23.494  1.00  0.00    -0.377 N 
ATOM     22  C   UNL A   1      31.981  26.619  22.857  1.00  0.00     0.143 C 
ATOM     23  C   UNL A   1      30.288  25.006  23.437  1.00  0.00     0.143 C 
ENDBRANCH  12  21
ENDBRANCH   7   9
ENDBRANCH   6   7
ENDBRANCH   5   6
ENDBRANCH   4   5
ENDBRANCH   3   4
ENDBRANCH   2   3
ENDBRANCH   1   2
BRANCH   1  24
ATOM     24  O   UNL A   1      42.705  21.027  26.417  1.00  0.00    -0.376 OA
BRANCH  24  25
ATOM     25  C   UNL A   1      43.647  21.876  25.782  1.00  0.00     0.202 C 
BRANCH  25  26
ATOM     26  C   UNL A   1      43.417  23.342  25.357  1.00  0.00     0.261 C 
BRANCH  26  27
ATOM     27  O   UNL A   1      43.233  24.327  26.376  1.00  0.00    -0.460 OA
BRANCH  27  28
ATOM     28  C   UNL A   1      42.631  25.479  25.980  1.00  0.00     0.338 C 
ATOM     29  O   UNL A   1      42.266  25.766  24.854  1.00  0.00    -0.246 OA
BRANCH  28  30
ATOM     30  C   UNL A   1      42.286  26.268  27.180  1.00  0.00     0.060 A 
ATOM     31  C   UNL A   1      42.947  27.483  27.392  1.00  0.00     0.016 A 
ATOM     32  C   UNL A   1      41.317  25.826  28.085  1.00  0.00     0.016 A 
ATOM     33  C   UNL A   1      42.617  28.270  28.497  1.00  0.00     0.010 A 
ATOM     34  C   UNL A   1      41.008  26.608  29.205  1.00  0.00     0.010 A 
ATOM     35  C   UNL A   1      41.648  27.839  29.417  1.00  0.00    -0.014 A 
BRANCH  35  36
ATOM     36  C   UNL A   1      41.387  28.634  30.646  1.00  0.00     0.031 A 
ATOM     37  C   UNL A   1      40.240  29.604  30.657  1.00  0.00     0.074 A 
ATOM     38  C   UNL A   1      42.132  28.475  31.757  1.00  0.00     0.049 A 
ATOM     39  N   UNL A   1      39.858  30.424  31.601  1.00  0.00    -0.248 NA
ATOM     40  C   UNL A   1      39.421  29.660  29.437  1.00  0.00     0.031 C 
ATOM     41  C   UNL A   1      43.235  27.526  31.900  1.00  0.00     0.029 A 
ATOM     42  N   UNL A   1      42.047  29.075  32.990  1.00  0.00    -0.354 N 
ATOM     43  C   UNL A   1      38.773  31.117  31.081  1.00  0.00     0.074 A 
ATOM     44  C   UNL A   1      38.550  30.609  29.743  1.00  0.00     0.031 C 
ATOM     45  C   UNL A   1      43.671  27.554  33.172  1.00  0.00     0.029 A 
ATOM     46  C   UNL A   1      42.958  28.598  33.906  1.00  0.00     0.049 A 
ATOM     47  H   UNL A   1      41.394  29.781  33.201  1.00  0.00     0.167 HD
ATOM     48  C   UNL A   1      38.048  32.109  31.653  1.00  0.00     0.037 A 
ATOM     49  C   UNL A   1      43.213  28.984  35.175  1.00  0.00     0.037 A 
ATOM     50  C   UNL A   1      38.300  32.645  32.966  1.00  0.00     0.049 A 
ATOM     51  C   UNL A   1      42.462  30.162  35.751  1.00  0.00     0.074 A 
ATOM     52  C   UNL A   1      37.644  33.677  33.613  1.00  0.00     0.029 A 
ATOM     53  N   UNL A   1      39.301  32.211  33.823  1.00  0.00    -0.354 N 
ATOM     54  N   UNL A   1      41.455  30.830  35.241  1.00  0.00    -0.248 NA
ATOM     55  C   UNL A   1      42.917  30.671  37.054  1.00  0.00     0.031 C 
ATOM     56  C   UNL A   1      38.288  33.911  34.831  1.00  0.00     0.029 A 
ATOM     57  C   UNL A   1      39.306  32.981  34.977  1.00  0.00     0.049 A 
ATOM     58  H   UNL A   1      39.918  31.466  33.640  1.00  0.00     0.167 HD
ATOM     59  C   UNL A   1      41.159  31.836  36.158  1.00  0.00     0.074 A 
ATOM     60  C   UNL A   1      42.073  31.670  37.269  1.00  0.00     0.031 C 
ATOM     61  C   UNL A   1      40.223  32.816  36.079  1.00  0.00     0.037 A 
BRANCH  48  62
ATOM     62  C   UNL A   1      36.968  32.732  30.814  1.00  0.00     0.058 A 
ATOM     63  C   UNL A   1      37.257  33.613  29.759  1.00  0.00     0.135 A 
ATOM     64  C   UNL A   1      35.617  32.465  31.091  1.00  0.00     0.135 A 
ATOM     65  F   UNL A   1      38.531  33.920  29.465  1.00  0.00    -0.206 F 
ATOM     66  C   UNL A   1      36.246  34.246  29.043  1.00  0.00     0.059 A 
ATOM     67  C   UNL A   1      34.590  33.060  30.367  1.00  0.00     0.059 A 
ATOM     68  F   UNL A   1      35.283  31.633  32.088  1.00  0.00    -0.206 F 
ATOM     69  C   UNL A   1      34.915  33.969  29.361  1.00  0.00     0.060 A 
BRANCH  69  70
ATOM     70  S   UNL A   1      33.615  34.837  28.459  1.00  0.00     0.124 S 
ATOM     71  O   UNL A   1      33.580  34.087  27.207  1.00  0.00    -0.237 OA
ATOM     72  O   UNL A   1      32.460  34.663  29.333  1.00  0.00    -0.237 OA
ATOM     73  O   UNL A   1      34.123  36.201  28.359  1.00  0.00    -0.744 OA
ENDBRANCH  69  70
ENDBRANCH  48  62
BRANCH  49  74
ATOM     74  C   UNL A   1      44.271  28.302  35.979  1.00  0.00     0.058 A 
ATOM     75  C   UNL A   1      43.956  27.246  36.848  1.00  0.00     0.135 A 
ATOM     76  C   UNL A   1      45.616  28.703  35.907  1.00  0.00     0.135 A 
ATOM     77  F   UNL A   1      42.684  26.844  36.981  1.00  0.00    -0.206 F 
ATOM     78  C   UNL A   1      44.932  26.610  37.612  1.00  0.00     0.059 A 
ATOM     79  C   UNL A   1      46.614  28.060  36.633  1.00  0.00     0.059 A 
ATOM     80  F   UNL A   1      45.976  29.714  35.103  1.00  0.00    -0.206 F 
ATOM     81  C   UNL A   1      46.262  27.019  37.489  1.00  0.00     0.060 A 
BRANCH  81  82
ATOM     82  S   UNL A   1      47.532  26.148  38.435  1.00  0.00     0.124 S 
ATOM     83  O   UNL A   1      46.766  25.653  39.573  1.00  0.00    -0.237 OA
ATOM     84  O   UNL A   1      47.985  25.140  37.481  1.00  0.00    -0.237 OA
ATOM     85  O   UNL A   1      48.503  27.196  38.736  1.00  0.00    -0.744 OA
ENDBRANCH  81  82
ENDBRANCH  49  74
BRANCH  61  86
ATOM     86  C   UNL A   1      40.127  33.797  37.220  1.00  0.00     0.058 A 
ATOM     87  C   UNL A   1      40.781  35.038  37.181  1.00  0.00     0.135 A 
ATOM     88  C   UNL A   1      39.297  33.532  38.323  1.00  0.00     0.135 A 
ATOM     89  F   UNL A   1      41.594  35.342  36.157  1.00  0.00    -0.206 F 
ATOM     90  C   UNL A   1      40.620  35.980  38.194  1.00  0.00     0.059 A 
ATOM     91  C   UNL A   1      39.097  34.470  39.332  1.00  0.00     0.059 A 
ATOM     92  F   UNL A   1      38.641  32.364  38.410  1.00  0.00    -0.206 F 
ATOM     93  C   UNL A   1      39.766  35.691  39.260  1.00  0.00     0.060 A 
BRANCH  93  94
ATOM     94  S   UNL A   1      39.509  36.953  40.527  1.00  0.00     0.124 S 
ATOM     95  O   UNL A   1      38.913  38.035  39.750  1.00  0.00    -0.237 OA
ATOM     96  O   UNL A   1      38.615  36.277  41.462  1.00  0.00    -0.237 OA
ATOM     97  O   UNL A   1      40.854  37.211  41.031  1.00  0.00    -0.744 OA
ENDBRANCH  93  94
ENDBRANCH  61  86
ENDBRANCH  35  36
ENDBRANCH  28  30
ENDBRANCH  27  28
ENDBRANCH  26  27
ENDBRANCH  25  26
ENDBRANCH  24  25
ENDBRANCH   1  24
TORSDOF 23
ENDMDL
MODEL 3
REMARK VINA RESULT:      -9.7      6.758     11.934
REMARK SMILES CNS(=O)(=O)c1cc(C(=O)OCCOCCOCCOC(=O)c2ccc(-c3c4nc(c(-c5c(F)cc(S(=O)(=O)[O-])cc5F)c5ccc([nH]5)c(-c5c(F)cc(S(=O)(=O)[O-])cc5F)c5nc(c(-c6c(F)cc(S(=O)(=O)[O-])cc6F)c6ccc3[nH]6)C=C5)C=C4)cc2)ccc1N(C)C
REMARK SMILES IDX 16 1 15 2 14 3 13 4 12 5 11 6 9 7 10 8 8 9 6 10 7 11 91 12
REMARK SMILES IDX 90 13 89 14 3 15 4 16 5 17 2 18 1 19 92 21 93 22 94 23 17 24
REMARK SMILES IDX 18 25 19 26 20 27 21 28 22 29 23 30 24 31 88 32 25 33 87 34
REMARK SMILES IDX 26 35 27 36 28 37 81 38 29 39 86 40 80 41 82 42 30 43 85 44
REMARK SMILES IDX 79 45 78 46 31 48 65 49 44 50 64 51 45 52 48 53 63 54 83 55
REMARK SMILES IDX 46 56 47 57 62 59 84 60 49 61 32 62 33 63 42 64 34 65 35 66
REMARK SMILES IDX 41 67 43 68 36 69 37 70 38 71 39 72 40 73 66 74 67 75 76 76
REMARK SMILES IDX 68 77 69 78 75 79 77 80 70 81 71 82 72 83 73 84 74 85 50 86
REMARK SMILES IDX 51 87 60 88 52 89 53 90 59 91 61 92 54 93 55 94 56 95 57 96
REMARK SMILES IDX 58 97
REMARK H PARENT 2 20 82 47 48 58
REMARK Flexibility Score: inf
ROOT
ATOM      1  C   UNL A   1      36.032  22.227  24.691  1.00  0.00     0.188 C 
ENDROOT
BRANCH   1   2
ATOM      2  C   UNL A   1      35.353  21.230  25.650  1.00  0.00     0.188 C 
BRANCH   2   3
ATOM      3  O   UNL A   1      34.173  21.611  26.325  1.00  0.00    -0.376 OA
BRANCH   3   4
ATOM      4  C   UNL A   1      32.899  21.241  25.822  1.00  0.00     0.202 C 
BRANCH   4   5
ATOM      5  C   UNL A   1      31.819  22.238  25.362  1.00  0.00     0.261 C 
BRANCH   5   6
ATOM      6  O   UNL A   1      32.181  23.623  25.357  1.00  0.00    -0.460 OA
BRANCH   6   7
ATOM      7  C   UNL A   1      31.385  24.440  26.094  1.00  0.00     0.338 C 
ATOM      8  O   UNL A   1      31.075  24.293  27.264  1.00  0.00    -0.246 OA
BRANCH   7   9
ATOM      9  C   UNL A   1      31.084  25.674  25.329  1.00  0.00     0.061 A 
ATOM     10  C   UNL A   1      31.206  28.146  25.194  1.00  0.00     0.106 A 
ATOM     11  C   UNL A   1      31.384  26.909  25.893  1.00  0.00     0.039 A 
ATOM     12  C   UNL A   1      30.581  28.169  23.919  1.00  0.00     0.056 A 
ATOM     13  C   UNL A   1      30.383  26.863  23.368  1.00  0.00     0.028 A 
ATOM     14  C   UNL A   1      30.611  25.649  24.036  1.00  0.00     0.018 A 
BRANCH  10  15
ATOM     15  S   UNL A   1      31.894  29.496  26.166  1.00  0.00     0.242 S 
ATOM     16  O   UNL A   1      31.809  29.117  27.561  1.00  0.00    -0.207 OA
ATOM     17  O   UNL A   1      31.489  30.803  25.724  1.00  0.00    -0.207 OA
BRANCH  15  18
ATOM     18  N   UNL A   1      33.511  29.486  25.676  1.00  0.00    -0.214 NA
ATOM     19  C   UNL A   1      34.535  28.951  26.564  1.00  0.00     0.120 C 
ATOM     20  H   UNL A   1      33.554  28.942  24.813  1.00  0.00     0.141 HD
ENDBRANCH  15  18
ENDBRANCH  10  15
BRANCH  12  21
ATOM     21  N   UNL A   1      30.116  29.248  23.170  1.00  0.00    -0.377 N 
ATOM     22  C   UNL A   1      30.642  29.615  21.847  1.00  0.00     0.143 C 
ATOM     23  C   UNL A   1      28.957  30.068  23.508  1.00  0.00     0.143 C 
ENDBRANCH  12  21
ENDBRANCH   7   9
ENDBRANCH   6   7
ENDBRANCH   5   6
ENDBRANCH   4   5
ENDBRANCH   3   4
ENDBRANCH   2   3
ENDBRANCH   1   2
BRANCH   1  24
ATOM     24  O   UNL A   1      37.438  22.310  24.693  1.00  0.00    -0.376 OA
BRANCH  24  25
ATOM     25  C   UNL A   1      38.120  22.862  25.807  1.00  0.00     0.202 C 
BRANCH  25  26
ATOM     26  C   UNL A   1      39.475  22.389  26.376  1.00  0.00     0.261 C 
BRANCH  26  27
ATOM     27  O   UNL A   1      40.078  23.148  27.426  1.00  0.00    -0.460 OA
BRANCH  27  28
ATOM     28  C   UNL A   1      40.835  24.203  27.029  1.00  0.00     0.338 C 
ATOM     29  O   UNL A   1      41.425  24.326  25.971  1.00  0.00    -0.246 OA
BRANCH  28  30
ATOM     30  C   UNL A   1      40.668  25.298  28.007  1.00  0.00     0.060 A 
ATOM     31  C   UNL A   1      41.759  26.136  28.263  1.00  0.00     0.016 A 
ATOM     32  C   UNL A   1      39.450  25.508  28.659  1.00  0.00     0.016 A 
ATOM     33  C   UNL A   1      41.622  27.202  29.154  1.00  0.00     0.010 A 
ATOM     34  C   UNL A   1      39.325  26.565  29.570  1.00  0.00     0.010 A 
ATOM     35  C   UNL A   1      40.406  27.425  29.819  1.00  0.00    -0.014 A 
BRANCH  35  36
ATOM     36  C   UNL A   1      40.308  28.496  30.847  1.00  0.00     0.031 A 
ATOM     37  C   UNL A   1      41.285  28.504  31.987  1.00  0.00     0.074 A 
ATOM     38  C   UNL A   1      39.387  29.475  30.754  1.00  0.00     0.049 A 
ATOM     39  N   UNL A   1      41.356  29.314  33.011  1.00  0.00    -0.248 NA
ATOM     40  C   UNL A   1      42.312  27.452  31.974  1.00  0.00     0.031 C 
ATOM     41  C   UNL A   1      38.420  29.620  29.668  1.00  0.00     0.029 A 
ATOM     42  N   UNL A   1      39.144  30.560  31.562  1.00  0.00    -0.354 N 
ATOM     43  C   UNL A   1      42.415  28.855  33.782  1.00  0.00     0.074 A 
ATOM     44  C   UNL A   1      42.966  27.703  33.098  1.00  0.00     0.031 C 
ATOM     45  C   UNL A   1      37.743  30.768  29.837  1.00  0.00     0.029 A 
ATOM     46  C   UNL A   1      38.145  31.387  31.100  1.00  0.00     0.049 A 
ATOM     47  H   UNL A   1      39.639  30.731  32.396  1.00  0.00     0.167 HD
ATOM     48  C   UNL A   1      42.869  29.330  34.967  1.00  0.00     0.037 A 
ATOM     49  C   UNL A   1      37.594  32.491  31.648  1.00  0.00     0.037 A 
ATOM     50  C   UNL A   1      42.292  30.447  35.669  1.00  0.00     0.049 A 
ATOM     51  C   UNL A   1      38.047  32.937  33.019  1.00  0.00     0.074 A 
ATOM     52  C   UNL A   1      42.659  30.974  36.895  1.00  0.00     0.029 A 
ATOM     53  N   UNL A   1      41.211  31.194  35.222  1.00  0.00    -0.354 N 
ATOM     54  N   UNL A   1      39.032  32.479  33.753  1.00  0.00    -0.248 NA
ATOM     55  C   UNL A   1      37.278  34.017  33.657  1.00  0.00     0.031 C 
ATOM     56  C   UNL A   1      41.761  31.996  37.219  1.00  0.00     0.029 A 
ATOM     57  C   UNL A   1      40.873  32.152  36.166  1.00  0.00     0.049 A 
ATOM     58  H   UNL A   1      40.752  31.064  34.361  1.00  0.00     0.167 HD
ATOM     59  C   UNL A   1      39.000  33.212  34.938  1.00  0.00     0.074 A 
ATOM     60  C   UNL A   1      37.917  34.164  34.810  1.00  0.00     0.031 C 
ATOM     61  C   UNL A   1      39.788  33.095  36.036  1.00  0.00     0.037 A 
BRANCH  48  62
ATOM     62  C   UNL A   1      43.997  28.575  35.614  1.00  0.00     0.058 A 
ATOM     63  C   UNL A   1      45.343  28.859  35.333  1.00  0.00     0.135 A 
ATOM     64  C   UNL A   1      43.722  27.527  36.509  1.00  0.00     0.135 A 
ATOM     65  F   UNL A   1      45.662  29.836  34.469  1.00  0.00    -0.206 F 
ATOM     66  C   UNL A   1      46.374  28.099  35.876  1.00  0.00     0.059 A 
ATOM     67  C   UNL A   1      44.738  26.776  37.089  1.00  0.00     0.059 A 
ATOM     68  F   UNL A   1      42.454  27.211  36.812  1.00  0.00    -0.206 F 
ATOM     69  C   UNL A   1      46.060  27.053  36.747  1.00  0.00     0.060 A 
BRANCH  69  70
ATOM     70  S   UNL A   1      47.405  26.044  37.402  1.00  0.00     0.124 S 
ATOM     71  O   UNL A   1      46.999  25.887  38.796  1.00  0.00    -0.237 OA
ATOM     72  O   UNL A   1      47.321  24.842  36.579  1.00  0.00    -0.237 OA
ATOM     73  O   UNL A   1      48.588  26.870  37.183  1.00  0.00    -0.744 OA
ENDBRANCH  69  70
ENDBRANCH  48  62
BRANCH  49  74
ATOM     74  C   UNL A   1      36.503  33.227  30.941  1.00  0.00     0.058 A 
ATOM     75  C   UNL A   1      35.160  33.077  31.322  1.00  0.00     0.135 A 
ATOM     76  C   UNL A   1      36.777  34.082  29.861  1.00  0.00     0.135 A 
ATOM     77  F   UNL A   1      34.837  32.248  32.325  1.00  0.00    -0.206 F 
ATOM     78  C   UNL A   1      34.133  33.748  30.663  1.00  0.00     0.059 A 
ATOM     79  C   UNL A   1      35.773  34.791  29.210  1.00  0.00     0.059 A 
ATOM     80  F   UNL A   1      38.041  34.257  29.444  1.00  0.00    -0.206 F 
ATOM     81  C   UNL A   1      34.451  34.612  29.613  1.00  0.00     0.060 A 
BRANCH  81  82
ATOM     82  S   UNL A   1      33.120  35.528  28.805  1.00  0.00     0.124 S 
ATOM     83  O   UNL A   1      33.868  36.504  28.020  1.00  0.00    -0.237 OA
ATOM     84  O   UNL A   1      32.445  34.480  28.047  1.00  0.00    -0.237 OA
ATOM     85  O   UNL A   1      32.358  36.071  29.925  1.00  0.00    -0.744 OA
ENDBRANCH  81  82
ENDBRANCH  49  74
BRANCH  61  86
ATOM     86  C   UNL A   1      39.521  34.016  37.200  1.00  0.00     0.058 A 
ATOM     87  C   UNL A   1      38.752  33.607  38.301  1.00  0.00     0.135 A 
ATOM     88  C   UNL A   1      40.118  35.287  37.258  1.00  0.00     0.135 A 
ATOM     89  F   UNL A   1      38.150  32.407  38.297  1.00  0.00    -0.206 F 
ATOM     90  C   UNL A   1      38.581  34.425  39.415  1.00  0.00     0.059 A 
ATOM     91  C   UNL A   1      39.984  36.109  38.374  1.00  0.00     0.059 A 
ATOM     92  F   UNL A   1      40.870  35.728  36.237  1.00  0.00    -0.206 F 
ATOM     93  C   UNL A   1      39.211  35.671  39.447  1.00  0.00     0.060 A 
BRANCH  93  94
ATOM     94  S   UNL A   1      39.040  36.687  40.930  1.00  0.00     0.124 S 
ATOM     95  O   UNL A   1      40.420  36.756  41.402  1.00  0.00    -0.237 OA
ATOM     96  O   UNL A   1      38.491  37.928  40.396  1.00  0.00    -0.237 OA
ATOM     97  O   UNL A   1      38.129  35.915  41.770  1.00  0.00    -0.744 OA
ENDBRANCH  93  94
ENDBRANCH  61  86
ENDBRANCH  35  36
ENDBRANCH  28  30
ENDBRANCH  27  28
ENDBRANCH  26  27
ENDBRANCH  25  26
ENDBRANCH  24  25
ENDBRANCH   1  24
TORSDOF 23
ENDMDL
