MODEL 1
REMARK VINA RESULT:     -10.2      0.000      0.000
REMARK SMILES O=C(OCCOCCOCCOC(=O)c1csc(C[NH2+][C@H]2CCSc3ccc(F)cc32)c1)c1ccc(-c2c3nc(c(-c4c(F)cc(S(=O)(=O)[O-])cc4F)c4ccc([nH]4)c(-c4c(F)cc(S(=O)(=O)[O-])cc4F)c4nc(c(-c5c(F)cc(S(=O)(=O)[O-])cc5F)c5ccc2[nH]5)C=C4)C=C3)cc1
REMARK SMILES IDX 7 1 6 2 5 3 4 4 3 5 2 6 1 7 33 8 34 9 98 10 35 11 97 12
REMARK SMILES IDX 36 13 37 14 38 15 91 16 39 17 96 18 90 19 92 20 40 21 95 22
REMARK SMILES IDX 89 23 88 24 41 26 75 27 54 28 74 29 55 30 58 31 73 32 93 33
REMARK SMILES IDX 56 34 57 35 72 37 94 38 59 39 42 40 43 41 52 42 44 43 45 44
REMARK SMILES IDX 51 45 53 46 46 47 47 48 48 49 49 50 50 51 76 52 77 53 86 54
REMARK SMILES IDX 78 55 79 56 85 57 87 58 80 59 81 60 82 61 83 62 84 63 60 64
REMARK SMILES IDX 61 65 70 66 62 67 63 68 69 69 71 70 64 71 65 72 66 73 67 74
REMARK SMILES IDX 68 75 8 76 9 77 10 78 11 79 12 80 13 81 14 82 15 83 16 84
REMARK SMILES IDX 32 85 17 86 18 87 19 88 20 89 21 92 22 93 31 94 23 95 25 96
REMARK SMILES IDX 30 97 24 98 26 99 28 100 27 101 29 102
REMARK H PARENT 92 25 58 36 20 90 20 91
REMARK Flexibility Score: inf
ROOT
ATOM      1  C   UNL A   1      41.454  21.167  26.804  1.00  0.00     0.188 C 
ENDROOT
BRANCH   1   2
ATOM      2  O   UNL A   1      42.277  21.668  25.738  1.00  0.00    -0.376 OA
BRANCH   2   3
ATOM      3  C   UNL A   1      43.656  21.798  26.095  1.00  0.00     0.202 C 
BRANCH   3   4
ATOM      4  C   UNL A   1      43.943  22.881  27.136  1.00  0.00     0.261 C 
BRANCH   4   5
ATOM      5  O   UNL A   1      43.966  24.197  26.572  1.00  0.00    -0.460 OA
BRANCH   5   6
ATOM      6  C   UNL A   1      42.962  25.103  26.485  1.00  0.00     0.338 C 
ATOM      7  O   UNL A   1      42.312  25.112  25.439  1.00  0.00    -0.246 OA
BRANCH   6   8
ATOM      8  C   UNL A   1      42.595  26.114  27.541  1.00  0.00     0.060 A 
ATOM      9  C   UNL A   1      41.464  25.809  28.325  1.00  0.00     0.016 A 
ATOM     10  C   UNL A   1      43.246  27.320  27.817  1.00  0.00     0.016 A 
ATOM     11  C   UNL A   1      41.023  26.658  29.350  1.00  0.00     0.010 A 
ATOM     12  C   UNL A   1      42.829  28.161  28.854  1.00  0.00     0.010 A 
ATOM     13  C   UNL A   1      41.718  27.835  29.629  1.00  0.00    -0.014 A 
BRANCH  13  14
ATOM     14  C   UNL A   1      41.387  28.675  30.799  1.00  0.00     0.031 A 
ATOM     15  C   UNL A   1      40.335  29.739  30.730  1.00  0.00     0.074 A 
ATOM     16  C   UNL A   1      42.138  28.535  31.905  1.00  0.00     0.049 A 
ATOM     17  N   UNL A   1      39.907  30.530  31.680  1.00  0.00    -0.248 NA
ATOM     18  C   UNL A   1      39.682  29.944  29.432  1.00  0.00     0.031 C 
ATOM     19  C   UNL A   1      43.240  27.583  32.058  1.00  0.00     0.029 A 
ATOM     20  N   UNL A   1      42.113  29.216  33.092  1.00  0.00    -0.354 N 
ATOM     21  C   UNL A   1      38.883  31.277  31.113  1.00  0.00     0.074 A 
ATOM     22  C   UNL A   1      38.811  30.904  29.718  1.00  0.00     0.031 C 
ATOM     23  C   UNL A   1      43.799  27.754  33.266  1.00  0.00     0.029 A 
ATOM     24  C   UNL A   1      43.102  28.831  33.962  1.00  0.00     0.049 A 
ATOM     25  H   UNL A   1      41.450  29.913  33.301  1.00  0.00     0.167 HD
ATOM     26  C   UNL A   1      38.061  32.173  31.710  1.00  0.00     0.037 A 
ATOM     27  C   UNL A   1      43.417  29.299  35.183  1.00  0.00     0.037 A 
ATOM     28  C   UNL A   1      38.203  32.613  33.071  1.00  0.00     0.049 A 
ATOM     29  C   UNL A   1      42.577  30.380  35.788  1.00  0.00     0.074 A 
ATOM     30  C   UNL A   1      37.416  33.502  33.782  1.00  0.00     0.029 A 
ATOM     31  N   UNL A   1      39.235  32.227  33.914  1.00  0.00    -0.354 N 
ATOM     32  N   UNL A   1      41.531  30.988  35.282  1.00  0.00    -0.248 NA
ATOM     33  C   UNL A   1      42.950  30.831  37.134  1.00  0.00     0.031 C 
ATOM     34  C   UNL A   1      38.003  33.688  35.041  1.00  0.00     0.029 A 
ATOM     35  C   UNL A   1      39.134  32.892  35.124  1.00  0.00     0.049 A 
ATOM     36  H   UNL A   1      39.937  31.576  33.685  1.00  0.00     0.167 HD
ATOM     37  C   UNL A   1      41.107  31.885  36.253  1.00  0.00     0.074 A 
ATOM     38  C   UNL A   1      42.008  31.733  37.380  1.00  0.00     0.031 C 
ATOM     39  C   UNL A   1      40.061  32.751  36.218  1.00  0.00     0.037 A 
BRANCH  26  40
ATOM     40  C   UNL A   1      36.930  32.713  30.888  1.00  0.00     0.058 A 
ATOM     41  C   UNL A   1      37.128  33.813  30.038  1.00  0.00     0.135 A 
ATOM     42  C   UNL A   1      35.648  32.147  30.942  1.00  0.00     0.135 A 
ATOM     43  F   UNL A   1      38.338  34.390  29.952  1.00  0.00    -0.206 F 
ATOM     44  C   UNL A   1      36.085  34.358  29.297  1.00  0.00     0.059 A 
ATOM     45  C   UNL A   1      34.590  32.673  30.205  1.00  0.00     0.059 A 
ATOM     46  F   UNL A   1      35.409  31.091  31.732  1.00  0.00    -0.206 F 
ATOM     47  C   UNL A   1      34.813  33.796  29.405  1.00  0.00     0.060 A 
BRANCH  47  48
ATOM     48  S   UNL A   1      33.444  34.553  28.504  1.00  0.00     0.124 S 
ATOM     49  O   UNL A   1      32.563  34.948  29.599  1.00  0.00    -0.237 OA
ATOM     50  O   UNL A   1      34.094  35.645  27.787  1.00  0.00    -0.237 OA
ATOM     51  O   UNL A   1      32.953  33.464  27.665  1.00  0.00    -0.744 OA
ENDBRANCH  47  48
ENDBRANCH  26  40
BRANCH  27  52
ATOM     52  C   UNL A   1      44.559  28.688  35.902  1.00  0.00     0.058 A 
ATOM     53  C   UNL A   1      45.848  29.220  35.768  1.00  0.00     0.135 A 
ATOM     54  C   UNL A   1      44.363  27.654  36.832  1.00  0.00     0.135 A 
ATOM     55  F   UNL A   1      46.077  30.209  34.892  1.00  0.00    -0.206 F 
ATOM     56  C   UNL A   1      46.903  28.766  36.550  1.00  0.00     0.059 A 
ATOM     57  C   UNL A   1      45.400  27.194  37.636  1.00  0.00     0.059 A 
ATOM     58  F   UNL A   1      43.139  27.131  37.007  1.00  0.00    -0.206 F 
ATOM     59  C   UNL A   1      46.665  27.764  37.493  1.00  0.00     0.060 A 
BRANCH  59  60
ATOM     60  S   UNL A   1      48.014  27.282  38.593  1.00  0.00     0.124 S 
ATOM     61  O   UNL A   1      48.817  26.433  37.721  1.00  0.00    -0.237 OA
ATOM     62  O   UNL A   1      48.598  28.574  38.942  1.00  0.00    -0.237 OA
ATOM     63  O   UNL A   1      47.328  26.598  39.686  1.00  0.00    -0.744 OA
ENDBRANCH  59  60
ENDBRANCH  27  52
BRANCH  39  64
ATOM     64  C   UNL A   1      39.856  33.608  37.432  1.00  0.00     0.058 A 
ATOM     65  C   UNL A   1      38.947  33.241  38.436  1.00  0.00     0.135 A 
ATOM     66  C   UNL A   1      40.578  34.799  37.599  1.00  0.00     0.135 A 
ATOM     67  F   UNL A   1      38.228  32.113  38.316  1.00  0.00    -0.206 F 
ATOM     68  C   UNL A   1      38.738  34.043  39.552  1.00  0.00     0.059 A 
ATOM     69  C   UNL A   1      40.401  35.605  38.718  1.00  0.00     0.059 A 
ATOM     70  F   UNL A   1      41.467  35.188  36.671  1.00  0.00    -0.206 F 
ATOM     71  C   UNL A   1      39.465  35.228  39.680  1.00  0.00     0.060 A 
BRANCH  71  72
ATOM     72  S   UNL A   1      39.183  36.264  41.129  1.00  0.00     0.124 S 
ATOM     73  O   UNL A   1      38.736  37.510  40.514  1.00  0.00    -0.237 OA
ATOM     74  O   UNL A   1      38.164  35.517  41.860  1.00  0.00    -0.237 OA
ATOM     75  O   UNL A   1      40.494  36.314  41.770  1.00  0.00    -0.744 OA
ENDBRANCH  71  72
ENDBRANCH  39  64
ENDBRANCH  13  14
ENDBRANCH   6   8
ENDBRANCH   5   6
ENDBRANCH   4   5
ENDBRANCH   3   4
ENDBRANCH   2   3
ENDBRANCH   1   2
BRANCH   1  76
ATOM     76  C   UNL A   1      40.400  22.198  27.220  1.00  0.00     0.188 C 
BRANCH  76  77
ATOM     77  O   UNL A   1      39.414  22.508  26.230  1.00  0.00    -0.376 OA
BRANCH  77  78
ATOM     78  C   UNL A   1      38.661  21.419  25.708  1.00  0.00     0.202 C 
BRANCH  78  79
ATOM     79  C   UNL A   1      37.387  21.744  24.919  1.00  0.00     0.261 C 
BRANCH  79  80
ATOM     80  O   UNL A   1      36.225  22.020  25.714  1.00  0.00    -0.460 OA
BRANCH  80  81
ATOM     81  C   UNL A   1      35.780  23.312  25.621  1.00  0.00     0.339 C 
ATOM     82  O   UNL A   1      36.494  24.296  25.765  1.00  0.00    -0.246 OA
BRANCH  81  83
ATOM     83  C   UNL A   1      34.345  23.420  25.378  1.00  0.00     0.071 A 
ATOM     84  C   UNL A   1      33.755  22.730  24.335  1.00  0.00     0.081 A 
ATOM     85  C   UNL A   1      33.347  24.136  26.135  1.00  0.00     0.037 A 
ATOM     86  S   UNL A   1      32.061  22.877  24.309  1.00  0.00    -0.142 S 
ATOM     87  C   UNL A   1      32.056  23.870  25.701  1.00  0.00     0.060 A 
BRANCH  87  88
ATOM     88  C   UNL A   1      30.739  24.217  26.333  1.00  0.00     0.308 C 
BRANCH  88  89
ATOM     89  N   UNL A   1      30.491  25.661  26.381  1.00  0.00    -0.336 N 
ATOM     90  H   UNL A   1      30.970  26.044  27.195  1.00  0.00     0.347 HD
ATOM     91  H   UNL A   1      29.480  25.791  26.431  1.00  0.00     0.347 HD
BRANCH  89  92
ATOM     92  C   UNL A   1      30.965  26.382  25.174  1.00  0.00     0.215 C 
ATOM     93  C   UNL A   1      29.821  26.462  24.143  1.00  0.00     0.081 C 
ATOM     94  C   UNL A   1      31.674  27.690  25.508  1.00  0.00     0.026 A 
ATOM     95  C   UNL A   1      30.126  27.417  23.005  1.00  0.00     0.081 C 
ATOM     96  C   UNL A   1      31.308  28.932  24.964  1.00  0.00     0.017 A 
ATOM     97  C   UNL A   1      32.715  27.661  26.459  1.00  0.00     0.050 A 
ATOM     98  S   UNL A   1      30.130  29.118  23.640  1.00  0.00    -0.125 SA
ATOM     99  C   UNL A   1      31.886  30.112  25.467  1.00  0.00     0.018 A 
ATOM    100  C   UNL A   1      33.284  28.834  26.933  1.00  0.00     0.123 A 
ATOM    101  C   UNL A   1      32.862  30.064  26.462  1.00  0.00     0.040 A 
ATOM    102  F   UNL A   1      34.228  28.772  27.880  1.00  0.00    -0.207 F 
ENDBRANCH  89  92
ENDBRANCH  88  89
ENDBRANCH  87  88
ENDBRANCH  81  83
ENDBRANCH  80  81
ENDBRANCH  79  80
ENDBRANCH  78  79
ENDBRANCH  77  78
ENDBRANCH  76  77
ENDBRANCH   1  76
TORSDOF 23
ENDMDL
MODEL 2
REMARK VINA RESULT:     -10.1      1.452      2.519
REMARK SMILES O=C(OCCOCCOCCOC(=O)c1csc(C[NH2+][C@H]2CCSc3ccc(F)cc32)c1)c1ccc(-c2c3nc(c(-c4c(F)cc(S(=O)(=O)[O-])cc4F)c4ccc([nH]4)c(-c4c(F)cc(S(=O)(=O)[O-])cc4F)c4nc(c(-c5c(F)cc(S(=O)(=O)[O-])cc5F)c5ccc2[nH]5)C=C4)C=C3)cc1
REMARK SMILES IDX 7 1 6 2 5 3 4 4 3 5 2 6 1 7 33 8 34 9 98 10 35 11 97 12
REMARK SMILES IDX 36 13 37 14 38 15 91 16 39 17 96 18 90 19 92 20 40 21 95 22
REMARK SMILES IDX 89 23 88 24 41 26 75 27 54 28 74 29 55 30 58 31 73 32 93 33
REMARK SMILES IDX 56 34 57 35 72 37 94 38 59 39 42 40 43 41 52 42 44 43 45 44
REMARK SMILES IDX 51 45 53 46 46 47 47 48 48 49 49 50 50 51 76 52 77 53 86 54
REMARK SMILES IDX 78 55 79 56 85 57 87 58 80 59 81 60 82 61 83 62 84 63 60 64
REMARK SMILES IDX 61 65 70 66 62 67 63 68 69 69 71 70 64 71 65 72 66 73 67 74
REMARK SMILES IDX 68 75 8 76 9 77 10 78 11 79 12 80 13 81 14 82 15 83 16 84
REMARK SMILES IDX 32 85 17 86 18 87 19 88 20 89 21 92 22 93 31 94 23 95 25 96
REMARK SMILES IDX 30 97 24 98 26 99 28 100 27 101 29 102
REMARK H PARENT 92 25 58 36 20 90 20 91
REMARK Flexibility Score: inf
ROOT
ATOM      1  C   UNL A   1      39.338  21.509  26.111  1.00  0.00     0.188 C 
ENDROOT
BRANCH   1   2
ATOM      2  O   UNL A   1      40.279  21.642  27.188  1.00  0.00    -0.376 OA
BRANCH   2   3
ATOM      3  C   UNL A   1      41.612  21.268  26.830  1.00  0.00     0.202 C 
BRANCH   3   4
ATOM      4  C   UNL A   1      42.583  22.441  26.681  1.00  0.00     0.261 C 
BRANCH   4   5
ATOM      5  O   UNL A   1      41.914  23.682  26.428  1.00  0.00    -0.460 OA
BRANCH   5   6
ATOM      6  C   UNL A   1      42.417  24.940  26.455  1.00  0.00     0.338 C 
ATOM      7  O   UNL A   1      43.196  25.246  25.552  1.00  0.00    -0.246 OA
BRANCH   6   8
ATOM      8  C   UNL A   1      42.130  25.980  27.508  1.00  0.00     0.060 A 
ATOM      9  C   UNL A   1      40.970  25.774  28.282  1.00  0.00     0.016 A 
ATOM     10  C   UNL A   1      42.880  27.126  27.789  1.00  0.00     0.016 A 
ATOM     11  C   UNL A   1      40.596  26.659  29.303  1.00  0.00     0.010 A 
ATOM     12  C   UNL A   1      42.529  28.000  28.823  1.00  0.00     0.010 A 
ATOM     13  C   UNL A   1      41.388  27.772  29.589  1.00  0.00    -0.014 A 
BRANCH  13  14
ATOM     14  C   UNL A   1      41.121  28.638  30.755  1.00  0.00     0.031 A 
ATOM     15  C   UNL A   1      40.114  29.746  30.699  1.00  0.00     0.074 A 
ATOM     16  C   UNL A   1      41.891  28.477  31.846  1.00  0.00     0.049 A 
ATOM     17  N   UNL A   1      39.744  30.565  31.648  1.00  0.00    -0.248 NA
ATOM     18  C   UNL A   1      39.441  29.966  29.413  1.00  0.00     0.031 C 
ATOM     19  C   UNL A   1      42.954  27.480  31.985  1.00  0.00     0.029 A 
ATOM     20  N   UNL A   1      41.923  29.172  33.025  1.00  0.00    -0.354 N 
ATOM     21  C   UNL A   1      38.740  31.350  31.096  1.00  0.00     0.074 A 
ATOM     22  C   UNL A   1      38.620  30.965  29.708  1.00  0.00     0.031 C 
ATOM     23  C   UNL A   1      43.548  27.639  33.177  1.00  0.00     0.029 A 
ATOM     24  C   UNL A   1      42.914  28.754  33.876  1.00  0.00     0.049 A 
ATOM     25  H   UNL A   1      41.296  29.899  33.241  1.00  0.00     0.167 HD
ATOM     26  C   UNL A   1      37.972  32.287  31.701  1.00  0.00     0.037 A 
ATOM     27  C   UNL A   1      43.278  29.220  35.084  1.00  0.00     0.037 A 
ATOM     28  C   UNL A   1      38.165  32.736  33.053  1.00  0.00     0.049 A 
ATOM     29  C   UNL A   1      42.500  30.344  35.696  1.00  0.00     0.074 A 
ATOM     30  C   UNL A   1      37.434  33.665  33.771  1.00  0.00     0.029 A 
ATOM     31  N   UNL A   1      39.198  32.314  33.877  1.00  0.00    -0.354 N 
ATOM     32  N   UNL A   1      41.470  30.991  35.207  1.00  0.00    -0.248 NA
ATOM     33  C   UNL A   1      42.923  30.792  37.027  1.00  0.00     0.031 C 
ATOM     34  C   UNL A   1      38.057  33.840  35.014  1.00  0.00     0.029 A 
ATOM     35  C   UNL A   1      39.154  32.996  35.081  1.00  0.00     0.049 A 
ATOM     36  H   UNL A   1      39.866  31.630  33.639  1.00  0.00     0.167 HD
ATOM     37  C   UNL A   1      41.108  31.916  36.176  1.00  0.00     0.074 A 
ATOM     38  C   UNL A   1      42.027  31.738  37.284  1.00  0.00     0.031 C 
ATOM     39  C   UNL A   1      40.100  32.827  36.155  1.00  0.00     0.037 A 
BRANCH  26  40
ATOM     40  C   UNL A   1      36.846  32.867  30.899  1.00  0.00     0.058 A 
ATOM     41  C   UNL A   1      37.074  33.943  30.025  1.00  0.00     0.135 A 
ATOM     42  C   UNL A   1      35.541  32.364  30.995  1.00  0.00     0.135 A 
ATOM     43  F   UNL A   1      38.306  34.460  29.899  1.00  0.00    -0.206 F 
ATOM     44  C   UNL A   1      36.038  34.525  29.302  1.00  0.00     0.059 A 
ATOM     45  C   UNL A   1      34.490  32.927  30.276  1.00  0.00     0.059 A 
ATOM     46  F   UNL A   1      35.273  31.333  31.810  1.00  0.00    -0.206 F 
ATOM     47  C   UNL A   1      34.745  34.025  29.452  1.00  0.00     0.060 A 
BRANCH  47  48
ATOM     48  S   UNL A   1      33.389  34.831  28.573  1.00  0.00     0.124 S 
ATOM     49  O   UNL A   1      34.115  35.776  27.730  1.00  0.00    -0.237 OA
ATOM     50  O   UNL A   1      32.750  33.720  27.875  1.00  0.00    -0.237 OA
ATOM     51  O   UNL A   1      32.601  35.426  29.647  1.00  0.00    -0.744 OA
ENDBRANCH  47  48
ENDBRANCH  26  40
BRANCH  27  52
ATOM     52  C   UNL A   1      44.409  28.568  35.785  1.00  0.00     0.058 A 
ATOM     53  C   UNL A   1      44.183  27.470  36.625  1.00  0.00     0.135 A 
ATOM     54  C   UNL A   1      45.737  28.941  35.526  1.00  0.00     0.135 A 
ATOM     55  F   UNL A   1      42.929  27.081  36.898  1.00  0.00    -0.206 F 
ATOM     56  C   UNL A   1      45.237  26.746  37.169  1.00  0.00     0.059 A 
ATOM     57  C   UNL A   1      46.808  28.223  36.045  1.00  0.00     0.059 A 
ATOM     58  F   UNL A   1      45.997  29.974  34.709  1.00  0.00    -0.206 F 
ATOM     59  C   UNL A   1      46.547  27.120  36.858  1.00  0.00     0.060 A 
BRANCH  59  60
ATOM     60  S   UNL A   1      47.900  26.088  37.461  1.00  0.00     0.124 S 
ATOM     61  O   UNL A   1      48.991  26.488  36.581  1.00  0.00    -0.237 OA
ATOM     62  O   UNL A   1      48.012  26.515  38.853  1.00  0.00    -0.237 OA
ATOM     63  O   UNL A   1      47.399  24.730  37.270  1.00  0.00    -0.744 OA
ENDBRANCH  59  60
ENDBRANCH  27  52
BRANCH  39  64
ATOM     64  C   UNL A   1      39.960  33.705  37.363  1.00  0.00     0.058 A 
ATOM     65  C   UNL A   1      40.702  34.888  37.492  1.00  0.00     0.135 A 
ATOM     66  C   UNL A   1      39.071  33.368  38.394  1.00  0.00     0.135 A 
ATOM     67  F   UNL A   1      41.572  35.248  36.533  1.00  0.00    -0.206 F 
ATOM     68  C   UNL A   1      40.591  35.694  38.619  1.00  0.00     0.059 A 
ATOM     69  C   UNL A   1      38.927  34.171  39.521  1.00  0.00     0.059 A 
ATOM     70  F   UNL A   1      38.331  32.250  38.313  1.00  0.00    -0.206 F 
ATOM     71  C   UNL A   1      39.706  35.322  39.632  1.00  0.00     0.060 A 
BRANCH  71  72
ATOM     72  S   UNL A   1      39.572  36.371  41.094  1.00  0.00     0.124 S 
ATOM     73  O   UNL A   1      40.966  36.746  41.312  1.00  0.00    -0.237 OA
ATOM     74  O   UNL A   1      38.693  37.442  40.636  1.00  0.00    -0.237 OA
ATOM     75  O   UNL A   1      38.996  35.481  42.098  1.00  0.00    -0.744 OA
ENDBRANCH  71  72
ENDBRANCH  39  64
ENDBRANCH  13  14
ENDBRANCH   6   8
ENDBRANCH   5   6
ENDBRANCH   4   5
ENDBRANCH   3   4
ENDBRANCH   2   3
ENDBRANCH   1   2
BRANCH   1  76
ATOM     76  C   UNL A   1      38.407  22.723  26.036  1.00  0.00     0.188 C 
BRANCH  76  77
ATOM     77  O   UNL A   1      37.164  22.509  25.361  1.00  0.00    -0.376 OA
BRANCH  77  78
ATOM     78  C   UNL A   1      36.857  21.169  24.989  1.00  0.00     0.202 C 
BRANCH  78  79
ATOM     79  C   UNL A   1      35.433  20.664  25.252  1.00  0.00     0.261 C 
BRANCH  79  80
ATOM     80  O   UNL A   1      34.407  21.666  25.213  1.00  0.00    -0.460 OA
BRANCH  80  81
ATOM     81  C   UNL A   1      34.062  22.159  26.443  1.00  0.00     0.339 C 
ATOM     82  O   UNL A   1      34.179  21.535  27.489  1.00  0.00    -0.246 OA
BRANCH  81  83
ATOM     83  C   UNL A   1      33.485  23.499  26.396  1.00  0.00     0.071 A 
ATOM     84  C   UNL A   1      34.257  24.582  26.017  1.00  0.00     0.081 A 
ATOM     85  C   UNL A   1      32.126  23.912  26.644  1.00  0.00     0.037 A 
ATOM     86  S   UNL A   1      33.366  26.026  25.891  1.00  0.00    -0.142 S 
ATOM     87  C   UNL A   1      31.911  25.248  26.338  1.00  0.00     0.060 A 
BRANCH  87  88
ATOM     88  C   UNL A   1      30.624  26.016  26.235  1.00  0.00     0.308 C 
BRANCH  88  89
ATOM     89  N   UNL A   1      29.660  25.395  25.320  1.00  0.00    -0.336 N 
ATOM     90  H   UNL A   1      28.724  25.697  25.584  1.00  0.00     0.347 HD
ATOM     91  H   UNL A   1      29.778  24.385  25.398  1.00  0.00     0.347 HD
BRANCH  89  92
ATOM     92  C   UNL A   1      29.884  25.752  23.897  1.00  0.00     0.215 C 
ATOM     93  C   UNL A   1      30.051  27.280  23.772  1.00  0.00     0.081 C 
ATOM     94  C   UNL A   1      30.957  24.893  23.235  1.00  0.00     0.026 A 
ATOM     95  C   UNL A   1      30.558  27.702  22.406  1.00  0.00     0.081 C 
ATOM     96  C   UNL A   1      32.078  25.423  22.576  1.00  0.00     0.017 A 
ATOM     97  C   UNL A   1      30.849  23.491  23.342  1.00  0.00     0.050 A 
ATOM     98  S   UNL A   1      32.280  27.157  22.217  1.00  0.00    -0.125 SA
ATOM     99  C   UNL A   1      33.114  24.567  22.161  1.00  0.00     0.018 A 
ATOM    100  C   UNL A   1      31.875  22.660  22.913  1.00  0.00     0.123 A 
ATOM    101  C   UNL A   1      33.020  23.187  22.344  1.00  0.00     0.040 A 
ATOM    102  F   UNL A   1      31.765  21.337  23.085  1.00  0.00    -0.207 F 
ENDBRANCH  89  92
ENDBRANCH  88  89
ENDBRANCH  87  88
ENDBRANCH  81  83
ENDBRANCH  80  81
ENDBRANCH  79  80
ENDBRANCH  78  79
ENDBRANCH  77  78
ENDBRANCH  76  77
ENDBRANCH   1  76
TORSDOF 23
ENDMDL
MODEL 3
REMARK VINA RESULT:      -9.4      5.741      8.607
REMARK SMILES O=C(OCCOCCOCCOC(=O)c1csc(C[NH2+][C@H]2CCSc3ccc(F)cc32)c1)c1ccc(-c2c3nc(c(-c4c(F)cc(S(=O)(=O)[O-])cc4F)c4ccc([nH]4)c(-c4c(F)cc(S(=O)(=O)[O-])cc4F)c4nc(c(-c5c(F)cc(S(=O)(=O)[O-])cc5F)c5ccc2[nH]5)C=C4)C=C3)cc1
REMARK SMILES IDX 7 1 6 2 5 3 4 4 3 5 2 6 1 7 33 8 34 9 98 10 35 11 97 12
REMARK SMILES IDX 36 13 37 14 38 15 91 16 39 17 96 18 90 19 92 20 40 21 95 22
REMARK SMILES IDX 89 23 88 24 41 26 75 27 54 28 74 29 55 30 58 31 73 32 93 33
REMARK SMILES IDX 56 34 57 35 72 37 94 38 59 39 42 40 43 41 52 42 44 43 45 44
REMARK SMILES IDX 51 45 53 46 46 47 47 48 48 49 49 50 50 51 76 52 77 53 86 54
REMARK SMILES IDX 78 55 79 56 85 57 87 58 80 59 81 60 82 61 83 62 84 63 60 64
REMARK SMILES IDX 61 65 70 66 62 67 63 68 69 69 71 70 64 71 65 72 66 73 67 74
REMARK SMILES IDX 68 75 8 76 9 77 10 78 11 79 12 80 13 81 14 82 15 83 16 84
REMARK SMILES IDX 32 85 17 86 18 87 19 88 20 89 21 92 22 93 31 94 23 95 25 96
REMARK SMILES IDX 30 97 24 98 26 99 28 100 27 101 29 102
REMARK H PARENT 92 25 58 36 20 90 20 91
REMARK Flexibility Score: inf
ROOT
ATOM      1  C   UNL A   1      37.368  22.477  25.215  1.00  0.00     0.188 C 
ENDROOT
BRANCH   1   2
ATOM      2  O   UNL A   1      38.102  21.407  25.832  1.00  0.00    -0.376 OA
BRANCH   2   3
ATOM      3  C   UNL A   1      38.434  20.348  24.928  1.00  0.00     0.202 C 
BRANCH   3   4
ATOM      4  C   UNL A   1      39.118  19.146  25.583  1.00  0.00     0.261 C 
BRANCH   4   5
ATOM      5  O   UNL A   1      40.200  19.526  26.440  1.00  0.00    -0.460 OA
BRANCH   5   6
ATOM      6  C   UNL A   1      41.475  19.847  26.110  1.00  0.00     0.338 C 
ATOM      7  O   UNL A   1      42.113  19.004  25.478  1.00  0.00    -0.246 OA
BRANCH   6   8
ATOM      8  C   UNL A   1      42.183  21.127  26.474  1.00  0.00     0.060 A 
ATOM      9  C   UNL A   1      42.510  21.981  25.400  1.00  0.00     0.016 A 
ATOM     10  C   UNL A   1      42.556  21.551  27.752  1.00  0.00     0.016 A 
ATOM     11  C   UNL A   1      43.157  23.208  25.602  1.00  0.00     0.010 A 
ATOM     12  C   UNL A   1      43.179  22.785  27.966  1.00  0.00     0.010 A 
ATOM     13  C   UNL A   1      43.481  23.623  26.895  1.00  0.00    -0.014 A 
BRANCH  13  14
ATOM     14  C   UNL A   1      44.014  24.974  27.168  1.00  0.00     0.031 A 
ATOM     15  C   UNL A   1      43.126  26.094  27.614  1.00  0.00     0.074 A 
ATOM     16  C   UNL A   1      45.311  25.203  26.896  1.00  0.00     0.049 A 
ATOM     17  N   UNL A   1      43.452  27.322  27.928  1.00  0.00    -0.248 NA
ATOM     18  C   UNL A   1      41.692  25.803  27.718  1.00  0.00     0.031 C 
ATOM     19  C   UNL A   1      46.252  24.205  26.385  1.00  0.00     0.029 A 
ATOM     20  N   UNL A   1      46.049  26.353  26.977  1.00  0.00    -0.354 N 
ATOM     21  C   UNL A   1      42.272  27.929  28.338  1.00  0.00     0.074 A 
ATOM     22  C   UNL A   1      41.214  26.962  28.153  1.00  0.00     0.031 C 
ATOM     23  C   UNL A   1      47.441  24.792  26.179  1.00  0.00     0.029 A 
ATOM     24  C   UNL A   1      47.338  26.205  26.533  1.00  0.00     0.049 A 
ATOM     25  H   UNL A   1      45.689  27.203  27.319  1.00  0.00     0.167 HD
ATOM     26  C   UNL A   1      42.095  29.172  28.847  1.00  0.00     0.037 A 
ATOM     27  C   UNL A   1      48.328  27.108  26.418  1.00  0.00     0.037 A 
ATOM     28  C   UNL A   1      43.134  30.162  28.933  1.00  0.00     0.049 A 
ATOM     29  C   UNL A   1      48.086  28.516  26.868  1.00  0.00     0.074 A 
ATOM     30  C   UNL A   1      43.069  31.445  29.447  1.00  0.00     0.029 A 
ATOM     31  N   UNL A   1      44.421  29.989  28.446  1.00  0.00    -0.354 N 
ATOM     32  N   UNL A   1      46.996  29.041  27.373  1.00  0.00    -0.248 NA
ATOM     33  C   UNL A   1      49.211  29.451  26.746  1.00  0.00     0.031 C 
ATOM     34  C   UNL A   1      44.307  32.063  29.226  1.00  0.00     0.029 A 
ATOM     35  C   UNL A   1      45.150  31.155  28.605  1.00  0.00     0.049 A 
ATOM     36  H   UNL A   1      44.766  29.158  28.044  1.00  0.00     0.167 HD
ATOM     37  C   UNL A   1      47.304  30.367  27.645  1.00  0.00     0.074 A 
ATOM     38  C   UNL A   1      48.688  30.560  27.255  1.00  0.00     0.031 C 
ATOM     39  C   UNL A   1      46.515  31.335  28.177  1.00  0.00     0.037 A 
BRANCH  26  40
ATOM     40  C   UNL A   1      40.728  29.509  29.362  1.00  0.00     0.058 A 
ATOM     41  C   UNL A   1      39.673  29.764  28.471  1.00  0.00     0.135 A 
ATOM     42  C   UNL A   1      40.460  29.584  30.737  1.00  0.00     0.135 A 
ATOM     43  F   UNL A   1      39.881  29.705  27.146  1.00  0.00    -0.206 F 
ATOM     44  C   UNL A   1      38.407  30.119  28.924  1.00  0.00     0.059 A 
ATOM     45  C   UNL A   1      39.199  29.932  31.212  1.00  0.00     0.059 A 
ATOM     46  F   UNL A   1      41.432  29.341  31.628  1.00  0.00    -0.206 F 
ATOM     47  C   UNL A   1      38.186  30.224  30.297  1.00  0.00     0.060 A 
BRANCH  47  48
ATOM     48  S   UNL A   1      36.564  30.762  30.882  1.00  0.00     0.124 S 
ATOM     49  O   UNL A   1      36.059  29.537  31.495  1.00  0.00    -0.237 OA
ATOM     50  O   UNL A   1      36.896  31.844  31.804  1.00  0.00    -0.237 OA
ATOM     51  O   UNL A   1      35.888  31.176  29.657  1.00  0.00    -0.744 OA
ENDBRANCH  47  48
ENDBRANCH  26  40
BRANCH  27  52
ATOM     52  C   UNL A   1      49.639  26.660  25.894  1.00  0.00     0.058 A 
ATOM     53  C   UNL A   1      50.014  26.956  24.577  1.00  0.00     0.135 A 
ATOM     54  C   UNL A   1      50.587  26.050  26.730  1.00  0.00     0.135 A 
ATOM     55  F   UNL A   1      49.139  27.539  23.745  1.00  0.00    -0.206 F 
ATOM     56  C   UNL A   1      51.295  26.685  24.111  1.00  0.00     0.059 A 
ATOM     57  C   UNL A   1      51.879  25.783  26.292  1.00  0.00     0.059 A 
ATOM     58  F   UNL A   1      50.275  25.769  28.006  1.00  0.00    -0.206 F 
ATOM     59  C   UNL A   1      52.226  26.114  24.982  1.00  0.00     0.060 A 
BRANCH  59  60
ATOM     60  S   UNL A   1      53.922  25.895  24.403  1.00  0.00     0.124 S 
ATOM     61  O   UNL A   1      53.759  26.011  22.959  1.00  0.00    -0.237 OA
ATOM     62  O   UNL A   1      54.613  27.001  25.060  1.00  0.00    -0.237 OA
ATOM     63  O   UNL A   1      54.277  24.567  24.895  1.00  0.00    -0.744 OA
ENDBRANCH  59  60
ENDBRANCH  27  52
BRANCH  39  64
ATOM     64  C   UNL A   1      47.134  32.691  28.348  1.00  0.00     0.058 A 
ATOM     65  C   UNL A   1      47.026  33.671  27.350  1.00  0.00     0.135 A 
ATOM     66  C   UNL A   1      47.832  33.017  29.521  1.00  0.00     0.135 A 
ATOM     67  F   UNL A   1      46.373  33.402  26.207  1.00  0.00    -0.206 F 
ATOM     68  C   UNL A   1      47.617  34.920  27.496  1.00  0.00     0.059 A 
ATOM     69  C   UNL A   1      48.412  34.269  29.697  1.00  0.00     0.059 A 
ATOM     70  F   UNL A   1      47.954  32.116  30.509  1.00  0.00    -0.206 F 
ATOM     71  C   UNL A   1      48.315  35.207  28.670  1.00  0.00     0.060 A 
BRANCH  71  72
ATOM     72  S   UNL A   1      49.082  36.830  28.848  1.00  0.00     0.124 S 
ATOM     73  O   UNL A   1      49.172  37.263  27.457  1.00  0.00    -0.237 OA
ATOM     74  O   UNL A   1      48.117  37.548  29.674  1.00  0.00    -0.237 OA
ATOM     75  O   UNL A   1      50.355  36.533  29.498  1.00  0.00    -0.744 OA
ENDBRANCH  71  72
ENDBRANCH  39  64
ENDBRANCH  13  14
ENDBRANCH   6   8
ENDBRANCH   5   6
ENDBRANCH   4   5
ENDBRANCH   3   4
ENDBRANCH   2   3
ENDBRANCH   1   2
BRANCH   1  76
ATOM     76  C   UNL A   1      35.980  22.630  25.843  1.00  0.00     0.188 C 
BRANCH  76  77
ATOM     77  O   UNL A   1      35.361  21.416  26.278  1.00  0.00    -0.376 OA
BRANCH  77  78
ATOM     78  C   UNL A   1      33.990  21.491  26.654  1.00  0.00     0.202 C 
BRANCH  78  79
ATOM     79  C   UNL A   1      32.967  20.761  25.774  1.00  0.00     0.261 C 
BRANCH  79  80
ATOM     80  O   UNL A   1      33.429  20.400  24.465  1.00  0.00    -0.460 OA
BRANCH  80  81
ATOM     81  C   UNL A   1      32.644  20.874  23.448  1.00  0.00     0.339 C 
ATOM     82  O   UNL A   1      32.038  20.160  22.659  1.00  0.00    -0.246 OA
BRANCH  81  83
ATOM     83  C   UNL A   1      32.630  22.330  23.349  1.00  0.00     0.071 A 
ATOM     84  C   UNL A   1      33.774  23.021  22.994  1.00  0.00     0.081 A 
ATOM     85  C   UNL A   1      31.524  23.241  23.517  1.00  0.00     0.037 A 
ATOM     86  S   UNL A   1      33.514  24.690  22.798  1.00  0.00    -0.142 S 
ATOM     87  C   UNL A   1      31.853  24.546  23.178  1.00  0.00     0.060 A 
BRANCH  87  88
ATOM     88  C   UNL A   1      30.966  25.744  22.994  1.00  0.00     0.308 C 
BRANCH  88  89
ATOM     89  N   UNL A   1      31.210  26.794  23.988  1.00  0.00    -0.336 N 
ATOM     90  H   UNL A   1      32.108  26.614  24.435  1.00  0.00     0.347 HD
ATOM     91  H   UNL A   1      30.435  26.766  24.651  1.00  0.00     0.347 HD
BRANCH  89  92
ATOM     92  C   UNL A   1      31.240  28.160  23.408  1.00  0.00     0.215 C 
ATOM     93  C   UNL A   1      29.980  28.377  22.545  1.00  0.00     0.081 C 
ATOM     94  C   UNL A   1      31.549  29.234  24.445  1.00  0.00     0.026 A 
ATOM     95  C   UNL A   1      29.789  29.827  22.145  1.00  0.00     0.081 C 
ATOM     96  C   UNL A   1      30.733  30.356  24.667  1.00  0.00     0.017 A 
ATOM     97  C   UNL A   1      32.683  29.063  25.265  1.00  0.00     0.050 A 
ATOM     98  S   UNL A   1      29.362  30.799  23.618  1.00  0.00    -0.125 SA
ATOM     99  C   UNL A   1      30.985  31.196  25.767  1.00  0.00     0.018 A 
ATOM    100  C   UNL A   1      32.925  29.911  26.337  1.00  0.00     0.123 A 
ATOM    101  C   UNL A   1      32.072  30.965  26.611  1.00  0.00     0.040 A 
ATOM    102  F   UNL A   1      33.978  29.683  27.131  1.00  0.00    -0.207 F 
ENDBRANCH  89  92
ENDBRANCH  88  89
ENDBRANCH  87  88
ENDBRANCH  81  83
ENDBRANCH  80  81
ENDBRANCH  79  80
ENDBRANCH  78  79
ENDBRANCH  77  78
ENDBRANCH  76  77
ENDBRANCH   1  76
TORSDOF 23
ENDMDL
