MODEL 1
REMARK VINA RESULT:     -10.0      0.000      0.000
REMARK SMILES O=C(OCCOCCOCCOC(=O)c1cc(S[C@H]2CCOC3(CCC3)C2)ccn1)c1ccc(-c2c3nc(c(-c4c(F)cc(S(=O)(=O)[O-])cc4F)c4ccc([nH]4)c(-c4c(F)cc(S(=O)(=O)[O-])cc4F)c4nc(c(-c5c(F)cc(S(=O)(=O)[O-])cc5F)c5ccc2[nH]5)C=C4)C=C3)cc1
REMARK SMILES IDX 7 1 6 2 5 3 4 4 3 5 2 6 1 7 31 8 32 9 96 10 33 11 95 12
REMARK SMILES IDX 34 13 35 14 36 15 89 16 37 17 94 18 88 19 90 20 38 21 93 22
REMARK SMILES IDX 87 23 86 24 39 26 73 27 52 28 72 29 53 30 56 31 71 32 91 33
REMARK SMILES IDX 54 34 55 35 70 37 92 38 57 39 40 40 41 41 50 42 42 43 43 44
REMARK SMILES IDX 49 45 51 46 44 47 45 48 46 49 47 50 48 51 74 52 75 53 84 54
REMARK SMILES IDX 76 55 77 56 83 57 85 58 78 59 79 60 80 61 81 62 82 63 58 64
REMARK SMILES IDX 59 65 68 66 60 67 61 68 67 69 69 70 62 71 63 72 64 73 65 74
REMARK SMILES IDX 66 75 8 76 9 77 10 78 11 79 12 80 13 81 14 82 15 83 16 84
REMARK SMILES IDX 30 85 17 86 29 87 28 88 18 89 19 90 20 91 27 92 21 93 23 94
REMARK SMILES IDX 22 95 24 96 26 97 25 98
REMARK H PARENT 90 25 56 36
REMARK Flexibility Score: inf
ROOT
ATOM      1  C   UNL A   1      34.637  32.622  28.826  1.00  0.00     0.188 C 
ENDROOT
BRANCH   1   2
ATOM      2  O   UNL A   1      34.586  34.021  29.142  1.00  0.00    -0.376 OA
BRANCH   2   3
ATOM      3  C   UNL A   1      33.265  34.567  29.134  1.00  0.00     0.202 C 
BRANCH   3   4
ATOM      4  C   UNL A   1      33.205  36.066  29.444  1.00  0.00     0.261 C 
BRANCH   4   5
ATOM      5  O   UNL A   1      32.591  36.314  30.719  1.00  0.00    -0.460 OA
BRANCH   5   6
ATOM      6  C   UNL A   1      32.601  35.518  31.819  1.00  0.00     0.338 C 
ATOM      7  O   UNL A   1      31.525  35.149  32.287  1.00  0.00    -0.246 OA
BRANCH   6   8
ATOM      8  C   UNL A   1      33.854  34.988  32.441  1.00  0.00     0.060 A 
ATOM      9  C   UNL A   1      35.063  35.679  32.538  1.00  0.00     0.016 A 
ATOM     10  C   UNL A   1      33.788  33.696  32.991  1.00  0.00     0.016 A 
ATOM     11  C   UNL A   1      36.219  35.040  32.987  1.00  0.00     0.010 A 
ATOM     12  C   UNL A   1      34.928  33.076  33.515  1.00  0.00     0.010 A 
ATOM     13  C   UNL A   1      36.168  33.721  33.442  1.00  0.00    -0.014 A 
BRANCH  13  14
ATOM     14  C   UNL A   1      37.438  32.992  33.675  1.00  0.00     0.031 A 
ATOM     15  C   UNL A   1      38.176  33.225  34.971  1.00  0.00     0.074 A 
ATOM     16  C   UNL A   1      37.867  32.067  32.796  1.00  0.00     0.049 A 
ATOM     17  N   UNL A   1      39.285  32.683  35.405  1.00  0.00    -0.248 NA
ATOM     18  C   UNL A   1      37.587  34.202  35.903  1.00  0.00     0.031 C 
ATOM     19  C   UNL A   1      37.223  31.743  31.520  1.00  0.00     0.029 A 
ATOM     20  N   UNL A   1      38.938  31.214  32.850  1.00  0.00    -0.354 N 
ATOM     21  C   UNL A   1      39.538  33.273  36.639  1.00  0.00     0.074 A 
ATOM     22  C   UNL A   1      38.479  34.224  36.883  1.00  0.00     0.031 C 
ATOM     23  C   UNL A   1      37.905  30.749  30.922  1.00  0.00     0.029 A 
ATOM     24  C   UNL A   1      39.043  30.385  31.757  1.00  0.00     0.049 A 
ATOM     25  H   UNL A   1      39.575  31.197  33.601  1.00  0.00     0.167 HD
ATOM     26  C   UNL A   1      40.558  33.041  37.498  1.00  0.00     0.037 A 
ATOM     27  C   UNL A   1      39.967  29.450  31.471  1.00  0.00     0.037 A 
ATOM     28  C   UNL A   1      41.596  32.076  37.266  1.00  0.00     0.049 A 
ATOM     29  C   UNL A   1      41.089  29.211  32.451  1.00  0.00     0.074 A 
ATOM     30  C   UNL A   1      42.694  31.775  38.053  1.00  0.00     0.029 A 
ATOM     31  N   UNL A   1      41.655  31.244  36.157  1.00  0.00    -0.354 N 
ATOM     32  N   UNL A   1      41.302  29.772  33.618  1.00  0.00    -0.248 NA
ATOM     33  C   UNL A   1      42.102  28.215  32.070  1.00  0.00     0.031 C 
ATOM     34  C   UNL A   1      43.426  30.770  37.410  1.00  0.00     0.029 A 
ATOM     35  C   UNL A   1      42.771  30.433  36.237  1.00  0.00     0.049 A 
ATOM     36  H   UNL A   1      41.000  31.234  35.423  1.00  0.00     0.167 HD
ATOM     37  C   UNL A   1      42.464  29.188  34.110  1.00  0.00     0.074 A 
ATOM     38  C   UNL A   1      42.890  28.208  33.134  1.00  0.00     0.031 C 
ATOM     39  C   UNL A   1      43.138  29.446  35.257  1.00  0.00     0.037 A 
BRANCH  26  40
ATOM     40  C   UNL A   1      40.609  33.875  38.744  1.00  0.00     0.058 A 
ATOM     41  C   UNL A   1      39.881  33.530  39.894  1.00  0.00     0.135 A 
ATOM     42  C   UNL A   1      41.376  35.050  38.779  1.00  0.00     0.135 A 
ATOM     43  F   UNL A   1      39.113  32.430  39.902  1.00  0.00    -0.206 F 
ATOM     44  C   UNL A   1      39.882  34.341  41.024  1.00  0.00     0.059 A 
ATOM     45  C   UNL A   1      41.407  35.867  39.906  1.00  0.00     0.059 A 
ATOM     46  F   UNL A   1      42.085  35.427  37.704  1.00  0.00    -0.206 F 
ATOM     47  C   UNL A   1      40.640  35.514  41.016  1.00  0.00     0.060 A 
BRANCH  47  48
ATOM     48  S   UNL A   1      40.605  36.583  42.471  1.00  0.00     0.124 S 
ATOM     49  O   UNL A   1      41.776  36.111  43.204  1.00  0.00    -0.237 OA
ATOM     50  O   UNL A   1      40.720  37.916  41.888  1.00  0.00    -0.237 OA
ATOM     51  O   UNL A   1      39.315  36.279  43.083  1.00  0.00    -0.744 OA
ENDBRANCH  47  48
ENDBRANCH  26  40
BRANCH  27  52
ATOM     52  C   UNL A   1      39.951  28.698  30.187  1.00  0.00     0.058 A 
ATOM     53  C   UNL A   1      39.320  27.449  30.085  1.00  0.00     0.135 A 
ATOM     54  C   UNL A   1      40.720  29.136  29.100  1.00  0.00     0.135 A 
ATOM     55  F   UNL A   1      38.563  26.997  31.096  1.00  0.00    -0.206 F 
ATOM     56  C   UNL A   1      39.536  26.613  28.994  1.00  0.00     0.059 A 
ATOM     57  C   UNL A   1      40.929  28.329  27.988  1.00  0.00     0.059 A 
ATOM     58  F   UNL A   1      41.320  30.335  29.137  1.00  0.00    -0.206 F 
ATOM     59  C   UNL A   1      40.374  27.049  27.968  1.00  0.00     0.060 A 
BRANCH  59  60
ATOM     60  S   UNL A   1      40.800  25.939  26.608  1.00  0.00     0.124 S 
ATOM     61  O   UNL A   1      41.137  26.890  25.556  1.00  0.00    -0.237 OA
ATOM     62  O   UNL A   1      41.915  25.170  27.150  1.00  0.00    -0.237 OA
ATOM     63  O   UNL A   1      39.561  25.191  26.417  1.00  0.00    -0.744 OA
ENDBRANCH  59  60
ENDBRANCH  27  52
BRANCH  39  64
ATOM     64  C   UNL A   1      44.368  28.630  35.516  1.00  0.00     0.058 A 
ATOM     65  C   UNL A   1      44.307  27.429  36.239  1.00  0.00     0.135 A 
ATOM     66  C   UNL A   1      45.612  29.044  35.019  1.00  0.00     0.135 A 
ATOM     67  F   UNL A   1      43.137  27.002  36.741  1.00  0.00    -0.206 F 
ATOM     68  C   UNL A   1      45.447  26.674  36.481  1.00  0.00     0.059 A 
ATOM     69  C   UNL A   1      46.762  28.294  35.233  1.00  0.00     0.059 A 
ATOM     70  F   UNL A   1      45.715  30.184  34.318  1.00  0.00    -0.206 F 
ATOM     71  C   UNL A   1      46.672  27.117  35.977  1.00  0.00     0.060 A 
BRANCH  71  72
ATOM     72  S   UNL A   1      48.148  26.118  36.263  1.00  0.00     0.124 S 
ATOM     73  O   UNL A   1      48.636  26.671  37.521  1.00  0.00    -0.237 OA
ATOM     74  O   UNL A   1      47.609  24.764  36.331  1.00  0.00    -0.237 OA
ATOM     75  O   UNL A   1      48.971  26.397  35.089  1.00  0.00    -0.744 OA
ENDBRANCH  71  72
ENDBRANCH  39  64
ENDBRANCH  13  14
ENDBRANCH   6   8
ENDBRANCH   5   6
ENDBRANCH   4   5
ENDBRANCH   3   4
ENDBRANCH   2   3
ENDBRANCH   1   2
BRANCH   1  76
ATOM     76  C   UNL A   1      35.892  32.278  28.018  1.00  0.00     0.188 C 
BRANCH  76  77
ATOM     77  O   UNL A   1      36.060  30.883  27.747  1.00  0.00    -0.376 OA
BRANCH  77  78
ATOM     78  C   UNL A   1      34.926  30.045  27.978  1.00  0.00     0.202 C 
BRANCH  78  79
ATOM     79  C   UNL A   1      34.143  29.643  26.728  1.00  0.00     0.261 C 
BRANCH  79  80
ATOM     80  O   UNL A   1      32.766  30.045  26.791  1.00  0.00    -0.459 OA
BRANCH  80  81
ATOM     81  C   UNL A   1      31.889  29.015  26.714  1.00  0.00     0.357 C 
ATOM     82  O   UNL A   1      31.480  28.334  27.646  1.00  0.00    -0.244 OA
BRANCH  81  83
ATOM     83  C   UNL A   1      31.544  28.682  25.315  1.00  0.00     0.149 A 
ATOM     84  C   UNL A   1      31.589  27.330  25.020  1.00  0.00     0.051 A 
ATOM     85  N   UNL A   1      30.899  29.608  24.564  1.00  0.00    -0.249 NA
ATOM     86  C   UNL A   1      30.799  26.844  23.991  1.00  0.00     0.011 A 
ATOM     87  C   UNL A   1      30.243  29.124  23.486  1.00  0.00     0.113 A 
ATOM     88  C   UNL A   1      30.138  27.771  23.182  1.00  0.00     0.035 A 
BRANCH  86  89
ATOM     89  S   UNL A   1      30.472  25.099  23.740  1.00  0.00    -0.122 SA
BRANCH  89  90
ATOM     90  C   UNL A   1      31.834  24.254  24.656  1.00  0.00     0.057 C 
ATOM     91  C   UNL A   1      31.418  22.908  25.270  1.00  0.00     0.043 C 
ATOM     92  C   UNL A   1      33.030  23.991  23.733  1.00  0.00     0.050 C 
ATOM     93  C   UNL A   1      32.570  22.414  26.134  1.00  0.00     0.162 C 
ATOM     94  C   UNL A   1      34.179  23.416  24.577  1.00  0.00     0.069 C 
ATOM     95  O   UNL A   1      33.731  22.254  25.332  1.00  0.00    -0.375 OA
ATOM     96  C   UNL A   1      35.472  23.151  23.768  1.00  0.00     0.035 C 
ATOM     97  C   UNL A   1      34.981  24.482  25.378  1.00  0.00     0.035 C 
ATOM     98  C   UNL A   1      36.275  23.803  24.905  1.00  0.00     0.006 C 
ENDBRANCH  89  90
ENDBRANCH  86  89
ENDBRANCH  81  83
ENDBRANCH  80  81
ENDBRANCH  79  80
ENDBRANCH  78  79
ENDBRANCH  77  78
ENDBRANCH  76  77
ENDBRANCH   1  76
TORSDOF 22
ENDMDL
MODEL 2
REMARK VINA RESULT:      -9.7      5.895      8.067
REMARK SMILES O=C(OCCOCCOCCOC(=O)c1cc(S[C@H]2CCOC3(CCC3)C2)ccn1)c1ccc(-c2c3nc(c(-c4c(F)cc(S(=O)(=O)[O-])cc4F)c4ccc([nH]4)c(-c4c(F)cc(S(=O)(=O)[O-])cc4F)c4nc(c(-c5c(F)cc(S(=O)(=O)[O-])cc5F)c5ccc2[nH]5)C=C4)C=C3)cc1
REMARK SMILES IDX 7 1 6 2 5 3 4 4 3 5 2 6 1 7 31 8 32 9 96 10 33 11 95 12
REMARK SMILES IDX 34 13 35 14 36 15 89 16 37 17 94 18 88 19 90 20 38 21 93 22
REMARK SMILES IDX 87 23 86 24 39 26 73 27 52 28 72 29 53 30 56 31 71 32 91 33
REMARK SMILES IDX 54 34 55 35 70 37 92 38 57 39 40 40 41 41 50 42 42 43 43 44
REMARK SMILES IDX 49 45 51 46 44 47 45 48 46 49 47 50 48 51 74 52 75 53 84 54
REMARK SMILES IDX 76 55 77 56 83 57 85 58 78 59 79 60 80 61 81 62 82 63 58 64
REMARK SMILES IDX 59 65 68 66 60 67 61 68 67 69 69 70 62 71 63 72 64 73 65 74
REMARK SMILES IDX 66 75 8 76 9 77 10 78 11 79 12 80 13 81 14 82 15 83 16 84
REMARK SMILES IDX 30 85 17 86 29 87 28 88 18 89 19 90 20 91 27 92 21 93 23 94
REMARK SMILES IDX 22 95 24 96 26 97 25 98
REMARK H PARENT 90 25 56 36
REMARK Flexibility Score: inf
ROOT
ATOM      1  C   UNL A   1      33.408  34.847  29.626  1.00  0.00     0.188 C 
ENDROOT
BRANCH   1   2
ATOM      2  O   UNL A   1      34.751  34.787  30.127  1.00  0.00    -0.376 OA
BRANCH   2   3
ATOM      3  C   UNL A   1      34.851  34.248  31.447  1.00  0.00     0.202 C 
BRANCH   3   4
ATOM      4  C   UNL A   1      34.552  32.748  31.535  1.00  0.00     0.261 C 
BRANCH   4   5
ATOM      5  O   UNL A   1      35.647  31.964  31.035  1.00  0.00    -0.460 OA
BRANCH   5   6
ATOM      6  C   UNL A   1      36.611  31.327  31.748  1.00  0.00     0.338 C 
ATOM      7  O   UNL A   1      36.531  31.329  32.976  1.00  0.00    -0.246 OA
BRANCH   6   8
ATOM      8  C   UNL A   1      37.718  30.541  31.119  1.00  0.00     0.060 A 
ATOM      9  C   UNL A   1      38.451  29.532  31.747  1.00  0.00     0.016 A 
ATOM     10  C   UNL A   1      38.018  30.835  29.778  1.00  0.00     0.016 A 
ATOM     11  C   UNL A   1      39.571  28.973  31.132  1.00  0.00     0.010 A 
ATOM     12  C   UNL A   1      39.093  30.220  29.127  1.00  0.00     0.010 A 
ATOM     13  C   UNL A   1      39.924  29.341  29.832  1.00  0.00    -0.014 A 
BRANCH  13  14
ATOM     14  C   UNL A   1      41.244  28.924  29.301  1.00  0.00     0.031 A 
ATOM     15  C   UNL A   1      42.397  29.893  29.390  1.00  0.00     0.074 A 
ATOM     16  C   UNL A   1      41.432  27.672  28.843  1.00  0.00     0.049 A 
ATOM     17  N   UNL A   1      43.642  29.740  29.019  1.00  0.00    -0.248 NA
ATOM     18  C   UNL A   1      42.109  31.215  29.975  1.00  0.00     0.031 C 
ATOM     19  C   UNL A   1      40.394  26.643  28.729  1.00  0.00     0.029 A 
ATOM     20  N   UNL A   1      42.568  27.044  28.405  1.00  0.00    -0.354 N 
ATOM     21  C   UNL A   1      44.272  30.949  29.297  1.00  0.00     0.074 A 
ATOM     22  C   UNL A   1      43.275  31.832  29.856  1.00  0.00     0.031 C 
ATOM     23  C   UNL A   1      40.948  25.507  28.267  1.00  0.00     0.029 A 
ATOM     24  C   UNL A   1      42.368  25.735  28.031  1.00  0.00     0.049 A 
ATOM     25  H   UNL A   1      43.445  27.488  28.360  1.00  0.00     0.167 HD
ATOM     26  C   UNL A   1      45.568  31.294  29.110  1.00  0.00     0.037 A 
ATOM     27  C   UNL A   1      43.243  24.836  27.543  1.00  0.00     0.037 A 
ATOM     28  C   UNL A   1      46.564  30.406  28.579  1.00  0.00     0.049 A 
ATOM     29  C   UNL A   1      44.681  25.249  27.351  1.00  0.00     0.074 A 
ATOM     30  C   UNL A   1      47.900  30.655  28.322  1.00  0.00     0.029 A 
ATOM     31  N   UNL A   1      46.326  29.084  28.232  1.00  0.00    -0.354 N 
ATOM     32  N   UNL A   1      45.258  26.394  27.633  1.00  0.00    -0.248 NA
ATOM     33  C   UNL A   1      45.587  24.248  26.767  1.00  0.00     0.031 C 
ATOM     34  C   UNL A   1      48.467  29.485  27.802  1.00  0.00     0.029 A 
ATOM     35  C   UNL A   1      47.488  28.506  27.760  1.00  0.00     0.049 A 
ATOM     36  H   UNL A   1      45.458  28.627  28.310  1.00  0.00     0.167 HD
ATOM     37  C   UNL A   1      46.592  26.243  27.270  1.00  0.00     0.074 A 
ATOM     38  C   UNL A   1      46.746  24.889  26.782  1.00  0.00     0.031 C 
ATOM     39  C   UNL A   1      47.604  27.143  27.315  1.00  0.00     0.037 A 
BRANCH  26  40
ATOM     40  C   UNL A   1      45.959  32.702  29.453  1.00  0.00     0.058 A 
ATOM     41  C   UNL A   1      46.427  33.048  30.730  1.00  0.00     0.135 A 
ATOM     42  C   UNL A   1      45.839  33.722  28.497  1.00  0.00     0.135 A 
ATOM     43  F   UNL A   1      46.536  32.113  31.686  1.00  0.00    -0.206 F 
ATOM     44  C   UNL A   1      46.728  34.366  31.060  1.00  0.00     0.059 A 
ATOM     45  C   UNL A   1      46.153  35.045  28.799  1.00  0.00     0.059 A 
ATOM     46  F   UNL A   1      45.391  33.443  27.263  1.00  0.00    -0.206 F 
ATOM     47  C   UNL A   1      46.577  35.359  30.090  1.00  0.00     0.060 A 
BRANCH  47  48
ATOM     48  S   UNL A   1      46.930  37.072  30.537  1.00  0.00     0.124 S 
ATOM     49  O   UNL A   1      47.382  36.923  31.917  1.00  0.00    -0.237 OA
ATOM     50  O   UNL A   1      47.960  37.445  29.572  1.00  0.00    -0.237 OA
ATOM     51  O   UNL A   1      45.644  37.740  30.364  1.00  0.00    -0.744 OA
ENDBRANCH  47  48
ENDBRANCH  26  40
BRANCH  27  52
ATOM     52  C   UNL A   1      42.816  23.474  27.123  1.00  0.00     0.058 A 
ATOM     53  C   UNL A   1      42.579  22.463  28.067  1.00  0.00     0.135 A 
ATOM     54  C   UNL A   1      42.815  23.118  25.767  1.00  0.00     0.135 A 
ATOM     55  F   UNL A   1      42.558  22.761  29.375  1.00  0.00    -0.206 F 
ATOM     56  C   UNL A   1      42.461  21.129  27.690  1.00  0.00     0.059 A 
ATOM     57  C   UNL A   1      42.672  21.796  25.364  1.00  0.00     0.059 A 
ATOM     58  F   UNL A   1      43.008  24.053  24.824  1.00  0.00    -0.206 F 
ATOM     59  C   UNL A   1      42.548  20.803  26.337  1.00  0.00     0.060 A 
BRANCH  59  60
ATOM     60  S   UNL A   1      42.549  19.073  25.816  1.00  0.00     0.124 S 
ATOM     61  O   UNL A   1      41.121  18.810  25.688  1.00  0.00    -0.237 OA
ATOM     62  O   UNL A   1      43.303  19.108  24.567  1.00  0.00    -0.237 OA
ATOM     63  O   UNL A   1      43.221  18.413  26.932  1.00  0.00    -0.744 OA
ENDBRANCH  59  60
ENDBRANCH  27  52
BRANCH  39  64
ATOM     64  C   UNL A   1      48.950  26.668  26.860  1.00  0.00     0.058 A 
ATOM     65  C   UNL A   1      49.338  26.759  25.514  1.00  0.00     0.135 A 
ATOM     66  C   UNL A   1      49.864  26.137  27.781  1.00  0.00     0.135 A 
ATOM     67  F   UNL A   1      48.490  27.253  24.598  1.00  0.00    -0.206 F 
ATOM     68  C   UNL A   1      50.585  26.316  25.092  1.00  0.00     0.059 A 
ATOM     69  C   UNL A   1      51.123  25.704  27.383  1.00  0.00     0.059 A 
ATOM     70  F   UNL A   1      49.535  26.035  29.078  1.00  0.00    -0.206 F 
ATOM     71  C   UNL A   1      51.470  25.787  26.034  1.00  0.00     0.060 A 
BRANCH  71  72
ATOM     72  S   UNL A   1      53.103  25.243  25.490  1.00  0.00     0.124 S 
ATOM     73  O   UNL A   1      52.924  23.796  25.428  1.00  0.00    -0.237 OA
ATOM     74  O   UNL A   1      53.254  25.920  24.206  1.00  0.00    -0.237 OA
ATOM     75  O   UNL A   1      53.985  25.724  26.550  1.00  0.00    -0.744 OA
ENDBRANCH  71  72
ENDBRANCH  39  64
ENDBRANCH  13  14
ENDBRANCH   6   8
ENDBRANCH   5   6
ENDBRANCH   4   5
ENDBRANCH   3   4
ENDBRANCH   2   3
ENDBRANCH   1   2
BRANCH   1  76
ATOM     76  C   UNL A   1      33.276  34.108  28.291  1.00  0.00     0.188 C 
BRANCH  76  77
ATOM     77  O   UNL A   1      34.357  33.216  27.997  1.00  0.00    -0.376 OA
BRANCH  77  78
ATOM     78  C   UNL A   1      34.022  31.838  27.833  1.00  0.00     0.202 C 
BRANCH  78  79
ATOM     79  C   UNL A   1      35.211  30.880  27.754  1.00  0.00     0.261 C 
BRANCH  79  80
ATOM     80  O   UNL A   1      34.811  29.534  27.452  1.00  0.00    -0.459 OA
BRANCH  80  81
ATOM     81  C   UNL A   1      33.588  29.439  26.880  1.00  0.00     0.357 C 
ATOM     82  O   UNL A   1      32.556  29.968  27.272  1.00  0.00    -0.244 OA
BRANCH  81  83
ATOM     83  C   UNL A   1      33.576  28.488  25.747  1.00  0.00     0.149 A 
ATOM     84  C   UNL A   1      33.778  27.166  26.107  1.00  0.00     0.051 A 
ATOM     85  N   UNL A   1      33.045  28.886  24.566  1.00  0.00    -0.249 NA
ATOM     86  C   UNL A   1      33.264  26.166  25.296  1.00  0.00     0.011 A 
ATOM     87  C   UNL A   1      32.671  27.889  23.733  1.00  0.00     0.113 A 
ATOM     88  C   UNL A   1      32.730  26.539  24.061  1.00  0.00     0.035 A 
BRANCH  86  89
ATOM     89  S   UNL A   1      33.122  24.456  25.813  1.00  0.00    -0.122 SA
BRANCH  89  90
ATOM     90  C   UNL A   1      34.618  23.647  25.096  1.00  0.00     0.057 C 
ATOM     91  C   UNL A   1      34.816  23.936  23.600  1.00  0.00     0.043 C 
ATOM     92  C   UNL A   1      35.887  24.104  25.826  1.00  0.00     0.050 C 
ATOM     93  C   UNL A   1      35.970  23.075  23.107  1.00  0.00     0.162 C 
ATOM     94  C   UNL A   1      37.078  23.298  25.283  1.00  0.00     0.069 C 
ATOM     95  O   UNL A   1      37.147  23.396  23.832  1.00  0.00    -0.375 OA
ATOM     96  C   UNL A   1      38.421  23.630  25.978  1.00  0.00     0.035 C 
ATOM     97  C   UNL A   1      37.205  21.865  25.877  1.00  0.00     0.035 C 
ATOM     98  C   UNL A   1      38.707  22.122  26.067  1.00  0.00     0.006 C 
ENDBRANCH  89  90
ENDBRANCH  86  89
ENDBRANCH  81  83
ENDBRANCH  80  81
ENDBRANCH  79  80
ENDBRANCH  78  79
ENDBRANCH  77  78
ENDBRANCH  76  77
ENDBRANCH   1  76
TORSDOF 22
ENDMDL
MODEL 3
REMARK VINA RESULT:      -9.7      5.900     12.715
REMARK SMILES O=C(OCCOCCOCCOC(=O)c1cc(S[C@H]2CCOC3(CCC3)C2)ccn1)c1ccc(-c2c3nc(c(-c4c(F)cc(S(=O)(=O)[O-])cc4F)c4ccc([nH]4)c(-c4c(F)cc(S(=O)(=O)[O-])cc4F)c4nc(c(-c5c(F)cc(S(=O)(=O)[O-])cc5F)c5ccc2[nH]5)C=C4)C=C3)cc1
REMARK SMILES IDX 7 1 6 2 5 3 4 4 3 5 2 6 1 7 31 8 32 9 96 10 33 11 95 12
REMARK SMILES IDX 34 13 35 14 36 15 89 16 37 17 94 18 88 19 90 20 38 21 93 22
REMARK SMILES IDX 87 23 86 24 39 26 73 27 52 28 72 29 53 30 56 31 71 32 91 33
REMARK SMILES IDX 54 34 55 35 70 37 92 38 57 39 40 40 41 41 50 42 42 43 43 44
REMARK SMILES IDX 49 45 51 46 44 47 45 48 46 49 47 50 48 51 74 52 75 53 84 54
REMARK SMILES IDX 76 55 77 56 83 57 85 58 78 59 79 60 80 61 81 62 82 63 58 64
REMARK SMILES IDX 59 65 68 66 60 67 61 68 67 69 69 70 62 71 63 72 64 73 65 74
REMARK SMILES IDX 66 75 8 76 9 77 10 78 11 79 12 80 13 81 14 82 15 83 16 84
REMARK SMILES IDX 30 85 17 86 29 87 28 88 18 89 19 90 20 91 27 92 21 93 23 94
REMARK SMILES IDX 22 95 24 96 26 97 25 98
REMARK H PARENT 90 25 56 36
REMARK Flexibility Score: inf
ROOT
ATOM      1  C   UNL A   1      42.884  19.878  26.431  1.00  0.00     0.188 C 
ENDROOT
BRANCH   1   2
ATOM      2  O   UNL A   1      41.784  19.560  27.296  1.00  0.00    -0.376 OA
BRANCH   2   3
ATOM      3  C   UNL A   1      40.797  20.591  27.378  1.00  0.00     0.202 C 
BRANCH   3   4
ATOM      4  C   UNL A   1      40.624  21.397  26.086  1.00  0.00     0.261 C 
BRANCH   4   5
ATOM      5  O   UNL A   1      39.266  21.836  25.920  1.00  0.00    -0.460 OA
BRANCH   5   6
ATOM      6  C   UNL A   1      38.734  23.042  26.244  1.00  0.00     0.338 C 
ATOM      7  O   UNL A   1      37.520  23.202  26.115  1.00  0.00    -0.246 OA
BRANCH   6   8
ATOM      8  C   UNL A   1      39.529  24.162  26.836  1.00  0.00     0.060 A 
ATOM      9  C   UNL A   1      39.799  24.330  28.196  1.00  0.00     0.016 A 
ATOM     10  C   UNL A   1      40.064  25.101  25.938  1.00  0.00     0.016 A 
ATOM     11  C   UNL A   1      40.409  25.494  28.666  1.00  0.00     0.010 A 
ATOM     12  C   UNL A   1      40.746  26.233  26.398  1.00  0.00     0.010 A 
ATOM     13  C   UNL A   1      40.852  26.472  27.773  1.00  0.00    -0.014 A 
BRANCH  13  14
ATOM     14  C   UNL A   1      41.265  27.793  28.303  1.00  0.00     0.031 A 
ATOM     15  C   UNL A   1      42.719  28.186  28.209  1.00  0.00     0.074 A 
ATOM     16  C   UNL A   1      40.346  28.664  28.762  1.00  0.00     0.049 A 
ATOM     17  N   UNL A   1      43.306  29.295  28.578  1.00  0.00    -0.248 NA
ATOM     18  C   UNL A   1      43.637  27.194  27.622  1.00  0.00     0.031 C 
ATOM     19  C   UNL A   1      38.909  28.400  28.881  1.00  0.00     0.029 A 
ATOM     20  N   UNL A   1      40.481  29.955  29.200  1.00  0.00    -0.354 N 
ATOM     21  C   UNL A   1      44.658  29.122  28.296  1.00  0.00     0.074 A 
ATOM     22  C   UNL A   1      44.810  27.798  27.738  1.00  0.00     0.031 C 
ATOM     23  C   UNL A   1      38.295  29.504  29.344  1.00  0.00     0.029 A 
ATOM     24  C   UNL A   1      39.294  30.540  29.577  1.00  0.00     0.049 A 
ATOM     25  H   UNL A   1      41.347  30.421  29.242  1.00  0.00     0.167 HD
ATOM     26  C   UNL A   1      45.681  29.988  28.479  1.00  0.00     0.037 A 
ATOM     27  C   UNL A   1      39.057  31.771  30.065  1.00  0.00     0.037 A 
ATOM     28  C   UNL A   1      45.523  31.313  29.010  1.00  0.00     0.049 A 
ATOM     29  C   UNL A   1      40.219  32.716  30.253  1.00  0.00     0.074 A 
ATOM     30  C   UNL A   1      46.492  32.268  29.264  1.00  0.00     0.029 A 
ATOM     31  N   UNL A   1      44.304  31.873  29.361  1.00  0.00    -0.354 N 
ATOM     32  N   UNL A   1      41.487  32.535  29.967  1.00  0.00    -0.248 NA
ATOM     33  C   UNL A   1      39.917  34.031  30.837  1.00  0.00     0.031 C 
ATOM     34  C   UNL A   1      45.857  33.402  29.785  1.00  0.00     0.029 A 
ATOM     35  C   UNL A   1      44.495  33.158  29.832  1.00  0.00     0.049 A 
ATOM     36  H   UNL A   1      43.432  31.422  29.285  1.00  0.00     0.167 HD
ATOM     37  C   UNL A   1      42.127  33.716  30.327  1.00  0.00     0.074 A 
ATOM     38  C   UNL A   1      41.105  34.616  30.818  1.00  0.00     0.031 C 
ATOM     39  C   UNL A   1      43.443  34.032  30.279  1.00  0.00     0.037 A 
BRANCH  26  40
ATOM     40  C   UNL A   1      47.059  29.504  28.133  1.00  0.00     0.058 A 
ATOM     41  C   UNL A   1      47.539  29.524  26.814  1.00  0.00     0.135 A 
ATOM     42  C   UNL A   1      47.901  28.990  29.132  1.00  0.00     0.135 A 
ATOM     43  F   UNL A   1      46.763  29.983  25.819  1.00  0.00    -0.206 F 
ATOM     44  C   UNL A   1      48.793  29.016  26.490  1.00  0.00     0.059 A 
ATOM     45  C   UNL A   1      49.167  28.494  28.833  1.00  0.00     0.059 A 
ATOM     46  F   UNL A   1      47.487  28.945  30.407  1.00  0.00    -0.206 F 
ATOM     47  C   UNL A   1      49.595  28.492  27.507  1.00  0.00     0.060 A 
BRANCH  47  48
ATOM     48  S   UNL A   1      51.204  27.798  27.073  1.00  0.00     0.124 S 
ATOM     49  O   UNL A   1      51.286  26.665  27.991  1.00  0.00    -0.237 OA
ATOM     50  O   UNL A   1      51.033  27.458  25.664  1.00  0.00    -0.237 OA
ATOM     51  O   UNL A   1      52.130  28.894  27.342  1.00  0.00    -0.744 OA
ENDBRANCH  47  48
ENDBRANCH  26  40
BRANCH  27  52
ATOM     52  C   UNL A   1      37.697  32.199  30.489  1.00  0.00     0.058 A 
ATOM     53  C   UNL A   1      36.879  32.964  29.642  1.00  0.00     0.135 A 
ATOM     54  C   UNL A   1      37.272  32.003  31.810  1.00  0.00     0.135 A 
ATOM     55  F   UNL A   1      37.241  33.166  28.366  1.00  0.00    -0.206 F 
ATOM     56  C   UNL A   1      35.741  33.607  30.118  1.00  0.00     0.059 A 
ATOM     57  C   UNL A   1      36.124  32.614  32.301  1.00  0.00     0.059 A 
ATOM     58  F   UNL A   1      38.004  31.257  32.651  1.00  0.00    -0.206 F 
ATOM     59  C   UNL A   1      35.395  33.455  31.460  1.00  0.00     0.060 A 
BRANCH  59  60
ATOM     60  S   UNL A   1      34.012  34.389  32.154  1.00  0.00     0.124 S 
ATOM     61  O   UNL A   1      34.712  35.420  32.910  1.00  0.00    -0.237 OA
ATOM     62  O   UNL A   1      33.300  34.848  30.966  1.00  0.00    -0.237 OA
ATOM     63  O   UNL A   1      33.319  33.377  32.945  1.00  0.00    -0.744 OA
ENDBRANCH  59  60
ENDBRANCH  27  52
BRANCH  39  64
ATOM     64  C   UNL A   1      43.825  35.408  30.732  1.00  0.00     0.058 A 
ATOM     65  C   UNL A   1      43.868  36.485  29.834  1.00  0.00     0.135 A 
ATOM     66  C   UNL A   1      44.130  35.653  32.079  1.00  0.00     0.135 A 
ATOM     67  F   UNL A   1      43.592  36.293  28.534  1.00  0.00    -0.206 F 
ATOM     68  C   UNL A   1      44.225  37.761  30.254  1.00  0.00     0.059 A 
ATOM     69  C   UNL A   1      44.472  36.924  32.524  1.00  0.00     0.059 A 
ATOM     70  F   UNL A   1      44.097  34.651  32.972  1.00  0.00    -0.206 F 
ATOM     71  C   UNL A   1      44.528  37.969  31.601  1.00  0.00     0.060 A 
BRANCH  71  72
ATOM     72  S   UNL A   1      44.959  39.633  32.152  1.00  0.00     0.124 S 
ATOM     73  O   UNL A   1      46.410  39.539  32.263  1.00  0.00    -0.237 OA
ATOM     74  O   UNL A   1      44.458  40.470  31.066  1.00  0.00    -0.237 OA
ATOM     75  O   UNL A   1      44.237  39.763  33.415  1.00  0.00    -0.744 OA
ENDBRANCH  71  72
ENDBRANCH  39  64
ENDBRANCH  13  14
ENDBRANCH   6   8
ENDBRANCH   5   6
ENDBRANCH   4   5
ENDBRANCH   3   4
ENDBRANCH   2   3
ENDBRANCH   1   2
BRANCH   1  76
ATOM     76  C   UNL A   1      43.127  18.768  25.405  1.00  0.00     0.188 C 
BRANCH  76  77
ATOM     77  O   UNL A   1      44.440  18.198  25.445  1.00  0.00    -0.376 OA
BRANCH  77  78
ATOM     78  C   UNL A   1      45.533  19.095  25.246  1.00  0.00     0.202 C 
BRANCH  78  79
ATOM     79  C   UNL A   1      45.295  20.200  24.217  1.00  0.00     0.261 C 
BRANCH  79  80
ATOM     80  O   UNL A   1      45.817  21.468  24.642  1.00  0.00    -0.459 OA
BRANCH  80  81
ATOM     81  C   UNL A   1      44.882  22.442  24.739  1.00  0.00     0.357 C 
ATOM     82  O   UNL A   1      43.958  22.646  23.962  1.00  0.00    -0.244 OA
BRANCH  81  83
ATOM     83  C   UNL A   1      45.158  23.370  25.858  1.00  0.00     0.149 A 
ATOM     84  C   UNL A   1      44.307  23.230  26.941  1.00  0.00     0.051 A 
ATOM     85  N   UNL A   1      46.357  23.999  25.903  1.00  0.00    -0.249 NA
ATOM     86  C   UNL A   1      44.758  23.603  28.198  1.00  0.00     0.011 A 
ATOM     87  C   UNL A   1      46.718  24.472  27.117  1.00  0.00     0.113 A 
ATOM     88  C   UNL A   1      45.980  24.274  28.279  1.00  0.00     0.035 A 
BRANCH  86  89
ATOM     89  S   UNL A   1      43.929  23.142  29.718  1.00  0.00    -0.122 SA
BRANCH  89  90
ATOM     90  C   UNL A   1      44.569  24.348  30.959  1.00  0.00     0.057 C 
ATOM     91  C   UNL A   1      44.055  25.781  30.746  1.00  0.00     0.043 C 
ATOM     92  C   UNL A   1      44.179  23.925  32.381  1.00  0.00     0.050 C 
ATOM     93  C   UNL A   1      44.792  26.691  31.718  1.00  0.00     0.162 C 
ATOM     94  C   UNL A   1      44.853  24.884  33.376  1.00  0.00     0.069 C 
ATOM     95  O   UNL A   1      44.539  26.268  33.050  1.00  0.00    -0.375 OA
ATOM     96  C   UNL A   1      44.579  24.533  34.859  1.00  0.00     0.035 C 
ATOM     97  C   UNL A   1      46.353  24.572  33.651  1.00  0.00     0.035 C 
ATOM     98  C   UNL A   1      46.073  24.754  35.150  1.00  0.00     0.006 C 
ENDBRANCH  89  90
ENDBRANCH  86  89
ENDBRANCH  81  83
ENDBRANCH  80  81
ENDBRANCH  79  80
ENDBRANCH  78  79
ENDBRANCH  77  78
ENDBRANCH  76  77
ENDBRANCH   1  76
TORSDOF 22
ENDMDL
