MODEL 1
REMARK VINA RESULT:     -10.2      0.000      0.000
REMARK SMILES NS(=O)(=O)c1ccc(NS(=O)(=O)c2cccc(C(=O)OCCOCCOCCOC(=O)c3ccc(-c4c5nc(c(-c6c(F)cc(S(=O)(=O)[O-])cc6F)c6ccc([nH]6)c(-c6c(F)cc(S(=O)(=O)[O-])cc6F)c6nc(c(-c7c(F)cc(S(=O)(=O)[O-])cc7F)c7ccc4[nH]7)C=C6)C=C5)cc3)c2)cc1
REMARK SMILES IDX 24 1 23 2 22 3 21 4 20 5 18 6 19 7 17 8 13 9 14 10 98 11
REMARK SMILES IDX 15 12 16 13 10 14 11 15 12 16 9 17 8 19 5 20 6 21 100 22
REMARK SMILES IDX 7 23 99 24 2 25 3 26 4 27 1 28 25 31 26 32 27 33 28 34 29 35
REMARK SMILES IDX 30 36 31 37 32 38 33 39 97 40 34 41 96 42 35 43 36 44 37 45
REMARK SMILES IDX 90 46 38 47 95 48 89 49 91 50 39 51 94 52 88 53 87 54 40 56
REMARK SMILES IDX 74 57 53 58 73 59 54 60 57 61 72 62 92 63 55 64 56 65 71 67
REMARK SMILES IDX 93 68 58 69 41 70 42 71 51 72 43 73 44 74 50 75 52 76 45 77
REMARK SMILES IDX 46 78 47 79 48 80 49 81 75 82 76 83 85 84 77 85 78 86 84 87
REMARK SMILES IDX 86 88 79 89 80 90 81 91 82 92 83 93 59 94 60 95 69 96 61 97
REMARK SMILES IDX 62 98 68 99 70 100 63 101 64 102 65 103 66 104 67 105
REMARK H PARENT 9 18 1 29 1 30 91 55 57 66
REMARK Flexibility Score: inf
ROOT
ATOM      1  C   UNL A   1      36.286  33.346  28.422  1.00  0.00     0.188 C 
ENDROOT
BRANCH   1   2
ATOM      2  O   UNL A   1      35.145  32.976  27.656  1.00  0.00    -0.376 OA
BRANCH   2   3
ATOM      3  C   UNL A   1      34.235  32.008  28.163  1.00  0.00     0.202 C 
BRANCH   3   4
ATOM      4  C   UNL A   1      34.073  30.652  27.455  1.00  0.00     0.261 C 
BRANCH   4   5
ATOM      5  O   UNL A   1      32.797  30.006  27.631  1.00  0.00    -0.460 OA
BRANCH   5   6
ATOM      6  C   UNL A   1      31.944  30.142  26.587  1.00  0.00     0.338 C 
ATOM      7  O   UNL A   1      31.361  31.165  26.264  1.00  0.00    -0.246 OA
BRANCH   6   8
ATOM      8  C   UNL A   1      31.878  28.914  25.749  1.00  0.00     0.061 A 
ATOM      9  C   UNL A   1      31.300  26.603  25.301  1.00  0.00     0.088 A 
ATOM     10  C   UNL A   1      31.508  26.824  23.934  1.00  0.00     0.022 A 
ATOM     11  C   UNL A   1      31.468  27.656  26.222  1.00  0.00     0.038 A 
ATOM     12  C   UNL A   1      32.011  28.041  23.487  1.00  0.00     0.002 A 
ATOM     13  C   UNL A   1      32.192  29.082  24.392  1.00  0.00     0.016 A 
BRANCH   9  14
ATOM     14  S   UNL A   1      30.642  25.028  25.811  1.00  0.00     0.261 S 
ATOM     15  O   UNL A   1      30.532  24.196  24.631  1.00  0.00    -0.201 OA
ATOM     16  O   UNL A   1      29.470  25.285  26.626  1.00  0.00    -0.201 OA
BRANCH  14  17
ATOM     17  N   UNL A   1      31.759  24.267  26.858  1.00  0.00    -0.280 N 
ATOM     18  H   UNL A   1      31.578  24.224  27.825  1.00  0.00     0.180 HD
BRANCH  17  19
ATOM     19  C   UNL A   1      32.960  23.692  26.328  1.00  0.00     0.049 A 
ATOM     20  C   UNL A   1      35.304  22.468  25.431  1.00  0.00     0.082 A 
ATOM     21  C   UNL A   1      34.179  21.691  25.719  1.00  0.00     0.024 A 
ATOM     22  C   UNL A   1      35.254  23.860  25.551  1.00  0.00     0.024 A 
ATOM     23  C   UNL A   1      33.004  22.309  26.149  1.00  0.00     0.028 A 
ATOM     24  C   UNL A   1      34.079  24.473  26.016  1.00  0.00     0.028 A 
BRANCH  20  25
ATOM     25  S   UNL A   1      36.802  21.647  24.963  1.00  0.00     0.238 S 
ATOM     26  O   UNL A   1      37.236  22.173  23.694  1.00  0.00    -0.207 OA
ATOM     27  O   UNL A   1      36.628  20.235  25.221  1.00  0.00    -0.207 OA
BRANCH  25  28
ATOM     28  N   UNL A   1      37.936  22.191  26.079  1.00  0.00    -0.225 NA
ATOM     29  H   UNL A   1      38.717  21.536  26.117  1.00  0.00     0.137 HD
ATOM     30  H   UNL A   1      37.502  22.257  27.000  1.00  0.00     0.137 HD
ENDBRANCH  25  28
ENDBRANCH  20  25
ENDBRANCH  17  19
ENDBRANCH  14  17
ENDBRANCH   9  14
ENDBRANCH   6   8
ENDBRANCH   5   6
ENDBRANCH   4   5
ENDBRANCH   3   4
ENDBRANCH   2   3
ENDBRANCH   1   2
BRANCH   1  31
ATOM     31  C   UNL A   1      36.137  34.350  29.585  1.00  0.00     0.188 C 
BRANCH  31  32
ATOM     32  O   UNL A   1      36.787  33.944  30.773  1.00  0.00    -0.376 OA
BRANCH  32  33
ATOM     33  C   UNL A   1      35.978  33.699  31.912  1.00  0.00     0.202 C 
BRANCH  33  34
ATOM     34  C   UNL A   1      35.756  32.259  32.411  1.00  0.00     0.261 C 
BRANCH  34  35
ATOM     35  O   UNL A   1      36.851  31.340  32.275  1.00  0.00    -0.460 OA
BRANCH  35  36
ATOM     36  C   UNL A   1      36.776  30.436  31.272  1.00  0.00     0.338 C 
ATOM     37  O   UNL A   1      35.761  29.959  30.796  1.00  0.00    -0.246 OA
BRANCH  36  38
ATOM     38  C   UNL A   1      38.133  30.258  30.707  1.00  0.00     0.060 A 
ATOM     39  C   UNL A   1      38.257  29.967  29.344  1.00  0.00     0.016 A 
ATOM     40  C   UNL A   1      39.271  30.357  31.514  1.00  0.00     0.016 A 
ATOM     41  C   UNL A   1      39.518  29.733  28.793  1.00  0.00     0.010 A 
ATOM     42  C   UNL A   1      40.535  30.111  30.960  1.00  0.00     0.010 A 
ATOM     43  C   UNL A   1      40.662  29.764  29.603  1.00  0.00    -0.014 A 
BRANCH  43  44
ATOM     44  C   UNL A   1      41.954  29.286  29.046  1.00  0.00     0.031 A 
ATOM     45  C   UNL A   1      43.126  30.233  28.999  1.00  0.00     0.074 A 
ATOM     46  C   UNL A   1      42.107  28.009  28.647  1.00  0.00     0.049 A 
ATOM     47  N   UNL A   1      44.362  30.007  28.635  1.00  0.00    -0.248 NA
ATOM     48  C   UNL A   1      42.866  31.618  29.421  1.00  0.00     0.031 C 
ATOM     49  C   UNL A   1      41.056  26.992  28.651  1.00  0.00     0.029 A 
ATOM     50  N   UNL A   1      43.213  27.349  28.172  1.00  0.00    -0.354 N 
ATOM     51  C   UNL A   1      45.031  31.216  28.794  1.00  0.00     0.074 A 
ATOM     52  C   UNL A   1      44.052  32.182  29.245  1.00  0.00     0.031 C 
ATOM     53  C   UNL A   1      41.571  25.833  28.204  1.00  0.00     0.029 A 
ATOM     54  C   UNL A   1      42.980  26.028  27.868  1.00  0.00     0.049 A 
ATOM     55  H   UNL A   1      44.090  27.781  28.059  1.00  0.00     0.167 HD
ATOM     56  C   UNL A   1      46.342  31.495  28.597  1.00  0.00     0.037 A 
ATOM     57  C   UNL A   1      43.809  25.087  27.376  1.00  0.00     0.037 A 
ATOM     58  C   UNL A   1      47.314  30.535  28.141  1.00  0.00     0.049 A 
ATOM     59  C   UNL A   1      45.256  25.430  27.128  1.00  0.00     0.074 A 
ATOM     60  C   UNL A   1      48.670  30.715  27.927  1.00  0.00     0.029 A 
ATOM     61  N   UNL A   1      47.034  29.215  27.816  1.00  0.00    -0.354 N 
ATOM     62  N   UNL A   1      45.883  26.567  27.321  1.00  0.00    -0.248 NA
ATOM     63  C   UNL A   1      46.113  24.354  26.608  1.00  0.00     0.031 C 
ATOM     64  C   UNL A   1      49.201  29.520  27.429  1.00  0.00     0.029 A 
ATOM     65  C   UNL A   1      48.187  28.577  27.383  1.00  0.00     0.049 A 
ATOM     66  H   UNL A   1      46.147  28.793  27.884  1.00  0.00     0.167 HD
ATOM     67  C   UNL A   1      47.210  26.336  26.970  1.00  0.00     0.074 A 
ATOM     68  C   UNL A   1      47.299  24.946  26.572  1.00  0.00     0.031 C 
ATOM     69  C   UNL A   1      48.261  27.195  26.978  1.00  0.00     0.037 A 
BRANCH  56  70
ATOM     70  C   UNL A   1      46.798  32.904  28.859  1.00  0.00     0.058 A 
ATOM     71  C   UNL A   1      47.274  33.304  30.118  1.00  0.00     0.135 A 
ATOM     72  C   UNL A   1      46.784  33.861  27.831  1.00  0.00     0.135 A 
ATOM     73  F   UNL A   1      47.294  32.437  31.142  1.00  0.00    -0.206 F 
ATOM     74  C   UNL A   1      47.695  34.609  30.356  1.00  0.00     0.059 A 
ATOM     75  C   UNL A   1      47.226  35.164  28.039  1.00  0.00     0.059 A 
ATOM     76  F   UNL A   1      46.337  33.533  26.609  1.00  0.00    -0.206 F 
ATOM     77  C   UNL A   1      47.666  35.533  29.310  1.00  0.00     0.060 A 
BRANCH  77  78
ATOM     78  S   UNL A   1      48.220  37.220  29.632  1.00  0.00     0.124 S 
ATOM     79  O   UNL A   1      49.241  37.001  30.652  1.00  0.00    -0.237 OA
ATOM     80  O   UNL A   1      48.711  37.645  28.326  1.00  0.00    -0.237 OA
ATOM     81  O   UNL A   1      47.010  37.895  30.093  1.00  0.00    -0.744 OA
ENDBRANCH  77  78
ENDBRANCH  56  70
BRANCH  57  82
ATOM     82  C   UNL A   1      43.296  23.719  27.091  1.00  0.00     0.058 A 
ATOM     83  C   UNL A   1      42.891  23.346  25.801  1.00  0.00     0.135 A 
ATOM     84  C   UNL A   1      43.194  22.760  28.111  1.00  0.00     0.135 A 
ATOM     85  F   UNL A   1      42.955  24.232  24.796  1.00  0.00    -0.206 F 
ATOM     86  C   UNL A   1      42.389  22.076  25.533  1.00  0.00     0.059 A 
ATOM     87  C   UNL A   1      42.721  21.475  27.861  1.00  0.00     0.059 A 
ATOM     88  F   UNL A   1      43.576  23.063  29.360  1.00  0.00    -0.206 F 
ATOM     89  C   UNL A   1      42.311  21.145  26.571  1.00  0.00     0.060 A 
BRANCH  89  90
ATOM     90  S   UNL A   1      41.706  19.484  26.203  1.00  0.00     0.124 S 
ATOM     91  O   UNL A   1      42.459  19.156  24.998  1.00  0.00    -0.237 OA
ATOM     92  O   UNL A   1      42.078  18.749  27.408  1.00  0.00    -0.237 OA
ATOM     93  O   UNL A   1      40.272  19.683  26.018  1.00  0.00    -0.744 OA
ENDBRANCH  89  90
ENDBRANCH  57  82
BRANCH  69  94
ATOM     94  C   UNL A   1      49.602  26.644  26.568  1.00  0.00     0.058 A 
ATOM     95  C   UNL A   1      50.457  26.014  27.486  1.00  0.00     0.135 A 
ATOM     96  C   UNL A   1      50.036  26.747  25.235  1.00  0.00     0.135 A 
ATOM     97  F   UNL A   1      50.093  25.889  28.772  1.00  0.00    -0.206 F 
ATOM     98  C   UNL A   1      51.715  25.553  27.111  1.00  0.00     0.059 A 
ATOM     99  C   UNL A   1      51.277  26.264  24.832  1.00  0.00     0.059 A 
ATOM    100  F   UNL A   1      49.252  27.322  24.310  1.00  0.00    -0.206 F 
ATOM    101  C   UNL A   1      52.121  25.690  25.782  1.00  0.00     0.060 A 
BRANCH 101 102
ATOM    102  S   UNL A   1      53.762  25.108  25.308  1.00  0.00     0.124 S 
ATOM    103  O   UNL A   1      54.584  25.636  26.391  1.00  0.00    -0.237 OA
ATOM    104  O   UNL A   1      53.590  23.658  25.292  1.00  0.00    -0.237 OA
ATOM    105  O   UNL A   1      53.975  25.721  24.000  1.00  0.00    -0.744 OA
ENDBRANCH 101 102
ENDBRANCH  69  94
ENDBRANCH  43  44
ENDBRANCH  36  38
ENDBRANCH  35  36
ENDBRANCH  34  35
ENDBRANCH  33  34
ENDBRANCH  32  33
ENDBRANCH  31  32
ENDBRANCH   1  31
TORSDOF 25
ENDMDL
MODEL 2
REMARK VINA RESULT:     -10.1      6.385     12.347
REMARK SMILES NS(=O)(=O)c1ccc(NS(=O)(=O)c2cccc(C(=O)OCCOCCOCCOC(=O)c3ccc(-c4c5nc(c(-c6c(F)cc(S(=O)(=O)[O-])cc6F)c6ccc([nH]6)c(-c6c(F)cc(S(=O)(=O)[O-])cc6F)c6nc(c(-c7c(F)cc(S(=O)(=O)[O-])cc7F)c7ccc4[nH]7)C=C6)C=C5)cc3)c2)cc1
REMARK SMILES IDX 24 1 23 2 22 3 21 4 20 5 18 6 19 7 17 8 13 9 14 10 98 11
REMARK SMILES IDX 15 12 16 13 10 14 11 15 12 16 9 17 8 19 5 20 6 21 100 22
REMARK SMILES IDX 7 23 99 24 2 25 3 26 4 27 1 28 25 31 26 32 27 33 28 34 29 35
REMARK SMILES IDX 30 36 31 37 32 38 33 39 97 40 34 41 96 42 35 43 36 44 37 45
REMARK SMILES IDX 90 46 38 47 95 48 89 49 91 50 39 51 94 52 88 53 87 54 40 56
REMARK SMILES IDX 74 57 53 58 73 59 54 60 57 61 72 62 92 63 55 64 56 65 71 67
REMARK SMILES IDX 93 68 58 69 41 70 42 71 51 72 43 73 44 74 50 75 52 76 45 77
REMARK SMILES IDX 46 78 47 79 48 80 49 81 75 82 76 83 85 84 77 85 78 86 84 87
REMARK SMILES IDX 86 88 79 89 80 90 81 91 82 92 83 93 59 94 60 95 69 96 61 97
REMARK SMILES IDX 62 98 68 99 70 100 63 101 64 102 65 103 66 104 67 105
REMARK H PARENT 9 18 1 29 1 30 91 55 57 66
REMARK Flexibility Score: inf
ROOT
ATOM      1  C   UNL A   1      36.355  20.372  25.006  1.00  0.00     0.188 C 
ENDROOT
BRANCH   1   2
ATOM      2  O   UNL A   1      36.429  19.068  24.442  1.00  0.00    -0.376 OA
BRANCH   2   3
ATOM      3  C   UNL A   1      35.699  17.999  25.031  1.00  0.00     0.202 C 
BRANCH   3   4
ATOM      4  C   UNL A   1      34.606  17.273  24.228  1.00  0.00     0.261 C 
BRANCH   4   5
ATOM      5  O   UNL A   1      33.262  17.746  24.439  1.00  0.00    -0.460 OA
BRANCH   5   6
ATOM      6  C   UNL A   1      32.683  18.314  23.353  1.00  0.00     0.338 C 
ATOM      7  O   UNL A   1      32.233  17.721  22.386  1.00  0.00    -0.246 OA
BRANCH   6   8
ATOM      8  C   UNL A   1      32.517  19.785  23.508  1.00  0.00     0.061 A 
ATOM      9  C   UNL A   1      32.744  21.899  24.670  1.00  0.00     0.088 A 
ATOM     10  C   UNL A   1      32.457  22.577  23.479  1.00  0.00     0.022 A 
ATOM     11  C   UNL A   1      32.794  20.491  24.690  1.00  0.00     0.038 A 
ATOM     12  C   UNL A   1      32.085  21.870  22.340  1.00  0.00     0.002 A 
ATOM     13  C   UNL A   1      32.118  20.479  22.355  1.00  0.00     0.016 A 
BRANCH   9  14
ATOM     14  S   UNL A   1      33.227  22.859  26.092  1.00  0.00     0.261 S 
ATOM     15  O   UNL A   1      34.362  23.672  25.707  1.00  0.00    -0.201 OA
ATOM     16  O   UNL A   1      33.336  21.952  27.218  1.00  0.00    -0.201 OA
BRANCH  14  17
ATOM     17  N   UNL A   1      31.959  23.930  26.500  1.00  0.00    -0.280 N 
ATOM     18  H   UNL A   1      31.449  23.796  27.332  1.00  0.00     0.180 HD
BRANCH  17  19
ATOM     19  C   UNL A   1      31.638  25.025  25.631  1.00  0.00     0.049 A 
ATOM     20  C   UNL A   1      31.088  27.261  24.052  1.00  0.00     0.082 A 
ATOM     21  C   UNL A   1      32.399  27.002  24.461  1.00  0.00     0.024 A 
ATOM     22  C   UNL A   1      30.052  26.385  24.396  1.00  0.00     0.024 A 
ATOM     23  C   UNL A   1      32.672  25.874  25.234  1.00  0.00     0.028 A 
ATOM     24  C   UNL A   1      30.328  25.269  25.202  1.00  0.00     0.028 A 
BRANCH  20  25
ATOM     25  S   UNL A   1      30.762  28.743  23.139  1.00  0.00     0.238 S 
ATOM     26  O   UNL A   1      30.445  29.795  24.070  1.00  0.00    -0.207 OA
ATOM     27  O   UNL A   1      29.918  28.392  22.018  1.00  0.00    -0.207 OA
BRANCH  25  28
ATOM     28  N   UNL A   1      32.255  29.163  22.488  1.00  0.00    -0.225 NA
ATOM     29  H   UNL A   1      32.382  28.687  21.595  1.00  0.00     0.137 HD
ATOM     30  H   UNL A   1      32.996  28.882  23.131  1.00  0.00     0.137 HD
ENDBRANCH  25  28
ENDBRANCH  20  25
ENDBRANCH  17  19
ENDBRANCH  14  17
ENDBRANCH   9  14
ENDBRANCH   6   8
ENDBRANCH   5   6
ENDBRANCH   4   5
ENDBRANCH   3   4
ENDBRANCH   2   3
ENDBRANCH   1   2
BRANCH   1  31
ATOM     31  C   UNL A   1      37.642  21.203  25.191  1.00  0.00     0.188 C 
BRANCH  31  32
ATOM     32  O   UNL A   1      37.404  22.581  25.401  1.00  0.00    -0.376 OA
BRANCH  32  33
ATOM     33  C   UNL A   1      38.377  23.310  26.132  1.00  0.00     0.202 C 
BRANCH  33  34
ATOM     34  C   UNL A   1      39.677  22.624  26.592  1.00  0.00     0.261 C 
BRANCH  34  35
ATOM     35  O   UNL A   1      40.450  23.289  27.602  1.00  0.00    -0.460 OA
BRANCH  35  36
ATOM     36  C   UNL A   1      41.193  24.349  27.212  1.00  0.00     0.338 C 
ATOM     37  O   UNL A   1      41.893  24.421  26.218  1.00  0.00    -0.246 OA
BRANCH  36  38
ATOM     38  C   UNL A   1      40.869  25.493  28.095  1.00  0.00     0.060 A 
ATOM     39  C   UNL A   1      41.877  26.418  28.389  1.00  0.00     0.016 A 
ATOM     40  C   UNL A   1      39.592  25.643  28.646  1.00  0.00     0.016 A 
ATOM     41  C   UNL A   1      41.622  27.473  29.266  1.00  0.00     0.010 A 
ATOM     42  C   UNL A   1      39.341  26.697  29.535  1.00  0.00     0.010 A 
ATOM     43  C   UNL A   1      40.366  27.599  29.876  1.00  0.00    -0.014 A 
BRANCH  43  44
ATOM     44  C   UNL A   1      40.192  28.584  30.975  1.00  0.00     0.031 A 
ATOM     45  C   UNL A   1      41.073  28.484  32.193  1.00  0.00     0.074 A 
ATOM     46  C   UNL A   1      39.310  29.596  30.865  1.00  0.00     0.049 A 
ATOM     47  N   UNL A   1      41.153  29.281  33.228  1.00  0.00    -0.248 NA
ATOM     48  C   UNL A   1      41.986  27.332  32.249  1.00  0.00     0.031 C 
ATOM     49  C   UNL A   1      38.407  29.810  29.735  1.00  0.00     0.029 A 
ATOM     50  N   UNL A   1      39.039  30.639  31.715  1.00  0.00    -0.354 N 
ATOM     51  C   UNL A   1      42.130  28.734  34.053  1.00  0.00     0.074 A 
ATOM     52  C   UNL A   1      42.582  27.514  33.418  1.00  0.00     0.031 C 
ATOM     53  C   UNL A   1      37.685  30.921  29.961  1.00  0.00     0.029 A 
ATOM     54  C   UNL A   1      38.061  31.488  31.255  1.00  0.00     0.049 A 
ATOM     55  H   UNL A   1      39.500  30.766  32.575  1.00  0.00     0.167 HD
ATOM     56  C   UNL A   1      42.619  29.210  35.224  1.00  0.00     0.037 A 
ATOM     57  C   UNL A   1      37.531  32.595  31.813  1.00  0.00     0.037 A 
ATOM     58  C   UNL A   1      42.162  30.420  35.859  1.00  0.00     0.049 A 
ATOM     59  C   UNL A   1      38.063  33.084  33.135  1.00  0.00     0.074 A 
ATOM     60  C   UNL A   1      42.606  30.995  37.037  1.00  0.00     0.029 A 
ATOM     61  N   UNL A   1      41.151  31.237  35.376  1.00  0.00    -0.354 N 
ATOM     62  N   UNL A   1      39.015  32.579  33.884  1.00  0.00    -0.248 NA
ATOM     63  C   UNL A   1      37.456  34.307  33.683  1.00  0.00     0.031 C 
ATOM     64  C   UNL A   1      41.832  32.133  37.292  1.00  0.00     0.029 A 
ATOM     65  C   UNL A   1      40.941  32.298  36.244  1.00  0.00     0.049 A 
ATOM     66  H   UNL A   1      40.654  31.086  34.539  1.00  0.00     0.167 HD
ATOM     67  C   UNL A   1      39.138  33.433  34.976  1.00  0.00     0.074 A 
ATOM     68  C   UNL A   1      38.176  34.499  34.779  1.00  0.00     0.031 C 
ATOM     69  C   UNL A   1      39.973  33.347  36.043  1.00  0.00     0.037 A 
BRANCH  56  70
ATOM     70  C   UNL A   1      43.693  28.407  35.904  1.00  0.00     0.058 A 
ATOM     71  C   UNL A   1      43.385  27.364  36.792  1.00  0.00     0.135 A 
ATOM     72  C   UNL A   1      45.049  28.666  35.646  1.00  0.00     0.135 A 
ATOM     73  F   UNL A   1      42.107  27.083  37.090  1.00  0.00    -0.206 F 
ATOM     74  C   UNL A   1      44.383  26.624  37.420  1.00  0.00     0.059 A 
ATOM     75  C   UNL A   1      46.062  27.922  36.241  1.00  0.00     0.059 A 
ATOM     76  F   UNL A   1      45.400  29.654  34.807  1.00  0.00    -0.206 F 
ATOM     77  C   UNL A   1      45.720  26.912  37.139  1.00  0.00     0.060 A 
BRANCH  77  78
ATOM     78  S   UNL A   1      47.002  25.940  37.957  1.00  0.00     0.124 S 
ATOM     79  O   UNL A   1      48.113  26.887  37.982  1.00  0.00    -0.237 OA
ATOM     80  O   UNL A   1      46.394  25.644  39.250  1.00  0.00    -0.237 OA
ATOM     81  O   UNL A   1      47.177  24.792  37.072  1.00  0.00    -0.744 OA
ENDBRANCH  77  78
ENDBRANCH  56  70
BRANCH  57  82
ATOM     82  C   UNL A   1      36.437  33.327  31.119  1.00  0.00     0.058 A 
ATOM     83  C   UNL A   1      36.685  34.093  29.971  1.00  0.00     0.135 A 
ATOM     84  C   UNL A   1      35.119  33.279  31.600  1.00  0.00     0.135 A 
ATOM     85  F   UNL A   1      37.931  34.183  29.482  1.00  0.00    -0.206 F 
ATOM     86  C   UNL A   1      35.671  34.798  29.331  1.00  0.00     0.059 A 
ATOM     87  C   UNL A   1      34.082  33.954  30.962  1.00  0.00     0.059 A 
ATOM     88  F   UNL A   1      34.827  32.554  32.690  1.00  0.00    -0.206 F 
ATOM     89  C   UNL A   1      34.370  34.719  29.833  1.00  0.00     0.060 A 
BRANCH  89  90
ATOM     90  S   UNL A   1      33.050  35.597  28.967  1.00  0.00     0.124 S 
ATOM     91  O   UNL A   1      33.806  36.572  28.190  1.00  0.00    -0.237 OA
ATOM     92  O   UNL A   1      32.419  34.525  28.205  1.00  0.00    -0.237 OA
ATOM     93  O   UNL A   1      32.242  36.143  30.052  1.00  0.00    -0.744 OA
ENDBRANCH  89  90
ENDBRANCH  57  82
BRANCH  69  94
ATOM     94  C   UNL A   1      39.896  34.451  37.066  1.00  0.00     0.058 A 
ATOM     95  C   UNL A   1      40.658  35.625  36.949  1.00  0.00     0.135 A 
ATOM     96  C   UNL A   1      39.046  34.333  38.179  1.00  0.00     0.135 A 
ATOM     97  F   UNL A   1      41.486  35.790  35.906  1.00  0.00    -0.206 F 
ATOM     98  C   UNL A   1      40.620  36.617  37.923  1.00  0.00     0.059 A 
ATOM     99  C   UNL A   1      38.969  35.327  39.148  1.00  0.00     0.059 A 
ATOM    100  F   UNL A   1      38.280  33.241  38.333  1.00  0.00    -0.206 F 
ATOM    101  C   UNL A   1      39.778  36.456  39.025  1.00  0.00     0.060 A 
BRANCH 101 102
ATOM    102  S   UNL A   1      39.751  37.738  40.295  1.00  0.00     0.124 S 
ATOM    103  O   UNL A   1      39.905  36.950  41.512  1.00  0.00    -0.237 OA
ATOM    104  O   UNL A   1      40.894  38.569  39.928  1.00  0.00    -0.237 OA
ATOM    105  O   UNL A   1      38.445  38.367  40.114  1.00  0.00    -0.744 OA
ENDBRANCH 101 102
ENDBRANCH  69  94
ENDBRANCH  43  44
ENDBRANCH  36  38
ENDBRANCH  35  36
ENDBRANCH  34  35
ENDBRANCH  33  34
ENDBRANCH  32  33
ENDBRANCH  31  32
ENDBRANCH   1  31
TORSDOF 25
ENDMDL
MODEL 3
REMARK VINA RESULT:      -9.9      1.916      2.674
REMARK SMILES NS(=O)(=O)c1ccc(NS(=O)(=O)c2cccc(C(=O)OCCOCCOCCOC(=O)c3ccc(-c4c5nc(c(-c6c(F)cc(S(=O)(=O)[O-])cc6F)c6ccc([nH]6)c(-c6c(F)cc(S(=O)(=O)[O-])cc6F)c6nc(c(-c7c(F)cc(S(=O)(=O)[O-])cc7F)c7ccc4[nH]7)C=C6)C=C5)cc3)c2)cc1
REMARK SMILES IDX 24 1 23 2 22 3 21 4 20 5 18 6 19 7 17 8 13 9 14 10 98 11
REMARK SMILES IDX 15 12 16 13 10 14 11 15 12 16 9 17 8 19 5 20 6 21 100 22
REMARK SMILES IDX 7 23 99 24 2 25 3 26 4 27 1 28 25 31 26 32 27 33 28 34 29 35
REMARK SMILES IDX 30 36 31 37 32 38 33 39 97 40 34 41 96 42 35 43 36 44 37 45
REMARK SMILES IDX 90 46 38 47 95 48 89 49 91 50 39 51 94 52 88 53 87 54 40 56
REMARK SMILES IDX 74 57 53 58 73 59 54 60 57 61 72 62 92 63 55 64 56 65 71 67
REMARK SMILES IDX 93 68 58 69 41 70 42 71 51 72 43 73 44 74 50 75 52 76 45 77
REMARK SMILES IDX 46 78 47 79 48 80 49 81 75 82 76 83 85 84 77 85 78 86 84 87
REMARK SMILES IDX 86 88 79 89 80 90 81 91 82 92 83 93 59 94 60 95 69 96 61 97
REMARK SMILES IDX 62 98 68 99 70 100 63 101 64 102 65 103 66 104 67 105
REMARK H PARENT 9 18 1 29 1 30 91 55 57 66
REMARK Flexibility Score: inf
ROOT
ATOM      1  C   UNL A   1      33.528  35.146  29.311  1.00  0.00     0.188 C 
ENDROOT
BRANCH   1   2
ATOM      2  O   UNL A   1      33.536  33.723  29.322  1.00  0.00    -0.376 OA
BRANCH   2   3
ATOM      3  C   UNL A   1      34.689  33.018  28.879  1.00  0.00     0.202 C 
BRANCH   3   4
ATOM      4  C   UNL A   1      34.616  32.126  27.628  1.00  0.00     0.261 C 
BRANCH   4   5
ATOM      5  O   UNL A   1      33.636  31.070  27.673  1.00  0.00    -0.460 OA
BRANCH   5   6
ATOM      6  C   UNL A   1      34.073  29.871  27.217  1.00  0.00     0.338 C 
ATOM      7  O   UNL A   1      35.195  29.412  27.365  1.00  0.00    -0.246 OA
BRANCH   6   8
ATOM      8  C   UNL A   1      32.980  29.067  26.606  1.00  0.00     0.061 A 
ATOM      9  C   UNL A   1      31.809  28.013  24.765  1.00  0.00     0.088 A 
ATOM     10  C   UNL A   1      31.075  27.248  25.679  1.00  0.00     0.022 A 
ATOM     11  C   UNL A   1      32.784  28.921  25.223  1.00  0.00     0.038 A 
ATOM     12  C   UNL A   1      31.202  27.472  27.046  1.00  0.00     0.002 A 
ATOM     13  C   UNL A   1      32.154  28.377  27.507  1.00  0.00     0.016 A 
BRANCH   9  14
ATOM     14  S   UNL A   1      31.612  27.671  23.027  1.00  0.00     0.261 S 
ATOM     15  O   UNL A   1      31.929  28.884  22.303  1.00  0.00    -0.201 OA
ATOM     16  O   UNL A   1      30.319  27.039  22.847  1.00  0.00    -0.201 OA
BRANCH  14  17
ATOM     17  N   UNL A   1      32.757  26.493  22.555  1.00  0.00    -0.280 N 
ATOM     18  H   UNL A   1      33.257  26.600  21.713  1.00  0.00     0.180 HD
BRANCH  17  19
ATOM     19  C   UNL A   1      32.991  25.348  23.387  1.00  0.00     0.049 A 
ATOM     20  C   UNL A   1      33.611  23.128  24.962  1.00  0.00     0.082 A 
ATOM     21  C   UNL A   1      34.293  24.332  25.156  1.00  0.00     0.024 A 
ATOM     22  C   UNL A   1      32.591  23.036  24.010  1.00  0.00     0.024 A 
ATOM     23  C   UNL A   1      33.967  25.444  24.379  1.00  0.00     0.028 A 
ATOM     24  C   UNL A   1      32.290  24.149  23.209  1.00  0.00     0.028 A 
BRANCH  20  25
ATOM     25  S   UNL A   1      34.102  21.714  25.910  1.00  0.00     0.238 S 
ATOM     26  O   UNL A   1      35.420  21.955  26.441  1.00  0.00    -0.207 OA
ATOM     27  O   UNL A   1      33.754  20.534  25.151  1.00  0.00    -0.207 OA
BRANCH  25  28
ATOM     28  N   UNL A   1      33.077  21.735  27.243  1.00  0.00    -0.225 NA
ATOM     29  H   UNL A   1      33.611  21.519  28.086  1.00  0.00     0.137 HD
ATOM     30  H   UNL A   1      32.343  21.038  27.117  1.00  0.00     0.137 HD
ENDBRANCH  25  28
ENDBRANCH  20  25
ENDBRANCH  17  19
ENDBRANCH  14  17
ENDBRANCH   9  14
ENDBRANCH   6   8
ENDBRANCH   5   6
ENDBRANCH   4   5
ENDBRANCH   3   4
ENDBRANCH   2   3
ENDBRANCH   1   2
BRANCH   1  31
ATOM     31  C   UNL A   1      33.167  35.923  30.595  1.00  0.00     0.188 C 
BRANCH  31  32
ATOM     32  O   UNL A   1      32.998  35.096  31.730  1.00  0.00    -0.376 OA
BRANCH  32  33
ATOM     33  C   UNL A   1      34.168  34.659  32.402  1.00  0.00     0.202 C 
BRANCH  33  34
ATOM     34  C   UNL A   1      34.326  33.179  32.800  1.00  0.00     0.261 C 
BRANCH  34  35
ATOM     35  O   UNL A   1      35.410  32.451  32.205  1.00  0.00    -0.460 OA
BRANCH  35  36
ATOM     36  C   UNL A   1      36.459  32.144  33.002  1.00  0.00     0.338 C 
ATOM     37  O   UNL A   1      36.491  32.207  34.218  1.00  0.00    -0.246 OA
BRANCH  36  38
ATOM     38  C   UNL A   1      37.514  31.530  32.164  1.00  0.00     0.060 A 
ATOM     39  C   UNL A   1      38.557  30.845  32.798  1.00  0.00     0.016 A 
ATOM     40  C   UNL A   1      37.489  31.644  30.770  1.00  0.00     0.016 A 
ATOM     41  C   UNL A   1      39.600  30.308  32.041  1.00  0.00     0.010 A 
ATOM     42  C   UNL A   1      38.543  31.113  30.014  1.00  0.00     0.010 A 
ATOM     43  C   UNL A   1      39.621  30.471  30.649  1.00  0.00    -0.014 A 
BRANCH  43  44
ATOM     44  C   UNL A   1      40.847  30.097  29.897  1.00  0.00     0.031 A 
ATOM     45  C   UNL A   1      41.931  31.127  29.705  1.00  0.00     0.074 A 
ATOM     46  C   UNL A   1      41.029  28.841  29.447  1.00  0.00     0.049 A 
ATOM     47  N   UNL A   1      43.113  30.997  29.160  1.00  0.00    -0.248 NA
ATOM     48  C   UNL A   1      41.641  32.483  30.198  1.00  0.00     0.031 C 
ATOM     49  C   UNL A   1      40.063  27.750  29.577  1.00  0.00     0.029 A 
ATOM     50  N   UNL A   1      42.096  28.270  28.799  1.00  0.00    -0.354 N 
ATOM     51  C   UNL A   1      43.712  32.249  29.251  1.00  0.00     0.074 A 
ATOM     52  C   UNL A   1      42.745  33.134  29.865  1.00  0.00     0.031 C 
ATOM     53  C   UNL A   1      40.585  26.639  29.029  1.00  0.00     0.029 A 
ATOM     54  C   UNL A   1      41.913  26.941  28.497  1.00  0.00     0.049 A 
ATOM     55  H   UNL A   1      42.914  28.766  28.571  1.00  0.00     0.167 HD
ATOM     56  C   UNL A   1      44.958  32.625  28.874  1.00  0.00     0.037 A 
ATOM     57  C   UNL A   1      42.725  26.070  27.865  1.00  0.00     0.037 A 
ATOM     58  C   UNL A   1      45.916  31.745  28.255  1.00  0.00     0.049 A 
ATOM     59  C   UNL A   1      44.091  26.522  27.418  1.00  0.00     0.074 A 
ATOM     60  C   UNL A   1      47.210  32.027  27.852  1.00  0.00     0.029 A 
ATOM     61  N   UNL A   1      45.684  30.414  27.940  1.00  0.00    -0.354 N 
ATOM     62  N   UNL A   1      44.660  27.698  27.548  1.00  0.00    -0.248 NA
ATOM     63  C   UNL A   1      44.935  25.519  26.751  1.00  0.00     0.031 C 
ATOM     64  C   UNL A   1      47.744  30.882  27.250  1.00  0.00     0.029 A 
ATOM     65  C   UNL A   1      46.802  29.869  27.327  1.00  0.00     0.049 A 
ATOM     66  H   UNL A   1      44.848  29.928  28.125  1.00  0.00     0.167 HD
ATOM     67  C   UNL A   1      45.933  27.570  27.002  1.00  0.00     0.074 A 
ATOM     68  C   UNL A   1      46.059  26.196  26.558  1.00  0.00     0.031 C 
ATOM     69  C   UNL A   1      46.912  28.502  26.880  1.00  0.00     0.037 A 
BRANCH  56  70
ATOM     70  C   UNL A   1      45.349  34.059  29.103  1.00  0.00     0.058 A 
ATOM     71  C   UNL A   1      46.012  34.466  30.272  1.00  0.00     0.135 A 
ATOM     72  C   UNL A   1      45.079  35.037  28.131  1.00  0.00     0.135 A 
ATOM     73  F   UNL A   1      46.280  33.578  31.243  1.00  0.00    -0.206 F 
ATOM     74  C   UNL A   1      46.372  35.794  30.480  1.00  0.00     0.059 A 
ATOM     75  C   UNL A   1      45.454  36.365  28.307  1.00  0.00     0.059 A 
ATOM     76  F   UNL A   1      44.445  34.703  26.996  1.00  0.00    -0.206 F 
ATOM     77  C   UNL A   1      46.087  36.737  29.492  1.00  0.00     0.060 A 
BRANCH  77  78
ATOM     78  S   UNL A   1      46.564  38.455  29.775  1.00  0.00     0.124 S 
ATOM     79  O   UNL A   1      45.260  39.105  29.875  1.00  0.00    -0.237 OA
ATOM     80  O   UNL A   1      47.325  38.369  31.016  1.00  0.00    -0.237 OA
ATOM     81  O   UNL A   1      47.343  38.793  28.588  1.00  0.00    -0.744 OA
ENDBRANCH  77  78
ENDBRANCH  56  70
BRANCH  57  82
ATOM     82  C   UNL A   1      42.271  24.674  27.622  1.00  0.00     0.058 A 
ATOM     83  C   UNL A   1      42.644  23.626  28.476  1.00  0.00     0.135 A 
ATOM     84  C   UNL A   1      41.459  24.361  26.520  1.00  0.00     0.135 A 
ATOM     85  F   UNL A   1      43.432  23.872  29.534  1.00  0.00    -0.206 F 
ATOM     86  C   UNL A   1      42.242  22.315  28.241  1.00  0.00     0.059 A 
ATOM     87  C   UNL A   1      41.022  23.061  26.279  1.00  0.00     0.059 A 
ATOM     88  F   UNL A   1      41.068  25.327  25.677  1.00  0.00    -0.206 F 
ATOM     89  C   UNL A   1      41.427  22.043  27.140  1.00  0.00     0.060 A 
BRANCH  89  90
ATOM     90  S   UNL A   1      40.869  20.347  26.872  1.00  0.00     0.124 S 
ATOM     91  O   UNL A   1      40.768  19.850  28.239  1.00  0.00    -0.237 OA
ATOM     92  O   UNL A   1      39.605  20.548  26.170  1.00  0.00    -0.237 OA
ATOM     93  O   UNL A   1      41.938  19.765  26.066  1.00  0.00    -0.744 OA
ENDBRANCH  89  90
ENDBRANCH  57  82
BRANCH  69  94
ATOM     94  C   UNL A   1      48.213  28.057  26.264  1.00  0.00     0.058 A 
ATOM     95  C   UNL A   1      49.361  27.828  27.040  1.00  0.00     0.135 A 
ATOM     96  C   UNL A   1      48.312  27.853  24.877  1.00  0.00     0.135 A 
ATOM     97  F   UNL A   1      49.323  28.008  28.370  1.00  0.00    -0.206 F 
ATOM     98  C   UNL A   1      50.572  27.466  26.460  1.00  0.00     0.059 A 
ATOM     99  C   UNL A   1      49.505  27.460  24.279  1.00  0.00     0.059 A 
ATOM    100  F   UNL A   1      47.242  28.038  24.088  1.00  0.00    -0.206 F 
ATOM    101  C   UNL A   1      50.637  27.293  25.075  1.00  0.00     0.060 A 
BRANCH 101 102
ATOM    102  S   UNL A   1      52.217  26.843  24.328  1.00  0.00     0.124 S 
ATOM    103  O   UNL A   1      52.375  25.466  24.783  1.00  0.00    -0.237 OA
ATOM    104  O   UNL A   1      51.952  27.013  22.902  1.00  0.00    -0.237 OA
ATOM    105  O   UNL A   1      53.151  27.806  24.904  1.00  0.00    -0.744 OA
ENDBRANCH 101 102
ENDBRANCH  69  94
ENDBRANCH  43  44
ENDBRANCH  36  38
ENDBRANCH  35  36
ENDBRANCH  34  35
ENDBRANCH  33  34
ENDBRANCH  32  33
ENDBRANCH  31  32
ENDBRANCH   1  31
TORSDOF 25
ENDMDL
