MODEL 1
REMARK VINA RESULT:      -6.9      0.000      0.000
REMARK SMILES CC(C)C[C@H](NC(=O)[C@@H](NC(=O)N1CC(OCCOCCOCCOC(=O)c2ccc(-c3c4nc(c(-c5c(F)cc(S(=O)(=O)[O-])cc5F)c5ccc([nH]5)c(-c5c(F)cc(S(=O)(=O)[O-])cc5F)c5nc(c(-c6c(F)cc(S(=O)(=O)[O-])cc6F)c6ccc3[nH]6)C=C5)C=C4)cc2)=Nc2ccccc21)C(C)C)C(=O)[O-]
REMARK SMILES IDX 20 1 19 2 18 3 17 4 16 5 15 6 13 7 14 8 100 9 95 10 99 11
REMARK SMILES IDX 94 12 96 13 98 14 97 15 11 16 10 17 12 19 9 20 7 21 6 22
REMARK SMILES IDX 8 24 5 25 4 26 2 27 1 28 3 29 104 30 105 31 106 32 101 33
REMARK SMILES IDX 102 34 103 35 21 36 22 37 23 38 24 39 25 40 26 41 27 42
REMARK SMILES IDX 28 43 29 44 93 45 30 46 92 47 31 48 32 49 33 50 86 51 34 52
REMARK SMILES IDX 91 53 85 54 87 55 35 56 90 57 84 58 83 59 36 61 70 62 49 63
REMARK SMILES IDX 69 64 50 65 53 66 68 67 88 68 51 69 52 70 67 72 89 73 54 74
REMARK SMILES IDX 37 75 38 76 47 77 39 78 40 79 46 80 48 81 41 82 42 83 43 84
REMARK SMILES IDX 44 85 45 86 71 87 72 88 81 89 73 90 74 91 80 92 82 93 75 94
REMARK SMILES IDX 76 95 77 96 78 97 79 98 55 99 56 100 65 101 57 102 58 103
REMARK SMILES IDX 64 104 66 105 59 106 60 107 61 108 62 109 63 110
REMARK H PARENT 10 18 6 23 87 60 53 71
REMARK Flexibility Score: inf
ROOT
ATOM      1  C   UNL A   1      37.948  34.053  34.122  1.00  0.00     0.188 C 
ENDROOT
BRANCH   1   2
ATOM      2  O   UNL A   1      38.335  33.357  35.303  1.00  0.00    -0.376 OA
BRANCH   2   3
ATOM      3  C   UNL A   1      39.720  33.530  35.619  1.00  0.00     0.201 C 
BRANCH   3   4
ATOM      4  C   UNL A   1      40.649  33.305  34.418  1.00  0.00     0.259 C 
BRANCH   4   5
ATOM      5  O   UNL A   1      40.866  31.896  34.178  1.00  0.00    -0.477 OA
BRANCH   5   6
ATOM      6  C   UNL A   1      42.135  31.421  34.119  1.00  0.00     0.209 C 
ATOM      7  N   UNL A   1      43.940  30.739  35.597  1.00  0.00    -0.283 N 
ATOM      8  C   UNL A   1      42.509  30.592  35.330  1.00  0.00     0.224 C 
ATOM      9  C   UNL A   1      44.737  30.572  34.419  1.00  0.00     0.072 A 
ATOM     10  C   UNL A   1      44.208  31.068  33.200  1.00  0.00     0.091 A 
ATOM     11  C   UNL A   1      46.005  29.988  34.429  1.00  0.00     0.029 A 
ATOM     12  N   UNL A   1      42.918  31.631  33.109  1.00  0.00    -0.214 NA
ATOM     13  C   UNL A   1      45.008  31.083  32.055  1.00  0.00     0.030 A 
ATOM     14  C   UNL A   1      46.782  29.983  33.262  1.00  0.00     0.002 A 
ATOM     15  C   UNL A   1      46.298  30.556  32.087  1.00  0.00     0.002 A 
BRANCH   7  16
ATOM     16  C   UNL A   1      44.361  30.643  36.891  1.00  0.00     0.323 C 
ATOM     17  N   UNL A   1      44.536  29.455  37.518  1.00  0.00    -0.326 N 
ATOM     18  H   UNL A   1      44.394  29.537  38.489  1.00  0.00     0.166 HD
ATOM     19  O   UNL A   1      44.708  31.641  37.533  1.00  0.00    -0.248 OA
BRANCH  17  20
ATOM     20  C   UNL A   1      44.883  28.064  37.132  1.00  0.00     0.175 C 
BRANCH  20  21
ATOM     21  C   UNL A   1      43.656  27.129  36.894  1.00  0.00     0.243 C 
ATOM     22  N   UNL A   1      43.260  26.727  35.653  1.00  0.00    -0.346 N 
ATOM     23  H   UNL A   1      42.483  27.169  35.239  1.00  0.00     0.164 HD
ATOM     24  O   UNL A   1      42.928  26.802  37.837  1.00  0.00    -0.273 OA
BRANCH  22  25
ATOM     25  C   UNL A   1      43.941  25.665  34.909  1.00  0.00     0.128 C 
BRANCH  25  26
ATOM     26  C   UNL A   1      43.038  24.417  34.721  1.00  0.00     0.034 C 
BRANCH  26  27
ATOM     27  C   UNL A   1      43.746  23.123  35.173  1.00  0.00    -0.015 C 
ATOM     28  C   UNL A   1      44.364  22.413  33.968  1.00  0.00     0.007 C 
ATOM     29  C   UNL A   1      44.826  23.418  36.216  1.00  0.00     0.007 C 
ENDBRANCH  26  27
ENDBRANCH  25  26
BRANCH  25  30
ATOM     30  C   UNL A   1      44.411  26.232  33.572  1.00  0.00     0.064 C 
ATOM     31  O   UNL A   1      45.223  25.710  32.826  1.00  0.00    -0.548 OA
ATOM     32  O   UNL A   1      43.992  27.484  33.305  1.00  0.00    -0.548 OA
ENDBRANCH  25  30
ENDBRANCH  22  25
ENDBRANCH  20  21
BRANCH  20  33
ATOM     33  C   UNL A   1      46.122  27.458  37.824  1.00  0.00     0.015 C 
ATOM     34  C   UNL A   1      46.321  25.955  37.870  1.00  0.00     0.010 C 
ATOM     35  C   UNL A   1      47.386  28.075  37.210  1.00  0.00     0.010 C 
ENDBRANCH  20  33
ENDBRANCH  17  20
ENDBRANCH   7  16
ENDBRANCH   5   6
ENDBRANCH   4   5
ENDBRANCH   3   4
ENDBRANCH   2   3
ENDBRANCH   1   2
BRANCH   1  36
ATOM     36  C   UNL A   1      36.723  33.418  33.474  1.00  0.00     0.188 C 
BRANCH  36  37
ATOM     37  O   UNL A   1      36.133  34.231  32.460  1.00  0.00    -0.376 OA
BRANCH  37  38
ATOM     38  C   UNL A   1      36.223  33.603  31.173  1.00  0.00     0.202 C 
BRANCH  38  39
ATOM     39  C   UNL A   1      35.499  32.250  31.079  1.00  0.00     0.261 C 
BRANCH  39  40
ATOM     40  O   UNL A   1      36.264  31.261  30.352  1.00  0.00    -0.460 OA
BRANCH  40  41
ATOM     41  C   UNL A   1      36.846  30.322  31.156  1.00  0.00     0.338 C 
ATOM     42  O   UNL A   1      36.283  29.702  32.037  1.00  0.00    -0.246 OA
BRANCH  41  43
ATOM     43  C   UNL A   1      38.238  30.028  30.716  1.00  0.00     0.060 A 
ATOM     44  C   UNL A   1      38.440  29.816  29.350  1.00  0.00     0.016 A 
ATOM     45  C   UNL A   1      39.340  30.018  31.578  1.00  0.00     0.016 A 
ATOM     46  C   UNL A   1      39.734  29.709  28.832  1.00  0.00     0.010 A 
ATOM     47  C   UNL A   1      40.638  29.809  31.065  1.00  0.00     0.010 A 
ATOM     48  C   UNL A   1      40.855  29.673  29.682  1.00  0.00    -0.014 A 
BRANCH  48  49
ATOM     49  C   UNL A   1      42.204  29.379  29.101  1.00  0.00     0.031 A 
ATOM     50  C   UNL A   1      42.480  27.968  28.637  1.00  0.00     0.074 A 
ATOM     51  C   UNL A   1      43.143  30.331  28.899  1.00  0.00     0.049 A 
ATOM     52  N   UNL A   1      43.538  27.480  28.044  1.00  0.00    -0.248 NA
ATOM     53  C   UNL A   1      41.402  26.983  28.833  1.00  0.00     0.031 C 
ATOM     54  C   UNL A   1      42.993  31.757  29.186  1.00  0.00     0.029 A 
ATOM     55  N   UNL A   1      44.414  30.246  28.367  1.00  0.00    -0.354 N 
ATOM     56  C   UNL A   1      43.233  26.154  27.764  1.00  0.00     0.074 A 
ATOM     57  C   UNL A   1      41.880  25.920  28.210  1.00  0.00     0.031 C 
ATOM     58  C   UNL A   1      44.102  32.413  28.796  1.00  0.00     0.029 A 
ATOM     59  C   UNL A   1      45.083  31.451  28.298  1.00  0.00     0.049 A 
ATOM     60  H   UNL A   1      44.810  29.398  28.063  1.00  0.00     0.167 HD
ATOM     61  C   UNL A   1      44.022  25.186  27.243  1.00  0.00     0.037 A 
ATOM     62  C   UNL A   1      46.346  31.740  27.911  1.00  0.00     0.037 A 
ATOM     63  C   UNL A   1      45.418  25.351  26.971  1.00  0.00     0.049 A 
ATOM     64  C   UNL A   1      47.262  30.603  27.513  1.00  0.00     0.074 A 
ATOM     65  C   UNL A   1      46.354  24.381  26.661  1.00  0.00     0.029 A 
ATOM     66  N   UNL A   1      46.088  26.562  27.022  1.00  0.00    -0.354 N 
ATOM     67  N   UNL A   1      46.974  29.337  27.323  1.00  0.00    -0.248 NA
ATOM     68  C   UNL A   1      48.687  30.924  27.322  1.00  0.00     0.031 C 
ATOM     69  C   UNL A   1      47.605  25.003  26.573  1.00  0.00     0.029 A 
ATOM     70  C   UNL A   1      47.433  26.363  26.774  1.00  0.00     0.049 A 
ATOM     71  H   UNL A   1      45.669  27.433  27.207  1.00  0.00     0.167 HD
ATOM     72  C   UNL A   1      48.177  28.717  26.992  1.00  0.00     0.074 A 
ATOM     73  C   UNL A   1      49.191  29.747  26.974  1.00  0.00     0.031 C 
ATOM     74  C   UNL A   1      48.424  27.407  26.746  1.00  0.00     0.037 A 
BRANCH  61  75
ATOM     75  C   UNL A   1      43.397  23.834  27.085  1.00  0.00     0.058 A 
ATOM     76  C   UNL A   1      42.756  23.457  25.897  1.00  0.00     0.135 A 
ATOM     77  C   UNL A   1      43.380  22.934  28.163  1.00  0.00     0.135 A 
ATOM     78  F   UNL A   1      42.712  24.302  24.854  1.00  0.00    -0.206 F 
ATOM     79  C   UNL A   1      42.101  22.234  25.787  1.00  0.00     0.059 A 
ATOM     80  C   UNL A   1      42.743  21.703  28.070  1.00  0.00     0.059 A 
ATOM     81  F   UNL A   1      43.956  23.266  29.329  1.00  0.00    -0.206 F 
ATOM     82  C   UNL A   1      42.093  21.369  26.882  1.00  0.00     0.060 A 
BRANCH  82  83
ATOM     83  S   UNL A   1      41.208  19.802  26.742  1.00  0.00     0.124 S 
ATOM     84  O   UNL A   1      40.799  19.575  28.125  1.00  0.00    -0.237 OA
ATOM     85  O   UNL A   1      40.134  20.132  25.809  1.00  0.00    -0.237 OA
ATOM     86  O   UNL A   1      42.220  18.885  26.229  1.00  0.00    -0.744 OA
ENDBRANCH  82  83
ENDBRANCH  61  75
BRANCH  62  87
ATOM     87  C   UNL A   1      46.891  33.135  27.958  1.00  0.00     0.058 A 
ATOM     88  C   UNL A   1      47.583  33.610  29.086  1.00  0.00     0.135 A 
ATOM     89  C   UNL A   1      46.638  34.054  26.927  1.00  0.00     0.135 A 
ATOM     90  F   UNL A   1      47.834  32.785  30.114  1.00  0.00    -0.206 F 
ATOM     91  C   UNL A   1      47.971  34.945  29.205  1.00  0.00     0.059 A 
ATOM     92  C   UNL A   1      47.043  35.385  27.009  1.00  0.00     0.059 A 
ATOM     93  F   UNL A   1      45.976  33.667  25.827  1.00  0.00    -0.206 F 
ATOM     94  C   UNL A   1      47.689  35.827  28.162  1.00  0.00     0.060 A 
BRANCH  94  95
ATOM     95  S   UNL A   1      48.185  37.559  28.314  1.00  0.00     0.124 S 
ATOM     96  O   UNL A   1      47.270  38.036  29.345  1.00  0.00    -0.237 OA
ATOM     97  O   UNL A   1      49.586  37.449  28.704  1.00  0.00    -0.237 OA
ATOM     98  O   UNL A   1      47.955  38.087  26.972  1.00  0.00    -0.744 OA
ENDBRANCH  94  95
ENDBRANCH  62  87
BRANCH  74  99
ATOM     99  C   UNL A   1      49.835  27.003  26.428  1.00  0.00     0.058 A 
ATOM    100  C   UNL A   1      50.350  27.109  25.127  1.00  0.00     0.135 A 
ATOM    101  C   UNL A   1      50.709  26.611  27.454  1.00  0.00     0.135 A 
ATOM    102  F   UNL A   1      49.554  27.479  24.113  1.00  0.00    -0.206 F 
ATOM    103  C   UNL A   1      51.686  26.834  24.853  1.00  0.00     0.059 A 
ATOM    104  C   UNL A   1      52.052  26.352  27.206  1.00  0.00     0.059 A 
ATOM    105  F   UNL A   1      50.265  26.507  28.717  1.00  0.00    -0.206 F 
ATOM    106  C   UNL A   1      52.531  26.462  25.901  1.00  0.00     0.060 A 
BRANCH 106 107
ATOM    107  S   UNL A   1      54.279  26.179  25.547  1.00  0.00     0.124 S 
ATOM    108  O   UNL A   1      54.793  27.543  25.496  1.00  0.00    -0.237 OA
ATOM    109  O   UNL A   1      54.707  25.382  26.694  1.00  0.00    -0.237 OA
ATOM    110  O   UNL A   1      54.255  25.466  24.273  1.00  0.00    -0.744 OA
ENDBRANCH 106 107
ENDBRANCH  74  99
ENDBRANCH  48  49
ENDBRANCH  41  43
ENDBRANCH  40  41
ENDBRANCH  39  40
ENDBRANCH  38  39
ENDBRANCH  37  38
ENDBRANCH  36  37
ENDBRANCH   1  36
TORSDOF 27
ENDMDL
MODEL 2
REMARK VINA RESULT:      -6.8      3.675      5.922
REMARK SMILES CC(C)C[C@H](NC(=O)[C@@H](NC(=O)N1CC(OCCOCCOCCOC(=O)c2ccc(-c3c4nc(c(-c5c(F)cc(S(=O)(=O)[O-])cc5F)c5ccc([nH]5)c(-c5c(F)cc(S(=O)(=O)[O-])cc5F)c5nc(c(-c6c(F)cc(S(=O)(=O)[O-])cc6F)c6ccc3[nH]6)C=C5)C=C4)cc2)=Nc2ccccc21)C(C)C)C(=O)[O-]
REMARK SMILES IDX 20 1 19 2 18 3 17 4 16 5 15 6 13 7 14 8 100 9 95 10 99 11
REMARK SMILES IDX 94 12 96 13 98 14 97 15 11 16 10 17 12 19 9 20 7 21 6 22
REMARK SMILES IDX 8 24 5 25 4 26 2 27 1 28 3 29 104 30 105 31 106 32 101 33
REMARK SMILES IDX 102 34 103 35 21 36 22 37 23 38 24 39 25 40 26 41 27 42
REMARK SMILES IDX 28 43 29 44 93 45 30 46 92 47 31 48 32 49 33 50 86 51 34 52
REMARK SMILES IDX 91 53 85 54 87 55 35 56 90 57 84 58 83 59 36 61 70 62 49 63
REMARK SMILES IDX 69 64 50 65 53 66 68 67 88 68 51 69 52 70 67 72 89 73 54 74
REMARK SMILES IDX 37 75 38 76 47 77 39 78 40 79 46 80 48 81 41 82 42 83 43 84
REMARK SMILES IDX 44 85 45 86 71 87 72 88 81 89 73 90 74 91 80 92 82 93 75 94
REMARK SMILES IDX 76 95 77 96 78 97 79 98 55 99 56 100 65 101 57 102 58 103
REMARK SMILES IDX 64 104 66 105 59 106 60 107 61 108 62 109 63 110
REMARK H PARENT 10 18 6 23 87 60 53 71
REMARK Flexibility Score: inf
ROOT
ATOM      1  C   UNL A   1      38.535  33.850  34.429  1.00  0.00     0.188 C 
ENDROOT
BRANCH   1   2
ATOM      2  O   UNL A   1      38.848  33.004  35.533  1.00  0.00    -0.376 OA
BRANCH   2   3
ATOM      3  C   UNL A   1      38.393  33.534  36.782  1.00  0.00     0.201 C 
BRANCH   3   4
ATOM      4  C   UNL A   1      38.191  32.459  37.859  1.00  0.00     0.259 C 
BRANCH   4   5
ATOM      5  O   UNL A   1      37.178  32.854  38.812  1.00  0.00    -0.477 OA
BRANCH   5   6
ATOM      6  C   UNL A   1      37.330  32.521  40.118  1.00  0.00     0.209 C 
ATOM      7  N   UNL A   1      37.584  33.579  42.292  1.00  0.00    -0.283 N 
ATOM      8  C   UNL A   1      36.796  33.581  41.059  1.00  0.00     0.224 C 
ATOM      9  C   UNL A   1      37.765  32.261  42.824  1.00  0.00     0.072 A 
ATOM     10  C   UNL A   1      37.931  31.201  41.896  1.00  0.00     0.091 A 
ATOM     11  C   UNL A   1      37.821  31.990  44.193  1.00  0.00     0.029 A 
ATOM     12  N   UNL A   1      37.844  31.396  40.502  1.00  0.00    -0.214 NA
ATOM     13  C   UNL A   1      38.276  29.928  42.356  1.00  0.00     0.030 A 
ATOM     14  C   UNL A   1      38.136  30.698  44.637  1.00  0.00     0.002 A 
ATOM     15  C   UNL A   1      38.393  29.678  43.722  1.00  0.00     0.002 A 
BRANCH   7  16
ATOM     16  C   UNL A   1      37.727  34.758  42.961  1.00  0.00     0.323 C 
ATOM     17  N   UNL A   1      38.816  35.552  42.820  1.00  0.00    -0.326 N 
ATOM     18  H   UNL A   1      38.987  36.075  43.637  1.00  0.00     0.166 HD
ATOM     19  O   UNL A   1      36.817  35.220  43.659  1.00  0.00    -0.248 OA
BRANCH  17  20
ATOM     20  C   UNL A   1      39.820  35.842  41.766  1.00  0.00     0.175 C 
BRANCH  20  21
ATOM     21  C   UNL A   1      41.217  35.183  41.998  1.00  0.00     0.243 C 
ATOM     22  N   UNL A   1      41.665  34.119  41.273  1.00  0.00    -0.346 N 
ATOM     23  H   UNL A   1      41.632  33.223  41.680  1.00  0.00     0.164 HD
ATOM     24  O   UNL A   1      41.931  35.550  42.937  1.00  0.00    -0.273 OA
BRANCH  22  25
ATOM     25  C   UNL A   1      42.193  34.253  39.913  1.00  0.00     0.128 C 
BRANCH  25  26
ATOM     26  C   UNL A   1      43.721  34.524  39.908  1.00  0.00     0.034 C 
BRANCH  26  27
ATOM     27  C   UNL A   1      44.037  36.022  39.716  1.00  0.00    -0.015 C 
ATOM     28  C   UNL A   1      44.873  36.539  40.888  1.00  0.00     0.007 C 
ATOM     29  C   UNL A   1      44.777  36.268  38.399  1.00  0.00     0.007 C 
ENDBRANCH  26  27
ENDBRANCH  25  26
BRANCH  25  30
ATOM     30  C   UNL A   1      41.837  32.994  39.127  1.00  0.00     0.064 C 
ATOM     31  O   UNL A   1      41.675  32.935  37.919  1.00  0.00    -0.548 OA
ATOM     32  O   UNL A   1      41.533  31.919  39.879  1.00  0.00    -0.548 OA
ENDBRANCH  25  30
ENDBRANCH  22  25
ENDBRANCH  20  21
BRANCH  20  33
ATOM     33  C   UNL A   1      39.789  37.266  41.174  1.00  0.00     0.015 C 
ATOM     34  C   UNL A   1      41.064  37.922  40.676  1.00  0.00     0.010 C 
ATOM     35  C   UNL A   1      38.768  37.306  40.029  1.00  0.00     0.010 C 
ENDBRANCH  20  33
ENDBRANCH  17  20
ENDBRANCH   7  16
ENDBRANCH   5   6
ENDBRANCH   4   5
ENDBRANCH   3   4
ENDBRANCH   2   3
ENDBRANCH   1   2
BRANCH   1  36
ATOM     36  C   UNL A   1      37.272  33.389  33.712  1.00  0.00     0.188 C 
BRANCH  36  37
ATOM     37  O   UNL A   1      36.736  34.369  32.824  1.00  0.00    -0.376 OA
BRANCH  37  38
ATOM     38  C   UNL A   1      36.751  33.904  31.466  1.00  0.00     0.202 C 
BRANCH  38  39
ATOM     39  C   UNL A   1      35.869  32.671  31.212  1.00  0.00     0.261 C 
BRANCH  39  40
ATOM     40  O   UNL A   1      36.501  31.709  30.336  1.00  0.00    -0.460 OA
BRANCH  40  41
ATOM     41  C   UNL A   1      36.934  30.585  30.982  1.00  0.00     0.338 C 
ATOM     42  O   UNL A   1      36.254  29.879  31.700  1.00  0.00    -0.246 OA
BRANCH  41  43
ATOM     43  C   UNL A   1      38.321  30.233  30.571  1.00  0.00     0.060 A 
ATOM     44  C   UNL A   1      38.572  30.141  29.199  1.00  0.00     0.016 A 
ATOM     45  C   UNL A   1      39.377  30.056  31.470  1.00  0.00     0.016 A 
ATOM     46  C   UNL A   1      39.879  29.988  28.725  1.00  0.00     0.010 A 
ATOM     47  C   UNL A   1      40.681  29.802  30.992  1.00  0.00     0.010 A 
ATOM     48  C   UNL A   1      40.953  29.786  29.612  1.00  0.00    -0.014 A 
BRANCH  48  49
ATOM     49  C   UNL A   1      42.303  29.450  29.059  1.00  0.00     0.031 A 
ATOM     50  C   UNL A   1      42.539  28.036  28.581  1.00  0.00     0.074 A 
ATOM     51  C   UNL A   1      43.282  30.369  28.893  1.00  0.00     0.049 A 
ATOM     52  N   UNL A   1      43.592  27.517  28.005  1.00  0.00    -0.248 NA
ATOM     53  C   UNL A   1      41.420  27.089  28.736  1.00  0.00     0.031 C 
ATOM     54  C   UNL A   1      43.177  31.795  29.197  1.00  0.00     0.029 A 
ATOM     55  N   UNL A   1      44.561  30.244  28.390  1.00  0.00    -0.354 N 
ATOM     56  C   UNL A   1      43.245  26.208  27.699  1.00  0.00     0.074 A 
ATOM     57  C   UNL A   1      41.874  26.018  28.109  1.00  0.00     0.031 C 
ATOM     58  C   UNL A   1      44.319  32.415  28.844  1.00  0.00     0.029 A 
ATOM     59  C   UNL A   1      45.276  31.425  28.355  1.00  0.00     0.049 A 
ATOM     60  H   UNL A   1      44.933  29.386  28.083  1.00  0.00     0.167 HD
ATOM     61  C   UNL A   1      44.010  25.219  27.183  1.00  0.00     0.037 A 
ATOM     62  C   UNL A   1      46.558  31.671  28.002  1.00  0.00     0.037 A 
ATOM     63  C   UNL A   1      45.418  25.335  26.946  1.00  0.00     0.049 A 
ATOM     64  C   UNL A   1      47.441  30.507  27.609  1.00  0.00     0.074 A 
ATOM     65  C   UNL A   1      46.325  24.336  26.644  1.00  0.00     0.029 A 
ATOM     66  N   UNL A   1      46.130  26.519  27.031  1.00  0.00    -0.354 N 
ATOM     67  N   UNL A   1      47.111  29.256  27.393  1.00  0.00    -0.248 NA
ATOM     68  C   UNL A   1      48.881  30.777  27.457  1.00  0.00     0.031 C 
ATOM     69  C   UNL A   1      47.599  24.911  26.595  1.00  0.00     0.029 A 
ATOM     70  C   UNL A   1      47.473  26.274  26.811  1.00  0.00     0.049 A 
ATOM     71  H   UNL A   1      45.739  27.403  27.218  1.00  0.00     0.167 HD
ATOM     72  C   UNL A   1      48.297  28.596  27.082  1.00  0.00     0.074 A 
ATOM     73  C   UNL A   1      49.349  29.588  27.103  1.00  0.00     0.031 C 
ATOM     74  C   UNL A   1      48.502  27.281  26.823  1.00  0.00     0.037 A 
BRANCH  61  75
ATOM     75  C   UNL A   1      43.340  23.893  26.990  1.00  0.00     0.058 A 
ATOM     76  C   UNL A   1      42.649  23.586  25.809  1.00  0.00     0.135 A 
ATOM     77  C   UNL A   1      43.332  22.948  28.029  1.00  0.00     0.135 A 
ATOM     78  F   UNL A   1      42.596  24.475  24.805  1.00  0.00    -0.206 F 
ATOM     79  C   UNL A   1      41.954  22.388  25.671  1.00  0.00     0.059 A 
ATOM     80  C   UNL A   1      42.655  21.741  27.907  1.00  0.00     0.059 A 
ATOM     81  F   UNL A   1      43.955  23.214  29.187  1.00  0.00    -0.206 F 
ATOM     82  C   UNL A   1      41.956  21.477  26.729  1.00  0.00     0.060 A 
BRANCH  82  83
ATOM     83  S   UNL A   1      41.020  19.944  26.554  1.00  0.00     0.124 S 
ATOM     84  O   UNL A   1      41.933  19.136  25.751  1.00  0.00    -0.237 OA
ATOM     85  O   UNL A   1      40.851  19.521  27.941  1.00  0.00    -0.237 OA
ATOM     86  O   UNL A   1      39.798  20.368  25.877  1.00  0.00    -0.744 OA
ENDBRANCH  82  83
ENDBRANCH  61  75
BRANCH  62  87
ATOM     87  C   UNL A   1      47.152  33.044  28.083  1.00  0.00     0.058 A 
ATOM     88  C   UNL A   1      47.781  33.499  29.255  1.00  0.00     0.135 A 
ATOM     89  C   UNL A   1      47.009  33.966  27.033  1.00  0.00     0.135 A 
ATOM     90  F   UNL A   1      47.926  32.672  30.301  1.00  0.00    -0.206 F 
ATOM     91  C   UNL A   1      48.212  34.819  29.396  1.00  0.00     0.059 A 
ATOM     92  C   UNL A   1      47.460  35.281  27.139  1.00  0.00     0.059 A 
ATOM     93  F   UNL A   1      46.412  33.599  25.890  1.00  0.00    -0.206 F 
ATOM     94  C   UNL A   1      48.039  35.705  28.333  1.00  0.00     0.060 A 
BRANCH  94  95
ATOM     95  S   UNL A   1      48.590  37.417  28.513  1.00  0.00     0.124 S 
ATOM     96  O   UNL A   1      47.527  38.140  27.825  1.00  0.00    -0.237 OA
ATOM     97  O   UNL A   1      48.638  37.578  29.962  1.00  0.00    -0.237 OA
ATOM     98  O   UNL A   1      49.889  37.417  27.847  1.00  0.00    -0.744 OA
ENDBRANCH  94  95
ENDBRANCH  62  87
BRANCH  74  99
ATOM     99  C   UNL A   1      49.904  26.829  26.532  1.00  0.00     0.058 A 
ATOM    100  C   UNL A   1      50.733  26.316  27.541  1.00  0.00     0.135 A 
ATOM    101  C   UNL A   1      50.383  26.809  25.212  1.00  0.00     0.135 A 
ATOM    102  F   UNL A   1      50.320  26.314  28.818  1.00  0.00    -0.206 F 
ATOM    103  C   UNL A   1      51.992  25.802  27.252  1.00  0.00     0.059 A 
ATOM    104  C   UNL A   1      51.630  26.281  24.898  1.00  0.00     0.059 A 
ATOM    105  F   UNL A   1      49.622  27.278  24.210  1.00  0.00    -0.206 F 
ATOM    106  C   UNL A   1      52.429  25.783  25.926  1.00  0.00     0.060 A 
BRANCH 106 107
ATOM    107  S   UNL A   1      54.036  25.046  25.552  1.00  0.00     0.124 S 
ATOM    108  O   UNL A   1      54.678  26.112  24.792  1.00  0.00    -0.237 OA
ATOM    109  O   UNL A   1      54.584  24.795  26.882  1.00  0.00    -0.237 OA
ATOM    110  O   UNL A   1      53.689  23.849  24.790  1.00  0.00    -0.744 OA
ENDBRANCH 106 107
ENDBRANCH  74  99
ENDBRANCH  48  49
ENDBRANCH  41  43
ENDBRANCH  40  41
ENDBRANCH  39  40
ENDBRANCH  38  39
ENDBRANCH  37  38
ENDBRANCH  36  37
ENDBRANCH   1  36
TORSDOF 27
ENDMDL
MODEL 3
REMARK VINA RESULT:      -6.7      4.919      9.226
REMARK SMILES CC(C)C[C@H](NC(=O)[C@@H](NC(=O)N1CC(OCCOCCOCCOC(=O)c2ccc(-c3c4nc(c(-c5c(F)cc(S(=O)(=O)[O-])cc5F)c5ccc([nH]5)c(-c5c(F)cc(S(=O)(=O)[O-])cc5F)c5nc(c(-c6c(F)cc(S(=O)(=O)[O-])cc6F)c6ccc3[nH]6)C=C5)C=C4)cc2)=Nc2ccccc21)C(C)C)C(=O)[O-]
REMARK SMILES IDX 20 1 19 2 18 3 17 4 16 5 15 6 13 7 14 8 100 9 95 10 99 11
REMARK SMILES IDX 94 12 96 13 98 14 97 15 11 16 10 17 12 19 9 20 7 21 6 22
REMARK SMILES IDX 8 24 5 25 4 26 2 27 1 28 3 29 104 30 105 31 106 32 101 33
REMARK SMILES IDX 102 34 103 35 21 36 22 37 23 38 24 39 25 40 26 41 27 42
REMARK SMILES IDX 28 43 29 44 93 45 30 46 92 47 31 48 32 49 33 50 86 51 34 52
REMARK SMILES IDX 91 53 85 54 87 55 35 56 90 57 84 58 83 59 36 61 70 62 49 63
REMARK SMILES IDX 69 64 50 65 53 66 68 67 88 68 51 69 52 70 67 72 89 73 54 74
REMARK SMILES IDX 37 75 38 76 47 77 39 78 40 79 46 80 48 81 41 82 42 83 43 84
REMARK SMILES IDX 44 85 45 86 71 87 72 88 81 89 73 90 74 91 80 92 82 93 75 94
REMARK SMILES IDX 76 95 77 96 78 97 79 98 55 99 56 100 65 101 57 102 58 103
REMARK SMILES IDX 64 104 66 105 59 106 60 107 61 108 62 109 63 110
REMARK H PARENT 10 18 6 23 87 60 53 71
REMARK Flexibility Score: inf
ROOT
ATOM      1  C   UNL A   1      35.682  33.456  41.728  1.00  0.00     0.188 C 
ENDROOT
BRANCH   1   2
ATOM      2  O   UNL A   1      35.930  32.293  40.943  1.00  0.00    -0.376 OA
BRANCH   2   3
ATOM      3  C   UNL A   1      37.184  32.346  40.256  1.00  0.00     0.201 C 
BRANCH   3   4
ATOM      4  C   UNL A   1      37.076  31.988  38.767  1.00  0.00     0.259 C 
BRANCH   4   5
ATOM      5  O   UNL A   1      37.197  33.163  37.934  1.00  0.00    -0.477 OA
BRANCH   5   6
ATOM      6  C   UNL A   1      38.109  33.174  36.930  1.00  0.00     0.209 C 
ATOM      7  N   UNL A   1      39.321  31.629  35.499  1.00  0.00    -0.283 N 
ATOM      8  C   UNL A   1      37.998  31.966  36.023  1.00  0.00     0.224 C 
ATOM      9  C   UNL A   1      40.015  32.772  34.984  1.00  0.00     0.072 A 
ATOM     10  C   UNL A   1      39.835  34.003  35.665  1.00  0.00     0.091 A 
ATOM     11  C   UNL A   1      40.872  32.716  33.883  1.00  0.00     0.029 A 
ATOM     12  N   UNL A   1      38.952  34.142  36.756  1.00  0.00    -0.214 NA
ATOM     13  C   UNL A   1      40.611  35.109  35.311  1.00  0.00     0.030 A 
ATOM     14  C   UNL A   1      41.620  33.845  33.521  1.00  0.00     0.002 A 
ATOM     15  C   UNL A   1      41.513  35.028  34.251  1.00  0.00     0.002 A 
BRANCH   7  16
ATOM     16  C   UNL A   1      39.585  30.319  35.222  1.00  0.00     0.323 C 
ATOM     17  N   UNL A   1      39.115  29.696  34.115  1.00  0.00    -0.326 N 
ATOM     18  H   UNL A   1      38.993  28.732  34.270  1.00  0.00     0.166 HD
ATOM     19  O   UNL A   1      40.358  29.655  35.921  1.00  0.00    -0.248 OA
BRANCH  17  20
ATOM     20  C   UNL A   1      38.733  30.080  32.732  1.00  0.00     0.175 C 
BRANCH  20  21
ATOM     21  C   UNL A   1      37.195  30.104  32.464  1.00  0.00     0.243 C 
ATOM     22  N   UNL A   1      36.366  31.048  32.991  1.00  0.00    -0.346 N 
ATOM     23  H   UNL A   1      35.812  30.809  33.769  1.00  0.00     0.164 HD
ATOM     24  O   UNL A   1      36.657  29.186  31.836  1.00  0.00    -0.273 OA
BRANCH  22  25
ATOM     25  C   UNL A   1      36.265  32.405  32.448  1.00  0.00     0.128 C 
BRANCH  25  26
ATOM     26  C   UNL A   1      36.584  32.448  30.930  1.00  0.00     0.034 C 
BRANCH  26  27
ATOM     27  C   UNL A   1      37.310  33.750  30.533  1.00  0.00    -0.015 C 
ATOM     28  C   UNL A   1      38.428  34.054  31.530  1.00  0.00     0.007 C 
ATOM     29  C   UNL A   1      37.883  33.656  29.118  1.00  0.00     0.007 C 
ENDBRANCH  26  27
ENDBRANCH  25  26
BRANCH  25  30
ATOM     30  C   UNL A   1      34.871  32.948  32.751  1.00  0.00     0.064 C 
ATOM     31  O   UNL A   1      34.040  33.271  31.918  1.00  0.00    -0.548 OA
ATOM     32  O   UNL A   1      34.637  33.225  34.048  1.00  0.00    -0.548 OA
ENDBRANCH  25  30
ENDBRANCH  22  25
ENDBRANCH  20  21
BRANCH  20  33
ATOM     33  C   UNL A   1      39.649  29.554  31.607  1.00  0.00     0.015 C 
ATOM     34  C   UNL A   1      39.747  28.067  31.324  1.00  0.00     0.010 C 
ATOM     35  C   UNL A   1      39.272  30.253  30.293  1.00  0.00     0.010 C 
ENDBRANCH  20  33
ENDBRANCH  17  20
ENDBRANCH   7  16
ENDBRANCH   5   6
ENDBRANCH   4   5
ENDBRANCH   3   4
ENDBRANCH   2   3
ENDBRANCH   1   2
BRANCH   1  36
ATOM     36  C   UNL A   1      36.840  33.748  42.677  1.00  0.00     0.188 C 
BRANCH  36  37
ATOM     37  O   UNL A   1      37.183  35.131  42.742  1.00  0.00    -0.376 OA
BRANCH  37  38
ATOM     38  C   UNL A   1      38.572  35.308  43.054  1.00  0.00     0.202 C 
BRANCH  38  39
ATOM     39  C   UNL A   1      39.211  34.117  43.787  1.00  0.00     0.261 C 
BRANCH  39  40
ATOM     40  O   UNL A   1      39.787  33.151  42.879  1.00  0.00    -0.460 OA
BRANCH  40  41
ATOM     41  C   UNL A   1      41.138  33.003  43.026  1.00  0.00     0.338 C 
ATOM     42  O   UNL A   1      41.705  32.695  44.056  1.00  0.00    -0.246 OA
BRANCH  41  43
ATOM     43  C   UNL A   1      41.835  33.113  41.715  1.00  0.00     0.060 A 
ATOM     44  C   UNL A   1      41.032  33.152  40.571  1.00  0.00     0.016 A 
ATOM     45  C   UNL A   1      43.221  33.242  41.579  1.00  0.00     0.016 A 
ATOM     46  C   UNL A   1      41.592  33.429  39.320  1.00  0.00     0.010 A 
ATOM     47  C   UNL A   1      43.794  33.421  40.302  1.00  0.00     0.010 A 
ATOM     48  C   UNL A   1      42.986  33.539  39.157  1.00  0.00    -0.014 A 
BRANCH  48  49
ATOM     49  C   UNL A   1      43.553  33.658  37.776  1.00  0.00     0.031 A 
ATOM     50  C   UNL A   1      43.783  32.385  36.995  1.00  0.00     0.074 A 
ATOM     51  C   UNL A   1      43.785  34.847  37.174  1.00  0.00     0.049 A 
ATOM     52  N   UNL A   1      44.199  32.228  35.766  1.00  0.00    -0.248 NA
ATOM     53  C   UNL A   1      43.462  31.121  37.680  1.00  0.00     0.031 C 
ATOM     54  C   UNL A   1      43.511  36.164  37.748  1.00  0.00     0.029 A 
ATOM     55  N   UNL A   1      44.279  35.142  35.920  1.00  0.00    -0.354 N 
ATOM     56  C   UNL A   1      44.149  30.861  35.525  1.00  0.00     0.074 A 
ATOM     57  C   UNL A   1      43.623  30.234  36.714  1.00  0.00     0.031 C 
ATOM     58  C   UNL A   1      43.803  37.118  36.842  1.00  0.00     0.029 A 
ATOM     59  C   UNL A   1      44.359  36.492  35.644  1.00  0.00     0.049 A 
ATOM     60  H   UNL A   1      44.554  34.449  35.277  1.00  0.00     0.167 HD
ATOM     61  C   UNL A   1      44.563  30.168  34.440  1.00  0.00     0.037 A 
ATOM     62  C   UNL A   1      44.852  37.146  34.568  1.00  0.00     0.037 A 
ATOM     63  C   UNL A   1      45.257  30.753  33.332  1.00  0.00     0.049 A 
ATOM     64  C   UNL A   1      45.481  36.340  33.452  1.00  0.00     0.074 A 
ATOM     65  C   UNL A   1      45.917  30.117  32.297  1.00  0.00     0.029 A 
ATOM     66  N   UNL A   1      45.419  32.115  33.142  1.00  0.00    -0.354 N 
ATOM     67  N   UNL A   1      45.489  35.040  33.275  1.00  0.00    -0.248 NA
ATOM     68  C   UNL A   1      46.210  37.087  32.412  1.00  0.00     0.031 C 
ATOM     69  C   UNL A   1      46.523  31.097  31.504  1.00  0.00     0.029 A 
ATOM     70  C   UNL A   1      46.191  32.341  32.018  1.00  0.00     0.049 A 
ATOM     71  H   UNL A   1      45.041  32.816  33.719  1.00  0.00     0.167 HD
ATOM     72  C   UNL A   1      46.220  34.818  32.110  1.00  0.00     0.074 A 
ATOM     73  C   UNL A   1      46.611  36.115  31.604  1.00  0.00     0.031 C 
ATOM     74  C   UNL A   1      46.557  33.643  31.523  1.00  0.00     0.037 A 
BRANCH  61  75
ATOM     75  C   UNL A   1      44.392  28.681  34.497  1.00  0.00     0.058 A 
ATOM     76  C   UNL A   1      45.319  27.862  35.158  1.00  0.00     0.135 A 
ATOM     77  C   UNL A   1      43.326  28.066  33.823  1.00  0.00     0.135 A 
ATOM     78  F   UNL A   1      46.377  28.404  35.782  1.00  0.00    -0.206 F 
ATOM     79  C   UNL A   1      45.203  26.475  35.132  1.00  0.00     0.059 A 
ATOM     80  C   UNL A   1      43.184  26.684  33.796  1.00  0.00     0.059 A 
ATOM     81  F   UNL A   1      42.432  28.810  33.153  1.00  0.00    -0.206 F 
ATOM     82  C   UNL A   1      44.137  25.897  34.441  1.00  0.00     0.060 A 
BRANCH  82  83
ATOM     83  S   UNL A   1      44.018  24.097  34.382  1.00  0.00     0.124 S 
ATOM     84  O   UNL A   1      42.850  23.855  35.223  1.00  0.00    -0.237 OA
ATOM     85  O   UNL A   1      43.837  23.842  32.956  1.00  0.00    -0.237 OA
ATOM     86  O   UNL A   1      45.293  23.654  34.938  1.00  0.00    -0.744 OA
ENDBRANCH  82  83
ENDBRANCH  61  75
BRANCH  62  87
ATOM     87  C   UNL A   1      44.881  38.643  34.494  1.00  0.00     0.058 A 
ATOM     88  C   UNL A   1      45.921  39.382  35.082  1.00  0.00     0.135 A 
ATOM     89  C   UNL A   1      43.817  39.367  33.931  1.00  0.00     0.135 A 
ATOM     90  F   UNL A   1      46.953  38.747  35.657  1.00  0.00    -0.206 F 
ATOM     91  C   UNL A   1      45.890  40.776  35.146  1.00  0.00     0.059 A 
ATOM     92  C   UNL A   1      43.779  40.760  33.955  1.00  0.00     0.059 A 
ATOM     93  F   UNL A   1      42.789  38.722  33.360  1.00  0.00    -0.206 F 
ATOM     94  C   UNL A   1      44.809  41.456  34.586  1.00  0.00     0.060 A 
BRANCH  94  95
ATOM     95  S   UNL A   1      44.761  43.261  34.672  1.00  0.00     0.124 S 
ATOM     96  O   UNL A   1      45.449  43.511  35.934  1.00  0.00    -0.237 OA
ATOM     97  O   UNL A   1      45.481  43.649  33.464  1.00  0.00    -0.237 OA
ATOM     98  O   UNL A   1      43.331  43.555  34.662  1.00  0.00    -0.744 OA
ENDBRANCH  94  95
ENDBRANCH  62  87
BRANCH  74  99
ATOM     99  C   UNL A   1      47.377  33.692  30.267  1.00  0.00     0.058 A 
ATOM    100  C   UNL A   1      48.778  33.620  30.303  1.00  0.00     0.135 A 
ATOM    101  C   UNL A   1      46.750  33.702  29.011  1.00  0.00     0.135 A 
ATOM    102  F   UNL A   1      49.423  33.608  31.480  1.00  0.00    -0.206 F 
ATOM    103  C   UNL A   1      49.531  33.560  29.135  1.00  0.00     0.059 A 
ATOM    104  C   UNL A   1      47.481  33.622  27.831  1.00  0.00     0.059 A 
ATOM    105  F   UNL A   1      45.411  33.759  28.924  1.00  0.00    -0.206 F 
ATOM    106  C   UNL A   1      48.873  33.556  27.903  1.00  0.00     0.060 A 
BRANCH 106 107
ATOM    107  S   UNL A   1      49.855  33.404  26.395  1.00  0.00     0.124 S 
ATOM    108  O   UNL A   1      48.961  33.989  25.402  1.00  0.00    -0.237 OA
ATOM    109  O   UNL A   1      51.046  34.185  26.716  1.00  0.00    -0.237 OA
ATOM    110  O   UNL A   1      50.072  31.965  26.277  1.00  0.00    -0.744 OA
ENDBRANCH 106 107
ENDBRANCH  74  99
ENDBRANCH  48  49
ENDBRANCH  41  43
ENDBRANCH  40  41
ENDBRANCH  39  40
ENDBRANCH  38  39
ENDBRANCH  37  38
ENDBRANCH  36  37
ENDBRANCH   1  36
TORSDOF 27
ENDMDL
