MODEL 1
REMARK VINA RESULT:     -11.4      0.000      0.000
REMARK SMILES Cc1nsc(NC(=O)[C@H]2Cc3[nH]cnc3C[NH2+]2)c1C(=O)OCCOCCOCCOC(=O)c1ccc(-c2c3nc(c(-c4c(F)cc(S(=O)(=O)[O-])cc4F)c4ccc([nH]4)c(-c4c(F)cc(S(=O)(=O)[O-])cc4F)c4nc(c(-c5c(F)cc(S(=O)(=O)[O-])cc5F)c5ccc2[nH]5)C=C4)C=C3)cc1
REMARK SMILES IDX 26 1 25 2 24 3 23 4 22 5 21 6 19 7 20 8 18 9 1 10 2 11 3 12
REMARK SMILES IDX 4 13 5 14 6 15 7 16 8 18 9 19 10 20 17 21 11 22 16 23 12 26
REMARK SMILES IDX 15 27 13 28 14 30 27 31 28 32 29 33 30 34 31 35 32 36 33 37
REMARK SMILES IDX 34 38 98 39 35 40 97 41 36 42 37 43 38 44 91 45 39 46 96 47
REMARK SMILES IDX 90 48 92 49 40 50 95 51 89 52 88 53 41 55 75 56 54 57 74 58
REMARK SMILES IDX 55 59 58 60 73 61 93 62 56 63 57 64 72 66 94 67 59 68 42 69
REMARK SMILES IDX 43 70 52 71 44 72 45 73 51 74 53 75 46 76 47 77 48 78 49 79
REMARK SMILES IDX 50 80 76 81 77 82 86 83 78 84 79 85 85 86 87 87 80 88 81 89
REMARK SMILES IDX 82 90 83 91 84 92 60 93 61 94 70 95 62 96 63 97 69 98 71 99
REMARK SMILES IDX 64 100 65 101 66 102 67 103 68 104
REMARK H PARENT 6 17 17 24 17 25 12 29 92 54 58 65
REMARK Flexibility Score: inf
ROOT
ATOM      1  C   UNL A   1      41.721  21.250  26.220  1.00  0.00     0.188 C 
ENDROOT
BRANCH   1   2
ATOM      2  C   UNL A   1      40.417  21.811  26.823  1.00  0.00     0.188 C 
BRANCH   2   3
ATOM      3  O   UNL A   1      39.168  21.191  26.572  1.00  0.00    -0.376 OA
BRANCH   3   4
ATOM      4  C   UNL A   1      38.366  21.553  25.459  1.00  0.00     0.202 C 
BRANCH   4   5
ATOM      5  C   UNL A   1      37.578  22.876  25.392  1.00  0.00     0.261 C 
BRANCH   5   6
ATOM      6  O   UNL A   1      36.158  22.763  25.243  1.00  0.00    -0.460 OA
BRANCH   6   7
ATOM      7  C   UNL A   1      35.686  22.838  23.960  1.00  0.00     0.343 C 
ATOM      8  O   UNL A   1      36.365  23.064  22.991  1.00  0.00    -0.246 OA
BRANCH   7   9
ATOM      9  C   UNL A   1      34.285  22.433  23.862  1.00  0.00     0.117 A 
ATOM     10  C   UNL A   1      34.371  19.969  24.794  1.00  0.00     0.069 C 
ATOM     11  C   UNL A   1      33.685  21.180  24.262  1.00  0.00     0.068 A 
ATOM     12  N   UNL A   1      32.371  21.087  24.074  1.00  0.00    -0.195 NA
ATOM     13  S   UNL A   1      31.849  22.442  23.317  1.00  0.00    -0.017 S 
ATOM     14  C   UNL A   1      33.347  23.203  23.172  1.00  0.00     0.131 A 
BRANCH  14  15
ATOM     15  N   UNL A   1      33.598  24.321  22.392  1.00  0.00    -0.310 N 
ATOM     16  C   UNL A   1      33.622  25.671  22.593  1.00  0.00     0.283 C 
ATOM     17  H   UNL A   1      33.812  24.081  21.462  1.00  0.00     0.171 HD
ATOM     18  O   UNL A   1      33.533  26.362  21.566  1.00  0.00    -0.268 OA
BRANCH  16  19
ATOM     19  C   UNL A   1      33.753  26.380  23.951  1.00  0.00     0.279 C 
ATOM     20  C   UNL A   1      33.998  27.916  23.779  1.00  0.00     0.131 C 
ATOM     21  N   UNL A   1      32.665  25.883  24.857  1.00  0.00    -0.331 N 
ATOM     22  C   UNL A   1      33.211  28.654  24.798  1.00  0.00     0.050 A 
ATOM     23  C   UNL A   1      32.617  26.612  26.143  1.00  0.00     0.320 C 
ATOM     24  H   UNL A   1      32.825  24.894  25.049  1.00  0.00     0.347 HD
ATOM     25  H   UNL A   1      31.775  26.037  24.384  1.00  0.00     0.347 HD
ATOM     26  N   UNL A   1      32.844  29.966  24.811  1.00  0.00    -0.348 N 
ATOM     27  C   UNL A   1      32.559  28.070  25.860  1.00  0.00     0.116 A 
ATOM     28  C   UNL A   1      31.943  30.107  25.837  1.00  0.00     0.197 A 
ATOM     29  H   UNL A   1      33.162  30.673  24.205  1.00  0.00     0.167 HD
ATOM     30  N   UNL A   1      31.761  28.980  26.496  1.00  0.00    -0.236 NA
ENDBRANCH  16  19
ENDBRANCH  14  15
ENDBRANCH   7   9
ENDBRANCH   6   7
ENDBRANCH   5   6
ENDBRANCH   4   5
ENDBRANCH   3   4
ENDBRANCH   2   3
ENDBRANCH   1   2
BRANCH   1  31
ATOM     31  O   UNL A   1      41.624  19.943  25.705  1.00  0.00    -0.376 OA
BRANCH  31  32
ATOM     32  C   UNL A   1      42.552  18.942  26.091  1.00  0.00     0.202 C 
BRANCH  32  33
ATOM     33  C   UNL A   1      43.848  18.622  25.344  1.00  0.00     0.261 C 
BRANCH  33  34
ATOM     34  O   UNL A   1      44.847  19.621  25.309  1.00  0.00    -0.460 OA
BRANCH  34  35
ATOM     35  C   UNL A   1      44.780  20.427  24.228  1.00  0.00     0.338 C 
ATOM     36  O   UNL A   1      44.587  20.091  23.073  1.00  0.00    -0.246 OA
BRANCH  35  37
ATOM     37  C   UNL A   1      45.070  21.795  24.652  1.00  0.00     0.060 A 
ATOM     38  C   UNL A   1      45.793  21.965  25.833  1.00  0.00     0.016 A 
ATOM     39  C   UNL A   1      44.375  22.845  24.036  1.00  0.00     0.016 A 
ATOM     40  C   UNL A   1      45.656  23.157  26.509  1.00  0.00     0.010 A 
ATOM     41  C   UNL A   1      44.223  24.025  24.721  1.00  0.00     0.010 A 
ATOM     42  C   UNL A   1      44.796  24.132  25.985  1.00  0.00    -0.014 A 
BRANCH  42  43
ATOM     43  C   UNL A   1      44.577  25.336  26.757  1.00  0.00     0.031 A 
ATOM     44  C   UNL A   1      45.691  26.297  26.613  1.00  0.00     0.074 A 
ATOM     45  C   UNL A   1      43.429  25.561  27.425  1.00  0.00     0.049 A 
ATOM     46  N   UNL A   1      46.554  26.638  27.508  1.00  0.00    -0.248 NA
ATOM     47  C   UNL A   1      46.007  26.783  25.258  1.00  0.00     0.031 C 
ATOM     48  C   UNL A   1      42.204  24.753  27.382  1.00  0.00     0.029 A 
ATOM     49  N   UNL A   1      43.072  26.612  28.215  1.00  0.00    -0.354 N 
ATOM     50  C   UNL A   1      47.348  27.600  26.894  1.00  0.00     0.074 A 
ATOM     51  C   UNL A   1      47.125  27.474  25.480  1.00  0.00     0.031 C 
ATOM     52  C   UNL A   1      41.184  25.454  27.926  1.00  0.00     0.029 A 
ATOM     53  C   UNL A   1      41.708  26.691  28.481  1.00  0.00     0.049 A 
ATOM     54  H   UNL A   1      43.723  27.261  28.569  1.00  0.00     0.167 HD
ATOM     55  C   UNL A   1      47.849  28.636  27.618  1.00  0.00     0.037 A 
ATOM     56  C   UNL A   1      41.054  27.714  29.087  1.00  0.00     0.037 A 
ATOM     57  C   UNL A   1      47.787  28.353  29.029  1.00  0.00     0.049 A 
ATOM     58  C   UNL A   1      42.056  28.469  29.875  1.00  0.00     0.074 A 
ATOM     59  C   UNL A   1      48.458  27.526  29.903  1.00  0.00     0.029 A 
ATOM     60  N   UNL A   1      46.603  28.707  29.624  1.00  0.00    -0.354 N 
ATOM     61  N   UNL A   1      42.668  27.973  30.915  1.00  0.00    -0.248 NA
ATOM     62  C   UNL A   1      42.673  29.660  29.301  1.00  0.00     0.031 C 
ATOM     63  C   UNL A   1      47.544  27.239  30.959  1.00  0.00     0.029 A 
ATOM     64  C   UNL A   1      46.356  27.930  30.727  1.00  0.00     0.049 A 
ATOM     65  H   UNL A   1      46.008  29.423  29.302  1.00  0.00     0.167 HD
ATOM     66  C   UNL A   1      43.941  28.507  30.853  1.00  0.00     0.074 A 
ATOM     67  C   UNL A   1      43.832  29.657  29.966  1.00  0.00     0.031 C 
ATOM     68  C   UNL A   1      45.020  27.783  31.265  1.00  0.00     0.037 A 
BRANCH  55  69
ATOM     69  C   UNL A   1      47.924  30.053  27.098  1.00  0.00     0.058 A 
ATOM     70  C   UNL A   1      49.131  30.770  27.210  1.00  0.00     0.135 A 
ATOM     71  C   UNL A   1      46.789  30.825  26.755  1.00  0.00     0.135 A 
ATOM     72  F   UNL A   1      50.265  30.144  27.565  1.00  0.00    -0.206 F 
ATOM     73  C   UNL A   1      49.198  32.154  27.028  1.00  0.00     0.059 A 
ATOM     74  C   UNL A   1      46.843  32.191  26.514  1.00  0.00     0.059 A 
ATOM     75  F   UNL A   1      45.552  30.315  26.739  1.00  0.00    -0.206 F 
ATOM     76  C   UNL A   1      48.045  32.855  26.685  1.00  0.00     0.060 A 
BRANCH  76  77
ATOM     77  S   UNL A   1      48.104  34.646  26.510  1.00  0.00     0.124 S 
ATOM     78  O   UNL A   1      47.250  35.076  27.610  1.00  0.00    -0.237 OA
ATOM     79  O   UNL A   1      49.530  34.917  26.662  1.00  0.00    -0.237 OA
ATOM     80  O   UNL A   1      47.571  34.871  25.170  1.00  0.00    -0.744 OA
ENDBRANCH  76  77
ENDBRANCH  55  69
BRANCH  56  81
ATOM     81  C   UNL A   1      39.678  28.221  28.851  1.00  0.00     0.058 A 
ATOM     82  C   UNL A   1      38.696  28.188  29.857  1.00  0.00     0.135 A 
ATOM     83  C   UNL A   1      39.384  29.011  27.722  1.00  0.00     0.135 A 
ATOM     84  F   UNL A   1      38.900  27.478  30.977  1.00  0.00    -0.206 F 
ATOM     85  C   UNL A   1      37.513  28.934  29.772  1.00  0.00     0.059 A 
ATOM     86  C   UNL A   1      38.211  29.758  27.613  1.00  0.00     0.059 A 
ATOM     87  F   UNL A   1      40.278  29.151  26.731  1.00  0.00    -0.206 F 
ATOM     88  C   UNL A   1      37.290  29.734  28.653  1.00  0.00     0.060 A 
BRANCH  88  89
ATOM     89  S   UNL A   1      35.849  30.829  28.614  1.00  0.00     0.124 S 
ATOM     90  O   UNL A   1      36.337  31.943  27.808  1.00  0.00    -0.237 OA
ATOM     91  O   UNL A   1      34.836  29.985  27.990  1.00  0.00    -0.237 OA
ATOM     92  O   UNL A   1      35.618  31.134  30.024  1.00  0.00    -0.744 OA
ENDBRANCH  88  89
ENDBRANCH  56  81
BRANCH  68  93
ATOM     93  C   UNL A   1      44.766  26.664  32.236  1.00  0.00     0.058 A 
ATOM     94  C   UNL A   1      44.578  25.318  31.880  1.00  0.00     0.135 A 
ATOM     95  C   UNL A   1      44.784  26.971  33.604  1.00  0.00     0.135 A 
ATOM     96  F   UNL A   1      44.629  24.929  30.598  1.00  0.00    -0.206 F 
ATOM     97  C   UNL A   1      44.376  24.327  32.843  1.00  0.00     0.059 A 
ATOM     98  C   UNL A   1      44.617  25.998  34.581  1.00  0.00     0.059 A 
ATOM     99  F   UNL A   1      45.007  28.233  34.005  1.00  0.00    -0.206 F 
ATOM    100  C   UNL A   1      44.397  24.678  34.194  1.00  0.00     0.060 A 
BRANCH 100 101
ATOM    101  S   UNL A   1      44.201  23.391  35.445  1.00  0.00     0.124 S 
ATOM    102  O   UNL A   1      42.952  23.780  36.092  1.00  0.00    -0.237 OA
ATOM    103  O   UNL A   1      44.147  22.173  34.641  1.00  0.00    -0.237 OA
ATOM    104  O   UNL A   1      45.400  23.529  36.267  1.00  0.00    -0.744 OA
ENDBRANCH 100 101
ENDBRANCH  68  93
ENDBRANCH  42  43
ENDBRANCH  35  37
ENDBRANCH  34  35
ENDBRANCH  33  34
ENDBRANCH  32  33
ENDBRANCH  31  32
ENDBRANCH   1  31
TORSDOF 22
ENDMDL
MODEL 2
REMARK VINA RESULT:     -11.4      3.120      5.411
REMARK SMILES Cc1nsc(NC(=O)[C@H]2Cc3[nH]cnc3C[NH2+]2)c1C(=O)OCCOCCOCCOC(=O)c1ccc(-c2c3nc(c(-c4c(F)cc(S(=O)(=O)[O-])cc4F)c4ccc([nH]4)c(-c4c(F)cc(S(=O)(=O)[O-])cc4F)c4nc(c(-c5c(F)cc(S(=O)(=O)[O-])cc5F)c5ccc2[nH]5)C=C4)C=C3)cc1
REMARK SMILES IDX 26 1 25 2 24 3 23 4 22 5 21 6 19 7 20 8 18 9 1 10 2 11 3 12
REMARK SMILES IDX 4 13 5 14 6 15 7 16 8 18 9 19 10 20 17 21 11 22 16 23 12 26
REMARK SMILES IDX 15 27 13 28 14 30 27 31 28 32 29 33 30 34 31 35 32 36 33 37
REMARK SMILES IDX 34 38 98 39 35 40 97 41 36 42 37 43 38 44 91 45 39 46 96 47
REMARK SMILES IDX 90 48 92 49 40 50 95 51 89 52 88 53 41 55 75 56 54 57 74 58
REMARK SMILES IDX 55 59 58 60 73 61 93 62 56 63 57 64 72 66 94 67 59 68 42 69
REMARK SMILES IDX 43 70 52 71 44 72 45 73 51 74 53 75 46 76 47 77 48 78 49 79
REMARK SMILES IDX 50 80 76 81 77 82 86 83 78 84 79 85 85 86 87 87 80 88 81 89
REMARK SMILES IDX 82 90 83 91 84 92 60 93 61 94 70 95 62 96 63 97 69 98 71 99
REMARK SMILES IDX 64 100 65 101 66 102 67 103 68 104
REMARK H PARENT 6 17 17 24 17 25 12 29 92 54 58 65
REMARK Flexibility Score: inf
ROOT
ATOM      1  C   UNL A   1      35.509  23.491  23.994  1.00  0.00     0.188 C 
ENDROOT
BRANCH   1   2
ATOM      2  C   UNL A   1      34.647  23.733  22.739  1.00  0.00     0.188 C 
BRANCH   2   3
ATOM      3  O   UNL A   1      33.938  24.947  22.559  1.00  0.00    -0.376 OA
BRANCH   3   4
ATOM      4  C   UNL A   1      32.842  25.045  21.663  1.00  0.00     0.202 C 
BRANCH   4   5
ATOM      5  C   UNL A   1      31.671  26.023  21.879  1.00  0.00     0.261 C 
BRANCH   5   6
ATOM      6  O   UNL A   1      31.051  25.996  23.170  1.00  0.00    -0.460 OA
BRANCH   6   7
ATOM      7  C   UNL A   1      30.865  27.215  23.767  1.00  0.00     0.343 C 
ATOM      8  O   UNL A   1      29.846  27.855  23.718  1.00  0.00    -0.246 OA
BRANCH   7   9
ATOM      9  C   UNL A   1      31.985  27.583  24.630  1.00  0.00     0.117 A 
ATOM     10  C   UNL A   1      33.599  28.790  22.932  1.00  0.00     0.069 C 
ATOM     11  C   UNL A   1      33.184  28.312  24.280  1.00  0.00     0.068 A 
ATOM     12  N   UNL A   1      34.037  28.527  25.278  1.00  0.00    -0.195 NA
ATOM     13  S   UNL A   1      33.482  27.769  26.620  1.00  0.00    -0.017 S 
ATOM     14  C   UNL A   1      32.099  27.092  25.932  1.00  0.00     0.131 A 
BRANCH  14  15
ATOM     15  N   UNL A   1      31.308  26.122  26.529  1.00  0.00    -0.310 N 
ATOM     16  C   UNL A   1      31.061  24.796  26.323  1.00  0.00     0.283 C 
ATOM     17  H   UNL A   1      30.798  26.480  27.291  1.00  0.00     0.171 HD
ATOM     18  O   UNL A   1      30.018  24.364  26.839  1.00  0.00    -0.268 OA
BRANCH  16  19
ATOM     19  C   UNL A   1      31.950  23.824  25.531  1.00  0.00     0.279 C 
ATOM     20  C   UNL A   1      32.809  22.922  26.481  1.00  0.00     0.131 C 
ATOM     21  N   UNL A   1      31.129  23.205  24.438  1.00  0.00    -0.331 N 
ATOM     22  C   UNL A   1      32.845  21.540  25.942  1.00  0.00     0.050 A 
ATOM     23  C   UNL A   1      31.857  22.145  23.708  1.00  0.00     0.320 C 
ATOM     24  H   UNL A   1      30.864  23.934  23.776  1.00  0.00     0.347 HD
ATOM     25  H   UNL A   1      30.312  22.775  24.872  1.00  0.00     0.347 HD
ATOM     26  N   UNL A   1      33.158  20.379  26.583  1.00  0.00    -0.348 N 
ATOM     27  C   UNL A   1      32.393  21.172  24.696  1.00  0.00     0.116 A 
ATOM     28  C   UNL A   1      32.827  19.360  25.725  1.00  0.00     0.197 A 
ATOM     29  H   UNL A   1      33.546  20.289  27.483  1.00  0.00     0.167 HD
ATOM     30  N   UNL A   1      32.374  19.810  24.572  1.00  0.00    -0.236 NA
ENDBRANCH  16  19
ENDBRANCH  14  15
ENDBRANCH   7   9
ENDBRANCH   6   7
ENDBRANCH   5   6
ENDBRANCH   4   5
ENDBRANCH   3   4
ENDBRANCH   2   3
ENDBRANCH   1   2
BRANCH   1  31
ATOM     31  O   UNL A   1      35.957  22.167  24.162  1.00  0.00    -0.376 OA
BRANCH  31  32
ATOM     32  C   UNL A   1      36.572  21.759  25.373  1.00  0.00     0.202 C 
BRANCH  32  33
ATOM     33  C   UNL A   1      38.076  21.827  25.651  1.00  0.00     0.261 C 
BRANCH  33  34
ATOM     34  O   UNL A   1      38.552  22.917  26.413  1.00  0.00    -0.460 OA
BRANCH  34  35
ATOM     35  C   UNL A   1      39.797  22.741  26.904  1.00  0.00     0.338 C 
ATOM     36  O   UNL A   1      40.326  21.684  27.203  1.00  0.00    -0.246 OA
BRANCH  35  37
ATOM     37  C   UNL A   1      40.402  24.054  27.113  1.00  0.00     0.060 A 
ATOM     38  C   UNL A   1      41.455  24.143  28.024  1.00  0.00     0.016 A 
ATOM     39  C   UNL A   1      39.725  25.184  26.631  1.00  0.00     0.016 A 
ATOM     40  C   UNL A   1      41.704  25.365  28.608  1.00  0.00     0.010 A 
ATOM     41  C   UNL A   1      39.961  26.397  27.229  1.00  0.00     0.010 A 
ATOM     42  C   UNL A   1      40.887  26.451  28.267  1.00  0.00    -0.014 A 
BRANCH  42  43
ATOM     43  C   UNL A   1      41.088  27.703  28.966  1.00  0.00     0.031 A 
ATOM     44  C   UNL A   1      42.283  28.424  28.478  1.00  0.00     0.074 A 
ATOM     45  C   UNL A   1      40.205  28.170  29.870  1.00  0.00     0.049 A 
ATOM     46  N   UNL A   1      43.390  28.624  29.107  1.00  0.00    -0.248 NA
ATOM     47  C   UNL A   1      42.329  28.789  27.051  1.00  0.00     0.031 C 
ATOM     48  C   UNL A   1      38.884  27.613  30.191  1.00  0.00     0.029 A 
ATOM     49  N   UNL A   1      40.252  29.299  30.632  1.00  0.00    -0.354 N 
ATOM     50  C   UNL A   1      44.161  29.391  28.242  1.00  0.00     0.074 A 
ATOM     51  C   UNL A   1      43.571  29.259  26.939  1.00  0.00     0.031 C 
ATOM     52  C   UNL A   1      38.177  28.518  30.904  1.00  0.00     0.029 A 
ATOM     53  C   UNL A   1      39.036  29.649  31.210  1.00  0.00     0.049 A 
ATOM     54  H   UNL A   1      41.076  29.821  30.763  1.00  0.00     0.167 HD
ATOM     55  C   UNL A   1      45.005  30.336  28.735  1.00  0.00     0.037 A 
ATOM     56  C   UNL A   1      38.749  30.801  31.868  1.00  0.00     0.037 A 
ATOM     57  C   UNL A   1      45.252  30.123  30.138  1.00  0.00     0.049 A 
ATOM     58  C   UNL A   1      40.035  31.377  32.326  1.00  0.00     0.074 A 
ATOM     59  C   UNL A   1      45.963  29.214  30.891  1.00  0.00     0.029 A 
ATOM     60  N   UNL A   1      44.339  30.720  30.969  1.00  0.00    -0.354 N 
ATOM     61  N   UNL A   1      40.791  30.809  33.225  1.00  0.00    -0.248 NA
ATOM     62  C   UNL A   1      40.690  32.403  31.523  1.00  0.00     0.031 C 
ATOM     63  C   UNL A   1      45.309  29.148  32.156  1.00  0.00     0.029 A 
ATOM     64  C   UNL A   1      44.244  30.047  32.160  1.00  0.00     0.049 A 
ATOM     65  H   UNL A   1      43.820  31.525  30.740  1.00  0.00     0.167 HD
ATOM     66  C   UNL A   1      42.082  31.085  32.815  1.00  0.00     0.074 A 
ATOM     67  C   UNL A   1      41.960  32.201  31.887  1.00  0.00     0.031 C 
ATOM     68  C   UNL A   1      43.082  30.181  33.014  1.00  0.00     0.037 A 
BRANCH  55  69
ATOM     69  C   UNL A   1      45.199  31.692  28.095  1.00  0.00     0.058 A 
ATOM     70  C   UNL A   1      46.486  32.088  27.683  1.00  0.00     0.135 A 
ATOM     71  C   UNL A   1      44.229  32.722  28.130  1.00  0.00     0.135 A 
ATOM     72  F   UNL A   1      47.493  31.200  27.648  1.00  0.00    -0.206 F 
ATOM     73  C   UNL A   1      46.793  33.413  27.363  1.00  0.00     0.059 A 
ATOM     74  C   UNL A   1      44.498  34.033  27.761  1.00  0.00     0.059 A 
ATOM     75  F   UNL A   1      42.999  32.534  28.622  1.00  0.00    -0.206 F 
ATOM     76  C   UNL A   1      45.791  34.379  27.409  1.00  0.00     0.060 A 
BRANCH  76  77
ATOM     77  S   UNL A   1      46.188  36.100  27.060  1.00  0.00     0.124 S 
ATOM     78  O   UNL A   1      45.014  36.784  27.588  1.00  0.00    -0.237 OA
ATOM     79  O   UNL A   1      47.427  36.281  27.810  1.00  0.00    -0.237 OA
ATOM     80  O   UNL A   1      46.334  36.122  25.608  1.00  0.00    -0.744 OA
ENDBRANCH  76  77
ENDBRANCH  55  69
BRANCH  56  81
ATOM     81  C   UNL A   1      37.471  31.556  31.929  1.00  0.00     0.058 A 
ATOM     82  C   UNL A   1      36.874  31.900  33.155  1.00  0.00     0.135 A 
ATOM     83  C   UNL A   1      36.961  32.202  30.786  1.00  0.00     0.135 A 
ATOM     84  F   UNL A   1      37.311  31.348  34.298  1.00  0.00    -0.206 F 
ATOM     85  C   UNL A   1      35.863  32.865  33.249  1.00  0.00     0.059 A 
ATOM     86  C   UNL A   1      35.952  33.164  30.855  1.00  0.00     0.059 A 
ATOM     87  F   UNL A   1      37.497  31.984  29.576  1.00  0.00    -0.206 F 
ATOM     88  C   UNL A   1      35.424  33.508  32.093  1.00  0.00     0.060 A 
BRANCH  88  89
ATOM     89  S   UNL A   1      34.244  34.874  32.228  1.00  0.00     0.124 S 
ATOM     90  O   UNL A   1      33.095  34.221  32.848  1.00  0.00    -0.237 OA
ATOM     91  O   UNL A   1      34.966  35.825  33.067  1.00  0.00    -0.237 OA
ATOM     92  O   UNL A   1      34.050  35.293  30.843  1.00  0.00    -0.744 OA
ENDBRANCH  88  89
ENDBRANCH  56  81
BRANCH  68  93
ATOM     93  C   UNL A   1      42.886  29.169  34.107  1.00  0.00     0.058 A 
ATOM     94  C   UNL A   1      43.237  29.361  35.455  1.00  0.00     0.135 A 
ATOM     95  C   UNL A   1      42.244  27.967  33.776  1.00  0.00     0.135 A 
ATOM     96  F   UNL A   1      43.780  30.515  35.868  1.00  0.00    -0.206 F 
ATOM     97  C   UNL A   1      42.996  28.383  36.421  1.00  0.00     0.059 A 
ATOM     98  C   UNL A   1      41.965  26.993  34.726  1.00  0.00     0.059 A 
ATOM     99  F   UNL A   1      41.843  27.747  32.513  1.00  0.00    -0.206 F 
ATOM    100  C   UNL A   1      42.359  27.200  36.046  1.00  0.00     0.060 A 
BRANCH 100 101
ATOM    101  S   UNL A   1      41.986  25.959  37.304  1.00  0.00     0.124 S 
ATOM    102  O   UNL A   1      42.307  24.715  36.613  1.00  0.00    -0.237 OA
ATOM    103  O   UNL A   1      42.886  26.332  38.393  1.00  0.00    -0.237 OA
ATOM    104  O   UNL A   1      40.568  26.171  37.583  1.00  0.00    -0.744 OA
ENDBRANCH 100 101
ENDBRANCH  68  93
ENDBRANCH  42  43
ENDBRANCH  35  37
ENDBRANCH  34  35
ENDBRANCH  33  34
ENDBRANCH  32  33
ENDBRANCH  31  32
ENDBRANCH   1  31
TORSDOF 22
ENDMDL
MODEL 3
REMARK VINA RESULT:     -10.5      3.251      9.481
REMARK SMILES Cc1nsc(NC(=O)[C@H]2Cc3[nH]cnc3C[NH2+]2)c1C(=O)OCCOCCOCCOC(=O)c1ccc(-c2c3nc(c(-c4c(F)cc(S(=O)(=O)[O-])cc4F)c4ccc([nH]4)c(-c4c(F)cc(S(=O)(=O)[O-])cc4F)c4nc(c(-c5c(F)cc(S(=O)(=O)[O-])cc5F)c5ccc2[nH]5)C=C4)C=C3)cc1
REMARK SMILES IDX 26 1 25 2 24 3 23 4 22 5 21 6 19 7 20 8 18 9 1 10 2 11 3 12
REMARK SMILES IDX 4 13 5 14 6 15 7 16 8 18 9 19 10 20 17 21 11 22 16 23 12 26
REMARK SMILES IDX 15 27 13 28 14 30 27 31 28 32 29 33 30 34 31 35 32 36 33 37
REMARK SMILES IDX 34 38 98 39 35 40 97 41 36 42 37 43 38 44 91 45 39 46 96 47
REMARK SMILES IDX 90 48 92 49 40 50 95 51 89 52 88 53 41 55 75 56 54 57 74 58
REMARK SMILES IDX 55 59 58 60 73 61 93 62 56 63 57 64 72 66 94 67 59 68 42 69
REMARK SMILES IDX 43 70 52 71 44 72 45 73 51 74 53 75 46 76 47 77 48 78 49 79
REMARK SMILES IDX 50 80 76 81 77 82 86 83 78 84 79 85 85 86 87 87 80 88 81 89
REMARK SMILES IDX 82 90 83 91 84 92 60 93 61 94 70 95 62 96 63 97 69 98 71 99
REMARK SMILES IDX 64 100 65 101 66 102 67 103 68 104
REMARK H PARENT 6 17 17 24 17 25 12 29 92 54 58 65
REMARK Flexibility Score: inf
ROOT
ATOM      1  C   UNL A   1      35.291  30.523  28.271  1.00  0.00     0.188 C 
ENDROOT
BRANCH   1   2
ATOM      2  C   UNL A   1      35.200  29.205  27.478  1.00  0.00     0.188 C 
BRANCH   2   3
ATOM      3  O   UNL A   1      34.029  28.863  26.755  1.00  0.00    -0.376 OA
BRANCH   3   4
ATOM      4  C   UNL A   1      32.740  28.943  27.343  1.00  0.00     0.202 C 
BRANCH   4   5
ATOM      5  C   UNL A   1      31.743  27.769  27.331  1.00  0.00     0.261 C 
BRANCH   5   6
ATOM      6  O   UNL A   1      32.155  26.593  26.624  1.00  0.00    -0.460 OA
BRANCH   6   7
ATOM      7  C   UNL A   1      31.145  25.814  26.126  1.00  0.00     0.343 C 
ATOM      8  O   UNL A   1      30.007  25.828  26.521  1.00  0.00    -0.246 OA
BRANCH   7   9
ATOM      9  C   UNL A   1      31.552  25.081  24.928  1.00  0.00     0.117 A 
ATOM     10  C   UNL A   1      31.081  22.587  25.636  1.00  0.00     0.069 C 
ATOM     11  C   UNL A   1      31.494  23.657  24.686  1.00  0.00     0.068 A 
ATOM     12  N   UNL A   1      31.917  23.261  23.488  1.00  0.00    -0.195 NA
ATOM     13  S   UNL A   1      32.494  24.560  22.675  1.00  0.00    -0.017 S 
ATOM     14  C   UNL A   1      32.241  25.706  23.886  1.00  0.00     0.131 A 
BRANCH  14  15
ATOM     15  N   UNL A   1      32.751  26.995  23.880  1.00  0.00    -0.310 N 
ATOM     16  C   UNL A   1      32.240  28.250  23.718  1.00  0.00     0.283 C 
ATOM     17  H   UNL A   1      33.724  27.007  24.030  1.00  0.00     0.171 HD
ATOM     18  O   UNL A   1      33.068  29.125  23.418  1.00  0.00    -0.268 OA
BRANCH  16  19
ATOM     19  C   UNL A   1      30.766  28.653  23.882  1.00  0.00     0.279 C 
ATOM     20  C   UNL A   1      30.622  30.136  24.363  1.00  0.00     0.131 C 
ATOM     21  N   UNL A   1      30.001  28.168  22.685  1.00  0.00    -0.331 N 
ATOM     22  C   UNL A   1      29.494  30.777  23.641  1.00  0.00     0.050 A 
ATOM     23  C   UNL A   1      28.597  28.632  22.679  1.00  0.00     0.320 C 
ATOM     24  H   UNL A   1      30.007  27.148  22.685  1.00  0.00     0.347 HD
ATOM     25  H   UNL A   1      30.455  28.548  21.854  1.00  0.00     0.347 HD
ATOM     26  N   UNL A   1      29.228  32.103  23.474  1.00  0.00    -0.348 N 
ATOM     27  C   UNL A   1      28.585  30.109  22.855  1.00  0.00     0.116 A 
ATOM     28  C   UNL A   1      28.215  32.182  22.551  1.00  0.00     0.197 A 
ATOM     29  H   UNL A   1      29.674  32.855  23.926  1.00  0.00     0.167 HD
ATOM     30  N   UNL A   1      27.799  30.992  22.169  1.00  0.00    -0.236 NA
ENDBRANCH  16  19
ENDBRANCH  14  15
ENDBRANCH   7   9
ENDBRANCH   6   7
ENDBRANCH   5   6
ENDBRANCH   4   5
ENDBRANCH   3   4
ENDBRANCH   2   3
ENDBRANCH   1   2
BRANCH   1  31
ATOM     31  O   UNL A   1      35.199  31.693  27.493  1.00  0.00    -0.376 OA
BRANCH  31  32
ATOM     32  C   UNL A   1      35.316  32.973  28.093  1.00  0.00     0.202 C 
BRANCH  32  33
ATOM     33  C   UNL A   1      34.323  33.556  29.101  1.00  0.00     0.261 C 
BRANCH  33  34
ATOM     34  O   UNL A   1      34.337  33.033  30.413  1.00  0.00    -0.460 OA
BRANCH  34  35
ATOM     35  C   UNL A   1      34.985  33.809  31.306  1.00  0.00     0.338 C 
ATOM     36  O   UNL A   1      34.693  34.944  31.641  1.00  0.00    -0.246 OA
BRANCH  35  37
ATOM     37  C   UNL A   1      36.177  33.096  31.760  1.00  0.00     0.060 A 
ATOM     38  C   UNL A   1      37.415  33.703  31.545  1.00  0.00     0.016 A 
ATOM     39  C   UNL A   1      36.052  31.744  32.109  1.00  0.00     0.016 A 
ATOM     40  C   UNL A   1      38.529  32.897  31.487  1.00  0.00     0.010 A 
ATOM     41  C   UNL A   1      37.161  30.939  32.032  1.00  0.00     0.010 A 
ATOM     42  C   UNL A   1      38.367  31.513  31.639  1.00  0.00    -0.014 A 
BRANCH  42  43
ATOM     43  C   UNL A   1      39.528  30.666  31.470  1.00  0.00     0.031 A 
ATOM     44  C   UNL A   1      40.312  30.546  32.717  1.00  0.00     0.074 A 
ATOM     45  C   UNL A   1      39.767  29.996  30.325  1.00  0.00     0.049 A 
ATOM     46  N   UNL A   1      41.483  31.027  32.957  1.00  0.00    -0.248 NA
ATOM     47  C   UNL A   1      39.632  30.002  33.906  1.00  0.00     0.031 C 
ATOM     48  C   UNL A   1      38.880  29.885  29.160  1.00  0.00     0.029 A 
ATOM     49  N   UNL A   1      40.813  29.190  29.990  1.00  0.00    -0.354 N 
ATOM     50  C   UNL A   1      41.794  30.594  34.240  1.00  0.00     0.074 A 
ATOM     51  C   UNL A   1      40.557  30.187  34.847  1.00  0.00     0.031 C 
ATOM     52  C   UNL A   1      39.321  28.893  28.354  1.00  0.00     0.029 A 
ATOM     53  C   UNL A   1      40.588  28.400  28.867  1.00  0.00     0.049 A 
ATOM     54  H   UNL A   1      41.656  29.169  30.497  1.00  0.00     0.167 HD
ATOM     55  C   UNL A   1      43.078  30.285  34.565  1.00  0.00     0.037 A 
ATOM     56  C   UNL A   1      41.373  27.392  28.409  1.00  0.00     0.037 A 
ATOM     57  C   UNL A   1      43.998  30.837  33.604  1.00  0.00     0.049 A 
ATOM     58  C   UNL A   1      42.731  27.609  28.962  1.00  0.00     0.074 A 
ATOM     59  C   UNL A   1      44.466  32.095  33.292  1.00  0.00     0.029 A 
ATOM     60  N   UNL A   1      44.236  30.029  32.522  1.00  0.00    -0.354 N 
ATOM     61  N   UNL A   1      43.483  28.622  28.631  1.00  0.00    -0.248 NA
ATOM     62  C   UNL A   1      43.133  26.909  30.177  1.00  0.00     0.031 C 
ATOM     63  C   UNL A   1      44.815  32.056  31.909  1.00  0.00     0.029 A 
ATOM     64  C   UNL A   1      44.591  30.769  31.424  1.00  0.00     0.049 A 
ATOM     65  H   UNL A   1      44.161  29.047  32.532  1.00  0.00     0.167 HD
ATOM     66  C   UNL A   1      44.160  28.944  29.792  1.00  0.00     0.074 A 
ATOM     67  C   UNL A   1      44.047  27.766  30.641  1.00  0.00     0.031 C 
ATOM     68  C   UNL A   1      44.467  30.240  30.082  1.00  0.00     0.037 A 
BRANCH  55  69
ATOM     69  C   UNL A   1      43.455  29.107  35.435  1.00  0.00     0.058 A 
ATOM     70  C   UNL A   1      44.279  29.309  36.559  1.00  0.00     0.135 A 
ATOM     71  C   UNL A   1      43.274  27.757  35.049  1.00  0.00     0.135 A 
ATOM     72  F   UNL A   1      44.548  30.552  36.991  1.00  0.00    -0.206 F 
ATOM     73  C   UNL A   1      44.902  28.253  37.227  1.00  0.00     0.059 A 
ATOM     74  C   UNL A   1      43.837  26.689  35.733  1.00  0.00     0.059 A 
ATOM     75  F   UNL A   1      42.629  27.411  33.929  1.00  0.00    -0.206 F 
ATOM     76  C   UNL A   1      44.677  26.946  36.803  1.00  0.00     0.060 A 
BRANCH  76  77
ATOM     77  S   UNL A   1      45.525  25.581  37.616  1.00  0.00     0.124 S 
ATOM     78  O   UNL A   1      44.460  25.028  38.445  1.00  0.00    -0.237 OA
ATOM     79  O   UNL A   1      45.943  24.766  36.480  1.00  0.00    -0.237 OA
ATOM     80  O   UNL A   1      46.609  26.242  38.337  1.00  0.00    -0.744 OA
ENDBRANCH  76  77
ENDBRANCH  55  69
BRANCH  56  81
ATOM     81  C   UNL A   1      40.985  26.134  27.722  1.00  0.00     0.058 A 
ATOM     82  C   UNL A   1      41.790  25.559  26.722  1.00  0.00     0.135 A 
ATOM     83  C   UNL A   1      39.956  25.320  28.235  1.00  0.00     0.135 A 
ATOM     84  F   UNL A   1      42.807  26.255  26.191  1.00  0.00    -0.206 F 
ATOM     85  C   UNL A   1      41.617  24.238  26.291  1.00  0.00     0.059 A 
ATOM     86  C   UNL A   1      39.762  24.003  27.818  1.00  0.00     0.059 A 
ATOM     87  F   UNL A   1      39.166  25.756  29.228  1.00  0.00    -0.206 F 
ATOM     88  C   UNL A   1      40.611  23.460  26.863  1.00  0.00     0.060 A 
BRANCH  88  89
ATOM     89  S   UNL A   1      40.493  21.704  26.436  1.00  0.00     0.124 S 
ATOM     90  O   UNL A   1      39.197  21.642  25.769  1.00  0.00    -0.237 OA
ATOM     91  O   UNL A   1      41.660  21.515  25.581  1.00  0.00    -0.237 OA
ATOM     92  O   UNL A   1      40.560  21.035  27.732  1.00  0.00    -0.744 OA
ENDBRANCH  88  89
ENDBRANCH  56  81
BRANCH  68  93
ATOM     93  C   UNL A   1      44.536  31.203  28.931  1.00  0.00     0.058 A 
ATOM     94  C   UNL A   1      45.600  31.291  28.017  1.00  0.00     0.135 A 
ATOM     95  C   UNL A   1      43.427  32.033  28.708  1.00  0.00     0.135 A 
ATOM     96  F   UNL A   1      46.660  30.476  28.113  1.00  0.00    -0.206 F 
ATOM     97  C   UNL A   1      45.579  32.193  26.952  1.00  0.00     0.059 A 
ATOM     98  C   UNL A   1      43.370  32.916  27.637  1.00  0.00     0.059 A 
ATOM     99  F   UNL A   1      42.360  31.959  29.520  1.00  0.00    -0.206 F 
ATOM    100  C   UNL A   1      44.457  33.004  26.771  1.00  0.00     0.060 A 
BRANCH 100 101
ATOM    101  S   UNL A   1      44.397  34.127  25.358  1.00  0.00     0.124 S 
ATOM    102  O   UNL A   1      44.361  33.201  24.231  1.00  0.00    -0.237 OA
ATOM    103  O   UNL A   1      43.169  34.878  25.602  1.00  0.00    -0.237 OA
ATOM    104  O   UNL A   1      45.626  34.905  25.488  1.00  0.00    -0.744 OA
ENDBRANCH 100 101
ENDBRANCH  68  93
ENDBRANCH  42  43
ENDBRANCH  35  37
ENDBRANCH  34  35
ENDBRANCH  33  34
ENDBRANCH  32  33
ENDBRANCH  31  32
ENDBRANCH   1  31
TORSDOF 22
ENDMDL
