MODEL 1
REMARK VINA RESULT:     -10.7      0.000      0.000
REMARK SMILES O=C(OCCOCCOCCOC(=O)[C@@H]1CC[C@H](CNC(=O)C2CCOCC2)O1)c1ccc(-c2c3nc(c(-c4c(F)cc(S(=O)(=O)[O-])cc4F)c4ccc([nH]4)c(-c4c(F)cc(S(=O)(=O)[O-])cc4F)c4nc(c(-c5c(F)cc(S(=O)(=O)[O-])cc5F)c5ccc2[nH]5)C=C4)C=C3)cc1
REMARK SMILES IDX 7 1 6 2 5 3 4 4 3 5 2 6 1 7 30 8 31 9 95 10 32 11 94 12
REMARK SMILES IDX 33 13 34 14 35 15 88 16 36 17 93 18 87 19 89 20 37 21 92 22
REMARK SMILES IDX 86 23 85 24 38 26 72 27 51 28 71 29 52 30 55 31 70 32 90 33
REMARK SMILES IDX 53 34 54 35 69 37 91 38 56 39 39 40 40 41 49 42 41 43 42 44
REMARK SMILES IDX 48 45 50 46 43 47 44 48 45 49 46 50 47 51 73 52 74 53 83 54
REMARK SMILES IDX 75 55 76 56 82 57 84 58 77 59 78 60 79 61 80 62 81 63 57 64
REMARK SMILES IDX 58 65 67 66 59 67 60 68 66 69 68 70 61 71 62 72 63 73 64 74
REMARK SMILES IDX 65 75 8 76 9 77 10 78 11 79 12 80 13 81 14 82 15 83 16 84
REMARK SMILES IDX 29 85 17 86 18 87 19 88 20 89 21 90 22 92 23 93 24 94 28 95
REMARK SMILES IDX 25 96 27 97 26 98
REMARK H PARENT 89 25 55 36 20 91
REMARK Flexibility Score: inf
ROOT
ATOM      1  C   UNL A   1      31.431  27.490  27.025  1.00  0.00     0.188 C 
ENDROOT
BRANCH   1   2
ATOM      2  O   UNL A   1      32.083  28.647  26.502  1.00  0.00    -0.376 OA
BRANCH   2   3
ATOM      3  C   UNL A   1      33.505  28.675  26.586  1.00  0.00     0.202 C 
BRANCH   3   4
ATOM      4  C   UNL A   1      34.138  29.856  27.328  1.00  0.00     0.261 C 
BRANCH   4   5
ATOM      5  O   UNL A   1      35.549  29.731  27.537  1.00  0.00    -0.460 OA
BRANCH   5   6
ATOM      6  C   UNL A   1      36.201  30.145  28.645  1.00  0.00     0.338 C 
ATOM      7  O   UNL A   1      35.583  30.442  29.667  1.00  0.00    -0.246 OA
BRANCH   6   8
ATOM      8  C   UNL A   1      37.675  30.132  28.695  1.00  0.00     0.060 A 
ATOM      9  C   UNL A   1      38.437  30.367  29.842  1.00  0.00     0.016 A 
ATOM     10  C   UNL A   1      38.307  29.662  27.560  1.00  0.00     0.016 A 
ATOM     11  C   UNL A   1      39.828  30.187  29.850  1.00  0.00     0.010 A 
ATOM     12  C   UNL A   1      39.658  29.335  27.632  1.00  0.00     0.010 A 
ATOM     13  C   UNL A   1      40.458  29.561  28.780  1.00  0.00    -0.014 A 
BRANCH  13  14
ATOM     14  C   UNL A   1      41.867  29.004  28.792  1.00  0.00     0.031 A 
ATOM     15  C   UNL A   1      42.987  30.003  28.644  1.00  0.00     0.074 A 
ATOM     16  C   UNL A   1      42.180  27.691  28.677  1.00  0.00     0.049 A 
ATOM     17  N   UNL A   1      44.103  29.919  27.975  1.00  0.00    -0.248 NA
ATOM     18  C   UNL A   1      42.720  31.333  29.216  1.00  0.00     0.031 C 
ATOM     19  C   UNL A   1      41.303  26.539  28.879  1.00  0.00     0.029 A 
ATOM     20  N   UNL A   1      43.358  27.109  28.241  1.00  0.00    -0.354 N 
ATOM     21  C   UNL A   1      44.598  31.216  27.940  1.00  0.00     0.074 A 
ATOM     22  C   UNL A   1      43.585  32.064  28.531  1.00  0.00     0.031 C 
ATOM     23  C   UNL A   1      41.911  25.422  28.449  1.00  0.00     0.029 A 
ATOM     24  C   UNL A   1      43.218  25.771  27.925  1.00  0.00     0.049 A 
ATOM     25  H   UNL A   1      44.208  27.598  28.165  1.00  0.00     0.167 HD
ATOM     26  C   UNL A   1      45.811  31.657  27.529  1.00  0.00     0.037 A 
ATOM     27  C   UNL A   1      44.020  24.920  27.254  1.00  0.00     0.037 A 
ATOM     28  C   UNL A   1      46.879  30.767  27.168  1.00  0.00     0.049 A 
ATOM     29  C   UNL A   1      45.396  25.378  26.874  1.00  0.00     0.074 A 
ATOM     30  C   UNL A   1      48.217  31.058  26.977  1.00  0.00     0.029 A 
ATOM     31  N   UNL A   1      46.735  29.397  27.004  1.00  0.00    -0.354 N 
ATOM     32  N   UNL A   1      45.890  26.590  26.900  1.00  0.00    -0.248 NA
ATOM     33  C   UNL A   1      46.356  24.341  26.468  1.00  0.00     0.031 C 
ATOM     34  C   UNL A   1      48.887  29.857  26.720  1.00  0.00     0.029 A 
ATOM     35  C   UNL A   1      47.968  28.820  26.766  1.00  0.00     0.049 A 
ATOM     36  H   UNL A   1      45.882  28.908  27.051  1.00  0.00     0.167 HD
ATOM     37  C   UNL A   1      47.241  26.452  26.610  1.00  0.00     0.074 A 
ATOM     38  C   UNL A   1      47.476  25.045  26.361  1.00  0.00     0.031 C 
ATOM     39  C   UNL A   1      48.201  27.406  26.602  1.00  0.00     0.037 A 
BRANCH  26  40
ATOM     40  C   UNL A   1      46.050  33.145  27.545  1.00  0.00     0.058 A 
ATOM     41  C   UNL A   1      45.744  33.957  26.437  1.00  0.00     0.135 A 
ATOM     42  C   UNL A   1      46.660  33.759  28.649  1.00  0.00     0.135 A 
ATOM     43  F   UNL A   1      45.147  33.433  25.355  1.00  0.00    -0.206 F 
ATOM     44  C   UNL A   1      46.153  35.283  26.371  1.00  0.00     0.059 A 
ATOM     45  C   UNL A   1      47.026  35.104  28.627  1.00  0.00     0.059 A 
ATOM     46  F   UNL A   1      46.943  33.048  29.752  1.00  0.00    -0.206 F 
ATOM     47  C   UNL A   1      46.813  35.842  27.463  1.00  0.00     0.060 A 
BRANCH  47  48
ATOM     48  S   UNL A   1      47.412  37.538  27.328  1.00  0.00     0.124 S 
ATOM     49  O   UNL A   1      46.468  38.244  28.192  1.00  0.00    -0.237 OA
ATOM     50  O   UNL A   1      48.772  37.440  27.829  1.00  0.00    -0.237 OA
ATOM     51  O   UNL A   1      47.290  37.822  25.897  1.00  0.00    -0.744 OA
ENDBRANCH  47  48
ENDBRANCH  26  40
BRANCH  27  52
ATOM     52  C   UNL A   1      43.567  23.531  26.967  1.00  0.00     0.058 A 
ATOM     53  C   UNL A   1      43.311  23.111  25.656  1.00  0.00     0.135 A 
ATOM     54  C   UNL A   1      43.416  22.586  27.996  1.00  0.00     0.135 A 
ATOM     55  F   UNL A   1      43.455  23.973  24.637  1.00  0.00    -0.206 F 
ATOM     56  C   UNL A   1      42.906  21.811  25.369  1.00  0.00     0.059 A 
ATOM     57  C   UNL A   1      43.011  21.278  27.735  1.00  0.00     0.059 A 
ATOM     58  F   UNL A   1      43.701  22.919  29.264  1.00  0.00    -0.206 F 
ATOM     59  C   UNL A   1      42.759  20.899  26.417  1.00  0.00     0.060 A 
BRANCH  59  60
ATOM     60  S   UNL A   1      42.287  19.201  26.015  1.00  0.00     0.124 S 
ATOM     61  O   UNL A   1      43.163  18.904  24.889  1.00  0.00    -0.237 OA
ATOM     62  O   UNL A   1      42.593  18.506  27.263  1.00  0.00    -0.237 OA
ATOM     63  O   UNL A   1      40.866  19.312  25.699  1.00  0.00    -0.744 OA
ENDBRANCH  59  60
ENDBRANCH  27  52
BRANCH  39  64
ATOM     64  C   UNL A   1      49.629  26.966  26.487  1.00  0.00     0.058 A 
ATOM     65  C   UNL A   1      50.361  26.500  27.586  1.00  0.00     0.135 A 
ATOM     66  C   UNL A   1      50.220  26.892  25.214  1.00  0.00     0.135 A 
ATOM     67  F   UNL A   1      49.844  26.568  28.821  1.00  0.00    -0.206 F 
ATOM     68  C   UNL A   1      51.629  25.951  27.423  1.00  0.00     0.059 A 
ATOM     69  C   UNL A   1      51.475  26.329  25.026  1.00  0.00     0.059 A 
ATOM     70  F   UNL A   1      49.554  27.330  24.133  1.00  0.00    -0.206 F 
ATOM     71  C   UNL A   1      52.169  25.853  26.137  1.00  0.00     0.060 A 
BRANCH  71  72
ATOM     72  S   UNL A   1      53.759  25.025  25.924  1.00  0.00     0.124 S 
ATOM     73  O   UNL A   1      53.362  23.791  25.255  1.00  0.00    -0.237 OA
ATOM     74  O   UNL A   1      54.500  25.980  25.108  1.00  0.00    -0.237 OA
ATOM     75  O   UNL A   1      54.246  24.869  27.292  1.00  0.00    -0.744 OA
ENDBRANCH  71  72
ENDBRANCH  39  64
ENDBRANCH  13  14
ENDBRANCH   6   8
ENDBRANCH   5   6
ENDBRANCH   4   5
ENDBRANCH   3   4
ENDBRANCH   2   3
ENDBRANCH   1   2
BRANCH   1  76
ATOM     76  C   UNL A   1      31.380  26.372  25.979  1.00  0.00     0.188 C 
BRANCH  76  77
ATOM     77  O   UNL A   1      31.942  25.115  26.368  1.00  0.00    -0.376 OA
BRANCH  77  78
ATOM     78  C   UNL A   1      31.037  24.028  26.524  1.00  0.00     0.202 C 
BRANCH  78  79
ATOM     79  C   UNL A   1      31.021  22.935  25.441  1.00  0.00     0.261 C 
BRANCH  79  80
ATOM     80  O   UNL A   1      30.843  23.398  24.093  1.00  0.00    -0.461 OA
BRANCH  80  81
ATOM     81  C   UNL A   1      31.988  23.481  23.358  1.00  0.00     0.335 C 
ATOM     82  O   UNL A   1      32.847  22.604  23.307  1.00  0.00    -0.249 OA
BRANCH  81  83
ATOM     83  C   UNL A   1      32.138  24.814  22.612  1.00  0.00     0.228 C 
ATOM     84  C   UNL A   1      33.327  25.589  23.137  1.00  0.00     0.047 C 
ATOM     85  O   UNL A   1      31.102  25.803  22.587  1.00  0.00    -0.361 OA
ATOM     86  C   UNL A   1      33.226  26.853  22.315  1.00  0.00     0.037 C 
ATOM     87  C   UNL A   1      31.719  27.033  22.106  1.00  0.00     0.138 C 
BRANCH  87  88
ATOM     88  C   UNL A   1      31.122  28.258  22.816  1.00  0.00     0.147 C 
BRANCH  88  89
ATOM     89  N   UNL A   1      29.700  28.134  23.111  1.00  0.00    -0.353 N 
ATOM     90  C   UNL A   1      28.658  28.987  22.895  1.00  0.00     0.223 C 
ATOM     91  H   UNL A   1      29.448  27.285  23.542  1.00  0.00     0.163 HD
ATOM     92  O   UNL A   1      27.523  28.563  23.118  1.00  0.00    -0.275 OA
BRANCH  90  93
ATOM     93  C   UNL A   1      28.906  30.404  22.404  1.00  0.00     0.083 C 
ATOM     94  C   UNL A   1      28.629  31.452  23.481  1.00  0.00     0.042 C 
ATOM     95  C   UNL A   1      28.069  30.712  21.149  1.00  0.00     0.042 C 
ATOM     96  C   UNL A   1      28.779  32.856  22.912  1.00  0.00     0.161 C 
ATOM     97  C   UNL A   1      28.196  32.168  20.722  1.00  0.00     0.161 C 
ATOM     98  O   UNL A   1      27.902  33.050  21.807  1.00  0.00    -0.381 OA
ENDBRANCH  90  93
ENDBRANCH  88  89
ENDBRANCH  87  88
ENDBRANCH  81  83
ENDBRANCH  80  81
ENDBRANCH  79  80
ENDBRANCH  78  79
ENDBRANCH  77  78
ENDBRANCH  76  77
ENDBRANCH   1  76
TORSDOF 23
ENDMDL
MODEL 2
REMARK VINA RESULT:     -10.1      2.555      9.352
REMARK SMILES O=C(OCCOCCOCCOC(=O)[C@@H]1CC[C@H](CNC(=O)C2CCOCC2)O1)c1ccc(-c2c3nc(c(-c4c(F)cc(S(=O)(=O)[O-])cc4F)c4ccc([nH]4)c(-c4c(F)cc(S(=O)(=O)[O-])cc4F)c4nc(c(-c5c(F)cc(S(=O)(=O)[O-])cc5F)c5ccc2[nH]5)C=C4)C=C3)cc1
REMARK SMILES IDX 7 1 6 2 5 3 4 4 3 5 2 6 1 7 30 8 31 9 95 10 32 11 94 12
REMARK SMILES IDX 33 13 34 14 35 15 88 16 36 17 93 18 87 19 89 20 37 21 92 22
REMARK SMILES IDX 86 23 85 24 38 26 72 27 51 28 71 29 52 30 55 31 70 32 90 33
REMARK SMILES IDX 53 34 54 35 69 37 91 38 56 39 39 40 40 41 49 42 41 43 42 44
REMARK SMILES IDX 48 45 50 46 43 47 44 48 45 49 46 50 47 51 73 52 74 53 83 54
REMARK SMILES IDX 75 55 76 56 82 57 84 58 77 59 78 60 79 61 80 62 81 63 57 64
REMARK SMILES IDX 58 65 67 66 59 67 60 68 66 69 68 70 61 71 62 72 63 73 64 74
REMARK SMILES IDX 65 75 8 76 9 77 10 78 11 79 12 80 13 81 14 82 15 83 16 84
REMARK SMILES IDX 29 85 17 86 18 87 19 88 20 89 21 90 22 92 23 93 24 94 28 95
REMARK SMILES IDX 25 96 27 97 26 98
REMARK H PARENT 89 25 55 36 20 91
REMARK Flexibility Score: inf
ROOT
ATOM      1  C   UNL A   1      34.033  35.380  32.375  1.00  0.00     0.188 C 
ENDROOT
BRANCH   1   2
ATOM      2  O   UNL A   1      34.174  33.967  32.522  1.00  0.00    -0.376 OA
BRANCH   2   3
ATOM      3  C   UNL A   1      35.435  33.408  32.167  1.00  0.00     0.202 C 
BRANCH   3   4
ATOM      4  C   UNL A   1      35.443  31.957  31.676  1.00  0.00     0.261 C 
BRANCH   4   5
ATOM      5  O   UNL A   1      36.594  31.207  32.075  1.00  0.00    -0.460 OA
BRANCH   5   6
ATOM      6  C   UNL A   1      37.117  30.173  31.380  1.00  0.00     0.338 C 
ATOM      7  O   UNL A   1      36.400  29.256  30.980  1.00  0.00    -0.246 OA
BRANCH   6   8
ATOM      8  C   UNL A   1      38.536  30.182  30.978  1.00  0.00     0.060 A 
ATOM      9  C   UNL A   1      39.509  29.307  31.466  1.00  0.00     0.016 A 
ATOM     10  C   UNL A   1      38.848  30.995  29.906  1.00  0.00     0.016 A 
ATOM     11  C   UNL A   1      40.803  29.273  30.927  1.00  0.00     0.010 A 
ATOM     12  C   UNL A   1      40.081  30.835  29.280  1.00  0.00     0.010 A 
ATOM     13  C   UNL A   1      41.089  29.956  29.750  1.00  0.00    -0.014 A 
BRANCH  13  14
ATOM     14  C   UNL A   1      42.314  29.744  28.886  1.00  0.00     0.031 A 
ATOM     15  C   UNL A   1      42.492  28.369  28.293  1.00  0.00     0.074 A 
ATOM     16  C   UNL A   1      43.365  30.598  28.811  1.00  0.00     0.049 A 
ATOM     17  N   UNL A   1      43.572  27.655  28.137  1.00  0.00    -0.248 NA
ATOM     18  C   UNL A   1      41.242  27.657  27.980  1.00  0.00     0.031 C 
ATOM     19  C   UNL A   1      43.410  32.002  29.215  1.00  0.00     0.029 A 
ATOM     20  N   UNL A   1      44.674  30.342  28.443  1.00  0.00    -0.354 N 
ATOM     21  C   UNL A   1      43.117  26.378  27.833  1.00  0.00     0.074 A 
ATOM     22  C   UNL A   1      41.677  26.406  27.973  1.00  0.00     0.031 C 
ATOM     23  C   UNL A   1      44.678  32.440  29.203  1.00  0.00     0.029 A 
ATOM     24  C   UNL A   1      45.547  31.348  28.806  1.00  0.00     0.049 A 
ATOM     25  H   UNL A   1      44.954  29.525  27.970  1.00  0.00     0.167 HD
ATOM     26  C   UNL A   1      43.817  25.302  27.402  1.00  0.00     0.037 A 
ATOM     27  C   UNL A   1      46.894  31.391  28.860  1.00  0.00     0.037 A 
ATOM     28  C   UNL A   1      45.207  25.371  27.049  1.00  0.00     0.049 A 
ATOM     29  C   UNL A   1      47.673  30.237  28.303  1.00  0.00     0.074 A 
ATOM     30  C   UNL A   1      45.971  24.440  26.371  1.00  0.00     0.029 A 
ATOM     31  N   UNL A   1      46.025  26.465  27.294  1.00  0.00    -0.354 N 
ATOM     32  N   UNL A   1      47.239  29.051  27.954  1.00  0.00    -0.248 NA
ATOM     33  C   UNL A   1      49.105  30.455  28.055  1.00  0.00     0.031 C 
ATOM     34  C   UNL A   1      47.249  24.982  26.186  1.00  0.00     0.029 A 
ATOM     35  C   UNL A   1      47.271  26.255  26.736  1.00  0.00     0.049 A 
ATOM     36  H   UNL A   1      45.757  27.271  27.792  1.00  0.00     0.167 HD
ATOM     37  C   UNL A   1      48.319  28.418  27.355  1.00  0.00     0.074 A 
ATOM     38  C   UNL A   1      49.441  29.331  27.436  1.00  0.00     0.031 C 
ATOM     39  C   UNL A   1      48.355  27.207  26.751  1.00  0.00     0.037 A 
BRANCH  26  40
ATOM     40  C   UNL A   1      43.059  24.013  27.213  1.00  0.00     0.058 A 
ATOM     41  C   UNL A   1      42.992  23.036  28.223  1.00  0.00     0.135 A 
ATOM     42  C   UNL A   1      42.454  23.714  25.982  1.00  0.00     0.135 A 
ATOM     43  F   UNL A   1      43.538  23.267  29.427  1.00  0.00    -0.206 F 
ATOM     44  C   UNL A   1      42.475  21.770  27.979  1.00  0.00     0.059 A 
ATOM     45  C   UNL A   1      41.878  22.469  25.735  1.00  0.00     0.059 A 
ATOM     46  F   UNL A   1      42.451  24.618  24.989  1.00  0.00    -0.206 F 
ATOM     47  C   UNL A   1      41.941  21.489  26.724  1.00  0.00     0.060 A 
BRANCH  47  48
ATOM     48  S   UNL A   1      41.353  19.814  26.397  1.00  0.00     0.124 S 
ATOM     49  O   UNL A   1      41.489  19.202  27.716  1.00  0.00    -0.237 OA
ATOM     50  O   UNL A   1      39.991  20.035  25.941  1.00  0.00    -0.237 OA
ATOM     51  O   UNL A   1      42.285  19.328  25.377  1.00  0.00    -0.744 OA
ENDBRANCH  47  48
ENDBRANCH  26  40
BRANCH  27  52
ATOM     52  C   UNL A   1      47.586  32.597  29.392  1.00  0.00     0.058 A 
ATOM     53  C   UNL A   1      48.062  32.633  30.709  1.00  0.00     0.135 A 
ATOM     54  C   UNL A   1      47.815  33.724  28.584  1.00  0.00     0.135 A 
ATOM     55  F   UNL A   1      47.881  31.577  31.516  1.00  0.00    -0.206 F 
ATOM     56  C   UNL A   1      48.728  33.746  31.216  1.00  0.00     0.059 A 
ATOM     57  C   UNL A   1      48.479  34.850  29.069  1.00  0.00     0.059 A 
ATOM     58  F   UNL A   1      47.428  33.721  27.300  1.00  0.00    -0.206 F 
ATOM     59  C   UNL A   1      48.933  34.851  30.387  1.00  0.00     0.060 A 
BRANCH  59  60
ATOM     60  S   UNL A   1      49.849  36.261  31.050  1.00  0.00     0.124 S 
ATOM     61  O   UNL A   1      51.219  35.930  30.679  1.00  0.00    -0.237 OA
ATOM     62  O   UNL A   1      49.242  37.374  30.325  1.00  0.00    -0.237 OA
ATOM     63  O   UNL A   1      49.552  36.215  32.478  1.00  0.00    -0.744 OA
ENDBRANCH  59  60
ENDBRANCH  27  52
BRANCH  39  64
ATOM     64  C   UNL A   1      49.583  26.844  25.973  1.00  0.00     0.058 A 
ATOM     65  C   UNL A   1      49.750  27.196  24.629  1.00  0.00     0.135 A 
ATOM     66  C   UNL A   1      50.663  26.245  26.643  1.00  0.00     0.135 A 
ATOM     67  F   UNL A   1      48.740  27.753  23.944  1.00  0.00    -0.206 F 
ATOM     68  C   UNL A   1      50.961  26.987  23.976  1.00  0.00     0.059 A 
ATOM     69  C   UNL A   1      51.887  26.045  26.019  1.00  0.00     0.059 A 
ATOM     70  F   UNL A   1      50.546  25.888  27.933  1.00  0.00    -0.206 F 
ATOM     71  C   UNL A   1      52.029  26.429  24.686  1.00  0.00     0.060 A 
BRANCH  71  72
ATOM     72  S   UNL A   1      53.631  26.279  23.867  1.00  0.00     0.124 S 
ATOM     73  O   UNL A   1      53.237  25.899  22.515  1.00  0.00    -0.237 OA
ATOM     74  O   UNL A   1      54.182  27.622  24.014  1.00  0.00    -0.237 OA
ATOM     75  O   UNL A   1      54.311  25.243  24.639  1.00  0.00    -0.744 OA
ENDBRANCH  71  72
ENDBRANCH  39  64
ENDBRANCH  13  14
ENDBRANCH   6   8
ENDBRANCH   5   6
ENDBRANCH   4   5
ENDBRANCH   3   4
ENDBRANCH   2   3
ENDBRANCH   1   2
BRANCH   1  76
ATOM     76  C   UNL A   1      32.599  35.747  31.978  1.00  0.00     0.188 C 
BRANCH  76  77
ATOM     77  O   UNL A   1      32.457  36.803  31.023  1.00  0.00    -0.376 OA
BRANCH  77  78
ATOM     78  C   UNL A   1      33.299  36.751  29.878  1.00  0.00     0.202 C 
BRANCH  78  79
ATOM     79  C   UNL A   1      32.940  35.761  28.755  1.00  0.00     0.261 C 
BRANCH  79  80
ATOM     80  O   UNL A   1      33.255  34.385  29.016  1.00  0.00    -0.461 OA
BRANCH  80  81
ATOM     81  C   UNL A   1      34.113  33.814  28.124  1.00  0.00     0.335 C 
ATOM     82  O   UNL A   1      34.780  34.438  27.302  1.00  0.00    -0.249 OA
BRANCH  81  83
ATOM     83  C   UNL A   1      34.146  32.281  28.206  1.00  0.00     0.228 C 
ATOM     84  C   UNL A   1      35.485  31.750  27.741  1.00  0.00     0.047 C 
ATOM     85  O   UNL A   1      33.216  31.452  27.502  1.00  0.00    -0.361 OA
ATOM     86  C   UNL A   1      35.253  30.261  27.850  1.00  0.00     0.037 C 
ATOM     87  C   UNL A   1      33.762  30.100  27.533  1.00  0.00     0.138 C 
BRANCH  87  88
ATOM     88  C   UNL A   1      33.470  29.361  26.218  1.00  0.00     0.147 C 
BRANCH  88  89
ATOM     89  N   UNL A   1      32.284  29.845  25.521  1.00  0.00    -0.353 N 
ATOM     90  C   UNL A   1      31.500  29.264  24.569  1.00  0.00     0.223 C 
ATOM     91  H   UNL A   1      32.001  30.751  25.784  1.00  0.00     0.163 HD
ATOM     92  O   UNL A   1      30.465  29.851  24.251  1.00  0.00    -0.275 OA
BRANCH  90  93
ATOM     93  C   UNL A   1      31.907  27.946  23.930  1.00  0.00     0.083 C 
ATOM     94  C   UNL A   1      31.348  27.785  22.517  1.00  0.00     0.042 C 
ATOM     95  C   UNL A   1      31.477  26.750  24.800  1.00  0.00     0.042 C 
ATOM     96  C   UNL A   1      31.683  26.406  21.964  1.00  0.00     0.161 C 
ATOM     97  C   UNL A   1      31.750  25.418  24.114  1.00  0.00     0.161 C 
ATOM     98  O   UNL A   1      31.169  25.383  22.809  1.00  0.00    -0.381 OA
ENDBRANCH  90  93
ENDBRANCH  88  89
ENDBRANCH  87  88
ENDBRANCH  81  83
ENDBRANCH  80  81
ENDBRANCH  79  80
ENDBRANCH  78  79
ENDBRANCH  77  78
ENDBRANCH  76  77
ENDBRANCH   1  76
TORSDOF 23
ENDMDL
MODEL 3
REMARK VINA RESULT:      -9.5      1.975      9.034
REMARK SMILES O=C(OCCOCCOCCOC(=O)[C@@H]1CC[C@H](CNC(=O)C2CCOCC2)O1)c1ccc(-c2c3nc(c(-c4c(F)cc(S(=O)(=O)[O-])cc4F)c4ccc([nH]4)c(-c4c(F)cc(S(=O)(=O)[O-])cc4F)c4nc(c(-c5c(F)cc(S(=O)(=O)[O-])cc5F)c5ccc2[nH]5)C=C4)C=C3)cc1
REMARK SMILES IDX 7 1 6 2 5 3 4 4 3 5 2 6 1 7 30 8 31 9 95 10 32 11 94 12
REMARK SMILES IDX 33 13 34 14 35 15 88 16 36 17 93 18 87 19 89 20 37 21 92 22
REMARK SMILES IDX 86 23 85 24 38 26 72 27 51 28 71 29 52 30 55 31 70 32 90 33
REMARK SMILES IDX 53 34 54 35 69 37 91 38 56 39 39 40 40 41 49 42 41 43 42 44
REMARK SMILES IDX 48 45 50 46 43 47 44 48 45 49 46 50 47 51 73 52 74 53 83 54
REMARK SMILES IDX 75 55 76 56 82 57 84 58 77 59 78 60 79 61 80 62 81 63 57 64
REMARK SMILES IDX 58 65 67 66 59 67 60 68 66 69 68 70 61 71 62 72 63 73 64 74
REMARK SMILES IDX 65 75 8 76 9 77 10 78 11 79 12 80 13 81 14 82 15 83 16 84
REMARK SMILES IDX 29 85 17 86 18 87 19 88 20 89 21 90 22 92 23 93 24 94 28 95
REMARK SMILES IDX 25 96 27 97 26 98
REMARK H PARENT 89 25 55 36 20 91
REMARK Flexibility Score: inf
ROOT
ATOM      1  C   UNL A   1      34.113  35.034  31.223  1.00  0.00     0.188 C 
ENDROOT
BRANCH   1   2
ATOM      2  O   UNL A   1      33.865  33.758  31.814  1.00  0.00    -0.376 OA
BRANCH   2   3
ATOM      3  C   UNL A   1      34.760  32.706  31.466  1.00  0.00     0.202 C 
BRANCH   3   4
ATOM      4  C   UNL A   1      36.256  33.036  31.449  1.00  0.00     0.261 C 
BRANCH   4   5
ATOM      5  O   UNL A   1      37.054  32.108  30.708  1.00  0.00    -0.460 OA
BRANCH   5   6
ATOM      6  C   UNL A   1      37.835  31.154  31.261  1.00  0.00     0.338 C 
ATOM      7  O   UNL A   1      37.628  30.755  32.406  1.00  0.00    -0.246 OA
BRANCH   6   8
ATOM      8  C   UNL A   1      38.875  30.481  30.460  1.00  0.00     0.060 A 
ATOM      9  C   UNL A   1      38.731  30.103  29.122  1.00  0.00     0.016 A 
ATOM     10  C   UNL A   1      40.125  30.409  31.042  1.00  0.00     0.016 A 
ATOM     11  C   UNL A   1      39.812  29.607  28.379  1.00  0.00     0.010 A 
ATOM     12  C   UNL A   1      41.216  30.070  30.247  1.00  0.00     0.010 A 
ATOM     13  C   UNL A   1      41.104  29.682  28.888  1.00  0.00    -0.014 A 
BRANCH  13  14
ATOM     14  C   UNL A   1      42.376  29.506  28.086  1.00  0.00     0.031 A 
ATOM     15  C   UNL A   1      42.676  28.111  27.596  1.00  0.00     0.074 A 
ATOM     16  C   UNL A   1      43.365  30.428  27.991  1.00  0.00     0.049 A 
ATOM     17  N   UNL A   1      43.810  27.471  27.529  1.00  0.00    -0.248 NA
ATOM     18  C   UNL A   1      41.494  27.289  27.286  1.00  0.00     0.031 C 
ATOM     19  C   UNL A   1      43.292  31.855  28.299  1.00  0.00     0.029 A 
ATOM     20  N   UNL A   1      44.704  30.246  27.690  1.00  0.00    -0.354 N 
ATOM     21  C   UNL A   1      43.461  26.147  27.297  1.00  0.00     0.074 A 
ATOM     22  C   UNL A   1      42.017  26.077  27.382  1.00  0.00     0.031 C 
ATOM     23  C   UNL A   1      44.525  32.384  28.304  1.00  0.00     0.029 A 
ATOM     24  C   UNL A   1      45.486  31.336  28.015  1.00  0.00     0.049 A 
ATOM     25  H   UNL A   1      45.060  29.423  27.285  1.00  0.00     0.167 HD
ATOM     26  C   UNL A   1      44.253  25.099  26.968  1.00  0.00     0.037 A 
ATOM     27  C   UNL A   1      46.823  31.482  28.115  1.00  0.00     0.037 A 
ATOM     28  C   UNL A   1      45.648  25.247  26.662  1.00  0.00     0.049 A 
ATOM     29  C   UNL A   1      47.705  30.355  27.669  1.00  0.00     0.074 A 
ATOM     30  C   UNL A   1      46.505  24.333  26.078  1.00  0.00     0.029 A 
ATOM     31  N   UNL A   1      46.375  26.413  26.861  1.00  0.00    -0.354 N 
ATOM     32  N   UNL A   1      47.372  29.120  27.386  1.00  0.00    -0.248 NA
ATOM     33  C   UNL A   1      49.127  30.662  27.458  1.00  0.00     0.031 C 
ATOM     34  C   UNL A   1      47.747  24.955  25.903  1.00  0.00     0.029 A 
ATOM     35  C   UNL A   1      47.655  26.259  26.365  1.00  0.00     0.049 A 
ATOM     36  H   UNL A   1      46.029  27.228  27.292  1.00  0.00     0.167 HD
ATOM     37  C   UNL A   1      48.519  28.530  26.872  1.00  0.00     0.074 A 
ATOM     38  C   UNL A   1      49.568  29.527  26.931  1.00  0.00     0.031 C 
ATOM     39  C   UNL A   1      48.666  27.288  26.355  1.00  0.00     0.037 A 
BRANCH  26  40
ATOM     40  C   UNL A   1      43.598  23.748  26.839  1.00  0.00     0.058 A 
ATOM     41  C   UNL A   1      43.034  23.309  25.627  1.00  0.00     0.135 A 
ATOM     42  C   UNL A   1      43.463  22.910  27.957  1.00  0.00     0.135 A 
ATOM     43  F   UNL A   1      43.143  24.058  24.518  1.00  0.00    -0.206 F 
ATOM     44  C   UNL A   1      42.252  22.163  25.560  1.00  0.00     0.059 A 
ATOM     45  C   UNL A   1      42.731  21.725  27.897  1.00  0.00     0.059 A 
ATOM     46  F   UNL A   1      44.009  23.253  29.134  1.00  0.00    -0.206 F 
ATOM     47  C   UNL A   1      42.088  21.389  26.706  1.00  0.00     0.060 A 
BRANCH  47  48
ATOM     48  S   UNL A   1      41.000  19.951  26.623  1.00  0.00     0.124 S 
ATOM     49  O   UNL A   1      40.755  19.698  28.042  1.00  0.00    -0.237 OA
ATOM     50  O   UNL A   1      39.865  20.451  25.866  1.00  0.00    -0.237 OA
ATOM     51  O   UNL A   1      41.822  18.951  25.938  1.00  0.00    -0.744 OA
ENDBRANCH  47  48
ENDBRANCH  26  40
BRANCH  27  52
ATOM     52  C   UNL A   1      47.404  32.769  28.588  1.00  0.00     0.058 A 
ATOM     53  C   UNL A   1      47.608  33.837  27.705  1.00  0.00     0.135 A 
ATOM     54  C   UNL A   1      47.736  32.967  29.939  1.00  0.00     0.135 A 
ATOM     55  F   UNL A   1      47.294  33.702  26.408  1.00  0.00    -0.206 F 
ATOM     56  C   UNL A   1      48.132  35.053  28.135  1.00  0.00     0.059 A 
ATOM     57  C   UNL A   1      48.262  34.174  30.395  1.00  0.00     0.059 A 
ATOM     58  F   UNL A   1      47.510  31.996  30.837  1.00  0.00    -0.206 F 
ATOM     59  C   UNL A   1      48.457  35.213  29.484  1.00  0.00     0.060 A 
BRANCH  59  60
ATOM     60  S   UNL A   1      49.083  36.818  30.030  1.00  0.00     0.124 S 
ATOM     61  O   UNL A   1      49.975  37.180  28.935  1.00  0.00    -0.237 OA
ATOM     62  O   UNL A   1      47.852  37.596  30.134  1.00  0.00    -0.237 OA
ATOM     63  O   UNL A   1      49.733  36.512  31.300  1.00  0.00    -0.744 OA
ENDBRANCH  59  60
ENDBRANCH  27  52
BRANCH  39  64
ATOM     64  C   UNL A   1      49.948  26.967  25.649  1.00  0.00     0.058 A 
ATOM     65  C   UNL A   1      50.161  27.278  24.301  1.00  0.00     0.135 A 
ATOM     66  C   UNL A   1      51.026  26.454  26.392  1.00  0.00     0.135 A 
ATOM     67  F   UNL A   1      49.157  27.752  23.549  1.00  0.00    -0.206 F 
ATOM     68  C   UNL A   1      51.412  27.114  23.714  1.00  0.00     0.059 A 
ATOM     69  C   UNL A   1      52.288  26.302  25.833  1.00  0.00     0.059 A 
ATOM     70  F   UNL A   1      50.866  26.139  27.688  1.00  0.00    -0.206 F 
ATOM     71  C   UNL A   1      52.473  26.643  24.494  1.00  0.00     0.060 A 
BRANCH  71  72
ATOM     72  S   UNL A   1      54.119  26.554  23.757  1.00  0.00     0.124 S 
ATOM     73  O   UNL A   1      54.738  25.494  24.544  1.00  0.00    -0.237 OA
ATOM     74  O   UNL A   1      53.819  26.222  22.368  1.00  0.00    -0.237 OA
ATOM     75  O   UNL A   1      54.660  27.893  23.971  1.00  0.00    -0.744 OA
ENDBRANCH  71  72
ENDBRANCH  39  64
ENDBRANCH  13  14
ENDBRANCH   6   8
ENDBRANCH   5   6
ENDBRANCH   4   5
ENDBRANCH   3   4
ENDBRANCH   2   3
ENDBRANCH   1   2
BRANCH   1  76
ATOM     76  C   UNL A   1      33.459  35.132  29.841  1.00  0.00     0.188 C 
BRANCH  76  77
ATOM     77  O   UNL A   1      34.345  35.326  28.734  1.00  0.00    -0.376 OA
BRANCH  77  78
ATOM     78  C   UNL A   1      34.757  34.161  28.029  1.00  0.00     0.202 C 
BRANCH  78  79
ATOM     79  C   UNL A   1      33.685  33.124  27.649  1.00  0.00     0.261 C 
BRANCH  79  80
ATOM     80  O   UNL A   1      33.730  31.888  28.378  1.00  0.00    -0.461 OA
BRANCH  80  81
ATOM     81  C   UNL A   1      34.464  30.901  27.789  1.00  0.00     0.335 C 
ATOM     82  O   UNL A   1      35.688  30.908  27.692  1.00  0.00    -0.249 OA
BRANCH  81  83
ATOM     83  C   UNL A   1      33.605  29.770  27.206  1.00  0.00     0.228 C 
ATOM     84  C   UNL A   1      34.435  28.879  26.307  1.00  0.00     0.047 C 
ATOM     85  O   UNL A   1      32.439  30.018  26.413  1.00  0.00    -0.361 OA
ATOM     86  C   UNL A   1      33.383  27.911  25.817  1.00  0.00     0.037 C 
ATOM     87  C   UNL A   1      32.107  28.758  25.761  1.00  0.00     0.138 C 
BRANCH  87  88
ATOM     88  C   UNL A   1      31.570  29.000  24.342  1.00  0.00     0.147 C 
BRANCH  88  89
ATOM     89  N   UNL A   1      30.313  28.315  24.064  1.00  0.00    -0.353 N 
ATOM     90  C   UNL A   1      30.023  26.990  23.917  1.00  0.00     0.223 C 
ATOM     91  H   UNL A   1      29.537  28.914  23.964  1.00  0.00     0.163 HD
ATOM     92  O   UNL A   1      28.836  26.677  23.824  1.00  0.00    -0.275 OA
BRANCH  90  93
ATOM     93  C   UNL A   1      31.136  25.956  23.864  1.00  0.00     0.083 C 
ATOM     94  C   UNL A   1      31.520  25.584  22.433  1.00  0.00     0.042 C 
ATOM     95  C   UNL A   1      30.752  24.687  24.647  1.00  0.00     0.042 C 
ATOM     96  C   UNL A   1      32.552  24.465  22.430  1.00  0.00     0.161 C 
ATOM     97  C   UNL A   1      31.791  23.584  24.492  1.00  0.00     0.161 C 
ATOM     98  O   UNL A   1      32.057  23.318  23.114  1.00  0.00    -0.381 OA
ENDBRANCH  90  93
ENDBRANCH  88  89
ENDBRANCH  87  88
ENDBRANCH  81  83
ENDBRANCH  80  81
ENDBRANCH  79  80
ENDBRANCH  78  79
ENDBRANCH  77  78
ENDBRANCH  76  77
ENDBRANCH   1  76
TORSDOF 23
ENDMDL
