MODEL 1
REMARK VINA RESULT:     -10.0      0.000      0.000
REMARK SMILES Cc1cc(SCC(=O)OCCOCCOCCOC(=O)c2ccc(-c3c4nc(c(-c5c(F)cc(S(=O)(=O)[O-])cc5F)c5ccc([nH]5)c(-c5c(F)cc(S(=O)(=O)[O-])cc5F)c5nc(c(-c6c(F)cc(S(=O)(=O)[O-])cc6F)c6ccc3[nH]6)C=C5)C=C4)cc2)c2cc(I)ccc2n1
REMARK SMILES IDX 14 1 13 2 12 3 11 4 10 5 9 6 7 7 8 8 6 9 5 10 4 11 1 12 2 13
REMARK SMILES IDX 3 14 94 15 93 16 87 17 92 18 88 19 91 20 89 21 90 22 15 23
REMARK SMILES IDX 16 24 17 25 18 26 19 27 20 28 21 29 22 30 86 31 23 32 85 33
REMARK SMILES IDX 24 34 25 35 26 36 79 37 27 38 84 39 78 40 80 41 28 42 83 43
REMARK SMILES IDX 77 44 76 45 29 47 63 48 42 49 62 50 43 51 46 52 61 53 81 54
REMARK SMILES IDX 44 55 45 56 60 58 82 59 47 60 30 61 31 62 40 63 32 64 33 65
REMARK SMILES IDX 39 66 41 67 34 68 35 69 36 70 37 71 38 72 64 73 65 74 74 75
REMARK SMILES IDX 66 76 67 77 73 78 75 79 68 80 69 81 70 82 71 83 72 84 48 85
REMARK SMILES IDX 49 86 58 87 50 88 51 89 57 90 59 91 52 92 53 93 54 94 55 95
REMARK SMILES IDX 56 96
REMARK H PARENT 80 46 46 57
REMARK Flexibility Score: inf
ROOT
ATOM      1  C   UNL A   1      33.666  28.906  23.135  1.00  0.00     0.188 C 
ENDROOT
BRANCH   1   2
ATOM      2  C   UNL A   1      33.537  27.715  22.162  1.00  0.00     0.188 C 
BRANCH   2   3
ATOM      3  O   UNL A   1      33.393  26.411  22.716  1.00  0.00    -0.376 OA
BRANCH   3   4
ATOM      4  C   UNL A   1      32.130  25.760  22.581  1.00  0.00     0.202 C 
BRANCH   4   5
ATOM      5  C   UNL A   1      31.367  25.554  23.893  1.00  0.00     0.261 C 
BRANCH   5   6
ATOM      6  O   UNL A   1      32.308  25.232  24.933  1.00  0.00    -0.463 OA
BRANCH   6   7
ATOM      7  C   UNL A   1      31.832  25.186  26.204  1.00  0.00     0.316 C 
ATOM      8  O   UNL A   1      31.094  26.032  26.690  1.00  0.00    -0.251 OA
BRANCH   7   9
ATOM      9  C   UNL A   1      32.158  23.854  26.866  1.00  0.00     0.197 C 
BRANCH   9  10
ATOM     10  S   UNL A   1      32.412  22.491  25.668  1.00  0.00    -0.114 SA
BRANCH  10  11
ATOM     11  C   UNL A   1      34.214  22.220  25.611  1.00  0.00     0.019 A 
ATOM     12  C   UNL A   1      37.526  24.051  25.987  1.00  0.00     0.067 C 
ATOM     13  C   UNL A   1      36.486  22.985  25.827  1.00  0.00     0.039 A 
ATOM     14  C   UNL A   1      35.122  23.257  25.857  1.00  0.00     0.039 A 
ATOM     15  N   UNL A   1      36.970  21.749  25.612  1.00  0.00    -0.253 NA
ATOM     16  C   UNL A   1      36.129  20.762  25.311  1.00  0.00     0.072 A 
ATOM     17  C   UNL A   1      34.726  20.932  25.258  1.00  0.00     0.015 A 
ATOM     18  C   UNL A   1      36.698  19.537  25.001  1.00  0.00     0.030 A 
ATOM     19  C   UNL A   1      33.954  19.819  24.823  1.00  0.00     0.026 A 
ATOM     20  C   UNL A   1      35.932  18.459  24.565  1.00  0.00     0.017 A 
ATOM     21  C   UNL A   1      34.558  18.612  24.460  1.00  0.00     0.014 A 
ATOM     22  I   UNL A   1      33.406  17.053  23.712  1.00  0.00    -0.044 I 
ENDBRANCH  10  11
ENDBRANCH   9  10
ENDBRANCH   7   9
ENDBRANCH   6   7
ENDBRANCH   5   6
ENDBRANCH   4   5
ENDBRANCH   3   4
ENDBRANCH   2   3
ENDBRANCH   1   2
BRANCH   1  23
ATOM     23  O   UNL A   1      32.750  28.981  24.217  1.00  0.00    -0.376 OA
BRANCH  23  24
ATOM     24  C   UNL A   1      33.311  28.852  25.517  1.00  0.00     0.202 C 
BRANCH  24  25
ATOM     25  C   UNL A   1      33.119  30.085  26.398  1.00  0.00     0.261 C 
BRANCH  25  26
ATOM     26  O   UNL A   1      33.601  29.821  27.730  1.00  0.00    -0.460 OA
BRANCH  26  27
ATOM     27  C   UNL A   1      34.527  30.701  28.173  1.00  0.00     0.338 C 
ATOM     28  O   UNL A   1      34.354  31.883  28.409  1.00  0.00    -0.246 OA
BRANCH  27  29
ATOM     29  C   UNL A   1      35.834  30.026  28.328  1.00  0.00     0.060 A 
ATOM     30  C   UNL A   1      36.725  30.056  27.259  1.00  0.00     0.016 A 
ATOM     31  C   UNL A   1      36.244  29.517  29.563  1.00  0.00     0.016 A 
ATOM     32  C   UNL A   1      38.037  29.608  27.439  1.00  0.00     0.010 A 
ATOM     33  C   UNL A   1      37.571  29.116  29.752  1.00  0.00     0.010 A 
ATOM     34  C   UNL A   1      38.492  29.183  28.702  1.00  0.00    -0.014 A 
BRANCH  34  35
ATOM     35  C   UNL A   1      39.945  28.935  28.927  1.00  0.00     0.031 A 
ATOM     36  C   UNL A   1      40.587  27.615  28.600  1.00  0.00     0.074 A 
ATOM     37  C   UNL A   1      40.697  29.913  29.476  1.00  0.00     0.049 A 
ATOM     38  N   UNL A   1      41.859  27.306  28.580  1.00  0.00    -0.248 NA
ATOM     39  C   UNL A   1      39.695  26.486  28.299  1.00  0.00     0.031 C 
ATOM     40  C   UNL A   1      40.185  31.186  29.996  1.00  0.00     0.029 A 
ATOM     41  N   UNL A   1      42.055  30.003  29.669  1.00  0.00    -0.354 N 
ATOM     42  C   UNL A   1      41.920  25.958  28.246  1.00  0.00     0.074 A 
ATOM     43  C   UNL A   1      40.555  25.485  28.172  1.00  0.00     0.031 C 
ATOM     44  C   UNL A   1      41.218  31.954  30.376  1.00  0.00     0.029 A 
ATOM     45  C   UNL A   1      42.464  31.235  30.130  1.00  0.00     0.049 A 
ATOM     46  H   UNL A   1      42.675  29.259  29.495  1.00  0.00     0.167 HD
ATOM     47  C   UNL A   1      43.007  25.199  27.969  1.00  0.00     0.037 A 
ATOM     48  C   UNL A   1      43.700  31.747  30.287  1.00  0.00     0.037 A 
ATOM     49  C   UNL A   1      44.361  25.683  28.010  1.00  0.00     0.049 A 
ATOM     50  C   UNL A   1      44.895  30.921  29.895  1.00  0.00     0.074 A 
ATOM     51  C   UNL A   1      45.524  25.026  27.651  1.00  0.00     0.029 A 
ATOM     52  N   UNL A   1      44.732  26.950  28.435  1.00  0.00    -0.354 N 
ATOM     53  N   UNL A   1      44.931  29.697  29.427  1.00  0.00    -0.248 NA
ATOM     54  C   UNL A   1      46.216  31.554  30.027  1.00  0.00     0.031 C 
ATOM     55  C   UNL A   1      46.603  25.890  27.877  1.00  0.00     0.029 A 
ATOM     56  C   UNL A   1      46.107  27.094  28.351  1.00  0.00     0.049 A 
ATOM     57  H   UNL A   1      44.110  27.646  28.749  1.00  0.00     0.167 HD
ATOM     58  C   UNL A   1      46.273  29.422  29.184  1.00  0.00     0.074 A 
ATOM     59  C   UNL A   1      47.015  30.611  29.548  1.00  0.00     0.031 C 
ATOM     60  C   UNL A   1      46.834  28.287  28.702  1.00  0.00     0.037 A 
BRANCH  47  61
ATOM     61  C   UNL A   1      42.765  23.783  27.523  1.00  0.00     0.058 A 
ATOM     62  C   UNL A   1      42.786  23.446  26.159  1.00  0.00     0.135 A 
ATOM     63  C   UNL A   1      42.541  22.753  28.449  1.00  0.00     0.135 A 
ATOM     64  F   UNL A   1      42.987  24.395  25.231  1.00  0.00    -0.206 F 
ATOM     65  C   UNL A   1      42.549  22.147  25.727  1.00  0.00     0.059 A 
ATOM     66  C   UNL A   1      42.329  21.438  28.039  1.00  0.00     0.059 A 
ATOM     67  F   UNL A   1      42.518  23.018  29.764  1.00  0.00    -0.206 F 
ATOM     68  C   UNL A   1      42.316  21.151  26.674  1.00  0.00     0.060 A 
BRANCH  68  69
ATOM     69  S   UNL A   1      41.996  19.473  26.090  1.00  0.00     0.124 S 
ATOM     70  O   UNL A   1      40.546  19.502  25.914  1.00  0.00    -0.237 OA
ATOM     71  O   UNL A   1      42.780  19.415  24.860  1.00  0.00    -0.237 OA
ATOM     72  O   UNL A   1      42.480  18.635  27.180  1.00  0.00    -0.744 OA
ENDBRANCH  68  69
ENDBRANCH  47  61
BRANCH  48  73
ATOM     73  C   UNL A   1      43.866  33.155  30.735  1.00  0.00     0.058 A 
ATOM     74  C   UNL A   1      43.906  34.199  29.799  1.00  0.00     0.135 A 
ATOM     75  C   UNL A   1      43.969  33.486  32.093  1.00  0.00     0.135 A 
ATOM     76  F   UNL A   1      43.812  33.929  28.488  1.00  0.00    -0.206 F 
ATOM     77  C   UNL A   1      44.061  35.524  30.192  1.00  0.00     0.059 A 
ATOM     78  C   UNL A   1      44.105  34.807  32.513  1.00  0.00     0.059 A 
ATOM     79  F   UNL A   1      43.916  32.523  33.026  1.00  0.00    -0.206 F 
ATOM     80  C   UNL A   1      44.161  35.818  31.553  1.00  0.00     0.060 A 
BRANCH  80  81
ATOM     81  S   UNL A   1      44.325  37.547  32.051  1.00  0.00     0.124 S 
ATOM     82  O   UNL A   1      45.752  37.634  32.343  1.00  0.00    -0.237 OA
ATOM     83  O   UNL A   1      43.875  38.252  30.854  1.00  0.00    -0.237 OA
ATOM     84  O   UNL A   1      43.436  37.651  33.203  1.00  0.00    -0.744 OA
ENDBRANCH  80  81
ENDBRANCH  48  73
BRANCH  60  85
ATOM     85  C   UNL A   1      48.324  28.267  28.520  1.00  0.00     0.058 A 
ATOM     86  C   UNL A   1      49.177  27.794  29.528  1.00  0.00     0.135 A 
ATOM     87  C   UNL A   1      48.897  28.631  27.290  1.00  0.00     0.135 A 
ATOM     88  F   UNL A   1      48.678  27.440  30.724  1.00  0.00    -0.206 F 
ATOM     89  C   UNL A   1      50.548  27.683  29.325  1.00  0.00     0.059 A 
ATOM     90  C   UNL A   1      50.263  28.509  27.058  1.00  0.00     0.059 A 
ATOM     91  F   UNL A   1      48.121  29.083  26.291  1.00  0.00    -0.206 F 
ATOM     92  C   UNL A   1      51.081  28.034  28.083  1.00  0.00     0.060 A 
BRANCH  92  93
ATOM     93  S   UNL A   1      52.852  27.811  27.808  1.00  0.00     0.124 S 
ATOM     94  O   UNL A   1      53.251  29.141  27.362  1.00  0.00    -0.237 OA
ATOM     95  O   UNL A   1      53.324  27.417  29.132  1.00  0.00    -0.237 OA
ATOM     96  O   UNL A   1      52.909  26.763  26.792  1.00  0.00    -0.744 OA
ENDBRANCH  92  93
ENDBRANCH  60  85
ENDBRANCH  34  35
ENDBRANCH  27  29
ENDBRANCH  26  27
ENDBRANCH  25  26
ENDBRANCH  24  25
ENDBRANCH  23  24
ENDBRANCH   1  23
TORSDOF 22
ENDMDL
MODEL 2
REMARK VINA RESULT:     -10.0      1.516      2.603
REMARK SMILES Cc1cc(SCC(=O)OCCOCCOCCOC(=O)c2ccc(-c3c4nc(c(-c5c(F)cc(S(=O)(=O)[O-])cc5F)c5ccc([nH]5)c(-c5c(F)cc(S(=O)(=O)[O-])cc5F)c5nc(c(-c6c(F)cc(S(=O)(=O)[O-])cc6F)c6ccc3[nH]6)C=C5)C=C4)cc2)c2cc(I)ccc2n1
REMARK SMILES IDX 14 1 13 2 12 3 11 4 10 5 9 6 7 7 8 8 6 9 5 10 4 11 1 12 2 13
REMARK SMILES IDX 3 14 94 15 93 16 87 17 92 18 88 19 91 20 89 21 90 22 15 23
REMARK SMILES IDX 16 24 17 25 18 26 19 27 20 28 21 29 22 30 86 31 23 32 85 33
REMARK SMILES IDX 24 34 25 35 26 36 79 37 27 38 84 39 78 40 80 41 28 42 83 43
REMARK SMILES IDX 77 44 76 45 29 47 63 48 42 49 62 50 43 51 46 52 61 53 81 54
REMARK SMILES IDX 44 55 45 56 60 58 82 59 47 60 30 61 31 62 40 63 32 64 33 65
REMARK SMILES IDX 39 66 41 67 34 68 35 69 36 70 37 71 38 72 64 73 65 74 74 75
REMARK SMILES IDX 66 76 67 77 73 78 75 79 68 80 69 81 70 82 71 83 72 84 48 85
REMARK SMILES IDX 49 86 58 87 50 88 51 89 57 90 59 91 52 92 53 93 54 94 55 95
REMARK SMILES IDX 56 96
REMARK H PARENT 80 46 46 57
REMARK Flexibility Score: inf
ROOT
ATOM      1  C   UNL A   1      33.733  28.813  23.175  1.00  0.00     0.188 C 
ENDROOT
BRANCH   1   2
ATOM      2  C   UNL A   1      33.010  27.941  22.127  1.00  0.00     0.188 C 
BRANCH   2   3
ATOM      3  O   UNL A   1      33.712  26.827  21.584  1.00  0.00    -0.376 OA
BRANCH   3   4
ATOM      4  C   UNL A   1      33.287  25.519  21.962  1.00  0.00     0.202 C 
BRANCH   4   5
ATOM      5  C   UNL A   1      34.024  24.924  23.166  1.00  0.00     0.261 C 
BRANCH   5   6
ATOM      6  O   UNL A   1      34.581  23.651  22.788  1.00  0.00    -0.463 OA
BRANCH   6   7
ATOM      7  C   UNL A   1      35.814  23.349  23.269  1.00  0.00     0.316 C 
ATOM      8  O   UNL A   1      36.710  22.859  22.596  1.00  0.00    -0.251 OA
BRANCH   7   9
ATOM      9  C   UNL A   1      36.003  23.891  24.680  1.00  0.00     0.197 C 
BRANCH   9  10
ATOM     10  S   UNL A   1      35.875  22.602  25.976  1.00  0.00    -0.114 SA
BRANCH  10  11
ATOM     11  C   UNL A   1      34.307  21.733  25.646  1.00  0.00     0.019 A 
ATOM     12  C   UNL A   1      32.935  18.411  24.401  1.00  0.00     0.067 C 
ATOM     13  C   UNL A   1      33.054  19.789  24.978  1.00  0.00     0.039 A 
ATOM     14  C   UNL A   1      34.282  20.410  25.185  1.00  0.00     0.039 A 
ATOM     15  N   UNL A   1      31.884  20.396  25.245  1.00  0.00    -0.253 NA
ATOM     16  C   UNL A   1      31.883  21.673  25.620  1.00  0.00     0.072 A 
ATOM     17  C   UNL A   1      33.065  22.423  25.811  1.00  0.00     0.015 A 
ATOM     18  C   UNL A   1      30.641  22.268  25.780  1.00  0.00     0.030 A 
ATOM     19  C   UNL A   1      32.915  23.805  26.113  1.00  0.00     0.026 A 
ATOM     20  C   UNL A   1      30.508  23.626  26.063  1.00  0.00     0.017 A 
ATOM     21  C   UNL A   1      31.652  24.396  26.211  1.00  0.00     0.014 A 
ATOM     22  I   UNL A   1      31.477  26.441  26.529  1.00  0.00    -0.044 I 
ENDBRANCH  10  11
ENDBRANCH   9  10
ENDBRANCH   7   9
ENDBRANCH   6   7
ENDBRANCH   5   6
ENDBRANCH   4   5
ENDBRANCH   3   4
ENDBRANCH   2   3
ENDBRANCH   1   2
BRANCH   1  23
ATOM     23  O   UNL A   1      32.979  29.285  24.281  1.00  0.00    -0.376 OA
BRANCH  23  24
ATOM     24  C   UNL A   1      33.623  29.218  25.548  1.00  0.00     0.202 C 
BRANCH  24  25
ATOM     25  C   UNL A   1      33.117  30.251  26.553  1.00  0.00     0.261 C 
BRANCH  25  26
ATOM     26  O   UNL A   1      33.587  29.924  27.875  1.00  0.00    -0.460 OA
BRANCH  26  27
ATOM     27  C   UNL A   1      34.514  30.780  28.364  1.00  0.00     0.338 C 
ATOM     28  O   UNL A   1      34.343  31.949  28.657  1.00  0.00    -0.246 OA
BRANCH  27  29
ATOM     29  C   UNL A   1      35.818  30.095  28.490  1.00  0.00     0.060 A 
ATOM     30  C   UNL A   1      36.685  30.115  27.401  1.00  0.00     0.016 A 
ATOM     31  C   UNL A   1      36.253  29.585  29.716  1.00  0.00     0.016 A 
ATOM     32  C   UNL A   1      37.997  29.657  27.551  1.00  0.00     0.010 A 
ATOM     33  C   UNL A   1      37.581  29.174  29.876  1.00  0.00     0.010 A 
ATOM     34  C   UNL A   1      38.478  29.232  28.805  1.00  0.00    -0.014 A 
BRANCH  34  35
ATOM     35  C   UNL A   1      39.933  28.972  28.997  1.00  0.00     0.031 A 
ATOM     36  C   UNL A   1      40.561  27.652  28.642  1.00  0.00     0.074 A 
ATOM     37  C   UNL A   1      40.703  29.940  29.540  1.00  0.00     0.049 A 
ATOM     38  N   UNL A   1      41.830  27.336  28.592  1.00  0.00    -0.248 NA
ATOM     39  C   UNL A   1      39.656  26.532  28.348  1.00  0.00     0.031 C 
ATOM     40  C   UNL A   1      40.211  31.210  30.083  1.00  0.00     0.029 A 
ATOM     41  N   UNL A   1      42.065  30.020  29.705  1.00  0.00    -0.354 N 
ATOM     42  C   UNL A   1      41.875  25.991  28.243  1.00  0.00     0.074 A 
ATOM     43  C   UNL A   1      40.506  25.527  28.193  1.00  0.00     0.031 C 
ATOM     44  C   UNL A   1      41.256  31.968  30.450  1.00  0.00     0.029 A 
ATOM     45  C   UNL A   1      42.492  31.244  30.170  1.00  0.00     0.049 A 
ATOM     46  H   UNL A   1      42.677  29.274  29.510  1.00  0.00     0.167 HD
ATOM     47  C   UNL A   1      42.952  25.228  27.935  1.00  0.00     0.037 A 
ATOM     48  C   UNL A   1      43.734  31.748  30.306  1.00  0.00     0.037 A 
ATOM     49  C   UNL A   1      44.309  25.704  27.953  1.00  0.00     0.049 A 
ATOM     50  C   UNL A   1      44.915  30.919  29.881  1.00  0.00     0.074 A 
ATOM     51  C   UNL A   1      45.461  25.043  27.562  1.00  0.00     0.029 A 
ATOM     52  N   UNL A   1      44.698  26.964  28.383  1.00  0.00    -0.354 N 
ATOM     53  N   UNL A   1      44.934  29.699  29.399  1.00  0.00    -0.248 NA
ATOM     54  C   UNL A   1      46.243  31.542  29.992  1.00  0.00     0.031 C 
ATOM     55  C   UNL A   1      46.549  25.899  27.775  1.00  0.00     0.029 A 
ATOM     56  C   UNL A   1      46.071  27.101  28.272  1.00  0.00     0.049 A 
ATOM     57  H   UNL A   1      44.087  27.660  28.717  1.00  0.00     0.167 HD
ATOM     58  C   UNL A   1      46.268  29.419  29.125  1.00  0.00     0.074 A 
ATOM     59  C   UNL A   1      47.026  30.599  29.486  1.00  0.00     0.031 C 
ATOM     60  C   UNL A   1      46.812  28.286  28.620  1.00  0.00     0.037 A 
BRANCH  47  61
ATOM     61  C   UNL A   1      42.692  23.819  27.479  1.00  0.00     0.058 A 
ATOM     62  C   UNL A   1      42.567  22.774  28.410  1.00  0.00     0.135 A 
ATOM     63  C   UNL A   1      42.538  23.506  26.120  1.00  0.00     0.135 A 
ATOM     64  F   UNL A   1      42.714  23.017  29.723  1.00  0.00    -0.206 F 
ATOM     65  C   UNL A   1      42.343  21.464  28.009  1.00  0.00     0.059 A 
ATOM     66  C   UNL A   1      42.285  22.203  25.696  1.00  0.00     0.059 A 
ATOM     67  F   UNL A   1      42.641  24.467  25.189  1.00  0.00    -0.206 F 
ATOM     68  C   UNL A   1      42.208  21.187  26.649  1.00  0.00     0.060 A 
BRANCH  68  69
ATOM     69  S   UNL A   1      41.933  19.474  26.148  1.00  0.00     0.124 S 
ATOM     70  O   UNL A   1      40.493  19.475  25.904  1.00  0.00    -0.237 OA
ATOM     71  O   UNL A   1      42.775  19.355  24.962  1.00  0.00    -0.237 OA
ATOM     72  O   UNL A   1      42.373  18.706  27.307  1.00  0.00    -0.744 OA
ENDBRANCH  68  69
ENDBRANCH  47  61
BRANCH  48  73
ATOM     73  C   UNL A   1      43.918  33.149  30.765  1.00  0.00     0.058 A 
ATOM     74  C   UNL A   1      43.870  34.210  29.849  1.00  0.00     0.135 A 
ATOM     75  C   UNL A   1      44.125  33.458  32.117  1.00  0.00     0.135 A 
ATOM     76  F   UNL A   1      43.674  33.962  28.545  1.00  0.00    -0.206 F 
ATOM     77  C   UNL A   1      44.039  35.530  30.253  1.00  0.00     0.059 A 
ATOM     78  C   UNL A   1      44.279  34.773  32.549  1.00  0.00     0.059 A 
ATOM     79  F   UNL A   1      44.160  32.478  33.033  1.00  0.00    -0.206 F 
ATOM     80  C   UNL A   1      44.245  35.802  31.606  1.00  0.00     0.060 A 
BRANCH  80  81
ATOM     81  S   UNL A   1      44.427  37.524  32.121  1.00  0.00     0.124 S 
ATOM     82  O   UNL A   1      43.485  37.600  33.231  1.00  0.00    -0.237 OA
ATOM     83  O   UNL A   1      45.842  37.586  32.479  1.00  0.00    -0.237 OA
ATOM     84  O   UNL A   1      44.057  38.273  30.925  1.00  0.00    -0.744 OA
ENDBRANCH  80  81
ENDBRANCH  48  73
BRANCH  60  85
ATOM     85  C   UNL A   1      48.298  28.258  28.406  1.00  0.00     0.058 A 
ATOM     86  C   UNL A   1      49.173  27.819  29.411  1.00  0.00     0.135 A 
ATOM     87  C   UNL A   1      48.844  28.581  27.153  1.00  0.00     0.135 A 
ATOM     88  F   UNL A   1      48.700  27.505  30.628  1.00  0.00    -0.206 F 
ATOM     89  C   UNL A   1      50.540  27.700  29.182  1.00  0.00     0.059 A 
ATOM     90  C   UNL A   1      50.205  28.451  26.895  1.00  0.00     0.059 A 
ATOM     91  F   UNL A   1      48.047  29.000  26.156  1.00  0.00    -0.206 F 
ATOM     92  C   UNL A   1      51.045  28.009  27.917  1.00  0.00     0.060 A 
BRANCH  92  93
ATOM     93  S   UNL A   1      52.809  27.776  27.612  1.00  0.00     0.124 S 
ATOM     94  O   UNL A   1      53.256  29.149  27.405  1.00  0.00    -0.237 OA
ATOM     95  O   UNL A   1      53.258  27.143  28.848  1.00  0.00    -0.237 OA
ATOM     96  O   UNL A   1      52.840  26.920  26.430  1.00  0.00    -0.744 OA
ENDBRANCH  92  93
ENDBRANCH  60  85
ENDBRANCH  34  35
ENDBRANCH  27  29
ENDBRANCH  26  27
ENDBRANCH  25  26
ENDBRANCH  24  25
ENDBRANCH  23  24
ENDBRANCH   1  23
TORSDOF 22
ENDMDL
MODEL 3
REMARK VINA RESULT:      -9.9      5.332     10.370
REMARK SMILES Cc1cc(SCC(=O)OCCOCCOCCOC(=O)c2ccc(-c3c4nc(c(-c5c(F)cc(S(=O)(=O)[O-])cc5F)c5ccc([nH]5)c(-c5c(F)cc(S(=O)(=O)[O-])cc5F)c5nc(c(-c6c(F)cc(S(=O)(=O)[O-])cc6F)c6ccc3[nH]6)C=C5)C=C4)cc2)c2cc(I)ccc2n1
REMARK SMILES IDX 14 1 13 2 12 3 11 4 10 5 9 6 7 7 8 8 6 9 5 10 4 11 1 12 2 13
REMARK SMILES IDX 3 14 94 15 93 16 87 17 92 18 88 19 91 20 89 21 90 22 15 23
REMARK SMILES IDX 16 24 17 25 18 26 19 27 20 28 21 29 22 30 86 31 23 32 85 33
REMARK SMILES IDX 24 34 25 35 26 36 79 37 27 38 84 39 78 40 80 41 28 42 83 43
REMARK SMILES IDX 77 44 76 45 29 47 63 48 42 49 62 50 43 51 46 52 61 53 81 54
REMARK SMILES IDX 44 55 45 56 60 58 82 59 47 60 30 61 31 62 40 63 32 64 33 65
REMARK SMILES IDX 39 66 41 67 34 68 35 69 36 70 37 71 38 72 64 73 65 74 74 75
REMARK SMILES IDX 66 76 67 77 73 78 75 79 68 80 69 81 70 82 71 83 72 84 48 85
REMARK SMILES IDX 49 86 58 87 50 88 51 89 57 90 59 91 52 92 53 93 54 94 55 95
REMARK SMILES IDX 56 96
REMARK H PARENT 80 46 46 57
REMARK Flexibility Score: inf
ROOT
ATOM      1  C   UNL A   1      44.530  21.866  25.479  1.00  0.00     0.188 C 
ENDROOT
BRANCH   1   2
ATOM      2  C   UNL A   1      43.090  21.376  25.736  1.00  0.00     0.188 C 
BRANCH   2   3
ATOM      3  O   UNL A   1      42.033  22.327  25.649  1.00  0.00    -0.376 OA
BRANCH   3   4
ATOM      4  C   UNL A   1      41.177  22.484  26.779  1.00  0.00     0.202 C 
BRANCH   4   5
ATOM      5  C   UNL A   1      39.702  22.721  26.444  1.00  0.00     0.261 C 
BRANCH   5   6
ATOM      6  O   UNL A   1      39.139  21.499  25.932  1.00  0.00    -0.463 OA
BRANCH   6   7
ATOM      7  C   UNL A   1      37.953  21.592  25.277  1.00  0.00     0.316 C 
ATOM      8  O   UNL A   1      37.365  20.637  24.788  1.00  0.00    -0.251 OA
BRANCH   7   9
ATOM      9  C   UNL A   1      37.355  22.985  25.416  1.00  0.00     0.197 C 
BRANCH   9  10
ATOM     10  S   UNL A   1      35.659  22.982  26.108  1.00  0.00    -0.114 SA
BRANCH  10  11
ATOM     11  C   UNL A   1      34.552  23.278  24.689  1.00  0.00     0.019 A 
ATOM     12  C   UNL A   1      33.259  26.057  22.437  1.00  0.00     0.067 C 
ATOM     13  C   UNL A   1      33.557  24.716  23.034  1.00  0.00     0.039 A 
ATOM     14  C   UNL A   1      34.393  24.555  24.134  1.00  0.00     0.039 A 
ATOM     15  N   UNL A   1      32.924  23.682  22.452  1.00  0.00    -0.253 NA
ATOM     16  C   UNL A   1      33.008  22.473  23.002  1.00  0.00     0.072 A 
ATOM     17  C   UNL A   1      33.783  22.198  24.152  1.00  0.00     0.015 A 
ATOM     18  C   UNL A   1      32.250  21.472  22.413  1.00  0.00     0.030 A 
ATOM     19  C   UNL A   1      33.701  20.886  24.692  1.00  0.00     0.026 A 
ATOM     20  C   UNL A   1      32.168  20.193  22.960  1.00  0.00     0.017 A 
ATOM     21  C   UNL A   1      32.884  19.910  24.113  1.00  0.00     0.014 A 
ATOM     22  I   UNL A   1      32.694  18.043  25.005  1.00  0.00    -0.044 I 
ENDBRANCH  10  11
ENDBRANCH   9  10
ENDBRANCH   7   9
ENDBRANCH   6   7
ENDBRANCH   5   6
ENDBRANCH   4   5
ENDBRANCH   3   4
ENDBRANCH   2   3
ENDBRANCH   1   2
BRANCH   1  23
ATOM     23  O   UNL A   1      44.702  23.054  24.721  1.00  0.00    -0.376 OA
BRANCH  23  24
ATOM     24  C   UNL A   1      45.359  24.127  25.384  1.00  0.00     0.202 C 
BRANCH  24  25
ATOM     25  C   UNL A   1      44.662  25.476  25.217  1.00  0.00     0.261 C 
BRANCH  25  26
ATOM     26  O   UNL A   1      43.789  25.722  26.336  1.00  0.00    -0.460 OA
BRANCH  26  27
ATOM     27  C   UNL A   1      42.506  25.986  25.994  1.00  0.00     0.338 C 
ATOM     28  O   UNL A   1      41.917  25.579  25.009  1.00  0.00    -0.246 OA
BRANCH  27  29
ATOM     29  C   UNL A   1      41.888  26.876  26.999  1.00  0.00     0.060 A 
ATOM     30  C   UNL A   1      40.946  26.336  27.871  1.00  0.00     0.016 A 
ATOM     31  C   UNL A   1      42.349  28.181  27.193  1.00  0.00     0.016 A 
ATOM     32  C   UNL A   1      40.494  27.093  28.957  1.00  0.00     0.010 A 
ATOM     33  C   UNL A   1      41.932  28.916  28.308  1.00  0.00     0.010 A 
ATOM     34  C   UNL A   1      41.023  28.371  29.221  1.00  0.00    -0.014 A 
BRANCH  34  35
ATOM     35  C   UNL A   1      40.705  29.060  30.504  1.00  0.00     0.031 A 
ATOM     36  C   UNL A   1      41.518  28.837  31.750  1.00  0.00     0.074 A 
ATOM     37  C   UNL A   1      39.633  29.880  30.558  1.00  0.00     0.049 A 
ATOM     38  N   UNL A   1      41.470  29.486  32.886  1.00  0.00    -0.248 NA
ATOM     39  C   UNL A   1      42.473  27.720  31.742  1.00  0.00     0.031 C 
ATOM     40  C   UNL A   1      38.657  30.070  29.480  1.00  0.00     0.029 A 
ATOM     41  N   UNL A   1      39.195  30.725  31.548  1.00  0.00    -0.354 N 
ATOM     42  C   UNL A   1      42.399  28.872  33.716  1.00  0.00     0.074 A 
ATOM     43  C   UNL A   1      42.922  27.736  32.989  1.00  0.00     0.031 C 
ATOM     44  C   UNL A   1      37.783  31.024  29.838  1.00  0.00     0.029 A 
ATOM     45  C   UNL A   1      38.133  31.515  31.167  1.00  0.00     0.049 A 
ATOM     46  H   UNL A   1      39.600  30.762  32.444  1.00  0.00     0.167 HD
ATOM     47  C   UNL A   1      42.822  29.251  34.947  1.00  0.00     0.037 A 
ATOM     48  C   UNL A   1      37.543  32.553  31.791  1.00  0.00     0.037 A 
ATOM     49  C   UNL A   1      42.324  30.401  35.652  1.00  0.00     0.049 A 
ATOM     50  C   UNL A   1      38.077  33.015  33.120  1.00  0.00     0.074 A 
ATOM     51  C   UNL A   1      42.755  30.929  36.856  1.00  0.00     0.029 A 
ATOM     52  N   UNL A   1      41.283  31.205  35.212  1.00  0.00    -0.354 N 
ATOM     53  N   UNL A   1      39.067  32.521  33.825  1.00  0.00    -0.248 NA
ATOM     54  C   UNL A   1      37.435  34.191  33.725  1.00  0.00     0.031 C 
ATOM     55  C   UNL A   1      41.960  32.043  37.155  1.00  0.00     0.029 A 
ATOM     56  C   UNL A   1      41.053  32.223  36.123  1.00  0.00     0.049 A 
ATOM     57  H   UNL A   1      40.781  31.073  34.376  1.00  0.00     0.167 HD
ATOM     58  C   UNL A   1      39.182  33.341  34.943  1.00  0.00     0.074 A 
ATOM     59  C   UNL A   1      38.168  34.367  34.816  1.00  0.00     0.031 C 
ATOM     60  C   UNL A   1      40.051  33.248  35.978  1.00  0.00     0.037 A 
BRANCH  47  61
ATOM     61  C   UNL A   1      43.932  28.451  35.572  1.00  0.00     0.058 A 
ATOM     62  C   UNL A   1      43.647  27.390  36.448  1.00  0.00     0.135 A 
ATOM     63  C   UNL A   1      45.278  28.718  35.283  1.00  0.00     0.135 A 
ATOM     64  F   UNL A   1      42.376  27.098  36.765  1.00  0.00    -0.206 F 
ATOM     65  C   UNL A   1      44.658  26.650  37.048  1.00  0.00     0.059 A 
ATOM     66  C   UNL A   1      46.308  27.971  35.852  1.00  0.00     0.059 A 
ATOM     67  F   UNL A   1      45.606  29.716  34.448  1.00  0.00    -0.206 F 
ATOM     68  C   UNL A   1      45.986  26.951  36.748  1.00  0.00     0.060 A 
BRANCH  68  69
ATOM     69  S   UNL A   1      47.284  25.987  37.550  1.00  0.00     0.124 S 
ATOM     70  O   UNL A   1      47.889  26.990  38.423  1.00  0.00    -0.237 OA
ATOM     71  O   UNL A   1      46.525  24.939  38.224  1.00  0.00    -0.237 OA
ATOM     72  O   UNL A   1      48.114  25.541  36.437  1.00  0.00    -0.744 OA
ENDBRANCH  68  69
ENDBRANCH  47  61
BRANCH  48  73
ATOM     73  C   UNL A   1      36.448  33.297  31.116  1.00  0.00     0.058 A 
ATOM     74  C   UNL A   1      35.146  33.277  31.638  1.00  0.00     0.135 A 
ATOM     75  C   UNL A   1      36.678  34.053  29.958  1.00  0.00     0.135 A 
ATOM     76  F   UNL A   1      34.878  32.567  32.745  1.00  0.00    -0.206 F 
ATOM     77  C   UNL A   1      34.104  33.965  31.026  1.00  0.00     0.059 A 
ATOM     78  C   UNL A   1      35.656  34.765  29.336  1.00  0.00     0.059 A 
ATOM     79  F   UNL A   1      37.911  34.118  29.432  1.00  0.00    -0.206 F 
ATOM     80  C   UNL A   1      34.369  34.706  29.873  1.00  0.00     0.060 A 
BRANCH  80  81
ATOM     81  S   UNL A   1      33.013  35.624  29.109  1.00  0.00     0.124 S 
ATOM     82  O   UNL A   1      33.722  36.749  28.510  1.00  0.00    -0.237 OA
ATOM     83  O   UNL A   1      32.469  34.642  28.176  1.00  0.00    -0.237 OA
ATOM     84  O   UNL A   1      32.149  35.950  30.239  1.00  0.00    -0.744 OA
ENDBRANCH  80  81
ENDBRANCH  48  73
BRANCH  60  85
ATOM     85  C   UNL A   1      39.966  34.288  37.058  1.00  0.00     0.058 A 
ATOM     86  C   UNL A   1      40.625  35.520  36.939  1.00  0.00     0.135 A 
ATOM     87  C   UNL A   1      39.140  34.088  38.177  1.00  0.00     0.135 A 
ATOM     88  F   UNL A   1      41.431  35.756  35.891  1.00  0.00    -0.206 F 
ATOM     89  C   UNL A   1      40.469  36.521  37.892  1.00  0.00     0.059 A 
ATOM     90  C   UNL A   1      38.953  35.082  39.132  1.00  0.00     0.059 A 
ATOM     91  F   UNL A   1      38.483  32.927  38.332  1.00  0.00    -0.206 F 
ATOM     92  C   UNL A   1      39.623  36.296  38.980  1.00  0.00     0.060 A 
BRANCH  92  93
ATOM     93  S   UNL A   1      39.370  37.633  40.167  1.00  0.00     0.124 S 
ATOM     94  O   UNL A   1      38.360  38.440  39.492  1.00  0.00    -0.237 OA
ATOM     95  O   UNL A   1      38.918  36.912  41.354  1.00  0.00    -0.237 OA
ATOM     96  O   UNL A   1      40.692  38.243  40.279  1.00  0.00    -0.744 OA
ENDBRANCH  92  93
ENDBRANCH  60  85
ENDBRANCH  34  35
ENDBRANCH  27  29
ENDBRANCH  26  27
ENDBRANCH  25  26
ENDBRANCH  24  25
ENDBRANCH  23  24
ENDBRANCH   1  23
TORSDOF 22
ENDMDL
