MODEL 1
REMARK VINA RESULT:      -9.2      0.000      0.000
REMARK SMILES O=CN[C@@H](CCS[C@@H]1CCO[C@]2(CCOC2)C1)C(=O)OCCOCCOCCOC(=O)c1ccc(-c2c3nc(c(-c4c(F)cc(S(=O)(=O)[O-])cc4F)c4ccc([nH]4)c(-c4c(F)cc(S(=O)(=O)[O-])cc4F)c4nc(c(-c5c(F)cc(S(=O)(=O)[O-])cc5F)c5ccc2[nH]5)C=C4)C=C3)cc1
REMARK SMILES IDX 24 1 23 2 22 3 21 4 20 5 18 6 19 7 4 8 3 9 1 10 2 11 5 13
REMARK SMILES IDX 6 14 7 15 8 16 9 17 17 18 10 19 12 20 11 21 13 22 16 23
REMARK SMILES IDX 14 24 15 25 25 26 26 27 27 28 28 29 29 30 30 31 31 32 32 33
REMARK SMILES IDX 33 34 97 35 34 36 96 37 35 38 36 39 37 40 90 41 38 42 95 43
REMARK SMILES IDX 89 44 91 45 39 46 94 47 88 48 87 49 40 51 74 52 53 53 73 54
REMARK SMILES IDX 54 55 57 56 72 57 92 58 55 59 56 60 71 62 93 63 58 64 41 65
REMARK SMILES IDX 42 66 51 67 43 68 44 69 50 70 52 71 45 72 46 73 47 74 48 75
REMARK SMILES IDX 49 76 75 77 76 78 85 79 77 80 78 81 84 82 86 83 79 84 80 85
REMARK SMILES IDX 81 86 82 87 83 88 59 89 60 90 69 91 61 92 62 93 68 94 70 95
REMARK SMILES IDX 63 96 64 97 65 98 66 99 67 100
REMARK H PARENT 3 12 91 50 57 61
REMARK Flexibility Score: inf
ROOT
ATOM      1  C   UNL A   1      43.630  18.652  26.046  1.00  0.00     0.188 C 
ENDROOT
BRANCH   1   2
ATOM      2  O   UNL A   1      44.454  18.954  24.894  1.00  0.00    -0.376 OA
BRANCH   2   3
ATOM      3  C   UNL A   1      45.440  20.075  24.690  1.00  0.00     0.202 C 
BRANCH   3   4
ATOM      4  C   UNL A   1      45.030  22.131  24.305  1.00  0.00     0.261 C 
BRANCH   4   5
ATOM      5  O   UNL A   1      45.978  23.506  24.717  1.00  0.00    -0.462 OA
BRANCH   5   6
ATOM      6  C   UNL A   1      46.168  24.510  25.648  1.00  0.00     0.328 C 
ATOM      7  O   UNL A   1      46.553  24.227  26.783  1.00  0.00    -0.250 OA
BRANCH   6   8
ATOM      8  C   UNL A   1      45.700  25.990  25.324  1.00  0.00     0.192 C 
BRANCH   8   9
ATOM      9  N   UNL A   1      44.377  26.596  25.611  1.00  0.00    -0.345 N 
ATOM     10  O   UNL A   1      42.365  27.437  25.006  1.00  0.00    -0.279 OA
ATOM     11  C   UNL A   1      43.266  26.628  24.821  1.00  0.00     0.337 C 
ATOM     12  H   UNL A   1      44.289  27.033  26.490  1.00  0.00     0.164 HD
ENDBRANCH   8   9
BRANCH   8  13
ATOM     13  C   UNL A   1      46.771  26.853  25.978  1.00  0.00     0.048 C 
BRANCH  13  14
ATOM     14  C   UNL A   1      46.191  27.870  26.961  1.00  0.00     0.072 C 
BRANCH  14  15
ATOM     15  S   UNL A   1      46.135  29.597  26.378  1.00  0.00    -0.158 SA
BRANCH  15  16
ATOM     16  C   UNL A   1      44.534  30.554  27.091  1.00  0.00     0.052 C 
ATOM     17  C   UNL A   1      45.043  32.227  26.235  1.00  0.00     0.043 C 
ATOM     18  C   UNL A   1      43.375  30.752  28.751  1.00  0.00     0.052 C 
ATOM     19  C   UNL A   1      44.973  33.801  27.289  1.00  0.00     0.162 C 
ATOM     20  C   UNL A   1      43.399  32.482  29.674  1.00  0.00     0.095 C 
ATOM     21  O   UNL A   1      43.955  33.863  28.714  1.00  0.00    -0.372 OA
ATOM     22  C   UNL A   1      44.173  32.584  31.012  1.00  0.00     0.066 C 
ATOM     23  C   UNL A   1      42.011  32.922  30.235  1.00  0.00     0.195 C 
ATOM     24  C   UNL A   1      43.200  32.086  32.043  1.00  0.00     0.163 C 
ATOM     25  O   UNL A   1      41.900  32.449  31.582  1.00  0.00    -0.378 OA
ENDBRANCH  15  16
ENDBRANCH  14  15
ENDBRANCH  13  14
ENDBRANCH   8  13
ENDBRANCH   6   8
ENDBRANCH   5   6
ENDBRANCH   4   5
ENDBRANCH   3   4
ENDBRANCH   2   3
ENDBRANCH   1   2
BRANCH   1  26
ATOM     26  C   UNL A   1      42.202  19.232  25.802  1.00  0.00     0.188 C 
BRANCH  26  27
ATOM     27  O   UNL A   1      41.999  20.607  26.092  1.00  0.00    -0.376 OA
BRANCH  27  28
ATOM     28  C   UNL A   1      40.754  20.944  26.676  1.00  0.00     0.202 C 
BRANCH  28  29
ATOM     29  C   UNL A   1      40.761  22.074  27.715  1.00  0.00     0.261 C 
BRANCH  29  30
ATOM     30  O   UNL A   1      40.769  23.411  27.167  1.00  0.00    -0.460 OA
BRANCH  30  31
ATOM     31  C   UNL A   1      41.896  24.133  27.414  1.00  0.00     0.338 C 
ATOM     32  O   UNL A   1      43.025  23.873  27.036  1.00  0.00    -0.246 OA
BRANCH  31  33
ATOM     33  C   UNL A   1      41.556  25.420  28.067  1.00  0.00     0.060 A 
ATOM     34  C   UNL A   1      42.588  26.326  28.370  1.00  0.00     0.016 A 
ATOM     35  C   UNL A   1      40.255  25.667  28.505  1.00  0.00     0.016 A 
ATOM     36  C   UNL A   1      42.335  27.448  29.155  1.00  0.00     0.010 A 
ATOM     37  C   UNL A   1      40.010  26.773  29.327  1.00  0.00     0.010 A 
ATOM     38  C   UNL A   1      41.061  27.634  29.698  1.00  0.00    -0.014 A 
BRANCH  38  39
ATOM     39  C   UNL A   1      40.915  28.553  30.852  1.00  0.00     0.031 A 
ATOM     40  C   UNL A   1      39.844  29.613  30.782  1.00  0.00     0.074 A 
ATOM     41  C   UNL A   1      41.658  28.405  31.962  1.00  0.00     0.049 A 
ATOM     42  N   UNL A   1      39.527  30.535  31.651  1.00  0.00    -0.248 NA
ATOM     43  C   UNL A   1      39.020  29.632  29.560  1.00  0.00     0.031 C 
ATOM     44  C   UNL A   1      42.676  27.377  32.165  1.00  0.00     0.029 A 
ATOM     45  N   UNL A   1      41.666  29.124  33.129  1.00  0.00    -0.354 N 
ATOM     46  C   UNL A   1      38.477  31.247  31.081  1.00  0.00     0.074 A 
ATOM     47  C   UNL A   1      38.233  30.673  29.777  1.00  0.00     0.031 C 
ATOM     48  C   UNL A   1      43.219  27.537  33.384  1.00  0.00     0.029 A 
ATOM     49  C   UNL A   1      42.610  28.698  34.032  1.00  0.00     0.049 A 
ATOM     50  H   UNL A   1      41.055  29.876  33.304  1.00  0.00     0.167 HD
ATOM     51  C   UNL A   1      37.774  32.282  31.601  1.00  0.00     0.037 A 
ATOM     52  C   UNL A   1      42.950  29.201  35.235  1.00  0.00     0.037 A 
ATOM     53  C   UNL A   1      38.027  32.845  32.902  1.00  0.00     0.049 A 
ATOM     54  C   UNL A   1      42.198  30.393  35.769  1.00  0.00     0.074 A 
ATOM     55  C   UNL A   1      37.378  33.893  33.529  1.00  0.00     0.029 A 
ATOM     56  N   UNL A   1      39.015  32.407  33.775  1.00  0.00    -0.354 N 
ATOM     57  N   UNL A   1      41.208  31.061  35.220  1.00  0.00    -0.248 NA
ATOM     58  C   UNL A   1      42.598  30.894  37.090  1.00  0.00     0.031 C 
ATOM     59  C   UNL A   1      38.010  34.127  34.756  1.00  0.00     0.029 A 
ATOM     60  C   UNL A   1      39.007  33.178  34.925  1.00  0.00     0.049 A 
ATOM     61  H   UNL A   1      39.630  31.658  33.602  1.00  0.00     0.167 HD
ATOM     62  C   UNL A   1      40.845  32.035  36.144  1.00  0.00     0.074 A 
ATOM     63  C   UNL A   1      41.713  31.859  37.291  1.00  0.00     0.031 C 
ATOM     64  C   UNL A   1      39.879  32.986  36.059  1.00  0.00     0.037 A 
BRANCH  51  65
ATOM     65  C   UNL A   1      36.694  32.894  30.747  1.00  0.00     0.058 A 
ATOM     66  C   UNL A   1      36.976  33.851  29.758  1.00  0.00     0.135 A 
ATOM     67  C   UNL A   1      35.356  32.500  30.908  1.00  0.00     0.135 A 
ATOM     68  F   UNL A   1      38.234  34.283  29.573  1.00  0.00    -0.206 F 
ATOM     69  C   UNL A   1      35.969  34.413  28.979  1.00  0.00     0.059 A 
ATOM     70  C   UNL A   1      34.336  33.025  30.119  1.00  0.00     0.059 A 
ATOM     71  F   UNL A   1      35.026  31.594  31.842  1.00  0.00    -0.206 F 
ATOM     72  C   UNL A   1      34.651  33.991  29.166  1.00  0.00     0.060 A 
BRANCH  72  73
ATOM     73  S   UNL A   1      33.356  34.721  28.141  1.00  0.00     0.124 S 
ATOM     74  O   UNL A   1      34.119  35.165  26.978  1.00  0.00    -0.237 OA
ATOM     75  O   UNL A   1      32.462  33.590  27.919  1.00  0.00    -0.237 OA
ATOM     76  O   UNL A   1      32.817  35.787  28.979  1.00  0.00    -0.744 OA
ENDBRANCH  72  73
ENDBRANCH  51  65
BRANCH  52  77
ATOM     77  C   UNL A   1      44.057  28.581  36.016  1.00  0.00     0.058 A 
ATOM     78  C   UNL A   1      43.813  27.550  36.935  1.00  0.00     0.135 A 
ATOM     79  C   UNL A   1      45.385  29.010  35.857  1.00  0.00     0.135 A 
ATOM     80  F   UNL A   1      42.561  27.110  37.133  1.00  0.00    -0.206 F 
ATOM     81  C   UNL A   1      44.841  26.977  37.680  1.00  0.00     0.059 A 
ATOM     82  C   UNL A   1      46.432  28.433  36.567  1.00  0.00     0.059 A 
ATOM     83  F   UNL A   1      45.675  29.988  34.984  1.00  0.00    -0.206 F 
ATOM     84  C   UNL A   1      46.148  27.423  37.484  1.00  0.00     0.060 A 
BRANCH  84  85
ATOM     85  S   UNL A   1      47.478  26.638  38.420  1.00  0.00     0.124 S 
ATOM     86  O   UNL A   1      48.025  25.713  37.435  1.00  0.00    -0.237 OA
ATOM     87  O   UNL A   1      48.322  27.778  38.763  1.00  0.00    -0.237 OA
ATOM     88  O   UNL A   1      46.781  26.022  39.545  1.00  0.00    -0.744 OA
ENDBRANCH  84  85
ENDBRANCH  52  77
BRANCH  64  89
ATOM     89  C   UNL A   1      39.673  33.871  37.260  1.00  0.00     0.058 A 
ATOM     90  C   UNL A   1      38.862  33.489  38.341  1.00  0.00     0.135 A 
ATOM     91  C   UNL A   1      40.314  35.120  37.335  1.00  0.00     0.135 A 
ATOM     92  F   UNL A   1      38.226  32.307  38.324  1.00  0.00    -0.206 F 
ATOM     93  C   UNL A   1      38.651  34.334  39.427  1.00  0.00     0.059 A 
ATOM     94  C   UNL A   1      40.147  35.965  38.427  1.00  0.00     0.059 A 
ATOM     95  F   UNL A   1      41.115  35.531  36.339  1.00  0.00    -0.206 F 
ATOM     96  C   UNL A   1      39.294  35.572  39.457  1.00  0.00     0.060 A 
BRANCH  96  97
ATOM     97  S   UNL A   1      39.002  36.666  40.864  1.00  0.00     0.124 S 
ATOM     98  O   UNL A   1      38.449  37.846  40.207  1.00  0.00    -0.237 OA
ATOM     99  O   UNL A   1      38.064  35.893  41.672  1.00  0.00    -0.237 OA
ATOM    100  O   UNL A   1      40.330  36.835  41.445  1.00  0.00    -0.744 OA
ENDBRANCH  96  97
ENDBRANCH  64  89
ENDBRANCH  38  39
ENDBRANCH  31  33
ENDBRANCH  30  31
ENDBRANCH  29  30
ENDBRANCH  28  29
ENDBRANCH  27  28
ENDBRANCH  26  27
ENDBRANCH   1  26
TORSDOF 25
ENDMDL
MODEL 2
REMARK VINA RESULT:      -8.7      4.280      9.803
REMARK SMILES O=CN[C@@H](CCS[C@@H]1CCO[C@]2(CCOC2)C1)C(=O)OCCOCCOCCOC(=O)c1ccc(-c2c3nc(c(-c4c(F)cc(S(=O)(=O)[O-])cc4F)c4ccc([nH]4)c(-c4c(F)cc(S(=O)(=O)[O-])cc4F)c4nc(c(-c5c(F)cc(S(=O)(=O)[O-])cc5F)c5ccc2[nH]5)C=C4)C=C3)cc1
REMARK SMILES IDX 24 1 23 2 22 3 21 4 20 5 18 6 19 7 4 8 3 9 1 10 2 11 5 13
REMARK SMILES IDX 6 14 7 15 8 16 9 17 17 18 10 19 12 20 11 21 13 22 16 23
REMARK SMILES IDX 14 24 15 25 25 26 26 27 27 28 28 29 29 30 30 31 31 32 32 33
REMARK SMILES IDX 33 34 97 35 34 36 96 37 35 38 36 39 37 40 90 41 38 42 95 43
REMARK SMILES IDX 89 44 91 45 39 46 94 47 88 48 87 49 40 51 74 52 53 53 73 54
REMARK SMILES IDX 54 55 57 56 72 57 92 58 55 59 56 60 71 62 93 63 58 64 41 65
REMARK SMILES IDX 42 66 51 67 43 68 44 69 50 70 52 71 45 72 46 73 47 74 48 75
REMARK SMILES IDX 49 76 75 77 76 78 85 79 77 80 78 81 84 82 86 83 79 84 80 85
REMARK SMILES IDX 81 86 82 87 83 88 59 89 60 90 69 91 61 92 62 93 68 94 70 95
REMARK SMILES IDX 63 96 64 97 65 98 66 99 67 100
REMARK H PARENT 3 12 91 50 57 61
REMARK Flexibility Score: inf
ROOT
ATOM      1  C   UNL A   1      44.942  19.398  25.699  1.00  0.00     0.188 C 
ENDROOT
BRANCH   1   2
ATOM      2  O   UNL A   1      45.821  19.940  24.684  1.00  0.00    -0.376 OA
BRANCH   2   3
ATOM      3  C   UNL A   1      46.381  21.333  24.549  1.00  0.00     0.202 C 
BRANCH   3   4
ATOM      4  C   UNL A   1      45.778  23.098  25.581  1.00  0.00     0.261 C 
BRANCH   4   5
ATOM      5  O   UNL A   1      46.377  24.700  25.401  1.00  0.00    -0.462 OA
BRANCH   5   6
ATOM      6  C   UNL A   1      46.073  26.042  25.533  1.00  0.00     0.328 C 
ATOM      7  O   UNL A   1      45.194  26.395  26.320  1.00  0.00    -0.250 OA
BRANCH   6   8
ATOM      8  C   UNL A   1      46.703  27.099  24.533  1.00  0.00     0.192 C 
BRANCH   8   9
ATOM      9  N   UNL A   1      46.556  28.575  24.577  1.00  0.00    -0.345 N 
ATOM     10  O   UNL A   1      46.011  30.522  25.594  1.00  0.00    -0.279 OA
ATOM     11  C   UNL A   1      46.472  29.390  25.668  1.00  0.00     0.337 C 
ATOM     12  H   UNL A   1      46.512  29.026  23.702  1.00  0.00     0.164 HD
ENDBRANCH   8   9
BRANCH   8  13
ATOM     13  C   UNL A   1      48.189  26.768  24.556  1.00  0.00     0.048 C 
BRANCH  13  14
ATOM     14  C   UNL A   1      48.691  26.213  23.222  1.00  0.00     0.072 C 
BRANCH  14  15
ATOM     15  S   UNL A   1      48.799  27.411  21.852  1.00  0.00    -0.158 SA
BRANCH  15  16
ATOM     16  C   UNL A   1      50.651  27.511  21.116  1.00  0.00     0.052 C 
ATOM     17  C   UNL A   1      50.774  29.426  21.446  1.00  0.00     0.043 C 
ATOM     18  C   UNL A   1      51.835  26.817  19.614  1.00  0.00     0.052 C 
ATOM     19  C   UNL A   1      51.436  30.511  20.039  1.00  0.00     0.162 C 
ATOM     20  C   UNL A   1      52.464  28.111  18.282  1.00  0.00     0.095 C 
ATOM     21  O   UNL A   1      52.433  29.810  18.780  1.00  0.00    -0.372 OA
ATOM     22  C   UNL A   1      51.807  28.090  16.879  1.00  0.00     0.066 C 
ATOM     23  C   UNL A   1      53.927  27.865  17.798  1.00  0.00     0.195 C 
ATOM     24  C   UNL A   1      52.549  27.016  16.136  1.00  0.00     0.163 C 
ATOM     25  O   UNL A   1      53.883  27.022  16.642  1.00  0.00    -0.378 OA
ENDBRANCH  15  16
ENDBRANCH  14  15
ENDBRANCH  13  14
ENDBRANCH   8  13
ENDBRANCH   6   8
ENDBRANCH   5   6
ENDBRANCH   4   5
ENDBRANCH   3   4
ENDBRANCH   2   3
ENDBRANCH   1   2
BRANCH   1  26
ATOM     26  C   UNL A   1      43.659  18.846  25.004  1.00  0.00     0.188 C 
BRANCH  26  27
ATOM     27  O   UNL A   1      42.459  19.585  25.171  1.00  0.00    -0.376 OA
BRANCH  27  28
ATOM     28  C   UNL A   1      42.105  19.908  26.504  1.00  0.00     0.202 C 
BRANCH  28  29
ATOM     29  C   UNL A   1      42.034  21.400  26.859  1.00  0.00     0.261 C 
BRANCH  29  30
ATOM     30  O   UNL A   1      40.771  21.840  27.404  1.00  0.00    -0.460 OA
BRANCH  30  31
ATOM     31  C   UNL A   1      39.989  22.560  26.554  1.00  0.00     0.338 C 
ATOM     32  O   UNL A   1      39.339  22.126  25.619  1.00  0.00    -0.246 OA
BRANCH  31  33
ATOM     33  C   UNL A   1      39.869  23.963  27.019  1.00  0.00     0.060 A 
ATOM     34  C   UNL A   1      40.683  24.949  26.432  1.00  0.00     0.016 A 
ATOM     35  C   UNL A   1      39.070  24.276  28.117  1.00  0.00     0.016 A 
ATOM     36  C   UNL A   1      40.742  26.230  26.973  1.00  0.00     0.010 A 
ATOM     37  C   UNL A   1      39.159  25.553  28.685  1.00  0.00     0.010 A 
ATOM     38  C   UNL A   1      40.036  26.513  28.147  1.00  0.00    -0.014 A 
BRANCH  38  39
ATOM     39  C   UNL A   1      40.437  27.701  28.939  1.00  0.00     0.031 A 
ATOM     40  C   UNL A   1      41.811  27.706  29.562  1.00  0.00     0.074 A 
ATOM     41  C   UNL A   1      39.638  28.776  29.038  1.00  0.00     0.049 A 
ATOM     42  N   UNL A   1      42.386  28.616  30.301  1.00  0.00    -0.248 NA
ATOM     43  C   UNL A   1      42.646  26.518  29.315  1.00  0.00     0.031 C 
ATOM     44  C   UNL A   1      38.318  28.908  28.424  1.00  0.00     0.029 A 
ATOM     45  N   UNL A   1      39.824  29.965  29.695  1.00  0.00    -0.354 N 
ATOM     46  C   UNL A   1      43.643  28.109  30.615  1.00  0.00     0.074 A 
ATOM     47  C   UNL A   1      43.734  26.798  30.015  1.00  0.00     0.031 C 
ATOM     48  C   UNL A   1      37.807  30.110  28.742  1.00  0.00     0.029 A 
ATOM     49  C   UNL A   1      38.749  30.818  29.607  1.00  0.00     0.049 A 
ATOM     50  H   UNL A   1      40.649  30.187  30.185  1.00  0.00     0.167 HD
ATOM     51  C   UNL A   1      44.635  28.689  31.332  1.00  0.00     0.037 A 
ATOM     52  C   UNL A   1      38.549  32.023  30.176  1.00  0.00     0.037 A 
ATOM     53  C   UNL A   1      44.531  29.997  31.926  1.00  0.00     0.049 A 
ATOM     54  C   UNL A   1      39.641  32.623  31.024  1.00  0.00     0.074 A 
ATOM     55  C   UNL A   1      45.473  30.682  32.672  1.00  0.00     0.029 A 
ATOM     56  N   UNL A   1      43.413  30.817  31.842  1.00  0.00    -0.354 N 
ATOM     57  N   UNL A   1      40.825  32.133  31.317  1.00  0.00    -0.248 NA
ATOM     58  C   UNL A   1      39.377  33.944  31.610  1.00  0.00     0.031 C 
ATOM     59  C   UNL A   1      44.904  31.890  33.090  1.00  0.00     0.029 A 
ATOM     60  C   UNL A   1      43.633  31.991  32.543  1.00  0.00     0.049 A 
ATOM     61  H   UNL A   1      42.586  30.596  31.357  1.00  0.00     0.167 HD
ATOM     62  C   UNL A   1      41.459  33.102  32.088  1.00  0.00     0.074 A 
ATOM     63  C   UNL A   1      40.531  34.209  32.205  1.00  0.00     0.031 C 
ATOM     64  C   UNL A   1      42.697  33.084  32.646  1.00  0.00     0.037 A 
BRANCH  51  65
ATOM     65  C   UNL A   1      45.898  27.897  31.546  1.00  0.00     0.058 A 
ATOM     66  C   UNL A   1      47.014  28.027  30.703  1.00  0.00     0.135 A 
ATOM     67  C   UNL A   1      46.001  27.007  32.628  1.00  0.00     0.135 A 
ATOM     68  F   UNL A   1      46.967  28.846  29.639  1.00  0.00    -0.206 F 
ATOM     69  C   UNL A   1      48.174  27.285  30.908  1.00  0.00     0.059 A 
ATOM     70  C   UNL A   1      47.162  26.279  32.872  1.00  0.00     0.059 A 
ATOM     71  F   UNL A   1      44.965  26.837  33.464  1.00  0.00    -0.206 F 
ATOM     72  C   UNL A   1      48.239  26.414  31.998  1.00  0.00     0.060 A 
BRANCH  72  73
ATOM     73  S   UNL A   1      49.753  25.467  32.258  1.00  0.00     0.124 S 
ATOM     74  O   UNL A   1      49.315  24.478  33.239  1.00  0.00    -0.237 OA
ATOM     75  O   UNL A   1      50.031  24.952  30.921  1.00  0.00    -0.237 OA
ATOM     76  O   UNL A   1      50.698  26.462  32.752  1.00  0.00    -0.744 OA
ENDBRANCH  72  73
ENDBRANCH  51  65
BRANCH  52  77
ATOM     77  C   UNL A   1      37.261  32.741  29.966  1.00  0.00     0.058 A 
ATOM     78  C   UNL A   1      36.118  32.423  30.714  1.00  0.00     0.135 A 
ATOM     79  C   UNL A   1      37.149  33.763  29.008  1.00  0.00     0.135 A 
ATOM     80  F   UNL A   1      36.168  31.448  31.634  1.00  0.00    -0.206 F 
ATOM     81  C   UNL A   1      34.907  33.080  30.511  1.00  0.00     0.059 A 
ATOM     82  C   UNL A   1      35.959  34.453  28.809  1.00  0.00     0.059 A 
ATOM     83  F   UNL A   1      38.215  34.113  28.271  1.00  0.00    -0.206 F 
ATOM     84  C   UNL A   1      34.839  34.097  29.559  1.00  0.00     0.060 A 
BRANCH  84  85
ATOM     85  S   UNL A   1      33.276  34.975  29.340  1.00  0.00     0.124 S 
ATOM     86  O   UNL A   1      33.729  36.258  28.818  1.00  0.00    -0.237 OA
ATOM     87  O   UNL A   1      32.573  34.112  28.396  1.00  0.00    -0.237 OA
ATOM     88  O   UNL A   1      32.714  35.005  30.688  1.00  0.00    -0.744 OA
ENDBRANCH  84  85
ENDBRANCH  52  77
BRANCH  64  89
ATOM     89  C   UNL A   1      43.140  34.320  33.384  1.00  0.00     0.058 A 
ATOM     90  C   UNL A   1      43.058  34.426  34.782  1.00  0.00     0.135 A 
ATOM     91  C   UNL A   1      43.670  35.413  32.678  1.00  0.00     0.135 A 
ATOM     92  F   UNL A   1      42.561  33.412  35.509  1.00  0.00    -0.206 F 
ATOM     93  C   UNL A   1      43.436  35.589  35.447  1.00  0.00     0.059 A 
ATOM     94  C   UNL A   1      44.089  36.571  33.325  1.00  0.00     0.059 A 
ATOM     95  F   UNL A   1      43.789  35.362  31.341  1.00  0.00    -0.206 F 
ATOM     96  C   UNL A   1      43.944  36.658  34.709  1.00  0.00     0.060 A 
BRANCH  96  97
ATOM     97  S   UNL A   1      44.417  38.166  35.580  1.00  0.00     0.124 S 
ATOM     98  O   UNL A   1      45.869  38.029  35.635  1.00  0.00    -0.237 OA
ATOM     99  O   UNL A   1      43.913  39.211  34.694  1.00  0.00    -0.237 OA
ATOM    100  O   UNL A   1      43.727  38.051  36.862  1.00  0.00    -0.744 OA
ENDBRANCH  96  97
ENDBRANCH  64  89
ENDBRANCH  38  39
ENDBRANCH  31  33
ENDBRANCH  30  31
ENDBRANCH  29  30
ENDBRANCH  28  29
ENDBRANCH  27  28
ENDBRANCH  26  27
ENDBRANCH   1  26
TORSDOF 25
ENDMDL
MODEL 3
REMARK VINA RESULT:      -8.1      2.181      9.038
REMARK SMILES O=CN[C@@H](CCS[C@@H]1CCO[C@]2(CCOC2)C1)C(=O)OCCOCCOCCOC(=O)c1ccc(-c2c3nc(c(-c4c(F)cc(S(=O)(=O)[O-])cc4F)c4ccc([nH]4)c(-c4c(F)cc(S(=O)(=O)[O-])cc4F)c4nc(c(-c5c(F)cc(S(=O)(=O)[O-])cc5F)c5ccc2[nH]5)C=C4)C=C3)cc1
REMARK SMILES IDX 24 1 23 2 22 3 21 4 20 5 18 6 19 7 4 8 3 9 1 10 2 11 5 13
REMARK SMILES IDX 6 14 7 15 8 16 9 17 17 18 10 19 12 20 11 21 13 22 16 23
REMARK SMILES IDX 14 24 15 25 25 26 26 27 27 28 28 29 29 30 30 31 31 32 32 33
REMARK SMILES IDX 33 34 97 35 34 36 96 37 35 38 36 39 37 40 90 41 38 42 95 43
REMARK SMILES IDX 89 44 91 45 39 46 94 47 88 48 87 49 40 51 74 52 53 53 73 54
REMARK SMILES IDX 54 55 57 56 72 57 92 58 55 59 56 60 71 62 93 63 58 64 41 65
REMARK SMILES IDX 42 66 51 67 43 68 44 69 50 70 52 71 45 72 46 73 47 74 48 75
REMARK SMILES IDX 49 76 75 77 76 78 85 79 77 80 78 81 84 82 86 83 79 84 80 85
REMARK SMILES IDX 81 86 82 87 83 88 59 89 60 90 69 91 61 92 62 93 68 94 70 95
REMARK SMILES IDX 63 96 64 97 65 98 66 99 67 100
REMARK H PARENT 3 12 91 50 57 61
REMARK Flexibility Score: inf
ROOT
ATOM      1  C   UNL A   1      46.412  26.979  28.921  1.00  0.00     0.188 C 
ENDROOT
BRANCH   1   2
ATOM      2  O   UNL A   1      46.418  28.426  28.936  1.00  0.00    -0.376 OA
BRANCH   2   3
ATOM      3  C   UNL A   1      46.217  29.396  27.800  1.00  0.00     0.202 C 
BRANCH   3   4
ATOM      4  C   UNL A   1      46.354  31.523  27.849  1.00  0.00     0.261 C 
BRANCH   4   5
ATOM      5  O   UNL A   1      45.268  32.680  27.184  1.00  0.00    -0.462 OA
BRANCH   5   6
ATOM      6  C   UNL A   1      44.876  33.327  26.028  1.00  0.00     0.328 C 
ATOM      7  O   UNL A   1      44.567  32.669  25.034  1.00  0.00    -0.250 OA
BRANCH   6   8
ATOM      8  C   UNL A   1      45.017  34.902  25.914  1.00  0.00     0.192 C 
BRANCH   8   9
ATOM      9  N   UNL A   1      43.959  35.917  26.141  1.00  0.00    -0.345 N 
ATOM     10  O   UNL A   1      41.879  36.567  26.752  1.00  0.00    -0.279 OA
ATOM     11  C   UNL A   1      42.838  35.820  26.910  1.00  0.00     0.337 C 
ATOM     12  H   UNL A   1      44.084  36.776  25.673  1.00  0.00     0.164 HD
ENDBRANCH   8   9
BRANCH   8  13
ATOM     13  C   UNL A   1      46.189  35.221  26.833  1.00  0.00     0.048 C 
BRANCH  13  14
ATOM     14  C   UNL A   1      46.470  36.721  26.933  1.00  0.00     0.072 C 
BRANCH  14  15
ATOM     15  S   UNL A   1      47.053  37.316  28.555  1.00  0.00    -0.158 SA
BRANCH  15  16
ATOM     16  C   UNL A   1      45.706  36.966  29.985  1.00  0.00     0.052 C 
ATOM     17  C   UNL A   1      46.983  35.974  31.068  1.00  0.00     0.043 C 
ATOM     18  C   UNL A   1      43.755  36.474  30.284  1.00  0.00     0.052 C 
ATOM     19  C   UNL A   1      46.414  34.312  31.782  1.00  0.00     0.162 C 
ATOM     20  C   UNL A   1      43.373  34.726  31.087  1.00  0.00     0.095 C 
ATOM     21  O   UNL A   1      44.705  33.977  31.982  1.00  0.00    -0.372 OA
ATOM     22  C   UNL A   1      42.826  33.606  30.167  1.00  0.00     0.066 C 
ATOM     23  C   UNL A   1      42.177  34.735  32.089  1.00  0.00     0.195 C 
ATOM     24  C   UNL A   1      41.347  33.863  30.107  1.00  0.00     0.163 C 
ATOM     25  O   UNL A   1      40.981  34.423  31.367  1.00  0.00    -0.378 OA
ENDBRANCH  15  16
ENDBRANCH  14  15
ENDBRANCH  13  14
ENDBRANCH   8  13
ENDBRANCH   6   8
ENDBRANCH   5   6
ENDBRANCH   4   5
ENDBRANCH   3   4
ENDBRANCH   2   3
ENDBRANCH   1   2
BRANCH   1  26
ATOM     26  C   UNL A   1      46.873  26.494  27.511  1.00  0.00     0.188 C 
BRANCH  26  27
ATOM     27  O   UNL A   1      45.932  25.771  26.732  1.00  0.00    -0.376 OA
BRANCH  27  28
ATOM     28  C   UNL A   1      45.763  24.405  27.066  1.00  0.00     0.202 C 
BRANCH  28  29
ATOM     29  C   UNL A   1      44.521  24.044  27.893  1.00  0.00     0.261 C 
BRANCH  29  30
ATOM     30  O   UNL A   1      43.390  23.574  27.128  1.00  0.00    -0.460 OA
BRANCH  30  31
ATOM     31  C   UNL A   1      42.843  24.486  26.279  1.00  0.00     0.338 C 
ATOM     32  O   UNL A   1      42.765  24.398  25.066  1.00  0.00    -0.246 OA
BRANCH  31  33
ATOM     33  C   UNL A   1      42.161  25.561  27.040  1.00  0.00     0.060 A 
ATOM     34  C   UNL A   1      42.678  26.868  26.987  1.00  0.00     0.016 A 
ATOM     35  C   UNL A   1      41.115  25.255  27.910  1.00  0.00     0.016 A 
ATOM     36  C   UNL A   1      42.188  27.856  27.837  1.00  0.00     0.010 A 
ATOM     37  C   UNL A   1      40.651  26.238  28.792  1.00  0.00     0.010 A 
ATOM     38  C   UNL A   1      41.225  27.523  28.795  1.00  0.00    -0.014 A 
BRANCH  38  39
ATOM     39  C   UNL A   1      41.036  28.435  29.949  1.00  0.00     0.031 A 
ATOM     40  C   UNL A   1      41.995  28.316  31.108  1.00  0.00     0.074 A 
ATOM     41  C   UNL A   1      40.093  29.391  29.938  1.00  0.00     0.049 A 
ATOM     42  N   UNL A   1      42.033  28.988  32.228  1.00  0.00    -0.248 NA
ATOM     43  C   UNL A   1      43.053  27.300  30.982  1.00  0.00     0.031 C 
ATOM     44  C   UNL A   1      39.154  29.638  28.845  1.00  0.00     0.029 A 
ATOM     45  N   UNL A   1      39.770  30.334  30.879  1.00  0.00    -0.354 N 
ATOM     46  C   UNL A   1      43.109  28.470  32.942  1.00  0.00     0.074 A 
ATOM     47  C   UNL A   1      43.676  27.407  32.144  1.00  0.00     0.031 C 
ATOM     48  C   UNL A   1      38.352  30.663  29.183  1.00  0.00     0.029 A 
ATOM     49  C   UNL A   1      38.700  31.121  30.527  1.00  0.00     0.049 A 
ATOM     50  H   UNL A   1      40.258  30.436  31.729  1.00  0.00     0.167 HD
ATOM     51  C   UNL A   1      43.587  28.854  34.150  1.00  0.00     0.037 A 
ATOM     52  C   UNL A   1      38.067  32.087  31.222  1.00  0.00     0.037 A 
ATOM     53  C   UNL A   1      43.012  29.915  34.935  1.00  0.00     0.049 A 
ATOM     54  C   UNL A   1      38.575  32.455  32.593  1.00  0.00     0.074 A 
ATOM     55  C   UNL A   1      43.413  30.387  36.172  1.00  0.00     0.029 A 
ATOM     56  N   UNL A   1      41.907  30.668  34.559  1.00  0.00    -0.354 N 
ATOM     57  N   UNL A   1      39.592  31.957  33.260  1.00  0.00    -0.248 NA
ATOM     58  C   UNL A   1      37.859  33.523  33.301  1.00  0.00     0.031 C 
ATOM     59  C   UNL A   1      42.517  31.385  36.571  1.00  0.00     0.029 A 
ATOM     60  C   UNL A   1      41.599  31.585  35.550  1.00  0.00     0.049 A 
ATOM     61  H   UNL A   1      41.415  30.565  33.713  1.00  0.00     0.167 HD
ATOM     62  C   UNL A   1      39.659  32.677  34.449  1.00  0.00     0.074 A 
ATOM     63  C   UNL A   1      38.588  33.651  34.401  1.00  0.00     0.031 C 
ATOM     64  C   UNL A   1      40.529  32.550  35.484  1.00  0.00     0.037 A 
BRANCH  51  65
ATOM     65  C   UNL A   1      44.761  28.095  34.711  1.00  0.00     0.058 A 
ATOM     66  C   UNL A   1      44.605  26.885  35.408  1.00  0.00     0.135 A 
ATOM     67  C   UNL A   1      46.067  28.577  34.529  1.00  0.00     0.135 A 
ATOM     68  F   UNL A   1      43.379  26.386  35.633  1.00  0.00    -0.206 F 
ATOM     69  C   UNL A   1      45.698  26.196  35.927  1.00  0.00     0.059 A 
ATOM     70  C   UNL A   1      47.177  27.888  35.011  1.00  0.00     0.059 A 
ATOM     71  F   UNL A   1      46.277  29.730  33.876  1.00  0.00    -0.206 F 
ATOM     72  C   UNL A   1      46.982  26.705  35.720  1.00  0.00     0.060 A 
BRANCH  72  73
ATOM     73  S   UNL A   1      48.390  25.796  36.389  1.00  0.00     0.124 S 
ATOM     74  O   UNL A   1      48.043  25.716  37.804  1.00  0.00    -0.237 OA
ATOM     75  O   UNL A   1      48.328  24.540  35.649  1.00  0.00    -0.237 OA
ATOM     76  O   UNL A   1      49.530  26.650  36.072  1.00  0.00    -0.744 OA
ENDBRANCH  72  73
ENDBRANCH  51  65
BRANCH  52  77
ATOM     77  C   UNL A   1      36.883  32.773  30.634  1.00  0.00     0.058 A 
ATOM     78  C   UNL A   1      35.579  32.457  31.044  1.00  0.00     0.135 A 
ATOM     79  C   UNL A   1      37.034  33.762  29.648  1.00  0.00     0.135 A 
ATOM     80  F   UNL A   1      35.380  31.512  31.976  1.00  0.00    -0.206 F 
ATOM     81  C   UNL A   1      34.467  33.083  30.488  1.00  0.00     0.059 A 
ATOM     82  C   UNL A   1      35.940  34.423  29.099  1.00  0.00     0.059 A 
ATOM     83  F   UNL A   1      38.259  34.109  29.226  1.00  0.00    -0.206 F 
ATOM     84  C   UNL A   1      34.659  34.069  29.520  1.00  0.00     0.060 A 
BRANCH  84  85
ATOM     85  S   UNL A   1      33.211  34.908  28.841  1.00  0.00     0.124 S 
ATOM     86  O   UNL A   1      32.467  35.237  30.051  1.00  0.00    -0.237 OA
ATOM     87  O   UNL A   1      33.814  36.035  28.137  1.00  0.00    -0.237 OA
ATOM     88  O   UNL A   1      32.604  33.894  27.983  1.00  0.00    -0.744 OA
ENDBRANCH  84  85
ENDBRANCH  52  77
BRANCH  64  89
ATOM     89  C   UNL A   1      40.392  33.526  36.624  1.00  0.00     0.058 A 
ATOM     90  C   UNL A   1      41.167  34.693  36.706  1.00  0.00     0.135 A 
ATOM     91  C   UNL A   1      39.454  33.292  37.644  1.00  0.00     0.135 A 
ATOM     92  F   UNL A   1      42.079  34.967  35.759  1.00  0.00    -0.206 F 
ATOM     93  C   UNL A   1      41.057  35.566  37.785  1.00  0.00     0.059 A 
ATOM     94  C   UNL A   1      39.300  34.170  38.712  1.00  0.00     0.059 A 
ATOM     95  F   UNL A   1      38.672  32.202  37.609  1.00  0.00    -0.206 F 
ATOM     96  C   UNL A   1      40.124  35.292  38.786  1.00  0.00     0.060 A 
BRANCH  96  97
ATOM     97  S   UNL A   1      39.999  36.423  40.187  1.00  0.00     0.124 S 
ATOM     98  O   UNL A   1      41.274  37.128  40.108  1.00  0.00    -0.237 OA
ATOM     99  O   UNL A   1      38.818  37.211  39.848  1.00  0.00    -0.237 OA
ATOM    100  O   UNL A   1      39.844  35.531  41.333  1.00  0.00    -0.744 OA
ENDBRANCH  96  97
ENDBRANCH  64  89
ENDBRANCH  38  39
ENDBRANCH  31  33
ENDBRANCH  30  31
ENDBRANCH  29  30
ENDBRANCH  28  29
ENDBRANCH  27  28
ENDBRANCH  26  27
ENDBRANCH   1  26
TORSDOF 25
ENDMDL
