MODEL 1
REMARK VINA RESULT:     -10.8      0.000      0.000
REMARK SMILES Cc1ccccc1CNc1ccc(C(=O)OCCOCCOCCOC(=O)c2ccc(-c3c4nc(c(-c5c(F)cc(S(=O)(=O)[O-])cc5F)c5ccc([nH]5)c(-c5c(F)cc(S(=O)(=O)[O-])cc5F)c5nc(c(-c6c(F)cc(S(=O)(=O)[O-])cc6F)c6ccc3[nH]6)C=C5)C=C4)cc2)c(F)c1F
REMARK SMILES IDX 20 1 19 2 18 3 17 4 16 5 14 6 15 7 13 8 10 9 11 10 96 11
REMARK SMILES IDX 12 12 94 13 97 14 95 15 9 16 8 18 7 19 1 20 2 21 3 22 4 23
REMARK SMILES IDX 6 24 5 25 21 26 22 27 23 28 24 29 25 30 26 31 27 32 28 33
REMARK SMILES IDX 29 34 93 35 30 36 92 37 31 38 32 39 33 40 86 41 34 42 91 43
REMARK SMILES IDX 85 44 87 45 35 46 90 47 84 48 83 49 36 51 70 52 49 53 69 54
REMARK SMILES IDX 50 55 53 56 68 57 88 58 51 59 52 60 67 62 89 63 54 64 37 65
REMARK SMILES IDX 38 66 47 67 39 68 40 69 46 70 48 71 41 72 42 73 43 74 44 75
REMARK SMILES IDX 45 76 71 77 72 78 81 79 73 80 74 81 80 82 82 83 75 84 76 85
REMARK SMILES IDX 77 86 78 87 79 88 55 89 56 90 65 91 57 92 58 93 64 94 66 95
REMARK SMILES IDX 59 96 60 97 61 98 62 99 63 100
REMARK H PARENT 9 17 87 50 53 61
REMARK Flexibility Score: inf
ROOT
ATOM      1  C   UNL A   1      36.234  21.035  25.527  1.00  0.00     0.188 C 
ENDROOT
BRANCH   1   2
ATOM      2  O   UNL A   1      35.055  21.215  24.702  1.00  0.00    -0.376 OA
BRANCH   2   3
ATOM      3  C   UNL A   1      34.012  20.238  24.489  1.00  0.00     0.202 C 
BRANCH   3   4
ATOM      4  C   UNL A   1      32.506  20.265  25.295  1.00  0.00     0.261 C 
BRANCH   4   5
ATOM      5  O   UNL A   1      31.546  21.602  25.750  1.00  0.00    -0.460 OA
BRANCH   5   6
ATOM      6  C   UNL A   1      31.640  23.027  25.668  1.00  0.00     0.341 C 
ATOM      7  O   UNL A   1      32.477  23.770  26.175  1.00  0.00    -0.246 OA
BRANCH   6   8
ATOM      8  C   UNL A   1      30.782  23.995  24.951  1.00  0.00     0.099 A 
ATOM      9  C   UNL A   1      30.444  26.595  23.782  1.00  0.00     0.074 A 
ATOM     10  C   UNL A   1      30.099  26.327  25.118  1.00  0.00     0.030 A 
ATOM     11  C   UNL A   1      30.941  25.545  23.024  1.00  0.00     0.182 A 
ATOM     12  C   UNL A   1      30.248  25.043  25.698  1.00  0.00     0.021 A 
ATOM     13  C   UNL A   1      31.151  24.302  23.603  1.00  0.00     0.175 A 
ATOM     14  F   UNL A   1      31.406  25.791  21.784  1.00  0.00    -0.201 F 
ATOM     15  F   UNL A   1      31.986  23.529  22.901  1.00  0.00    -0.203 F 
BRANCH   9  16
ATOM     16  N   UNL A   1      30.542  27.906  23.272  1.00  0.00    -0.379 N 
ATOM     17  H   UNL A   1      29.759  28.413  22.958  1.00  0.00     0.161 HD
BRANCH  16  18
ATOM     18  C   UNL A   1      31.901  28.452  23.246  1.00  0.00     0.149 C 
BRANCH  18  19
ATOM     19  C   UNL A   1      32.417  28.690  24.654  1.00  0.00    -0.026 A 
ATOM     20  C   UNL A   1      34.024  26.699  24.585  1.00  0.00     0.044 C 
ATOM     21  C   UNL A   1      33.407  27.889  25.263  1.00  0.00    -0.046 A 
ATOM     22  C   UNL A   1      33.890  28.242  26.538  1.00  0.00     0.004 A 
ATOM     23  C   UNL A   1      33.375  29.340  27.226  1.00  0.00     0.000 A 
ATOM     24  C   UNL A   1      31.885  29.774  25.382  1.00  0.00     0.006 A 
ATOM     25  C   UNL A   1      32.362  30.098  26.655  1.00  0.00     0.000 A 
ENDBRANCH  18  19
ENDBRANCH  16  18
ENDBRANCH   9  16
ENDBRANCH   6   8
ENDBRANCH   5   6
ENDBRANCH   4   5
ENDBRANCH   3   4
ENDBRANCH   2   3
ENDBRANCH   1   2
BRANCH   1  26
ATOM     26  C   UNL A   1      37.671  21.103  24.992  1.00  0.00     0.188 C 
BRANCH  26  27
ATOM     27  O   UNL A   1      38.285  19.829  25.052  1.00  0.00    -0.376 OA
BRANCH  27  28
ATOM     28  C   UNL A   1      39.574  19.777  25.634  1.00  0.00     0.202 C 
BRANCH  28  29
ATOM     29  C   UNL A   1      40.013  21.101  26.291  1.00  0.00     0.261 C 
BRANCH  29  30
ATOM     30  O   UNL A   1      41.151  21.696  25.617  1.00  0.00    -0.460 OA
BRANCH  30  31
ATOM     31  C   UNL A   1      42.213  22.113  26.412  1.00  0.00     0.338 C 
ATOM     32  O   UNL A   1      43.247  21.514  26.469  1.00  0.00    -0.246 OA
BRANCH  31  33
ATOM     33  C   UNL A   1      41.887  23.446  27.053  1.00  0.00     0.060 A 
ATOM     34  C   UNL A   1      41.564  24.675  26.463  1.00  0.00     0.016 A 
ATOM     35  C   UNL A   1      42.100  23.518  28.380  1.00  0.00     0.016 A 
ATOM     36  C   UNL A   1      41.600  25.957  27.212  1.00  0.00     0.010 A 
ATOM     37  C   UNL A   1      42.323  24.781  28.931  1.00  0.00     0.010 A 
ATOM     38  C   UNL A   1      41.994  26.073  28.554  1.00  0.00    -0.014 A 
BRANCH  38  39
ATOM     39  C   UNL A   1      42.337  27.360  29.473  1.00  0.00     0.031 A 
ATOM     40  C   UNL A   1      41.461  28.554  30.280  1.00  0.00     0.074 A 
ATOM     41  C   UNL A   1      43.663  27.574  29.636  1.00  0.00     0.049 A 
ATOM     42  N   UNL A   1      41.862  29.819  30.399  1.00  0.00    -0.248 NA
ATOM     43  C   UNL A   1      40.102  28.517  30.941  1.00  0.00     0.031 C 
ATOM     44  C   UNL A   1      44.308  28.437  30.620  1.00  0.00     0.029 A 
ATOM     45  N   UNL A   1      44.711  27.137  28.823  1.00  0.00    -0.354 N 
ATOM     46  C   UNL A   1      40.887  30.497  31.154  1.00  0.00     0.074 A 
ATOM     47  C   UNL A   1      39.714  29.778  30.957  1.00  0.00     0.031 C 
ATOM     48  C   UNL A   1      45.562  28.686  30.217  1.00  0.00     0.029 A 
ATOM     49  C   UNL A   1      45.720  28.104  28.900  1.00  0.00     0.049 A 
ATOM     50  H   UNL A   1      44.736  26.306  28.297  1.00  0.00     0.167 HD
ATOM     51  C   UNL A   1      41.102  31.405  32.150  1.00  0.00     0.037 A 
ATOM     52  C   UNL A   1      46.155  28.750  27.782  1.00  0.00     0.037 A 
ATOM     53  C   UNL A   1      42.430  31.937  31.986  1.00  0.00     0.049 A 
ATOM     54  C   UNL A   1      45.999  30.251  27.853  1.00  0.00     0.074 A 
ATOM     55  C   UNL A   1      43.632  31.752  32.637  1.00  0.00     0.029 A 
ATOM     56  N   UNL A   1      42.716  32.542  30.772  1.00  0.00    -0.354 N 
ATOM     57  N   UNL A   1      45.382  30.882  28.818  1.00  0.00    -0.248 NA
ATOM     58  C   UNL A   1      46.520  31.172  26.848  1.00  0.00     0.031 C 
ATOM     59  C   UNL A   1      44.662  32.107  31.718  1.00  0.00     0.029 A 
ATOM     60  C   UNL A   1      44.074  32.573  30.552  1.00  0.00     0.049 A 
ATOM     61  H   UNL A   1      42.040  32.899  30.152  1.00  0.00     0.167 HD
ATOM     62  C   UNL A   1      45.308  32.219  28.530  1.00  0.00     0.074 A 
ATOM     63  C   UNL A   1      46.098  32.357  27.322  1.00  0.00     0.031 C 
ATOM     64  C   UNL A   1      44.564  33.088  29.279  1.00  0.00     0.037 A 
BRANCH  51  65
ATOM     65  C   UNL A   1      40.142  31.668  33.367  1.00  0.00     0.058 A 
ATOM     66  C   UNL A   1      39.201  32.723  33.320  1.00  0.00     0.135 A 
ATOM     67  C   UNL A   1      40.146  31.015  34.640  1.00  0.00     0.135 A 
ATOM     68  F   UNL A   1      39.066  33.469  32.214  1.00  0.00    -0.206 F 
ATOM     69  C   UNL A   1      38.380  33.099  34.413  1.00  0.00     0.059 A 
ATOM     70  C   UNL A   1      39.308  31.337  35.715  1.00  0.00     0.059 A 
ATOM     71  F   UNL A   1      41.007  30.060  34.992  1.00  0.00    -0.206 F 
ATOM     72  C   UNL A   1      38.443  32.400  35.613  1.00  0.00     0.060 A 
BRANCH  72  73
ATOM     73  S   UNL A   1      37.472  32.903  37.051  1.00  0.00     0.124 S 
ATOM     74  O   UNL A   1      38.358  33.865  37.696  1.00  0.00    -0.237 OA
ATOM     75  O   UNL A   1      36.266  33.451  36.441  1.00  0.00    -0.237 OA
ATOM     76  O   UNL A   1      37.276  31.656  37.790  1.00  0.00    -0.744 OA
ENDBRANCH  72  73
ENDBRANCH  51  65
BRANCH  52  77
ATOM     77  C   UNL A   1      46.179  27.867  26.576  1.00  0.00     0.058 A 
ATOM     78  C   UNL A   1      47.331  27.069  26.408  1.00  0.00     0.135 A 
ATOM     79  C   UNL A   1      45.024  27.462  25.891  1.00  0.00     0.135 A 
ATOM     80  F   UNL A   1      48.474  27.405  27.031  1.00  0.00    -0.206 F 
ATOM     81  C   UNL A   1      47.301  25.849  25.741  1.00  0.00     0.059 A 
ATOM     82  C   UNL A   1      44.977  26.244  25.188  1.00  0.00     0.059 A 
ATOM     83  F   UNL A   1      43.886  28.160  26.018  1.00  0.00    -0.206 F 
ATOM     84  C   UNL A   1      46.103  25.415  25.183  1.00  0.00     0.060 A 
BRANCH  84  85
ATOM     85  S   UNL A   1      46.024  23.686  24.643  1.00  0.00     0.124 S 
ATOM     86  O   UNL A   1      47.006  23.655  23.565  1.00  0.00    -0.237 OA
ATOM     87  O   UNL A   1      46.413  22.985  25.866  1.00  0.00    -0.237 OA
ATOM     88  O   UNL A   1      44.635  23.521  24.235  1.00  0.00    -0.744 OA
ENDBRANCH  84  85
ENDBRANCH  52  77
BRANCH  64  89
ATOM     89  C   UNL A   1      44.196  34.509  28.891  1.00  0.00     0.058 A 
ATOM     90  C   UNL A   1      44.638  35.658  29.572  1.00  0.00     0.135 A 
ATOM     91  C   UNL A   1      43.493  34.756  27.684  1.00  0.00     0.135 A 
ATOM     92  F   UNL A   1      45.421  35.573  30.655  1.00  0.00    -0.206 F 
ATOM     93  C   UNL A   1      44.333  36.951  29.138  1.00  0.00     0.059 A 
ATOM     94  C   UNL A   1      43.241  36.035  27.196  1.00  0.00     0.059 A 
ATOM     95  F   UNL A   1      43.036  33.750  26.921  1.00  0.00    -0.206 F 
ATOM     96  C   UNL A   1      43.632  37.131  27.950  1.00  0.00     0.060 A 
BRANCH  96  97
ATOM     97  S   UNL A   1      43.253  38.789  27.358  1.00  0.00     0.124 S 
ATOM     98  O   UNL A   1      42.100  38.533  26.500  1.00  0.00    -0.237 OA
ATOM     99  O   UNL A   1      42.970  39.524  28.588  1.00  0.00    -0.237 OA
ATOM    100  O   UNL A   1      44.480  39.180  26.672  1.00  0.00    -0.744 OA
ENDBRANCH  96  97
ENDBRANCH  64  89
ENDBRANCH  38  39
ENDBRANCH  31  33
ENDBRANCH  30  31
ENDBRANCH  29  30
ENDBRANCH  28  29
ENDBRANCH  27  28
ENDBRANCH  26  27
ENDBRANCH   1  26
TORSDOF 23
ENDMDL
MODEL 2
REMARK VINA RESULT:     -10.7      2.897      4.364
REMARK SMILES Cc1ccccc1CNc1ccc(C(=O)OCCOCCOCCOC(=O)c2ccc(-c3c4nc(c(-c5c(F)cc(S(=O)(=O)[O-])cc5F)c5ccc([nH]5)c(-c5c(F)cc(S(=O)(=O)[O-])cc5F)c5nc(c(-c6c(F)cc(S(=O)(=O)[O-])cc6F)c6ccc3[nH]6)C=C5)C=C4)cc2)c(F)c1F
REMARK SMILES IDX 20 1 19 2 18 3 17 4 16 5 14 6 15 7 13 8 10 9 11 10 96 11
REMARK SMILES IDX 12 12 94 13 97 14 95 15 9 16 8 18 7 19 1 20 2 21 3 22 4 23
REMARK SMILES IDX 6 24 5 25 21 26 22 27 23 28 24 29 25 30 26 31 27 32 28 33
REMARK SMILES IDX 29 34 93 35 30 36 92 37 31 38 32 39 33 40 86 41 34 42 91 43
REMARK SMILES IDX 85 44 87 45 35 46 90 47 84 48 83 49 36 51 70 52 49 53 69 54
REMARK SMILES IDX 50 55 53 56 68 57 88 58 51 59 52 60 67 62 89 63 54 64 37 65
REMARK SMILES IDX 38 66 47 67 39 68 40 69 46 70 48 71 41 72 42 73 43 74 44 75
REMARK SMILES IDX 45 76 71 77 72 78 81 79 73 80 74 81 80 82 82 83 75 84 76 85
REMARK SMILES IDX 77 86 78 87 79 88 55 89 56 90 65 91 57 92 58 93 64 94 66 95
REMARK SMILES IDX 59 96 60 97 61 98 62 99 63 100
REMARK H PARENT 9 17 87 50 53 61
REMARK Flexibility Score: inf
ROOT
ATOM      1  C   UNL A   1      41.704  19.114  25.999  1.00  0.00     0.188 C 
ENDROOT
BRANCH   1   2
ATOM      2  O   UNL A   1      40.543  19.531  25.234  1.00  0.00    -0.376 OA
BRANCH   2   3
ATOM      3  C   UNL A   1      39.177  19.131  25.481  1.00  0.00     0.202 C 
BRANCH   3   4
ATOM      4  C   UNL A   1      37.817  20.027  24.967  1.00  0.00     0.261 C 
BRANCH   4   5
ATOM      5  O   UNL A   1      37.672  21.704  24.678  1.00  0.00    -0.460 OA
BRANCH   5   6
ATOM      6  C   UNL A   1      36.963  22.803  25.259  1.00  0.00     0.341 C 
ATOM      7  O   UNL A   1      37.394  23.905  25.590  1.00  0.00    -0.246 OA
BRANCH   6   8
ATOM      8  C   UNL A   1      35.531  22.930  25.610  1.00  0.00     0.099 A 
ATOM      9  C   UNL A   1      32.911  23.905  24.957  1.00  0.00     0.074 A 
ATOM     10  C   UNL A   1      33.812  24.651  25.737  1.00  0.00     0.030 A 
ATOM     11  C   UNL A   1      33.322  22.653  24.522  1.00  0.00     0.182 A 
ATOM     12  C   UNL A   1      35.101  24.170  26.076  1.00  0.00     0.021 A 
ATOM     13  C   UNL A   1      34.605  22.204  24.795  1.00  0.00     0.175 A 
ATOM     14  F   UNL A   1      32.542  21.966  23.665  1.00  0.00    -0.201 F 
ATOM     15  F   UNL A   1      34.993  21.203  23.998  1.00  0.00    -0.203 F 
BRANCH   9  16
ATOM     16  N   UNL A   1      31.742  24.466  24.403  1.00  0.00    -0.379 N 
ATOM     17  H   UNL A   1      31.197  23.998  23.730  1.00  0.00     0.161 HD
BRANCH  16  18
ATOM     18  C   UNL A   1      31.405  25.797  24.909  1.00  0.00     0.149 C 
BRANCH  18  19
ATOM     19  C   UNL A   1      32.247  26.865  24.233  1.00  0.00    -0.026 A 
ATOM     20  C   UNL A   1      32.494  28.261  26.364  1.00  0.00     0.044 C 
ATOM     21  C   UNL A   1      32.760  27.991  24.910  1.00  0.00    -0.046 A 
ATOM     22  C   UNL A   1      33.609  28.881  24.222  1.00  0.00     0.004 A 
ATOM     23  C   UNL A   1      33.911  28.692  22.874  1.00  0.00     0.000 A 
ATOM     24  C   UNL A   1      32.537  26.712  22.861  1.00  0.00     0.006 A 
ATOM     25  C   UNL A   1      33.364  27.616  22.189  1.00  0.00     0.000 A 
ENDBRANCH  18  19
ENDBRANCH  16  18
ENDBRANCH   9  16
ENDBRANCH   6   8
ENDBRANCH   5   6
ENDBRANCH   4   5
ENDBRANCH   3   4
ENDBRANCH   2   3
ENDBRANCH   1   2
BRANCH   1  26
ATOM     26  C   UNL A   1      41.952  19.508  27.460  1.00  0.00     0.188 C 
BRANCH  26  27
ATOM     27  O   UNL A   1      42.963  20.496  27.544  1.00  0.00    -0.376 OA
BRANCH  27  28
ATOM     28  C   UNL A   1      42.550  21.838  27.364  1.00  0.00     0.202 C 
BRANCH  28  29
ATOM     29  C   UNL A   1      41.100  22.108  27.813  1.00  0.00     0.261 C 
BRANCH  29  30
ATOM     30  O   UNL A   1      40.393  22.973  26.888  1.00  0.00    -0.460 OA
BRANCH  30  31
ATOM     31  C   UNL A   1      40.973  24.206  26.605  1.00  0.00     0.338 C 
ATOM     32  O   UNL A   1      41.523  24.433  25.567  1.00  0.00    -0.246 OA
BRANCH  31  33
ATOM     33  C   UNL A   1      40.686  25.183  27.726  1.00  0.00     0.060 A 
ATOM     34  C   UNL A   1      39.499  25.427  28.428  1.00  0.00     0.016 A 
ATOM     35  C   UNL A   1      41.664  26.073  27.982  1.00  0.00     0.016 A 
ATOM     36  C   UNL A   1      39.296  26.639  29.261  1.00  0.00     0.010 A 
ATOM     37  C   UNL A   1      41.299  27.273  28.595  1.00  0.00     0.010 A 
ATOM     38  C   UNL A   1      40.241  27.668  29.396  1.00  0.00    -0.014 A 
BRANCH  38  39
ATOM     39  C   UNL A   1      40.140  29.152  30.033  1.00  0.00     0.031 A 
ATOM     40  C   UNL A   1      39.071  30.453  29.936  1.00  0.00     0.074 A 
ATOM     41  C   UNL A   1      41.179  29.471  30.838  1.00  0.00     0.049 A 
ATOM     42  N   UNL A   1      39.448  31.730  29.963  1.00  0.00    -0.248 NA
ATOM     43  C   UNL A   1      37.572  30.498  29.736  1.00  0.00     0.031 C 
ATOM     44  C   UNL A   1      41.258  30.576  31.789  1.00  0.00     0.029 A 
ATOM     45  N   UNL A   1      42.459  28.913  30.853  1.00  0.00    -0.354 N 
ATOM     46  C   UNL A   1      38.281  32.513  29.887  1.00  0.00     0.074 A 
ATOM     47  C   UNL A   1      37.346  31.705  29.251  1.00  0.00     0.031 C 
ATOM     48  C   UNL A   1      42.546  30.791  32.090  1.00  0.00     0.029 A 
ATOM     49  C   UNL A   1      43.343  29.924  31.245  1.00  0.00     0.049 A 
ATOM     50  H   UNL A   1      42.695  27.984  30.630  1.00  0.00     0.167 HD
ATOM     51  C   UNL A   1      37.998  33.641  30.602  1.00  0.00     0.037 A 
ATOM     52  C   UNL A   1      44.366  30.311  30.433  1.00  0.00     0.037 A 
ATOM     53  C   UNL A   1      39.243  34.191  31.073  1.00  0.00     0.049 A 
ATOM     54  C   UNL A   1      44.323  31.777  30.065  1.00  0.00     0.074 A 
ATOM     55  C   UNL A   1      39.880  34.231  32.295  1.00  0.00     0.029 A 
ATOM     56  N   UNL A   1      40.190  34.507  30.111  1.00  0.00    -0.354 N 
ATOM     57  N   UNL A   1      43.338  32.582  30.364  1.00  0.00    -0.248 NA
ATOM     58  C   UNL A   1      45.381  32.461  29.329  1.00  0.00     0.031 C 
ATOM     59  C   UNL A   1      41.269  34.416  32.034  1.00  0.00     0.029 A 
ATOM     60  C   UNL A   1      41.448  34.560  30.667  1.00  0.00     0.049 A 
ATOM     61  H   UNL A   1      39.990  34.671  29.162  1.00  0.00     0.167 HD
ATOM     62  C   UNL A   1      43.544  33.808  29.788  1.00  0.00     0.074 A 
ATOM     63  C   UNL A   1      44.871  33.700  29.212  1.00  0.00     0.031 C 
ATOM     64  C   UNL A   1      42.590  34.787  29.790  1.00  0.00     0.037 A 
BRANCH  51  65
ATOM     65  C   UNL A   1      36.559  34.130  31.002  1.00  0.00     0.058 A 
ATOM     66  C   UNL A   1      35.612  34.458  30.002  1.00  0.00     0.135 A 
ATOM     67  C   UNL A   1      36.061  34.404  32.314  1.00  0.00     0.135 A 
ATOM     68  F   UNL A   1      35.905  34.292  28.704  1.00  0.00    -0.206 F 
ATOM     69  C   UNL A   1      34.336  35.013  30.273  1.00  0.00     0.059 A 
ATOM     70  C   UNL A   1      34.786  34.903  32.607  1.00  0.00     0.059 A 
ATOM     71  F   UNL A   1      36.782  34.288  33.430  1.00  0.00    -0.206 F 
ATOM     72  C   UNL A   1      33.931  35.236  31.584  1.00  0.00     0.060 A 
BRANCH  72  73
ATOM     73  S   UNL A   1      32.346  36.017  31.963  1.00  0.00     0.124 S 
ATOM     74  O   UNL A   1      31.856  36.371  30.635  1.00  0.00    -0.237 OA
ATOM     75  O   UNL A   1      31.626  34.952  32.649  1.00  0.00    -0.237 OA
ATOM     76  O   UNL A   1      32.714  37.155  32.805  1.00  0.00    -0.744 OA
ENDBRANCH  72  73
ENDBRANCH  51  65
BRANCH  52  77
ATOM     77  C   UNL A   1      44.964  29.172  29.674  1.00  0.00     0.058 A 
ATOM     78  C   UNL A   1      44.570  29.044  28.324  1.00  0.00     0.135 A 
ATOM     79  C   UNL A   1      46.157  28.535  30.047  1.00  0.00     0.135 A 
ATOM     80  F   UNL A   1      43.433  29.624  27.903  1.00  0.00    -0.206 F 
ATOM     81  C   UNL A   1      45.389  28.466  27.360  1.00  0.00     0.059 A 
ATOM     82  C   UNL A   1      46.991  27.922  29.093  1.00  0.00     0.059 A 
ATOM     83  F   UNL A   1      46.605  28.628  31.308  1.00  0.00    -0.206 F 
ATOM     84  C   UNL A   1      46.626  27.959  27.744  1.00  0.00     0.060 A 
BRANCH  84  85
ATOM     85  S   UNL A   1      47.793  27.546  26.419  1.00  0.00     0.124 S 
ATOM     86  O   UNL A   1      48.665  26.574  27.069  1.00  0.00    -0.237 OA
ATOM     87  O   UNL A   1      46.894  27.002  25.403  1.00  0.00    -0.237 OA
ATOM     88  O   UNL A   1      48.408  28.828  26.097  1.00  0.00    -0.744 OA
ENDBRANCH  84  85
ENDBRANCH  52  77
BRANCH  64  89
ATOM     89  C   UNL A   1      42.612  36.053  28.953  1.00  0.00     0.058 A 
ATOM     90  C   UNL A   1      41.930  36.211  27.734  1.00  0.00     0.135 A 
ATOM     91  C   UNL A   1      43.215  37.231  29.464  1.00  0.00     0.135 A 
ATOM     92  F   UNL A   1      41.208  35.217  27.200  1.00  0.00    -0.206 F 
ATOM     93  C   UNL A   1      41.919  37.419  27.031  1.00  0.00     0.059 A 
ATOM     94  C   UNL A   1      43.155  38.462  28.815  1.00  0.00     0.059 A 
ATOM     95  F   UNL A   1      43.877  37.230  30.632  1.00  0.00    -0.206 F 
ATOM     96  C   UNL A   1      42.536  38.539  27.577  1.00  0.00     0.060 A 
BRANCH  96  97
ATOM     97  S   UNL A   1      42.510  40.112  26.701  1.00  0.00     0.124 S 
ATOM     98  O   UNL A   1      43.670  39.975  25.826  1.00  0.00    -0.237 OA
ATOM     99  O   UNL A   1      41.213  40.098  26.030  1.00  0.00    -0.237 OA
ATOM    100  O   UNL A   1      42.639  41.089  27.778  1.00  0.00    -0.744 OA
ENDBRANCH  96  97
ENDBRANCH  64  89
ENDBRANCH  38  39
ENDBRANCH  31  33
ENDBRANCH  30  31
ENDBRANCH  29  30
ENDBRANCH  28  29
ENDBRANCH  27  28
ENDBRANCH  26  27
ENDBRANCH   1  26
TORSDOF 23
ENDMDL
MODEL 3
REMARK VINA RESULT:     -10.4      5.327      7.448
REMARK SMILES Cc1ccccc1CNc1ccc(C(=O)OCCOCCOCCOC(=O)c2ccc(-c3c4nc(c(-c5c(F)cc(S(=O)(=O)[O-])cc5F)c5ccc([nH]5)c(-c5c(F)cc(S(=O)(=O)[O-])cc5F)c5nc(c(-c6c(F)cc(S(=O)(=O)[O-])cc6F)c6ccc3[nH]6)C=C5)C=C4)cc2)c(F)c1F
REMARK SMILES IDX 20 1 19 2 18 3 17 4 16 5 14 6 15 7 13 8 10 9 11 10 96 11
REMARK SMILES IDX 12 12 94 13 97 14 95 15 9 16 8 18 7 19 1 20 2 21 3 22 4 23
REMARK SMILES IDX 6 24 5 25 21 26 22 27 23 28 24 29 25 30 26 31 27 32 28 33
REMARK SMILES IDX 29 34 93 35 30 36 92 37 31 38 32 39 33 40 86 41 34 42 91 43
REMARK SMILES IDX 85 44 87 45 35 46 90 47 84 48 83 49 36 51 70 52 49 53 69 54
REMARK SMILES IDX 50 55 53 56 68 57 88 58 51 59 52 60 67 62 89 63 54 64 37 65
REMARK SMILES IDX 38 66 47 67 39 68 40 69 46 70 48 71 41 72 42 73 43 74 44 75
REMARK SMILES IDX 45 76 71 77 72 78 81 79 73 80 74 81 80 82 82 83 75 84 76 85
REMARK SMILES IDX 77 86 78 87 79 88 55 89 56 90 65 91 57 92 58 93 64 94 66 95
REMARK SMILES IDX 59 96 60 97 61 98 62 99 63 100
REMARK H PARENT 9 17 87 50 53 61
REMARK Flexibility Score: inf
ROOT
ATOM      1  C   UNL A   1      36.194  21.464  25.480  1.00  0.00     0.188 C 
ENDROOT
BRANCH   1   2
ATOM      2  O   UNL A   1      34.996  22.082  24.943  1.00  0.00    -0.376 OA
BRANCH   2   3
ATOM      3  C   UNL A   1      33.917  21.396  24.271  1.00  0.00     0.202 C 
BRANCH   3   4
ATOM      4  C   UNL A   1      32.537  20.785  25.071  1.00  0.00     0.261 C 
BRANCH   4   5
ATOM      5  O   UNL A   1      31.271  21.631  25.847  1.00  0.00    -0.460 OA
BRANCH   5   6
ATOM      6  C   UNL A   1      31.076  22.939  26.393  1.00  0.00     0.341 C 
ATOM      7  O   UNL A   1      30.658  23.251  27.505  1.00  0.00    -0.246 OA
BRANCH   6   8
ATOM      8  C   UNL A   1      31.331  24.266  25.791  1.00  0.00     0.099 A 
ATOM      9  C   UNL A   1      31.808  27.077  26.133  1.00  0.00     0.074 A 
ATOM     10  C   UNL A   1      30.513  26.554  25.965  1.00  0.00     0.030 A 
ATOM     11  C   UNL A   1      32.869  26.183  26.106  1.00  0.00     0.182 A 
ATOM     12  C   UNL A   1      30.271  25.170  25.780  1.00  0.00     0.021 A 
ATOM     13  C   UNL A   1      32.634  24.821  25.992  1.00  0.00     0.175 A 
ATOM     14  F   UNL A   1      34.108  26.626  26.395  1.00  0.00    -0.201 F 
ATOM     15  F   UNL A   1      33.673  24.074  26.380  1.00  0.00    -0.203 F 
BRANCH   9  16
ATOM     16  N   UNL A   1      32.043  28.397  26.567  1.00  0.00    -0.379 N 
ATOM     17  H   UNL A   1      31.854  28.694  27.487  1.00  0.00     0.161 HD
BRANCH  16  18
ATOM     18  C   UNL A   1      32.589  29.289  25.544  1.00  0.00     0.149 C 
BRANCH  18  19
ATOM     19  C   UNL A   1      31.649  29.391  24.355  1.00  0.00    -0.026 A 
ATOM     20  C   UNL A   1      33.129  27.948  22.845  1.00  0.00     0.044 C 
ATOM     21  C   UNL A   1      31.894  28.759  23.117  1.00  0.00    -0.046 A 
ATOM     22  C   UNL A   1      30.921  28.835  22.101  1.00  0.00     0.004 A 
ATOM     23  C   UNL A   1      29.744  29.561  22.282  1.00  0.00     0.000 A 
ATOM     24  C   UNL A   1      30.469  30.149  24.504  1.00  0.00     0.006 A 
ATOM     25  C   UNL A   1      29.524  30.230  23.478  1.00  0.00     0.000 A 
ENDBRANCH  18  19
ENDBRANCH  16  18
ENDBRANCH   9  16
ENDBRANCH   6   8
ENDBRANCH   5   6
ENDBRANCH   4   5
ENDBRANCH   3   4
ENDBRANCH   2   3
ENDBRANCH   1   2
BRANCH   1  26
ATOM     26  C   UNL A   1      37.425  21.109  24.636  1.00  0.00     0.188 C 
BRANCH  26  27
ATOM     27  O   UNL A   1      38.091  19.983  25.178  1.00  0.00    -0.376 OA
BRANCH  27  28
ATOM     28  C   UNL A   1      39.456  20.159  25.511  1.00  0.00     0.202 C 
BRANCH  28  29
ATOM     29  C   UNL A   1      39.732  21.415  26.362  1.00  0.00     0.261 C 
BRANCH  29  30
ATOM     30  O   UNL A   1      40.615  22.348  25.690  1.00  0.00    -0.460 OA
BRANCH  30  31
ATOM     31  C   UNL A   1      41.963  22.302  26.028  1.00  0.00     0.338 C 
ATOM     32  O   UNL A   1      42.803  21.909  25.272  1.00  0.00    -0.246 OA
BRANCH  31  33
ATOM     33  C   UNL A   1      42.175  22.921  27.394  1.00  0.00     0.060 A 
ATOM     34  C   UNL A   1      42.019  24.247  27.817  1.00  0.00     0.016 A 
ATOM     35  C   UNL A   1      42.761  22.123  28.306  1.00  0.00     0.016 A 
ATOM     36  C   UNL A   1      42.584  24.752  29.095  1.00  0.00     0.010 A 
ATOM     37  C   UNL A   1      43.439  22.738  29.361  1.00  0.00     0.010 A 
ATOM     38  C   UNL A   1      43.353  23.976  29.976  1.00  0.00    -0.014 A 
BRANCH  38  39
ATOM     39  C   UNL A   1      44.251  24.371  31.262  1.00  0.00     0.031 A 
ATOM     40  C   UNL A   1      44.255  24.005  32.908  1.00  0.00     0.074 A 
ATOM     41  C   UNL A   1      45.252  25.236  30.981  1.00  0.00     0.049 A 
ATOM     42  N   UNL A   1      44.595  24.871  33.863  1.00  0.00    -0.248 NA
ATOM     43  C   UNL A   1      43.844  22.755  33.652  1.00  0.00     0.031 C 
ATOM     44  C   UNL A   1      46.406  25.559  31.815  1.00  0.00     0.029 A 
ATOM     45  N   UNL A   1      45.349  26.121  29.905  1.00  0.00    -0.354 N 
ATOM     46  C   UNL A   1      44.502  24.195  35.093  1.00  0.00     0.074 A 
ATOM     47  C   UNL A   1      43.582  23.176  34.876  1.00  0.00     0.031 C 
ATOM     48  C   UNL A   1      46.936  26.713  31.386  1.00  0.00     0.029 A 
ATOM     49  C   UNL A   1      46.066  27.236  30.352  1.00  0.00     0.049 A 
ATOM     50  H   UNL A   1      44.983  25.984  29.002  1.00  0.00     0.167 HD
ATOM     51  C   UNL A   1      45.377  24.263  36.139  1.00  0.00     0.037 A 
ATOM     52  C   UNL A   1      45.513  28.480  30.320  1.00  0.00     0.037 A 
ATOM     53  C   UNL A   1      46.132  25.482  36.006  1.00  0.00     0.049 A 
ATOM     54  C   UNL A   1      45.444  29.146  31.675  1.00  0.00     0.074 A 
ATOM     55  C   UNL A   1      47.420  25.783  35.615  1.00  0.00     0.029 A 
ATOM     56  N   UNL A   1      45.409  26.664  35.962  1.00  0.00    -0.354 N 
ATOM     57  N   UNL A   1      45.745  28.555  32.801  1.00  0.00    -0.248 NA
ATOM     58  C   UNL A   1      45.030  30.530  31.881  1.00  0.00     0.031 C 
ATOM     59  C   UNL A   1      47.415  27.139  35.176  1.00  0.00     0.029 A 
ATOM     60  C   UNL A   1      46.148  27.665  35.375  1.00  0.00     0.049 A 
ATOM     61  H   UNL A   1      44.492  26.772  36.304  1.00  0.00     0.167 HD
ATOM     62  C   UNL A   1      45.465  29.384  33.855  1.00  0.00     0.074 A 
ATOM     63  C   UNL A   1      45.088  30.633  33.220  1.00  0.00     0.031 C 
ATOM     64  C   UNL A   1      45.518  28.961  35.154  1.00  0.00     0.037 A 
BRANCH  51  65
ATOM     65  C   UNL A   1      45.643  23.116  37.181  1.00  0.00     0.058 A 
ATOM     66  C   UNL A   1      45.614  23.392  38.569  1.00  0.00     0.135 A 
ATOM     67  C   UNL A   1      46.033  21.766  36.915  1.00  0.00     0.135 A 
ATOM     68  F   UNL A   1      45.293  24.614  39.016  1.00  0.00    -0.206 F 
ATOM     69  C   UNL A   1      45.954  22.446  39.569  1.00  0.00     0.059 A 
ATOM     70  C   UNL A   1      46.322  20.802  37.888  1.00  0.00     0.059 A 
ATOM     71  F   UNL A   1      46.244  21.272  35.694  1.00  0.00    -0.206 F 
ATOM     72  C   UNL A   1      46.312  21.149  39.217  1.00  0.00     0.060 A 
BRANCH  72  73
ATOM     73  S   UNL A   1      46.830  19.944  40.460  1.00  0.00     0.124 S 
ATOM     74  O   UNL A   1      46.729  18.687  39.726  1.00  0.00    -0.237 OA
ATOM     75  O   UNL A   1      48.179  20.388  40.787  1.00  0.00    -0.237 OA
ATOM     76  O   UNL A   1      45.849  20.109  41.532  1.00  0.00    -0.744 OA
ENDBRANCH  72  73
ENDBRANCH  51  65
BRANCH  52  77
ATOM     77  C   UNL A   1      44.640  28.694  29.126  1.00  0.00     0.058 A 
ATOM     78  C   UNL A   1      45.276  28.631  27.867  1.00  0.00     0.135 A 
ATOM     79  C   UNL A   1      43.249  28.512  29.141  1.00  0.00     0.135 A 
ATOM     80  F   UNL A   1      46.606  28.805  27.781  1.00  0.00    -0.206 F 
ATOM     81  C   UNL A   1      44.605  28.242  26.712  1.00  0.00     0.059 A 
ATOM     82  C   UNL A   1      42.545  28.142  27.981  1.00  0.00     0.059 A 
ATOM     83  F   UNL A   1      42.580  28.540  30.303  1.00  0.00    -0.206 F 
ATOM     84  C   UNL A   1      43.250  27.942  26.790  1.00  0.00     0.060 A 
BRANCH  84  85
ATOM     85  S   UNL A   1      42.508  27.108  25.361  1.00  0.00     0.124 S 
ATOM     86  O   UNL A   1      43.384  25.955  25.188  1.00  0.00    -0.237 OA
ATOM     87  O   UNL A   1      41.168  26.809  25.866  1.00  0.00    -0.237 OA
ATOM     88  O   UNL A   1      42.575  28.114  24.309  1.00  0.00    -0.744 OA
ENDBRANCH  84  85
ENDBRANCH  52  77
BRANCH  64  89
ATOM     89  C   UNL A   1      44.966  29.704  36.356  1.00  0.00     0.058 A 
ATOM     90  C   UNL A   1      45.759  30.318  37.343  1.00  0.00     0.135 A 
ATOM     91  C   UNL A   1      43.574  29.960  36.456  1.00  0.00     0.135 A 
ATOM     92  F   UNL A   1      47.096  30.268  37.299  1.00  0.00    -0.206 F 
ATOM     93  C   UNL A   1      45.210  31.054  38.396  1.00  0.00     0.059 A 
ATOM     94  C   UNL A   1      43.013  30.750  37.456  1.00  0.00     0.059 A 
ATOM     95  F   UNL A   1      42.704  29.457  35.566  1.00  0.00    -0.206 F 
ATOM     96  C   UNL A   1      43.836  31.263  38.447  1.00  0.00     0.060 A 
BRANCH  96  97
ATOM     97  S   UNL A   1      43.110  32.233  39.780  1.00  0.00     0.124 S 
ATOM     98  O   UNL A   1      41.713  32.301  39.360  1.00  0.00    -0.237 OA
ATOM     99  O   UNL A   1      43.370  31.418  40.963  1.00  0.00    -0.237 OA
ATOM    100  O   UNL A   1      43.854  33.486  39.716  1.00  0.00    -0.744 OA
ENDBRANCH  96  97
ENDBRANCH  64  89
ENDBRANCH  38  39
ENDBRANCH  31  33
ENDBRANCH  30  31
ENDBRANCH  29  30
ENDBRANCH  28  29
ENDBRANCH  27  28
ENDBRANCH  26  27
ENDBRANCH   1  26
TORSDOF 23
ENDMDL
