MODEL 1
REMARK VINA RESULT:     -10.0      0.000      0.000
REMARK SMILES C[C@@H]1CC[C@H](C)[N@H+]1Cc1cc2c(cc1Cl)C=C(C(=O)OCCOCCOCCOC(=O)c1ccc(-c3c4nc(c(-c5c(F)cc(S(=O)(=O)[O-])cc5F)c5ccc([nH]5)c(-c5c(F)cc(S(=O)(=O)[O-])cc5F)c5nc(c(-c6c(F)cc(S(=O)(=O)[O-])cc6F)c6ccc3[nH]6)C=C5)C=C4)cc1)[C@@H](C(F)(F)F)O2
REMARK SMILES IDX 25 1 24 2 23 3 22 4 21 5 20 6 18 7 19 8 17 9 9 10 10 11
REMARK SMILES IDX 14 12 11 13 13 14 15 15 12 16 103 17 16 18 98 19 8 20 7 21
REMARK SMILES IDX 6 22 5 23 4 24 3 25 2 26 1 28 99 29 100 30 101 31 102 32
REMARK SMILES IDX 26 33 27 34 28 35 29 36 30 37 31 38 32 39 33 40 97 41 34 42
REMARK SMILES IDX 96 43 35 44 36 45 37 46 90 47 38 48 95 49 89 50 91 51 39 52
REMARK SMILES IDX 94 53 88 54 87 55 40 57 74 58 53 59 73 60 54 61 57 62 72 63
REMARK SMILES IDX 92 64 55 65 56 66 71 68 93 69 58 70 41 71 42 72 51 73 43 74
REMARK SMILES IDX 44 75 50 76 52 77 45 78 46 79 47 80 48 81 49 82 75 83 76 84
REMARK SMILES IDX 85 85 77 86 78 87 84 88 86 89 79 90 80 91 81 92 82 93 83 94
REMARK SMILES IDX 59 95 60 96 69 97 61 98 62 99 68 100 70 101 63 102 64 103
REMARK SMILES IDX 65 104 66 105 67 106
REMARK H PARENT 7 27 91 56 57 67
REMARK Flexibility Score: inf
ROOT
ATOM      1  C   UNL A   1      35.771  32.098  28.057  1.00  0.00     0.188 C 
ENDROOT
BRANCH   1   2
ATOM      2  C   UNL A   1      34.998  30.767  27.947  1.00  0.00     0.188 C 
BRANCH   2   3
ATOM      3  O   UNL A   1      34.029  30.773  26.913  1.00  0.00    -0.376 OA
BRANCH   3   4
ATOM      4  C   UNL A   1      32.681  30.546  27.288  1.00  0.00     0.202 C 
BRANCH   4   5
ATOM      5  C   UNL A   1      32.103  29.133  27.092  1.00  0.00     0.261 C 
BRANCH   5   6
ATOM      6  O   UNL A   1      31.788  28.770  25.738  1.00  0.00    -0.460 OA
BRANCH   6   7
ATOM      7  C   UNL A   1      32.729  28.076  25.064  1.00  0.00     0.338 C 
ATOM      8  O   UNL A   1      33.662  28.551  24.437  1.00  0.00    -0.246 OA
BRANCH   7   9
ATOM      9  C   UNL A   1      32.539  26.629  25.306  1.00  0.00     0.087 C 
ATOM     10  C   UNL A   1      33.254  21.668  25.898  1.00  0.00     0.029 A 
ATOM     11  C   UNL A   1      32.114  22.509  25.885  1.00  0.00     0.058 A 
ATOM     12  C   UNL A   1      34.510  22.287  25.773  1.00  0.00     0.050 A 
ATOM     13  C   UNL A   1      32.233  23.900  25.760  1.00  0.00     0.128 A 
ATOM     14  C   UNL A   1      34.629  23.680  25.761  1.00  0.00     0.033 A 
ATOM     15  Cl  UNL A   1      35.972  21.420  25.459  1.00  0.00    -0.084 Cl
ATOM     16  C   UNL A   1      33.495  24.488  25.734  1.00  0.00     0.019 A 
ATOM     17  O   UNL A   1      31.075  24.625  25.661  1.00  0.00    -0.475 OA
ATOM     18  C   UNL A   1      33.639  25.926  25.596  1.00  0.00     0.027 C 
ATOM     19  C   UNL A   1      31.167  26.012  25.206  1.00  0.00     0.316 C 
BRANCH  10  20
ATOM     20  C   UNL A   1      33.063  20.158  25.961  1.00  0.00     0.301 C 
BRANCH  20  21
ATOM     21  N   UNL A   1      33.312  19.365  24.748  1.00  0.00    -0.327 N 
ATOM     22  C   UNL A   1      32.384  20.424  22.703  1.00  0.00     0.075 C 
ATOM     23  C   UNL A   1      32.234  19.321  23.750  1.00  0.00     0.181 C 
ATOM     24  C   UNL A   1      32.329  17.925  23.131  1.00  0.00     0.071 C 
ATOM     25  C   UNL A   1      32.859  17.084  24.273  1.00  0.00     0.071 C 
ATOM     26  C   UNL A   1      33.852  18.016  24.951  1.00  0.00     0.181 C 
ATOM     27  H   UNL A   1      34.057  19.937  24.351  1.00  0.00     0.348 HD
ATOM     28  C   UNL A   1      35.249  17.928  24.335  1.00  0.00     0.075 C 
ENDBRANCH  20  21
ENDBRANCH  10  20
BRANCH  19  29
ATOM     29  C   UNL A   1      30.601  26.140  23.783  1.00  0.00     0.430 C 
ATOM     30  F   UNL A   1      30.080  27.371  23.565  1.00  0.00    -0.167 F 
ATOM     31  F   UNL A   1      31.568  25.961  22.851  1.00  0.00    -0.167 F 
ATOM     32  F   UNL A   1      29.628  25.237  23.533  1.00  0.00    -0.167 F 
ENDBRANCH  19  29
ENDBRANCH   7   9
ENDBRANCH   6   7
ENDBRANCH   5   6
ENDBRANCH   4   5
ENDBRANCH   3   4
ENDBRANCH   2   3
ENDBRANCH   1   2
BRANCH   1  33
ATOM     33  O   UNL A   1      35.379  33.072  29.018  1.00  0.00    -0.376 OA
BRANCH  33  34
ATOM     34  C   UNL A   1      34.632  34.207  28.588  1.00  0.00     0.202 C 
BRANCH  34  35
ATOM     35  C   UNL A   1      33.302  34.544  29.279  1.00  0.00     0.261 C 
BRANCH  35  36
ATOM     36  O   UNL A   1      33.374  35.578  30.273  1.00  0.00    -0.460 OA
BRANCH  36  37
ATOM     37  C   UNL A   1      33.068  35.191  31.539  1.00  0.00     0.338 C 
ATOM     38  O   UNL A   1      31.957  35.126  32.039  1.00  0.00    -0.246 OA
BRANCH  37  39
ATOM     39  C   UNL A   1      34.278  34.650  32.193  1.00  0.00     0.060 A 
ATOM     40  C   UNL A   1      34.245  33.445  32.894  1.00  0.00     0.016 A 
ATOM     41  C   UNL A   1      35.476  35.368  32.072  1.00  0.00     0.016 A 
ATOM     42  C   UNL A   1      35.428  32.940  33.443  1.00  0.00     0.010 A 
ATOM     43  C   UNL A   1      36.652  34.872  32.635  1.00  0.00     0.010 A 
ATOM     44  C   UNL A   1      36.642  33.639  33.299  1.00  0.00    -0.014 A 
BRANCH  44  45
ATOM     45  C   UNL A   1      37.919  32.984  33.673  1.00  0.00     0.031 A 
ATOM     46  C   UNL A   1      38.662  33.338  34.923  1.00  0.00     0.074 A 
ATOM     47  C   UNL A   1      38.405  32.044  32.842  1.00  0.00     0.049 A 
ATOM     48  N   UNL A   1      39.715  32.760  35.439  1.00  0.00    -0.248 NA
ATOM     49  C   UNL A   1      38.166  34.491  35.685  1.00  0.00     0.031 C 
ATOM     50  C   UNL A   1      37.784  31.645  31.578  1.00  0.00     0.029 A 
ATOM     51  N   UNL A   1      39.512  31.241  32.940  1.00  0.00    -0.354 N 
ATOM     52  C   UNL A   1      39.990  33.448  36.613  1.00  0.00     0.074 A 
ATOM     53  C   UNL A   1      39.029  34.531  36.694  1.00  0.00     0.031 C 
ATOM     54  C   UNL A   1      38.491  30.642  31.040  1.00  0.00     0.029 A 
ATOM     55  C   UNL A   1      39.624  30.339  31.911  1.00  0.00     0.049 A 
ATOM     56  H   UNL A   1      40.163  31.305  33.676  1.00  0.00     0.167 HD
ATOM     57  C   UNL A   1      40.940  33.182  37.544  1.00  0.00     0.037 A 
ATOM     58  C   UNL A   1      40.523  29.359  31.700  1.00  0.00     0.037 A 
ATOM     59  C   UNL A   1      41.920  32.129  37.428  1.00  0.00     0.049 A 
ATOM     60  C   UNL A   1      41.605  29.123  32.712  1.00  0.00     0.074 A 
ATOM     61  C   UNL A   1      42.911  31.770  38.325  1.00  0.00     0.029 A 
ATOM     62  N   UNL A   1      42.047  31.277  36.338  1.00  0.00    -0.354 N 
ATOM     63  N   UNL A   1      41.811  29.735  33.854  1.00  0.00    -0.248 NA
ATOM     64  C   UNL A   1      42.576  28.064  32.410  1.00  0.00     0.031 C 
ATOM     65  C   UNL A   1      43.666  30.737  37.759  1.00  0.00     0.029 A 
ATOM     66  C   UNL A   1      43.118  30.415  36.528  1.00  0.00     0.049 A 
ATOM     67  H   UNL A   1      41.463  31.283  35.547  1.00  0.00     0.167 HD
ATOM     68  C   UNL A   1      42.926  29.124  34.416  1.00  0.00     0.074 A 
ATOM     69  C   UNL A   1      43.343  28.088  33.493  1.00  0.00     0.031 C 
ATOM     70  C   UNL A   1      43.543  29.399  35.593  1.00  0.00     0.037 A 
BRANCH  57  71
ATOM     71  C   UNL A   1      40.957  34.048  38.775  1.00  0.00     0.058 A 
ATOM     72  C   UNL A   1      40.354  33.623  39.971  1.00  0.00     0.135 A 
ATOM     73  C   UNL A   1      41.592  35.300  38.775  1.00  0.00     0.135 A 
ATOM     74  F   UNL A   1      39.728  32.437  40.028  1.00  0.00    -0.206 F 
ATOM     75  C   UNL A   1      40.340  34.426  41.107  1.00  0.00     0.059 A 
ATOM     76  C   UNL A   1      41.615  36.110  39.908  1.00  0.00     0.059 A 
ATOM     77  F   UNL A   1      42.193  35.753  37.663  1.00  0.00    -0.206 F 
ATOM     78  C   UNL A   1      40.967  35.672  41.062  1.00  0.00     0.060 A 
BRANCH  78  79
ATOM     79  S   UNL A   1      40.901  36.718  42.532  1.00  0.00     0.124 S 
ATOM     80  O   UNL A   1      41.773  35.987  43.447  1.00  0.00    -0.237 OA
ATOM     81  O   UNL A   1      41.426  37.987  42.037  1.00  0.00    -0.237 OA
ATOM     82  O   UNL A   1      39.485  36.723  42.885  1.00  0.00    -0.744 OA
ENDBRANCH  78  79
ENDBRANCH  57  71
BRANCH  58  83
ATOM     83  C   UNL A   1      40.369  28.488  30.509  1.00  0.00     0.058 A 
ATOM     84  C   UNL A   1      41.228  28.626  29.410  1.00  0.00     0.135 A 
ATOM     85  C   UNL A   1      39.432  27.443  30.484  1.00  0.00     0.135 A 
ATOM     86  F   UNL A   1      42.136  29.614  29.390  1.00  0.00    -0.206 F 
ATOM     87  C   UNL A   1      41.178  27.749  28.334  1.00  0.00     0.059 A 
ATOM     88  C   UNL A   1      39.376  26.539  29.428  1.00  0.00     0.059 A 
ATOM     89  F   UNL A   1      38.601  27.260  31.522  1.00  0.00    -0.206 F 
ATOM     90  C   UNL A   1      40.258  26.698  28.359  1.00  0.00     0.060 A 
BRANCH  90  91
ATOM     91  S   UNL A   1      40.281  25.504  27.005  1.00  0.00     0.124 S 
ATOM     92  O   UNL A   1      38.913  24.998  27.036  1.00  0.00    -0.237 OA
ATOM     93  O   UNL A   1      40.624  26.348  25.865  1.00  0.00    -0.237 OA
ATOM     94  O   UNL A   1      41.314  24.556  27.409  1.00  0.00    -0.744 OA
ENDBRANCH  90  91
ENDBRANCH  58  83
BRANCH  70  95
ATOM     95  C   UNL A   1      44.748  28.572  35.952  1.00  0.00     0.058 A 
ATOM     96  C   UNL A   1      44.623  27.363  36.655  1.00  0.00     0.135 A 
ATOM     97  C   UNL A   1      46.032  28.959  35.539  1.00  0.00     0.135 A 
ATOM     98  F   UNL A   1      43.420  26.951  37.083  1.00  0.00    -0.206 F 
ATOM     99  C   UNL A   1      45.732  26.573  36.945  1.00  0.00     0.059 A 
ATOM    100  C   UNL A   1      47.152  28.173  35.797  1.00  0.00     0.059 A 
ATOM    101  F   UNL A   1      46.207  30.105  34.860  1.00  0.00    -0.206 F 
ATOM    102  C   UNL A   1      46.991  26.984  36.506  1.00  0.00     0.060 A 
BRANCH 102 103
ATOM    103  S   UNL A   1      48.412  25.923  36.849  1.00  0.00     0.124 S 
ATOM    104  O   UNL A   1      48.308  24.934  35.781  1.00  0.00    -0.237 OA
ATOM    105  O   UNL A   1      49.530  26.856  36.741  1.00  0.00    -0.237 OA
ATOM    106  O   UNL A   1      48.148  25.424  38.195  1.00  0.00    -0.744 OA
ENDBRANCH 102 103
ENDBRANCH  70  95
ENDBRANCH  44  45
ENDBRANCH  37  39
ENDBRANCH  36  37
ENDBRANCH  35  36
ENDBRANCH  34  35
ENDBRANCH  33  34
ENDBRANCH   1  33
TORSDOF 23
ENDMDL
MODEL 2
REMARK VINA RESULT:     -10.0      3.046      9.301
REMARK SMILES C[C@@H]1CC[C@H](C)[N@H+]1Cc1cc2c(cc1Cl)C=C(C(=O)OCCOCCOCCOC(=O)c1ccc(-c3c4nc(c(-c5c(F)cc(S(=O)(=O)[O-])cc5F)c5ccc([nH]5)c(-c5c(F)cc(S(=O)(=O)[O-])cc5F)c5nc(c(-c6c(F)cc(S(=O)(=O)[O-])cc6F)c6ccc3[nH]6)C=C5)C=C4)cc1)[C@@H](C(F)(F)F)O2
REMARK SMILES IDX 25 1 24 2 23 3 22 4 21 5 20 6 18 7 19 8 17 9 9 10 10 11
REMARK SMILES IDX 14 12 11 13 13 14 15 15 12 16 103 17 16 18 98 19 8 20 7 21
REMARK SMILES IDX 6 22 5 23 4 24 3 25 2 26 1 28 99 29 100 30 101 31 102 32
REMARK SMILES IDX 26 33 27 34 28 35 29 36 30 37 31 38 32 39 33 40 97 41 34 42
REMARK SMILES IDX 96 43 35 44 36 45 37 46 90 47 38 48 95 49 89 50 91 51 39 52
REMARK SMILES IDX 94 53 88 54 87 55 40 57 74 58 53 59 73 60 54 61 57 62 72 63
REMARK SMILES IDX 92 64 55 65 56 66 71 68 93 69 58 70 41 71 42 72 51 73 43 74
REMARK SMILES IDX 44 75 50 76 52 77 45 78 46 79 47 80 48 81 49 82 75 83 76 84
REMARK SMILES IDX 85 85 77 86 78 87 84 88 86 89 79 90 80 91 81 92 82 93 83 94
REMARK SMILES IDX 59 95 60 96 69 97 61 98 62 99 68 100 70 101 63 102 64 103
REMARK SMILES IDX 65 104 66 105 67 106
REMARK H PARENT 7 27 91 56 57 67
REMARK Flexibility Score: inf
ROOT
ATOM      1  C   UNL A   1      42.116  20.811  27.362  1.00  0.00     0.188 C 
ENDROOT
BRANCH   1   2
ATOM      2  C   UNL A   1      41.025  19.738  27.156  1.00  0.00     0.188 C 
BRANCH   2   3
ATOM      3  O   UNL A   1      40.690  19.545  25.793  1.00  0.00    -0.376 OA
BRANCH   3   4
ATOM      4  C   UNL A   1      39.332  19.729  25.429  1.00  0.00     0.202 C 
BRANCH   4   5
ATOM      5  C   UNL A   1      38.695  21.108  25.680  1.00  0.00     0.261 C 
BRANCH   5   6
ATOM      6  O   UNL A   1      37.671  21.499  24.750  1.00  0.00    -0.460 OA
BRANCH   6   7
ATOM      7  C   UNL A   1      36.511  20.813  24.804  1.00  0.00     0.338 C 
ATOM      8  O   UNL A   1      36.391  19.616  25.009  1.00  0.00    -0.246 OA
BRANCH   7   9
ATOM      9  C   UNL A   1      35.377  21.758  24.708  1.00  0.00     0.087 C 
ATOM     10  C   UNL A   1      32.367  25.789  25.112  1.00  0.00     0.029 A 
ATOM     11  C   UNL A   1      32.209  24.485  24.582  1.00  0.00     0.058 A 
ATOM     12  C   UNL A   1      33.636  26.130  25.611  1.00  0.00     0.050 A 
ATOM     13  C   UNL A   1      33.273  23.574  24.551  1.00  0.00     0.128 A 
ATOM     14  C   UNL A   1      34.722  25.259  25.476  1.00  0.00     0.033 A 
ATOM     15  Cl  UNL A   1      33.938  27.540  26.564  1.00  0.00    -0.084 Cl
ATOM     16  C   UNL A   1      34.540  23.976  24.966  1.00  0.00     0.019 A 
ATOM     17  O   UNL A   1      33.005  22.305  24.109  1.00  0.00    -0.475 OA
ATOM     18  C   UNL A   1      35.654  23.045  24.949  1.00  0.00     0.027 C 
ATOM     19  C   UNL A   1      33.994  21.261  24.372  1.00  0.00     0.316 C 
BRANCH  10  20
ATOM     20  C   UNL A   1      31.157  26.712  25.188  1.00  0.00     0.301 C 
BRANCH  20  21
ATOM     21  N   UNL A   1      31.045  27.809  24.216  1.00  0.00    -0.327 N 
ATOM     22  C   UNL A   1      32.100  29.910  25.015  1.00  0.00     0.075 C 
ATOM     23  C   UNL A   1      30.797  29.153  24.756  1.00  0.00     0.181 C 
ATOM     24  C   UNL A   1      29.930  29.846  23.703  1.00  0.00     0.071 C 
ATOM     25  C   UNL A   1      29.148  28.699  23.102  1.00  0.00     0.071 C 
ATOM     26  C   UNL A   1      30.168  27.571  23.063  1.00  0.00     0.181 C 
ATOM     27  H   UNL A   1      32.007  27.801  23.876  1.00  0.00     0.348 HD
ATOM     28  C   UNL A   1      31.000  27.580  21.780  1.00  0.00     0.075 C 
ENDBRANCH  20  21
ENDBRANCH  10  20
BRANCH  19  29
ATOM     29  C   UNL A   1      33.472  20.297  25.448  1.00  0.00     0.430 C 
ATOM     30  F   UNL A   1      33.835  19.018  25.188  1.00  0.00    -0.167 F 
ATOM     31  F   UNL A   1      33.978  20.600  26.668  1.00  0.00    -0.167 F 
ATOM     32  F   UNL A   1      32.125  20.323  25.552  1.00  0.00    -0.167 F 
ENDBRANCH  19  29
ENDBRANCH   7   9
ENDBRANCH   6   7
ENDBRANCH   5   6
ENDBRANCH   4   5
ENDBRANCH   3   4
ENDBRANCH   2   3
ENDBRANCH   1   2
BRANCH   1  33
ATOM     33  O   UNL A   1      43.006  21.135  26.298  1.00  0.00    -0.376 OA
BRANCH  33  34
ATOM     34  C   UNL A   1      42.705  22.247  25.460  1.00  0.00     0.202 C 
BRANCH  34  35
ATOM     35  C   UNL A   1      42.931  23.673  25.986  1.00  0.00     0.261 C 
BRANCH  35  36
ATOM     36  O   UNL A   1      41.753  24.492  26.058  1.00  0.00    -0.460 OA
BRANCH  36  37
ATOM     37  C   UNL A   1      41.956  25.822  25.872  1.00  0.00     0.338 C 
ATOM     38  O   UNL A   1      41.991  26.418  24.808  1.00  0.00    -0.246 OA
BRANCH  37  39
ATOM     39  C   UNL A   1      41.927  26.511  27.180  1.00  0.00     0.060 A 
ATOM     40  C   UNL A   1      42.736  27.618  27.433  1.00  0.00     0.016 A 
ATOM     41  C   UNL A   1      41.043  26.037  28.161  1.00  0.00     0.016 A 
ATOM     42  C   UNL A   1      42.629  28.276  28.663  1.00  0.00     0.010 A 
ATOM     43  C   UNL A   1      40.951  26.684  29.393  1.00  0.00     0.010 A 
ATOM     44  C   UNL A   1      41.721  27.827  29.641  1.00  0.00    -0.014 A 
BRANCH  44  45
ATOM     45  C   UNL A   1      41.447  28.664  30.834  1.00  0.00     0.031 A 
ATOM     46  C   UNL A   1      42.312  28.625  32.054  1.00  0.00     0.074 A 
ATOM     47  C   UNL A   1      40.376  29.479  30.792  1.00  0.00     0.049 A 
ATOM     48  N   UNL A   1      42.269  29.392  33.112  1.00  0.00    -0.248 NA
ATOM     49  C   UNL A   1      43.352  27.589  32.096  1.00  0.00     0.031 C 
ATOM     50  C   UNL A   1      39.442  29.572  29.669  1.00  0.00     0.029 A 
ATOM     51  N   UNL A   1      39.905  30.393  31.698  1.00  0.00    -0.354 N 
ATOM     52  C   UNL A   1      43.301  28.964  33.936  1.00  0.00     0.074 A 
ATOM     53  C   UNL A   1      43.910  27.823  33.279  1.00  0.00     0.031 C 
ATOM     54  C   UNL A   1      38.537  30.525  29.930  1.00  0.00     0.029 A 
ATOM     55  C   UNL A   1      38.815  31.096  31.246  1.00  0.00     0.049 A 
ATOM     56  H   UNL A   1      40.307  30.532  32.585  1.00  0.00     0.167 HD
ATOM     57  C   UNL A   1      43.714  29.492  35.114  1.00  0.00     0.037 A 
ATOM     58  C   UNL A   1      38.128  32.106  31.813  1.00  0.00     0.037 A 
ATOM     59  C   UNL A   1      43.070  30.599  35.780  1.00  0.00     0.049 A 
ATOM     60  C   UNL A   1      38.563  32.632  33.149  1.00  0.00     0.074 A 
ATOM     61  C   UNL A   1      43.424  31.216  36.968  1.00  0.00     0.029 A 
ATOM     62  N   UNL A   1      41.926  31.243  35.327  1.00  0.00    -0.354 N 
ATOM     63  N   UNL A   1      39.586  32.267  33.883  1.00  0.00    -0.248 NA
ATOM     64  C   UNL A   1      37.753  33.710  33.732  1.00  0.00     0.031 C 
ATOM     65  C   UNL A   1      42.468  32.197  37.257  1.00  0.00     0.029 A 
ATOM     66  C   UNL A   1      41.544  32.228  36.226  1.00  0.00     0.049 A 
ATOM     67  H   UNL A   1      41.454  31.031  34.489  1.00  0.00     0.167 HD
ATOM     68  C   UNL A   1      39.553  33.080  35.010  1.00  0.00     0.074 A 
ATOM     69  C   UNL A   1      38.416  33.964  34.854  1.00  0.00     0.031 C 
ATOM     70  C   UNL A   1      40.395  33.091  36.074  1.00  0.00     0.037 A 
BRANCH  57  71
ATOM     71  C   UNL A   1      44.928  28.875  35.756  1.00  0.00     0.058 A 
ATOM     72  C   UNL A   1      46.222  29.328  35.449  1.00  0.00     0.135 A 
ATOM     73  C   UNL A   1      44.807  27.840  36.697  1.00  0.00     0.135 A 
ATOM     74  F   UNL A   1      46.399  30.312  34.552  1.00  0.00    -0.206 F 
ATOM     75  C   UNL A   1      47.352  28.748  36.015  1.00  0.00     0.059 A 
ATOM     76  C   UNL A   1      45.922  27.262  37.298  1.00  0.00     0.059 A 
ATOM     77  F   UNL A   1      43.594  27.374  37.037  1.00  0.00    -0.206 F 
ATOM     78  C   UNL A   1      47.192  27.709  36.933  1.00  0.00     0.060 A 
BRANCH  78  79
ATOM     79  S   UNL A   1      48.671  26.939  37.625  1.00  0.00     0.124 S 
ATOM     80  O   UNL A   1      48.149  25.648  38.060  1.00  0.00    -0.237 OA
ATOM     81  O   UNL A   1      49.570  26.903  36.476  1.00  0.00    -0.237 OA
ATOM     82  O   UNL A   1      49.062  27.851  38.695  1.00  0.00    -0.744 OA
ENDBRANCH  78  79
ENDBRANCH  57  71
BRANCH  58  83
ATOM     83  C   UNL A   1      37.006  32.721  31.062  1.00  0.00     0.058 A 
ATOM     84  C   UNL A   1      37.259  33.614  30.011  1.00  0.00     0.135 A 
ATOM     85  C   UNL A   1      35.673  32.356  31.310  1.00  0.00     0.135 A 
ATOM     86  F   UNL A   1      38.517  33.993  29.741  1.00  0.00    -0.206 F 
ATOM     87  C   UNL A   1      36.231  34.112  29.219  1.00  0.00     0.059 A 
ATOM     88  C   UNL A   1      34.630  32.826  30.517  1.00  0.00     0.059 A 
ATOM     89  F   UNL A   1      35.386  31.490  32.293  1.00  0.00    -0.206 F 
ATOM     90  C   UNL A   1      34.921  33.700  29.470  1.00  0.00     0.060 A 
BRANCH  90  91
ATOM     91  S   UNL A   1      33.613  34.271  28.364  1.00  0.00     0.124 S 
ATOM     92  O   UNL A   1      33.269  33.043  27.656  1.00  0.00    -0.237 OA
ATOM     93  O   UNL A   1      32.615  34.766  29.307  1.00  0.00    -0.237 OA
ATOM     94  O   UNL A   1      34.274  35.298  27.564  1.00  0.00    -0.744 OA
ENDBRANCH  90  91
ENDBRANCH  58  83
BRANCH  70  95
ATOM     95  C   UNL A   1      40.115  34.087  37.167  1.00  0.00     0.058 A 
ATOM     96  C   UNL A   1      40.512  35.429  37.054  1.00  0.00     0.135 A 
ATOM     97  C   UNL A   1      39.392  33.714  38.310  1.00  0.00     0.135 A 
ATOM     98  F   UNL A   1      41.217  35.838  35.987  1.00  0.00    -0.206 F 
ATOM     99  C   UNL A   1      40.212  36.363  38.042  1.00  0.00     0.059 A 
ATOM    100  C   UNL A   1      39.058  34.635  39.299  1.00  0.00     0.059 A 
ATOM    101  F   UNL A   1      38.983  32.444  38.467  1.00  0.00    -0.206 F 
ATOM    102  C   UNL A   1      39.478  35.957  39.158  1.00  0.00     0.060 A 
BRANCH 102 103
ATOM    103  S   UNL A   1      39.055  37.191  40.407  1.00  0.00     0.124 S 
ATOM    104  O   UNL A   1      38.417  38.224  39.597  1.00  0.00    -0.237 OA
ATOM    105  O   UNL A   1      38.168  36.445  41.293  1.00  0.00    -0.237 OA
ATOM    106  O   UNL A   1      40.347  37.552  40.981  1.00  0.00    -0.744 OA
ENDBRANCH 102 103
ENDBRANCH  70  95
ENDBRANCH  44  45
ENDBRANCH  37  39
ENDBRANCH  36  37
ENDBRANCH  35  36
ENDBRANCH  34  35
ENDBRANCH  33  34
ENDBRANCH   1  33
TORSDOF 23
ENDMDL
MODEL 3
REMARK VINA RESULT:      -9.9      3.030      9.211
REMARK SMILES C[C@@H]1CC[C@H](C)[N@H+]1Cc1cc2c(cc1Cl)C=C(C(=O)OCCOCCOCCOC(=O)c1ccc(-c3c4nc(c(-c5c(F)cc(S(=O)(=O)[O-])cc5F)c5ccc([nH]5)c(-c5c(F)cc(S(=O)(=O)[O-])cc5F)c5nc(c(-c6c(F)cc(S(=O)(=O)[O-])cc6F)c6ccc3[nH]6)C=C5)C=C4)cc1)[C@@H](C(F)(F)F)O2
REMARK SMILES IDX 25 1 24 2 23 3 22 4 21 5 20 6 18 7 19 8 17 9 9 10 10 11
REMARK SMILES IDX 14 12 11 13 13 14 15 15 12 16 103 17 16 18 98 19 8 20 7 21
REMARK SMILES IDX 6 22 5 23 4 24 3 25 2 26 1 28 99 29 100 30 101 31 102 32
REMARK SMILES IDX 26 33 27 34 28 35 29 36 30 37 31 38 32 39 33 40 97 41 34 42
REMARK SMILES IDX 96 43 35 44 36 45 37 46 90 47 38 48 95 49 89 50 91 51 39 52
REMARK SMILES IDX 94 53 88 54 87 55 40 57 74 58 53 59 73 60 54 61 57 62 72 63
REMARK SMILES IDX 92 64 55 65 56 66 71 68 93 69 58 70 41 71 42 72 51 73 43 74
REMARK SMILES IDX 44 75 50 76 52 77 45 78 46 79 47 80 48 81 49 82 75 83 76 84
REMARK SMILES IDX 85 85 77 86 78 87 84 88 86 89 79 90 80 91 81 92 82 93 83 94
REMARK SMILES IDX 59 95 60 96 69 97 61 98 62 99 68 100 70 101 63 102 64 103
REMARK SMILES IDX 65 104 66 105 67 106
REMARK H PARENT 7 27 91 56 57 67
REMARK Flexibility Score: inf
ROOT
ATOM      1  C   UNL A   1      41.086  21.055  26.908  1.00  0.00     0.188 C 
ENDROOT
BRANCH   1   2
ATOM      2  C   UNL A   1      39.661  20.737  26.408  1.00  0.00     0.188 C 
BRANCH   2   3
ATOM      3  O   UNL A   1      39.232  21.605  25.373  1.00  0.00    -0.376 OA
BRANCH   3   4
ATOM      4  C   UNL A   1      37.834  21.794  25.225  1.00  0.00     0.202 C 
BRANCH   4   5
ATOM      5  C   UNL A   1      37.236  23.146  25.652  1.00  0.00     0.261 C 
BRANCH   5   6
ATOM      6  O   UNL A   1      35.972  23.484  25.056  1.00  0.00    -0.460 OA
BRANCH   6   7
ATOM      7  C   UNL A   1      34.897  23.470  25.872  1.00  0.00     0.338 C 
ATOM      8  O   UNL A   1      34.713  22.708  26.807  1.00  0.00    -0.246 OA
BRANCH   7   9
ATOM      9  C   UNL A   1      34.019  24.615  25.546  1.00  0.00     0.087 C 
ATOM     10  C   UNL A   1      31.914  29.193  25.261  1.00  0.00     0.029 A 
ATOM     11  C   UNL A   1      31.564  27.911  24.772  1.00  0.00     0.058 A 
ATOM     12  C   UNL A   1      33.134  29.307  25.949  1.00  0.00     0.050 A 
ATOM     13  C   UNL A   1      32.402  26.803  24.959  1.00  0.00     0.128 A 
ATOM     14  C   UNL A   1      34.017  28.225  26.036  1.00  0.00     0.033 A 
ATOM     15  Cl  UNL A   1      33.580  30.697  26.874  1.00  0.00    -0.084 Cl
ATOM     16  C   UNL A   1      33.646  26.970  25.561  1.00  0.00     0.019 A 
ATOM     17  O   UNL A   1      31.940  25.584  24.536  1.00  0.00    -0.475 OA
ATOM     18  C   UNL A   1      34.524  25.833  25.772  1.00  0.00     0.027 C 
ATOM     19  C   UNL A   1      32.631  24.384  25.007  1.00  0.00     0.316 C 
BRANCH  10  20
ATOM     20  C   UNL A   1      30.932  30.346  25.094  1.00  0.00     0.301 C 
BRANCH  20  21
ATOM     21  N   UNL A   1      30.178  30.452  23.835  1.00  0.00    -0.327 N 
ATOM     22  C   UNL A   1      29.098  32.670  23.550  1.00  0.00     0.075 C 
ATOM     23  C   UNL A   1      28.908  31.189  23.882  1.00  0.00     0.181 C 
ATOM     24  C   UNL A   1      28.007  30.484  22.867  1.00  0.00     0.071 C 
ATOM     25  C   UNL A   1      28.495  29.053  22.918  1.00  0.00     0.071 C 
ATOM     26  C   UNL A   1      30.000  29.210  23.075  1.00  0.00     0.181 C 
ATOM     27  H   UNL A   1      30.838  31.035  23.320  1.00  0.00     0.348 HD
ATOM     28  C   UNL A   1      30.718  29.328  21.730  1.00  0.00     0.075 C 
ENDBRANCH  20  21
ENDBRANCH  10  20
BRANCH  19  29
ATOM     29  C   UNL A   1      31.756  23.635  26.023  1.00  0.00     0.430 C 
ATOM     30  F   UNL A   1      31.859  22.293  25.872  1.00  0.00    -0.167 F 
ATOM     31  F   UNL A   1      32.133  23.909  27.295  1.00  0.00    -0.167 F 
ATOM     32  F   UNL A   1      30.448  23.956  25.912  1.00  0.00    -0.167 F 
ENDBRANCH  19  29
ENDBRANCH   7   9
ENDBRANCH   6   7
ENDBRANCH   5   6
ENDBRANCH   4   5
ENDBRANCH   3   4
ENDBRANCH   2   3
ENDBRANCH   1   2
BRANCH   1  33
ATOM     33  O   UNL A   1      42.155  21.184  25.977  1.00  0.00    -0.376 OA
BRANCH  33  34
ATOM     34  C   UNL A   1      42.475  22.476  25.469  1.00  0.00     0.202 C 
BRANCH  34  35
ATOM     35  C   UNL A   1      42.342  23.704  26.383  1.00  0.00     0.261 C 
BRANCH  35  36
ATOM     36  O   UNL A   1      41.165  24.499  26.172  1.00  0.00    -0.460 OA
BRANCH  36  37
ATOM     37  C   UNL A   1      41.380  25.834  26.039  1.00  0.00     0.338 C 
ATOM     38  O   UNL A   1      41.435  26.469  24.999  1.00  0.00    -0.246 OA
BRANCH  37  39
ATOM     39  C   UNL A   1      41.339  26.473  27.371  1.00  0.00     0.060 A 
ATOM     40  C   UNL A   1      42.304  27.401  27.760  1.00  0.00     0.016 A 
ATOM     41  C   UNL A   1      40.284  26.141  28.234  1.00  0.00     0.016 A 
ATOM     42  C   UNL A   1      42.189  28.026  29.006  1.00  0.00     0.010 A 
ATOM     43  C   UNL A   1      40.180  26.754  29.483  1.00  0.00     0.010 A 
ATOM     44  C   UNL A   1      41.116  27.723  29.865  1.00  0.00    -0.014 A 
BRANCH  44  45
ATOM     45  C   UNL A   1      40.874  28.558  31.067  1.00  0.00     0.031 A 
ATOM     46  C   UNL A   1      41.707  28.438  32.303  1.00  0.00     0.074 A 
ATOM     47  C   UNL A   1      39.863  29.445  31.018  1.00  0.00     0.049 A 
ATOM     48  N   UNL A   1      41.694  29.189  33.375  1.00  0.00    -0.248 NA
ATOM     49  C   UNL A   1      42.672  27.333  32.349  1.00  0.00     0.031 C 
ATOM     50  C   UNL A   1      38.961  29.621  29.877  1.00  0.00     0.029 A 
ATOM     51  N   UNL A   1      39.436  30.374  31.930  1.00  0.00    -0.354 N 
ATOM     52  C   UNL A   1      42.677  28.677  34.211  1.00  0.00     0.074 A 
ATOM     53  C   UNL A   1      43.220  27.508  33.546  1.00  0.00     0.031 C 
ATOM     54  C   UNL A   1      38.118  30.629  30.138  1.00  0.00     0.029 A 
ATOM     55  C   UNL A   1      38.406  31.158  31.469  1.00  0.00     0.049 A 
ATOM     56  H   UNL A   1      39.827  30.470  32.828  1.00  0.00     0.167 HD
ATOM     57  C   UNL A   1      43.099  29.156  35.407  1.00  0.00     0.037 A 
ATOM     58  C   UNL A   1      37.778  32.203  32.040  1.00  0.00     0.037 A 
ATOM     59  C   UNL A   1      42.518  30.293  36.079  1.00  0.00     0.049 A 
ATOM     60  C   UNL A   1      38.219  32.676  33.393  1.00  0.00     0.074 A 
ATOM     61  C   UNL A   1      42.887  30.865  37.285  1.00  0.00     0.029 A 
ATOM     62  N   UNL A   1      41.430  31.022  35.614  1.00  0.00    -0.354 N 
ATOM     63  N   UNL A   1      39.198  32.229  34.142  1.00  0.00    -0.248 NA
ATOM     64  C   UNL A   1      37.473  33.797  33.979  1.00  0.00     0.031 C 
ATOM     65  C   UNL A   1      41.995  31.904  37.572  1.00  0.00     0.029 A 
ATOM     66  C   UNL A   1      41.098  32.016  36.523  1.00  0.00     0.049 A 
ATOM     67  H   UNL A   1      40.964  30.858  34.764  1.00  0.00     0.167 HD
ATOM     68  C   UNL A   1      39.197  33.024  35.282  1.00  0.00     0.074 A 
ATOM     69  C   UNL A   1      38.127  33.986  35.119  1.00  0.00     0.031 C 
ATOM     70  C   UNL A   1      40.015  32.959  36.364  1.00  0.00     0.037 A 
BRANCH  57  71
ATOM     71  C   UNL A   1      44.254  28.447  36.063  1.00  0.00     0.058 A 
ATOM     72  C   UNL A   1      45.561  28.952  35.976  1.00  0.00     0.135 A 
ATOM     73  C   UNL A   1      44.059  27.266  36.798  1.00  0.00     0.135 A 
ATOM     74  F   UNL A   1      45.807  30.075  35.282  1.00  0.00    -0.206 F 
ATOM     75  C   UNL A   1      46.640  28.291  36.555  1.00  0.00     0.059 A 
ATOM     76  C   UNL A   1      45.119  26.601  37.409  1.00  0.00     0.059 A 
ATOM     77  F   UNL A   1      42.829  26.742  36.922  1.00  0.00    -0.206 F 
ATOM     78  C   UNL A   1      46.409  27.111  37.263  1.00  0.00     0.060 A 
BRANCH  78  79
ATOM     79  S   UNL A   1      47.826  26.244  37.969  1.00  0.00     0.124 S 
ATOM     80  O   UNL A   1      47.234  24.955  38.316  1.00  0.00    -0.237 OA
ATOM     81  O   UNL A   1      48.769  26.227  36.856  1.00  0.00    -0.237 OA
ATOM     82  O   UNL A   1      48.210  27.082  39.101  1.00  0.00    -0.744 OA
ENDBRANCH  78  79
ENDBRANCH  57  71
BRANCH  58  83
ATOM     83  C   UNL A   1      36.717  32.907  31.277  1.00  0.00     0.058 A 
ATOM     84  C   UNL A   1      37.037  33.996  30.454  1.00  0.00     0.135 A 
ATOM     85  C   UNL A   1      35.391  32.447  31.275  1.00  0.00     0.135 A 
ATOM     86  F   UNL A   1      38.291  34.471  30.427  1.00  0.00    -0.206 F 
ATOM     87  C   UNL A   1      36.082  34.596  29.642  1.00  0.00     0.059 A 
ATOM     88  C   UNL A   1      34.423  33.019  30.456  1.00  0.00     0.059 A 
ATOM     89  F   UNL A   1      35.044  31.395  32.033  1.00  0.00    -0.206 F 
ATOM     90  C   UNL A   1      34.781  34.090  29.638  1.00  0.00     0.060 A 
BRANCH  90  91
ATOM     91  S   UNL A   1      33.582  34.812  28.497  1.00  0.00     0.124 S 
ATOM     92  O   UNL A   1      32.608  35.387  29.418  1.00  0.00    -0.237 OA
ATOM     93  O   UNL A   1      34.403  35.765  27.758  1.00  0.00    -0.237 OA
ATOM     94  O   UNL A   1      33.118  33.662  27.725  1.00  0.00    -0.744 OA
ENDBRANCH  90  91
ENDBRANCH  58  83
BRANCH  70  95
ATOM     95  C   UNL A   1      39.779  33.954  37.468  1.00  0.00     0.058 A 
ATOM     96  C   UNL A   1      38.984  33.638  38.581  1.00  0.00     0.135 A 
ATOM     97  C   UNL A   1      40.402  35.212  37.445  1.00  0.00     0.135 A 
ATOM     98  F   UNL A   1      38.356  32.454  38.649  1.00  0.00    -0.206 F 
ATOM     99  C   UNL A   1      38.804  34.540  39.626  1.00  0.00     0.059 A 
ATOM    100  C   UNL A   1      40.257  36.120  38.490  1.00  0.00     0.059 A 
ATOM    101  F   UNL A   1      41.177  35.563  36.406  1.00  0.00    -0.206 F 
ATOM    102  C   UNL A   1      39.451  35.776  39.574  1.00  0.00     0.060 A 
BRANCH 102 103
ATOM    103  S   UNL A   1      39.247  36.915  40.961  1.00  0.00     0.124 S 
ATOM    104  O   UNL A   1      38.491  36.098  41.906  1.00  0.00    -0.237 OA
ATOM    105  O   UNL A   1      40.628  37.199  41.336  1.00  0.00    -0.237 OA
ATOM    106  O   UNL A   1      38.518  38.036  40.378  1.00  0.00    -0.744 OA
ENDBRANCH 102 103
ENDBRANCH  70  95
ENDBRANCH  44  45
ENDBRANCH  37  39
ENDBRANCH  36  37
ENDBRANCH  35  36
ENDBRANCH  34  35
ENDBRANCH  33  34
ENDBRANCH   1  33
TORSDOF 23
ENDMDL
