MODEL 1
REMARK VINA RESULT:     -11.3      0.000      0.000
REMARK SMILES O=C(Cn1c2c(sc1=O)C[C@H](c1ccccc1)CC2)OCCOCCOCCOC(=O)c1ccc(-c2c3nc(c(-c4c(F)cc(S(=O)(=O)[O-])cc4F)c4ccc([nH]4)c(-c4c(F)cc(S(=O)(=O)[O-])cc4F)c4nc(c(-c5c(F)cc(S(=O)(=O)[O-])cc5F)c5ccc2[nH]5)C=C4)C=C3)cc1
REMARK SMILES IDX 25 1 24 2 23 3 22 4 21 5 20 6 2 7 1 8 3 9 4 10 5 11 8 12
REMARK SMILES IDX 6 13 19 14 7 15 9 16 10 17 18 18 11 19 12 20 13 21 17 22
REMARK SMILES IDX 14 23 16 24 15 25 26 26 27 27 28 28 29 29 30 30 31 31 32 32
REMARK SMILES IDX 33 33 97 34 34 35 96 36 35 37 36 38 37 39 90 40 38 41 95 42
REMARK SMILES IDX 89 43 91 44 39 45 94 46 88 47 87 48 40 50 74 51 53 52 73 53
REMARK SMILES IDX 54 54 57 55 72 56 92 57 55 58 56 59 71 61 93 62 58 63 41 64
REMARK SMILES IDX 42 65 51 66 43 67 44 68 50 69 52 70 45 71 46 72 47 73 48 74
REMARK SMILES IDX 49 75 75 76 76 77 85 78 77 79 78 80 84 81 86 82 79 83 80 84
REMARK SMILES IDX 81 85 82 86 83 87 59 88 60 89 69 90 61 91 62 92 68 93 70 94
REMARK SMILES IDX 63 95 64 96 65 97 66 98 67 99
REMARK H PARENT 91 49 57 60
REMARK Flexibility Score: inf
ROOT
ATOM      1  C   UNL A   1      42.465  19.046  26.386  1.00  0.00     0.188 C 
ENDROOT
BRANCH   1   2
ATOM      2  C   UNL A   1      41.277  19.950  26.822  1.00  0.00     0.188 C 
BRANCH   2   3
ATOM      3  O   UNL A   1      40.902  21.119  26.097  1.00  0.00    -0.376 OA
BRANCH   3   4
ATOM      4  C   UNL A   1      39.954  22.022  26.631  1.00  0.00     0.202 C 
BRANCH   4   5
ATOM      5  C   UNL A   1      38.537  22.037  26.069  1.00  0.00     0.261 C 
BRANCH   5   6
ATOM      6  O   UNL A   1      37.922  23.321  25.830  1.00  0.00    -0.462 OA
BRANCH   6   7
ATOM      7  C   UNL A   1      36.605  23.562  25.677  1.00  0.00     0.326 C 
ATOM      8  O   UNL A   1      36.129  24.651  25.994  1.00  0.00    -0.250 OA
BRANCH   7   9
ATOM      9  C   UNL A   1      35.750  22.440  25.160  1.00  0.00     0.249 C 
BRANCH   9  10
ATOM     10  N   UNL A   1      34.609  22.726  24.314  1.00  0.00    -0.292 N 
ATOM     11  C   UNL A   1      33.260  22.821  24.658  1.00  0.00     0.036 A 
ATOM     12  C   UNL A   1      34.894  22.999  22.980  1.00  0.00     0.308 A 
ATOM     13  C   UNL A   1      32.497  23.217  23.629  1.00  0.00     0.030 A 
ATOM     14  C   UNL A   1      32.674  22.621  26.031  1.00  0.00     0.056 C 
ATOM     15  S   UNL A   1      33.394  23.421  22.163  1.00  0.00    -0.079 S 
ATOM     16  O   UNL A   1      35.989  22.977  22.427  1.00  0.00    -0.257 OA
ATOM     17  C   UNL A   1      31.054  23.572  23.751  1.00  0.00     0.057 C 
ATOM     18  C   UNL A   1      31.200  23.049  26.181  1.00  0.00     0.015 C 
ATOM     19  C   UNL A   1      30.730  24.122  25.167  1.00  0.00     0.025 C 
BRANCH  19  20
ATOM     20  C   UNL A   1      31.206  25.568  25.375  1.00  0.00    -0.045 A 
ATOM     21  C   UNL A   1      32.268  25.824  26.265  1.00  0.00     0.004 A 
ATOM     22  C   UNL A   1      30.685  26.670  24.683  1.00  0.00     0.004 A 
ATOM     23  C   UNL A   1      32.718  27.121  26.528  1.00  0.00     0.000 A 
ATOM     24  C   UNL A   1      31.129  27.975  24.949  1.00  0.00     0.000 A 
ATOM     25  C   UNL A   1      32.134  28.203  25.884  1.00  0.00     0.000 A 
ENDBRANCH  19  20
ENDBRANCH   9  10
ENDBRANCH   7   9
ENDBRANCH   6   7
ENDBRANCH   5   6
ENDBRANCH   4   5
ENDBRANCH   3   4
ENDBRANCH   2   3
ENDBRANCH   1   2
BRANCH   1  26
ATOM     26  O   UNL A   1      42.900  19.248  25.047  1.00  0.00    -0.376 OA
BRANCH  26  27
ATOM     27  C   UNL A   1      44.165  18.761  24.636  1.00  0.00     0.202 C 
BRANCH  27  28
ATOM     28  C   UNL A   1      45.229  19.775  24.223  1.00  0.00     0.261 C 
BRANCH  28  29
ATOM     29  O   UNL A   1      44.696  20.975  23.702  1.00  0.00    -0.460 OA
BRANCH  29  30
ATOM     30  C   UNL A   1      45.131  22.083  24.328  1.00  0.00     0.338 C 
ATOM     31  O   UNL A   1      46.211  22.632  24.182  1.00  0.00    -0.246 OA
BRANCH  30  32
ATOM     32  C   UNL A   1      44.131  22.489  25.316  1.00  0.00     0.060 A 
ATOM     33  C   UNL A   1      43.142  23.341  24.826  1.00  0.00     0.016 A 
ATOM     34  C   UNL A   1      44.548  22.485  26.650  1.00  0.00     0.016 A 
ATOM     35  C   UNL A   1      42.863  24.455  25.570  1.00  0.00     0.010 A 
ATOM     36  C   UNL A   1      44.313  23.621  27.368  1.00  0.00     0.010 A 
ATOM     37  C   UNL A   1      43.565  24.631  26.764  1.00  0.00    -0.014 A 
BRANCH  37  38
ATOM     38  C   UNL A   1      43.386  25.869  27.477  1.00  0.00     0.031 A 
ATOM     39  C   UNL A   1      44.489  26.791  27.155  1.00  0.00     0.074 A 
ATOM     40  C   UNL A   1      42.286  26.114  28.211  1.00  0.00     0.049 A 
ATOM     41  N   UNL A   1      45.523  27.050  27.884  1.00  0.00    -0.248 NA
ATOM     42  C   UNL A   1      44.629  27.216  25.749  1.00  0.00     0.031 C 
ATOM     43  C   UNL A   1      41.079  25.292  28.330  1.00  0.00     0.029 A 
ATOM     44  N   UNL A   1      41.967  27.222  28.929  1.00  0.00    -0.354 N 
ATOM     45  C   UNL A   1      46.251  27.955  27.123  1.00  0.00     0.074 A 
ATOM     46  C   UNL A   1      45.860  27.729  25.762  1.00  0.00     0.031 C 
ATOM     47  C   UNL A   1      40.086  26.034  28.870  1.00  0.00     0.029 A 
ATOM     48  C   UNL A   1      40.612  27.337  29.236  1.00  0.00     0.049 A 
ATOM     49  H   UNL A   1      42.636  27.887  29.210  1.00  0.00     0.167 HD
ATOM     50  C   UNL A   1      46.731  29.086  27.709  1.00  0.00     0.037 A 
ATOM     51  C   UNL A   1      39.991  28.473  29.656  1.00  0.00     0.037 A 
ATOM     52  C   UNL A   1      46.816  28.912  29.145  1.00  0.00     0.049 A 
ATOM     53  C   UNL A   1      41.060  29.374  30.180  1.00  0.00     0.074 A 
ATOM     54  C   UNL A   1      47.399  27.978  29.982  1.00  0.00     0.029 A 
ATOM     55  N   UNL A   1      45.887  29.575  29.912  1.00  0.00    -0.354 N 
ATOM     56  N   UNL A   1      41.761  29.114  31.252  1.00  0.00    -0.248 NA
ATOM     57  C   UNL A   1      41.683  30.296  29.242  1.00  0.00     0.031 C 
ATOM     58  C   UNL A   1      46.490  27.827  31.071  1.00  0.00     0.029 A 
ATOM     59  C   UNL A   1      45.441  28.730  30.891  1.00  0.00     0.049 A 
ATOM     60  H   UNL A   1      45.591  30.504  29.778  1.00  0.00     0.167 HD
ATOM     61  C   UNL A   1      43.062  29.467  30.919  1.00  0.00     0.074 A 
ATOM     62  C   UNL A   1      42.938  30.262  29.699  1.00  0.00     0.031 C 
ATOM     63  C   UNL A   1      44.127  28.825  31.488  1.00  0.00     0.037 A 
BRANCH  50  64
ATOM     64  C   UNL A   1      46.625  30.458  27.063  1.00  0.00     0.058 A 
ATOM     65  C   UNL A   1      47.770  31.279  27.071  1.00  0.00     0.135 A 
ATOM     66  C   UNL A   1      45.419  31.117  26.716  1.00  0.00     0.135 A 
ATOM     67  F   UNL A   1      48.974  30.766  27.368  1.00  0.00    -0.206 F 
ATOM     68  C   UNL A   1      47.704  32.657  26.869  1.00  0.00     0.059 A 
ATOM     69  C   UNL A   1      45.340  32.478  26.465  1.00  0.00     0.059 A 
ATOM     70  F   UNL A   1      44.228  30.515  26.672  1.00  0.00    -0.206 F 
ATOM     71  C   UNL A   1      46.478  33.248  26.585  1.00  0.00     0.060 A 
BRANCH  71  72
ATOM     72  S   UNL A   1      46.367  35.032  26.400  1.00  0.00     0.124 S 
ATOM     73  O   UNL A   1      47.341  35.271  25.342  1.00  0.00    -0.237 OA
ATOM     74  O   UNL A   1      44.965  35.205  26.036  1.00  0.00    -0.237 OA
ATOM     75  O   UNL A   1      46.732  35.529  27.722  1.00  0.00    -0.744 OA
ENDBRANCH  71  72
ENDBRANCH  50  64
BRANCH  51  76
ATOM     76  C   UNL A   1      38.637  28.978  29.284  1.00  0.00     0.058 A 
ATOM     77  C   UNL A   1      37.665  29.249  30.269  1.00  0.00     0.135 A 
ATOM     78  C   UNL A   1      38.356  29.475  27.996  1.00  0.00     0.135 A 
ATOM     79  F   UNL A   1      37.850  28.831  31.530  1.00  0.00    -0.206 F 
ATOM     80  C   UNL A   1      36.519  30.011  30.004  1.00  0.00     0.059 A 
ATOM     81  C   UNL A   1      37.216  30.225  27.706  1.00  0.00     0.059 A 
ATOM     82  F   UNL A   1      39.226  29.328  26.987  1.00  0.00    -0.206 F 
ATOM     83  C   UNL A   1      36.314  30.515  28.720  1.00  0.00     0.060 A 
BRANCH  83  84
ATOM     84  S   UNL A   1      34.936  31.644  28.406  1.00  0.00     0.124 S 
ATOM     85  O   UNL A   1      33.966  30.767  27.759  1.00  0.00    -0.237 OA
ATOM     86  O   UNL A   1      34.591  32.096  29.749  1.00  0.00    -0.237 OA
ATOM     87  O   UNL A   1      35.525  32.665  27.541  1.00  0.00    -0.744 OA
ENDBRANCH  83  84
ENDBRANCH  51  76
BRANCH  63  88
ATOM     88  C   UNL A   1      43.887  28.010  32.730  1.00  0.00     0.058 A 
ATOM     89  C   UNL A   1      43.720  26.613  32.768  1.00  0.00     0.135 A 
ATOM     90  C   UNL A   1      43.956  28.678  33.963  1.00  0.00     0.135 A 
ATOM     91  F   UNL A   1      43.751  25.885  31.642  1.00  0.00    -0.206 F 
ATOM     92  C   UNL A   1      43.575  25.924  33.976  1.00  0.00     0.059 A 
ATOM     93  C   UNL A   1      43.849  28.010  35.175  1.00  0.00     0.059 A 
ATOM     94  F   UNL A   1      44.177  30.004  33.996  1.00  0.00    -0.206 F 
ATOM     95  C   UNL A   1      43.639  26.634  35.176  1.00  0.00     0.060 A 
BRANCH  95  96
ATOM     96  S   UNL A   1      43.492  25.747  36.741  1.00  0.00     0.124 S 
ATOM     97  O   UNL A   1      42.307  24.926  36.518  1.00  0.00    -0.237 OA
ATOM     98  O   UNL A   1      44.759  25.026  36.818  1.00  0.00    -0.237 OA
ATOM     99  O   UNL A   1      43.334  26.814  37.726  1.00  0.00    -0.744 OA
ENDBRANCH  95  96
ENDBRANCH  63  88
ENDBRANCH  37  38
ENDBRANCH  30  32
ENDBRANCH  29  30
ENDBRANCH  28  29
ENDBRANCH  27  28
ENDBRANCH  26  27
ENDBRANCH   1  26
TORSDOF 22
ENDMDL
MODEL 2
REMARK VINA RESULT:     -11.1      1.442      2.302
REMARK SMILES O=C(Cn1c2c(sc1=O)C[C@H](c1ccccc1)CC2)OCCOCCOCCOC(=O)c1ccc(-c2c3nc(c(-c4c(F)cc(S(=O)(=O)[O-])cc4F)c4ccc([nH]4)c(-c4c(F)cc(S(=O)(=O)[O-])cc4F)c4nc(c(-c5c(F)cc(S(=O)(=O)[O-])cc5F)c5ccc2[nH]5)C=C4)C=C3)cc1
REMARK SMILES IDX 25 1 24 2 23 3 22 4 21 5 20 6 2 7 1 8 3 9 4 10 5 11 8 12
REMARK SMILES IDX 6 13 19 14 7 15 9 16 10 17 18 18 11 19 12 20 13 21 17 22
REMARK SMILES IDX 14 23 16 24 15 25 26 26 27 27 28 28 29 29 30 30 31 31 32 32
REMARK SMILES IDX 33 33 97 34 34 35 96 36 35 37 36 38 37 39 90 40 38 41 95 42
REMARK SMILES IDX 89 43 91 44 39 45 94 46 88 47 87 48 40 50 74 51 53 52 73 53
REMARK SMILES IDX 54 54 57 55 72 56 92 57 55 58 56 59 71 61 93 62 58 63 41 64
REMARK SMILES IDX 42 65 51 66 43 67 44 68 50 69 52 70 45 71 46 72 47 73 48 74
REMARK SMILES IDX 49 75 75 76 76 77 85 78 77 79 78 80 84 81 86 82 79 83 80 84
REMARK SMILES IDX 81 85 82 86 83 87 59 88 60 89 69 90 61 91 62 92 68 93 70 94
REMARK SMILES IDX 63 95 64 96 65 97 66 98 67 99
REMARK H PARENT 91 49 57 60
REMARK Flexibility Score: inf
ROOT
ATOM      1  C   UNL A   1      40.819  21.103  26.420  1.00  0.00     0.188 C 
ENDROOT
BRANCH   1   2
ATOM      2  C   UNL A   1      39.354  21.531  26.117  1.00  0.00     0.188 C 
BRANCH   2   3
ATOM      3  O   UNL A   1      38.906  22.876  26.268  1.00  0.00    -0.376 OA
BRANCH   3   4
ATOM      4  C   UNL A   1      37.648  23.275  25.761  1.00  0.00     0.202 C 
BRANCH   4   5
ATOM      5  C   UNL A   1      36.522  22.251  25.665  1.00  0.00     0.261 C 
BRANCH   5   6
ATOM      6  O   UNL A   1      36.013  21.934  24.352  1.00  0.00    -0.462 OA
BRANCH   6   7
ATOM      7  C   UNL A   1      35.726  22.813  23.371  1.00  0.00     0.326 C 
ATOM      8  O   UNL A   1      36.628  23.404  22.781  1.00  0.00    -0.250 OA
BRANCH   7   9
ATOM      9  C   UNL A   1      34.276  23.070  23.074  1.00  0.00     0.249 C 
BRANCH   9  10
ATOM     10  N   UNL A   1      33.348  23.329  24.156  1.00  0.00    -0.292 N 
ATOM     11  C   UNL A   1      33.271  24.432  25.006  1.00  0.00     0.036 A 
ATOM     12  C   UNL A   1      32.355  22.373  24.346  1.00  0.00     0.308 A 
ATOM     13  C   UNL A   1      32.205  24.380  25.818  1.00  0.00     0.030 A 
ATOM     14  C   UNL A   1      34.183  25.631  24.995  1.00  0.00     0.056 C 
ATOM     15  S   UNL A   1      31.282  22.929  25.626  1.00  0.00    -0.079 S 
ATOM     16  O   UNL A   1      32.204  21.316  23.741  1.00  0.00    -0.257 OA
ATOM     17  C   UNL A   1      31.777  25.501  26.702  1.00  0.00     0.057 C 
ATOM     18  C   UNL A   1      33.711  26.820  25.856  1.00  0.00     0.015 C 
ATOM     19  C   UNL A   1      32.182  26.875  26.103  1.00  0.00     0.025 C 
BRANCH  19  20
ATOM     20  C   UNL A   1      31.280  27.315  24.941  1.00  0.00    -0.045 A 
ATOM     21  C   UNL A   1      31.650  28.431  24.163  1.00  0.00     0.004 A 
ATOM     22  C   UNL A   1      30.116  26.637  24.554  1.00  0.00     0.004 A 
ATOM     23  C   UNL A   1      30.850  28.905  23.119  1.00  0.00     0.000 A 
ATOM     24  C   UNL A   1      29.305  27.114  23.511  1.00  0.00     0.000 A 
ATOM     25  C   UNL A   1      29.663  28.257  22.805  1.00  0.00     0.000 A 
ENDBRANCH  19  20
ENDBRANCH   9  10
ENDBRANCH   7   9
ENDBRANCH   6   7
ENDBRANCH   5   6
ENDBRANCH   4   5
ENDBRANCH   3   4
ENDBRANCH   2   3
ENDBRANCH   1   2
BRANCH   1  26
ATOM     26  O   UNL A   1      41.177  19.824  25.913  1.00  0.00    -0.376 OA
BRANCH  26  27
ATOM     27  C   UNL A   1      42.373  19.203  26.350  1.00  0.00     0.202 C 
BRANCH  27  28
ATOM     28  C   UNL A   1      43.543  19.119  25.374  1.00  0.00     0.261 C 
BRANCH  28  29
ATOM     29  O   UNL A   1      43.744  20.303  24.628  1.00  0.00    -0.460 OA
BRANCH  29  30
ATOM     30  C   UNL A   1      45.018  20.736  24.624  1.00  0.00     0.338 C 
ATOM     31  O   UNL A   1      46.017  20.078  24.866  1.00  0.00    -0.246 OA
BRANCH  30  32
ATOM     32  C   UNL A   1      45.023  22.179  24.381  1.00  0.00     0.060 A 
ATOM     33  C   UNL A   1      46.170  22.838  24.823  1.00  0.00     0.016 A 
ATOM     34  C   UNL A   1      43.770  22.792  24.296  1.00  0.00     0.016 A 
ATOM     35  C   UNL A   1      45.982  23.978  25.556  1.00  0.00     0.010 A 
ATOM     36  C   UNL A   1      43.576  23.897  25.072  1.00  0.00     0.010 A 
ATOM     37  C   UNL A   1      44.668  24.400  25.775  1.00  0.00    -0.014 A 
BRANCH  37  38
ATOM     38  C   UNL A   1      44.456  25.511  26.666  1.00  0.00     0.031 A 
ATOM     39  C   UNL A   1      45.515  26.516  26.468  1.00  0.00     0.074 A 
ATOM     40  C   UNL A   1      43.363  25.599  27.445  1.00  0.00     0.049 A 
ATOM     41  N   UNL A   1      46.554  26.708  27.211  1.00  0.00    -0.248 NA
ATOM     42  C   UNL A   1      45.608  27.149  25.138  1.00  0.00     0.031 C 
ATOM     43  C   UNL A   1      42.192  24.718  27.459  1.00  0.00     0.029 A 
ATOM     44  N   UNL A   1      43.016  26.574  28.324  1.00  0.00    -0.354 N 
ATOM     45  C   UNL A   1      47.230  27.744  26.581  1.00  0.00     0.074 A 
ATOM     46  C   UNL A   1      46.819  27.705  25.208  1.00  0.00     0.031 C 
ATOM     47  C   UNL A   1      41.182  25.331  28.119  1.00  0.00     0.029 A 
ATOM     48  C   UNL A   1      41.665  26.586  28.665  1.00  0.00     0.049 A 
ATOM     49  H   UNL A   1      43.665  27.218  28.690  1.00  0.00     0.167 HD
ATOM     50  C   UNL A   1      47.677  28.795  27.322  1.00  0.00     0.037 A 
ATOM     51  C   UNL A   1      41.009  27.621  29.259  1.00  0.00     0.037 A 
ATOM     52  C   UNL A   1      47.799  28.415  28.714  1.00  0.00     0.049 A 
ATOM     53  C   UNL A   1      42.053  28.479  29.894  1.00  0.00     0.074 A 
ATOM     54  C   UNL A   1      48.436  27.393  29.395  1.00  0.00     0.029 A 
ATOM     55  N   UNL A   1      46.862  28.918  29.585  1.00  0.00    -0.354 N 
ATOM     56  N   UNL A   1      42.786  28.093  30.904  1.00  0.00    -0.248 NA
ATOM     57  C   UNL A   1      42.620  29.555  29.093  1.00  0.00     0.031 C 
ATOM     58  C   UNL A   1      47.557  27.046  30.463  1.00  0.00     0.029 A 
ATOM     59  C   UNL A   1      46.470  27.920  30.435  1.00  0.00     0.049 A 
ATOM     60  H   UNL A   1      46.527  29.844  29.595  1.00  0.00     0.167 HD
ATOM     61  C   UNL A   1      44.065  28.545  30.608  1.00  0.00     0.074 A 
ATOM     62  C   UNL A   1      43.884  29.506  29.521  1.00  0.00     0.031 C 
ATOM     63  C   UNL A   1      45.166  27.871  31.059  1.00  0.00     0.037 A 
BRANCH  50  64
ATOM     64  C   UNL A   1      47.504  30.242  26.888  1.00  0.00     0.058 A 
ATOM     65  C   UNL A   1      48.613  31.103  27.011  1.00  0.00     0.135 A 
ATOM     66  C   UNL A   1      46.267  30.891  26.651  1.00  0.00     0.135 A 
ATOM     67  F   UNL A   1      49.841  30.605  27.220  1.00  0.00    -0.206 F 
ATOM     68  C   UNL A   1      48.485  32.491  27.017  1.00  0.00     0.059 A 
ATOM     69  C   UNL A   1      46.127  32.270  26.606  1.00  0.00     0.059 A 
ATOM     70  F   UNL A   1      45.102  30.251  26.525  1.00  0.00    -0.206 F 
ATOM     71  C   UNL A   1      47.231  33.063  26.832  1.00  0.00     0.060 A 
BRANCH  71  72
ATOM     72  S   UNL A   1      47.042  34.848  26.915  1.00  0.00     0.124 S 
ATOM     73  O   UNL A   1      48.363  35.296  26.491  1.00  0.00    -0.237 OA
ATOM     74  O   UNL A   1      45.952  35.073  25.973  1.00  0.00    -0.237 OA
ATOM     75  O   UNL A   1      46.712  35.084  28.316  1.00  0.00    -0.744 OA
ENDBRANCH  71  72
ENDBRANCH  50  64
BRANCH  51  76
ATOM     76  C   UNL A   1      39.629  28.118  28.986  1.00  0.00     0.058 A 
ATOM     77  C   UNL A   1      38.650  28.142  30.000  1.00  0.00     0.135 A 
ATOM     78  C   UNL A   1      39.315  28.842  27.818  1.00  0.00     0.135 A 
ATOM     79  F   UNL A   1      38.863  27.498  31.157  1.00  0.00    -0.206 F 
ATOM     80  C   UNL A   1      37.465  28.882  29.884  1.00  0.00     0.059 A 
ATOM     81  C   UNL A   1      38.136  29.574  27.675  1.00  0.00     0.059 A 
ATOM     82  F   UNL A   1      40.186  28.939  26.803  1.00  0.00    -0.206 F 
ATOM     83  C   UNL A   1      37.227  29.614  28.722  1.00  0.00     0.060 A 
BRANCH  83  84
ATOM     84  S   UNL A   1      35.791  30.711  28.627  1.00  0.00     0.124 S 
ATOM     85  O   UNL A   1      36.274  31.767  27.743  1.00  0.00    -0.237 OA
ATOM     86  O   UNL A   1      34.766  29.835  28.072  1.00  0.00    -0.237 OA
ATOM     87  O   UNL A   1      35.578  31.111  30.017  1.00  0.00    -0.744 OA
ENDBRANCH  83  84
ENDBRANCH  51  76
BRANCH  63  88
ATOM     88  C   UNL A   1      44.984  26.872  32.171  1.00  0.00     0.058 A 
ATOM     89  C   UNL A   1      44.912  27.183  33.541  1.00  0.00     0.135 A 
ATOM     90  C   UNL A   1      44.745  25.539  31.805  1.00  0.00     0.135 A 
ATOM     91  F   UNL A   1      45.021  28.451  33.966  1.00  0.00    -0.206 F 
ATOM     92  C   UNL A   1      44.667  26.200  34.504  1.00  0.00     0.059 A 
ATOM     93  C   UNL A   1      44.465  24.552  32.742  1.00  0.00     0.059 A 
ATOM     94  F   UNL A   1      44.738  25.190  30.507  1.00  0.00    -0.206 F 
ATOM     95  C   UNL A   1      44.446  24.885  34.093  1.00  0.00     0.060 A 
BRANCH  95  96
ATOM     96  S   UNL A   1      44.090  23.616  35.327  1.00  0.00     0.124 S 
ATOM     97  O   UNL A   1      43.898  22.430  34.501  1.00  0.00    -0.237 OA
ATOM     98  O   UNL A   1      45.294  23.629  36.152  1.00  0.00    -0.237 OA
ATOM     99  O   UNL A   1      42.887  24.114  35.990  1.00  0.00    -0.744 OA
ENDBRANCH  95  96
ENDBRANCH  63  88
ENDBRANCH  37  38
ENDBRANCH  30  32
ENDBRANCH  29  30
ENDBRANCH  28  29
ENDBRANCH  27  28
ENDBRANCH  26  27
ENDBRANCH   1  26
TORSDOF 22
ENDMDL
MODEL 3
REMARK VINA RESULT:     -10.8      3.970     10.417
REMARK SMILES O=C(Cn1c2c(sc1=O)C[C@H](c1ccccc1)CC2)OCCOCCOCCOC(=O)c1ccc(-c2c3nc(c(-c4c(F)cc(S(=O)(=O)[O-])cc4F)c4ccc([nH]4)c(-c4c(F)cc(S(=O)(=O)[O-])cc4F)c4nc(c(-c5c(F)cc(S(=O)(=O)[O-])cc5F)c5ccc2[nH]5)C=C4)C=C3)cc1
REMARK SMILES IDX 25 1 24 2 23 3 22 4 21 5 20 6 2 7 1 8 3 9 4 10 5 11 8 12
REMARK SMILES IDX 6 13 19 14 7 15 9 16 10 17 18 18 11 19 12 20 13 21 17 22
REMARK SMILES IDX 14 23 16 24 15 25 26 26 27 27 28 28 29 29 30 30 31 31 32 32
REMARK SMILES IDX 33 33 97 34 34 35 96 36 35 37 36 38 37 39 90 40 38 41 95 42
REMARK SMILES IDX 89 43 91 44 39 45 94 46 88 47 87 48 40 50 74 51 53 52 73 53
REMARK SMILES IDX 54 54 57 55 72 56 92 57 55 58 56 59 71 61 93 62 58 63 41 64
REMARK SMILES IDX 42 65 51 66 43 67 44 68 50 69 52 70 45 71 46 72 47 73 48 74
REMARK SMILES IDX 49 75 75 76 76 77 85 78 77 79 78 80 84 81 86 82 79 83 80 84
REMARK SMILES IDX 81 85 82 86 83 87 59 88 60 89 69 90 61 91 62 92 68 93 70 94
REMARK SMILES IDX 63 95 64 96 65 97 66 98 67 99
REMARK H PARENT 91 49 57 60
REMARK Flexibility Score: inf
ROOT
ATOM      1  C   UNL A   1      34.615  32.961  27.987  1.00  0.00     0.188 C 
ENDROOT
BRANCH   1   2
ATOM      2  C   UNL A   1      34.199  31.473  27.808  1.00  0.00     0.188 C 
BRANCH   2   3
ATOM      3  O   UNL A   1      33.085  31.084  27.009  1.00  0.00    -0.376 OA
BRANCH   3   4
ATOM      4  C   UNL A   1      32.634  29.744  27.009  1.00  0.00     0.202 C 
BRANCH   4   5
ATOM      5  C   UNL A   1      33.623  28.622  27.305  1.00  0.00     0.261 C 
BRANCH   5   6
ATOM      6  O   UNL A   1      34.024  27.773  26.208  1.00  0.00    -0.462 OA
BRANCH   6   7
ATOM      7  C   UNL A   1      33.570  27.836  24.940  1.00  0.00     0.326 C 
ATOM      8  O   UNL A   1      34.298  28.246  24.038  1.00  0.00    -0.250 OA
BRANCH   7   9
ATOM      9  C   UNL A   1      32.143  27.438  24.695  1.00  0.00     0.249 C 
BRANCH   9  10
ATOM     10  N   UNL A   1      31.748  26.048  24.798  1.00  0.00    -0.292 N 
ATOM     11  C   UNL A   1      31.948  25.005  23.893  1.00  0.00     0.036 A 
ATOM     12  C   UNL A   1      31.129  25.679  25.989  1.00  0.00     0.308 A 
ATOM     13  C   UNL A   1      31.547  23.821  24.378  1.00  0.00     0.030 A 
ATOM     14  C   UNL A   1      32.628  25.107  22.553  1.00  0.00     0.056 C 
ATOM     15  S   UNL A   1      30.833  23.944  25.950  1.00  0.00    -0.079 S 
ATOM     16  O   UNL A   1      30.835  26.400  26.937  1.00  0.00    -0.257 OA
ATOM     17  C   UNL A   1      31.800  22.516  23.704  1.00  0.00     0.057 C 
ATOM     18  C   UNL A   1      32.954  23.759  21.880  1.00  0.00     0.015 C 
ATOM     19  C   UNL A   1      33.102  22.565  22.858  1.00  0.00     0.025 C 
BRANCH  19  20
ATOM     20  C   UNL A   1      34.377  22.486  23.710  1.00  0.00    -0.045 A 
ATOM     21  C   UNL A   1      35.511  23.231  23.327  1.00  0.00     0.004 A 
ATOM     22  C   UNL A   1      34.479  21.753  24.899  1.00  0.00     0.004 A 
ATOM     23  C   UNL A   1      36.714  23.168  24.037  1.00  0.00     0.000 A 
ATOM     24  C   UNL A   1      35.687  21.681  25.612  1.00  0.00     0.000 A 
ATOM     25  C   UNL A   1      36.809  22.375  25.172  1.00  0.00     0.000 A 
ENDBRANCH  19  20
ENDBRANCH   9  10
ENDBRANCH   7   9
ENDBRANCH   6   7
ENDBRANCH   5   6
ENDBRANCH   4   5
ENDBRANCH   3   4
ENDBRANCH   2   3
ENDBRANCH   1   2
BRANCH   1  26
ATOM     26  O   UNL A   1      34.032  33.606  29.112  1.00  0.00    -0.376 OA
BRANCH  26  27
ATOM     27  C   UNL A   1      33.643  34.965  29.021  1.00  0.00     0.202 C 
BRANCH  27  28
ATOM     28  C   UNL A   1      32.990  35.612  30.240  1.00  0.00     0.261 C 
BRANCH  28  29
ATOM     29  O   UNL A   1      32.926  34.762  31.366  1.00  0.00    -0.460 OA
BRANCH  29  30
ATOM     30  C   UNL A   1      33.306  35.349  32.516  1.00  0.00     0.338 C 
ATOM     31  O   UNL A   1      33.065  36.492  32.870  1.00  0.00    -0.246 OA
BRANCH  30  32
ATOM     32  C   UNL A   1      34.163  34.423  33.256  1.00  0.00     0.060 A 
ATOM     33  C   UNL A   1      35.223  35.027  33.933  1.00  0.00     0.016 A 
ATOM     34  C   UNL A   1      34.207  33.110  32.777  1.00  0.00     0.016 A 
ATOM     35  C   UNL A   1      36.458  34.461  33.774  1.00  0.00     0.010 A 
ATOM     36  C   UNL A   1      35.445  32.575  32.571  1.00  0.00     0.010 A 
ATOM     37  C   UNL A   1      36.553  33.318  32.976  1.00  0.00    -0.014 A 
BRANCH  37  38
ATOM     38  C   UNL A   1      37.865  32.805  32.684  1.00  0.00     0.031 A 
ATOM     39  C   UNL A   1      38.643  32.691  33.930  1.00  0.00     0.074 A 
ATOM     40  C   UNL A   1      38.211  32.398  31.449  1.00  0.00     0.049 A 
ATOM     41  N   UNL A   1      39.553  33.503  34.355  1.00  0.00    -0.248 NA
ATOM     42  C   UNL A   1      38.133  31.772  34.966  1.00  0.00     0.031 C 
ATOM     43  C   UNL A   1      37.356  32.283  30.265  1.00  0.00     0.029 A 
ATOM     44  N   UNL A   1      39.394  31.889  31.017  1.00  0.00    -0.354 N 
ATOM     45  C   UNL A   1      39.950  32.956  35.568  1.00  0.00     0.074 A 
ATOM     46  C   UNL A   1      38.844  32.165  36.023  1.00  0.00     0.031 C 
ATOM     47  C   UNL A   1      37.982  31.524  29.336  1.00  0.00     0.029 A 
ATOM     48  C   UNL A   1      39.314  31.196  29.810  1.00  0.00     0.049 A 
ATOM     49  H   UNL A   1      40.236  32.001  31.513  1.00  0.00     0.167 HD
ATOM     50  C   UNL A   1      41.278  32.824  35.837  1.00  0.00     0.037 A 
ATOM     51  C   UNL A   1      40.256  30.340  29.328  1.00  0.00     0.037 A 
ATOM     52  C   UNL A   1      42.052  33.729  35.013  1.00  0.00     0.049 A 
ATOM     53  C   UNL A   1      41.528  30.660  30.041  1.00  0.00     0.074 A 
ATOM     54  C   UNL A   1      42.023  35.090  34.764  1.00  0.00     0.029 A 
ATOM     55  N   UNL A   1      42.774  33.175  33.982  1.00  0.00    -0.354 N 
ATOM     56  N   UNL A   1      42.175  31.785  29.890  1.00  0.00    -0.248 NA
ATOM     57  C   UNL A   1      41.802  29.950  31.281  1.00  0.00     0.031 C 
ATOM     58  C   UNL A   1      42.341  35.227  33.381  1.00  0.00     0.029 A 
ATOM     59  C   UNL A   1      42.629  33.961  32.872  1.00  0.00     0.049 A 
ATOM     60  H   UNL A   1      43.306  32.349  34.035  1.00  0.00     0.167 HD
ATOM     61  C   UNL A   1      42.574  32.140  31.173  1.00  0.00     0.074 A 
ATOM     62  C   UNL A   1      42.385  30.932  31.975  1.00  0.00     0.031 C 
ATOM     63  C   UNL A   1      42.723  33.454  31.520  1.00  0.00     0.037 A 
BRANCH  50  64
ATOM     64  C   UNL A   1      41.876  31.562  36.438  1.00  0.00     0.058 A 
ATOM     65  C   UNL A   1      42.850  31.710  37.445  1.00  0.00     0.135 A 
ATOM     66  C   UNL A   1      41.775  30.258  35.890  1.00  0.00     0.135 A 
ATOM     67  F   UNL A   1      43.028  32.894  38.051  1.00  0.00    -0.206 F 
ATOM     68  C   UNL A   1      43.728  30.685  37.792  1.00  0.00     0.059 A 
ATOM     69  C   UNL A   1      42.608  29.213  36.257  1.00  0.00     0.059 A 
ATOM     70  F   UNL A   1      40.927  29.924  34.915  1.00  0.00    -0.206 F 
ATOM     71  C   UNL A   1      43.609  29.444  37.176  1.00  0.00     0.060 A 
BRANCH  71  72
ATOM     72  S   UNL A   1      44.784  28.139  37.559  1.00  0.00     0.124 S 
ATOM     73  O   UNL A   1      45.036  28.387  38.974  1.00  0.00    -0.237 OA
ATOM     74  O   UNL A   1      44.010  26.944  37.242  1.00  0.00    -0.237 OA
ATOM     75  O   UNL A   1      45.897  28.417  36.658  1.00  0.00    -0.744 OA
ENDBRANCH  71  72
ENDBRANCH  50  64
BRANCH  51  76
ATOM     76  C   UNL A   1      40.050  29.048  28.610  1.00  0.00     0.058 A 
ATOM     77  C   UNL A   1      40.783  28.737  27.446  1.00  0.00     0.135 A 
ATOM     78  C   UNL A   1      39.349  27.975  29.195  1.00  0.00     0.135 A 
ATOM     79  F   UNL A   1      41.497  29.688  26.826  1.00  0.00    -0.206 F 
ATOM     80  C   UNL A   1      40.859  27.435  26.932  1.00  0.00     0.059 A 
ATOM     81  C   UNL A   1      39.400  26.674  28.693  1.00  0.00     0.059 A 
ATOM     82  F   UNL A   1      38.658  28.132  30.333  1.00  0.00    -0.206 F 
ATOM     83  C   UNL A   1      40.179  26.404  27.578  1.00  0.00     0.060 A 
BRANCH  83  84
ATOM     84  S   UNL A   1      40.409  24.694  27.032  1.00  0.00     0.124 S 
ATOM     85  O   UNL A   1      40.993  24.074  28.216  1.00  0.00    -0.237 OA
ATOM     86  O   UNL A   1      39.047  24.285  26.705  1.00  0.00    -0.237 OA
ATOM     87  O   UNL A   1      41.309  24.821  25.888  1.00  0.00    -0.744 OA
ENDBRANCH  83  84
ENDBRANCH  51  76
BRANCH  63  88
ATOM     88  C   UNL A   1      42.816  34.476  30.418  1.00  0.00     0.058 A 
ATOM     89  C   UNL A   1      41.723  35.030  29.729  1.00  0.00     0.135 A 
ATOM     90  C   UNL A   1      44.084  35.009  30.140  1.00  0.00     0.135 A 
ATOM     91  F   UNL A   1      40.466  34.654  30.012  1.00  0.00    -0.206 F 
ATOM     92  C   UNL A   1      41.893  36.031  28.767  1.00  0.00     0.059 A 
ATOM     93  C   UNL A   1      44.272  36.027  29.215  1.00  0.00     0.059 A 
ATOM     94  F   UNL A   1      45.161  34.565  30.811  1.00  0.00    -0.206 F 
ATOM     95  C   UNL A   1      43.175  36.521  28.516  1.00  0.00     0.060 A 
BRANCH  95  96
ATOM     96  S   UNL A   1      43.399  37.841  27.305  1.00  0.00     0.124 S 
ATOM     97  O   UNL A   1      42.289  37.607  26.388  1.00  0.00    -0.237 OA
ATOM     98  O   UNL A   1      43.303  39.044  28.125  1.00  0.00    -0.237 OA
ATOM     99  O   UNL A   1      44.727  37.579  26.755  1.00  0.00    -0.744 OA
ENDBRANCH  95  96
ENDBRANCH  63  88
ENDBRANCH  37  38
ENDBRANCH  30  32
ENDBRANCH  29  30
ENDBRANCH  28  29
ENDBRANCH  27  28
ENDBRANCH  26  27
ENDBRANCH   1  26
TORSDOF 22
ENDMDL
