MODEL 1
REMARK VINA RESULT:     -10.8      0.000      0.000
REMARK SMILES O=C(OCCOCCOCCOC(=O)[C@@]1([NH2+]C2CC2)CC[C@@H]([N@@H+]2CC[N@@H+]3CCC[C@@H]3C2)C1)c1ccc(-c2c3nc(c(-c4c(F)cc(S(=O)(=O)[O-])cc4F)c4ccc([nH]4)c(-c4c(F)cc(S(=O)(=O)[O-])cc4F)c4nc(c(-c5c(F)cc(S(=O)(=O)[O-])cc5F)c5ccc2[nH]5)C=C4)C=C3)cc1
REMARK SMILES IDX 7 1 6 2 5 3 4 4 3 5 2 6 1 7 33 8 34 9 98 10 35 11 97 12
REMARK SMILES IDX 36 13 37 14 38 15 91 16 39 17 96 18 90 19 92 20 40 21 95 22
REMARK SMILES IDX 89 23 88 24 41 26 75 27 54 28 74 29 55 30 58 31 73 32 93 33
REMARK SMILES IDX 56 34 57 35 72 37 94 38 59 39 42 40 43 41 52 42 44 43 45 44
REMARK SMILES IDX 51 45 53 46 46 47 47 48 48 49 49 50 50 51 76 52 77 53 86 54
REMARK SMILES IDX 78 55 79 56 85 57 87 58 80 59 81 60 82 61 83 62 84 63 60 64
REMARK SMILES IDX 61 65 70 66 62 67 63 68 69 69 71 70 64 71 65 72 66 73 67 74
REMARK SMILES IDX 68 75 8 76 9 77 10 78 11 79 12 80 13 81 14 82 15 83 20 84
REMARK SMILES IDX 32 85 21 86 22 87 16 88 17 91 18 92 19 93 23 94 24 95 31 96
REMARK SMILES IDX 25 98 30 99 26 100 29 101 27 102 28 104
REMARK H PARENT 92 25 58 36 16 89 16 90 23 97 26 103
REMARK Flexibility Score: inf
ROOT
ATOM      1  C   UNL A   1      37.203  22.362  24.666  1.00  0.00     0.188 C 
ENDROOT
BRANCH   1   2
ATOM      2  O   UNL A   1      37.996  21.378  25.335  1.00  0.00    -0.376 OA
BRANCH   2   3
ATOM      3  C   UNL A   1      39.068  21.947  26.082  1.00  0.00     0.202 C 
BRANCH   3   4
ATOM      4  C   UNL A   1      38.792  23.384  26.562  1.00  0.00     0.261 C 
BRANCH   4   5
ATOM      5  O   UNL A   1      39.701  24.379  26.040  1.00  0.00    -0.460 OA
BRANCH   5   6
ATOM      6  C   UNL A   1      40.762  25.021  26.578  1.00  0.00     0.338 C 
ATOM      7  O   UNL A   1      41.882  24.754  26.147  1.00  0.00    -0.246 OA
BRANCH   6   8
ATOM      8  C   UNL A   1      40.664  25.931  27.763  1.00  0.00     0.060 A 
ATOM      9  C   UNL A   1      39.588  25.988  28.645  1.00  0.00     0.016 A 
ATOM     10  C   UNL A   1      41.773  26.749  28.045  1.00  0.00     0.016 A 
ATOM     11  C   UNL A   1      39.579  26.851  29.744  1.00  0.00     0.010 A 
ATOM     12  C   UNL A   1      41.780  27.612  29.152  1.00  0.00     0.010 A 
ATOM     13  C   UNL A   1      40.663  27.687  29.994  1.00  0.00    -0.014 A 
BRANCH  13  14
ATOM     14  C   UNL A   1      40.559  28.728  31.044  1.00  0.00     0.031 A 
ATOM     15  C   UNL A   1      41.399  28.602  32.263  1.00  0.00     0.074 A 
ATOM     16  C   UNL A   1      39.796  29.827  30.896  1.00  0.00     0.049 A 
ATOM     17  N   UNL A   1      41.476  29.425  33.269  1.00  0.00    -0.248 NA
ATOM     18  C   UNL A   1      42.313  27.453  32.333  1.00  0.00     0.031 C 
ATOM     19  C   UNL A   1      39.097  30.144  29.673  1.00  0.00     0.029 A 
ATOM     20  N   UNL A   1      39.450  30.855  31.743  1.00  0.00    -0.354 N 
ATOM     21  C   UNL A   1      42.472  28.920  34.079  1.00  0.00     0.074 A 
ATOM     22  C   UNL A   1      42.945  27.693  33.472  1.00  0.00     0.031 C 
ATOM     23  C   UNL A   1      38.303  31.199  29.889  1.00  0.00     0.029 A 
ATOM     24  C   UNL A   1      38.462  31.673  31.234  1.00  0.00     0.049 A 
ATOM     25  H   UNL A   1      39.866  30.992  32.625  1.00  0.00     0.167 HD
ATOM     26  C   UNL A   1      42.954  29.461  35.216  1.00  0.00     0.037 A 
ATOM     27  C   UNL A   1      37.747  32.691  31.753  1.00  0.00     0.037 A 
ATOM     28  C   UNL A   1      42.448  30.669  35.810  1.00  0.00     0.049 A 
ATOM     29  C   UNL A   1      38.191  33.173  33.091  1.00  0.00     0.074 A 
ATOM     30  C   UNL A   1      42.853  31.278  36.982  1.00  0.00     0.029 A 
ATOM     31  N   UNL A   1      41.411  31.438  35.296  1.00  0.00    -0.354 N 
ATOM     32  N   UNL A   1      39.174  32.706  33.821  1.00  0.00    -0.248 NA
ATOM     33  C   UNL A   1      37.500  34.334  33.656  1.00  0.00     0.031 C 
ATOM     34  C   UNL A   1      42.015  32.373  37.216  1.00  0.00     0.029 A 
ATOM     35  C   UNL A   1      41.123  32.481  36.162  1.00  0.00     0.049 A 
ATOM     36  H   UNL A   1      40.949  31.268  34.444  1.00  0.00     0.167 HD
ATOM     37  C   UNL A   1      39.248  33.541  34.916  1.00  0.00     0.074 A 
ATOM     38  C   UNL A   1      38.228  34.558  34.739  1.00  0.00     0.031 C 
ATOM     39  C   UNL A   1      40.088  33.466  35.973  1.00  0.00     0.037 A 
BRANCH  26  40
ATOM     40  C   UNL A   1      44.034  28.702  35.911  1.00  0.00     0.058 A 
ATOM     41  C   UNL A   1      43.754  27.635  36.777  1.00  0.00     0.135 A 
ATOM     42  C   UNL A   1      45.375  29.054  35.700  1.00  0.00     0.135 A 
ATOM     43  F   UNL A   1      42.483  27.298  37.050  1.00  0.00    -0.206 F 
ATOM     44  C   UNL A   1      44.773  26.933  37.407  1.00  0.00     0.059 A 
ATOM     45  C   UNL A   1      46.410  28.353  36.300  1.00  0.00     0.059 A 
ATOM     46  F   UNL A   1      45.683  30.093  34.907  1.00  0.00    -0.206 F 
ATOM     47  C   UNL A   1      46.099  27.295  37.153  1.00  0.00     0.060 A 
BRANCH  47  48
ATOM     48  S   UNL A   1      47.412  26.338  37.933  1.00  0.00     0.124 S 
ATOM     49  O   UNL A   1      46.985  24.972  37.652  1.00  0.00    -0.237 OA
ATOM     50  O   UNL A   1      48.595  26.796  37.218  1.00  0.00    -0.237 OA
ATOM     51  O   UNL A   1      47.335  26.741  39.337  1.00  0.00    -0.744 OA
ENDBRANCH  47  48
ENDBRANCH  26  40
BRANCH  27  52
ATOM     52  C   UNL A   1      36.601  33.333  31.031  1.00  0.00     0.058 A 
ATOM     53  C   UNL A   1      36.789  34.120  29.882  1.00  0.00     0.135 A 
ATOM     54  C   UNL A   1      35.283  33.213  31.507  1.00  0.00     0.135 A 
ATOM     55  F   UNL A   1      38.020  34.256  29.363  1.00  0.00    -0.206 F 
ATOM     56  C   UNL A   1      35.735  34.795  29.261  1.00  0.00     0.059 A 
ATOM     57  C   UNL A   1      34.212  33.866  30.896  1.00  0.00     0.059 A 
ATOM     58  F   UNL A   1      35.025  32.454  32.585  1.00  0.00    -0.206 F 
ATOM     59  C   UNL A   1      34.449  34.671  29.782  1.00  0.00     0.060 A 
BRANCH  59  60
ATOM     60  S   UNL A   1      33.072  35.525  28.974  1.00  0.00     0.124 S 
ATOM     61  O   UNL A   1      32.510  34.462  28.147  1.00  0.00    -0.237 OA
ATOM     62  O   UNL A   1      32.241  35.960  30.093  1.00  0.00    -0.237 OA
ATOM     63  O   UNL A   1      33.728  36.608  28.247  1.00  0.00    -0.744 OA
ENDBRANCH  59  60
ENDBRANCH  27  52
BRANCH  39  64
ATOM     64  C   UNL A   1      39.904  34.513  37.022  1.00  0.00     0.058 A 
ATOM     65  C   UNL A   1      39.053  34.295  38.116  1.00  0.00     0.135 A 
ATOM     66  C   UNL A   1      40.585  35.735  36.935  1.00  0.00     0.135 A 
ATOM     67  F   UNL A   1      38.365  33.147  38.222  1.00  0.00    -0.206 F 
ATOM     68  C   UNL A   1      38.861  35.271  39.081  1.00  0.00     0.059 A 
ATOM     69  C   UNL A   1      40.434  36.712  37.909  1.00  0.00     0.059 A 
ATOM     70  F   UNL A   1      41.404  35.984  35.902  1.00  0.00    -0.206 F 
ATOM     71  C   UNL A   1      39.562  36.473  38.972  1.00  0.00     0.060 A 
BRANCH  71  72
ATOM     72  S   UNL A   1      39.342  37.710  40.263  1.00  0.00     0.124 S 
ATOM     73  O   UNL A   1      38.934  36.883  41.395  1.00  0.00    -0.237 OA
ATOM     74  O   UNL A   1      40.674  38.301  40.355  1.00  0.00    -0.237 OA
ATOM     75  O   UNL A   1      38.310  38.586  39.719  1.00  0.00    -0.744 OA
ENDBRANCH  71  72
ENDBRANCH  39  64
ENDBRANCH  13  14
ENDBRANCH   6   8
ENDBRANCH   5   6
ENDBRANCH   4   5
ENDBRANCH   3   4
ENDBRANCH   2   3
ENDBRANCH   1   2
BRANCH   1  76
ATOM     76  C   UNL A   1      35.794  21.832  24.401  1.00  0.00     0.188 C 
BRANCH  76  77
ATOM     77  O   UNL A   1      34.808  22.761  23.952  1.00  0.00    -0.376 OA
BRANCH  77  78
ATOM     78  C   UNL A   1      33.754  22.270  23.140  1.00  0.00     0.202 C 
BRANCH  78  79
ATOM     79  C   UNL A   1      33.170  23.221  22.089  1.00  0.00     0.261 C 
BRANCH  79  80
ATOM     80  O   UNL A   1      33.576  24.594  22.195  1.00  0.00    -0.459 OA
BRANCH  80  81
ATOM     81  C   UNL A   1      32.545  25.494  22.182  1.00  0.00     0.368 C 
ATOM     82  O   UNL A   1      32.032  25.923  21.153  1.00  0.00    -0.245 OA
BRANCH  81  83
ATOM     83  C   UNL A   1      32.237  26.051  23.580  1.00  0.00     0.200 C 
ATOM     84  C   UNL A   1      32.956  27.325  24.022  1.00  0.00     0.087 C 
ATOM     85  C   UNL A   1      30.768  26.590  23.414  1.00  0.00     0.146 C 
ATOM     86  C   UNL A   1      31.966  27.910  25.013  1.00  0.00     0.072 C 
ATOM     87  C   UNL A   1      30.636  27.862  24.265  1.00  0.00     0.191 C 
BRANCH  83  88
ATOM     88  N   UNL A   1      32.238  24.993  24.621  1.00  0.00    -0.329 N 
ATOM     89  H   UNL A   1      32.526  25.460  25.482  1.00  0.00     0.347 HD
ATOM     90  H   UNL A   1      32.824  24.291  24.171  1.00  0.00     0.347 HD
BRANCH  88  91
ATOM     91  C   UNL A   1      31.079  24.175  24.989  1.00  0.00     0.183 C 
ATOM     92  C   UNL A   1      31.062  22.911  25.788  1.00  0.00     0.071 C 
ATOM     93  C   UNL A   1      30.536  24.176  26.400  1.00  0.00     0.071 C 
ENDBRANCH  88  91
ENDBRANCH  83  88
BRANCH  87  94
ATOM     94  N   UNL A   1      30.267  29.074  23.520  1.00  0.00    -0.323 N 
ATOM     95  C   UNL A   1      30.371  30.289  24.365  1.00  0.00     0.324 C 
ATOM     96  C   UNL A   1      29.090  29.148  22.642  1.00  0.00     0.328 C 
ATOM     97  H   UNL A   1      30.988  29.007  22.802  1.00  0.00     0.348 HD
ATOM     98  C   UNL A   1      29.533  31.516  23.908  1.00  0.00     0.324 C 
ATOM     99  C   UNL A   1      29.210  30.411  21.742  1.00  0.00     0.240 C 
ATOM    100  N   UNL A   1      29.415  31.673  22.460  1.00  0.00    -0.323 N 
ATOM    101  C   UNL A   1      28.056  30.661  20.775  1.00  0.00     0.077 C 
ATOM    102  C   UNL A   1      28.404  32.634  22.044  1.00  0.00     0.263 C 
ATOM    103  H   UNL A   1      30.329  32.044  22.199  1.00  0.00     0.348 HD
ATOM    104  C   UNL A   1      28.046  32.177  20.641  1.00  0.00     0.068 C 
ENDBRANCH  87  94
ENDBRANCH  81  83
ENDBRANCH  80  81
ENDBRANCH  79  80
ENDBRANCH  78  79
ENDBRANCH  77  78
ENDBRANCH  76  77
ENDBRANCH   1  76
TORSDOF 23
ENDMDL
MODEL 2
REMARK VINA RESULT:      -9.1      5.718      9.696
REMARK SMILES O=C(OCCOCCOCCOC(=O)[C@@]1([NH2+]C2CC2)CC[C@@H]([N@@H+]2CC[N@@H+]3CCC[C@@H]3C2)C1)c1ccc(-c2c3nc(c(-c4c(F)cc(S(=O)(=O)[O-])cc4F)c4ccc([nH]4)c(-c4c(F)cc(S(=O)(=O)[O-])cc4F)c4nc(c(-c5c(F)cc(S(=O)(=O)[O-])cc5F)c5ccc2[nH]5)C=C4)C=C3)cc1
REMARK SMILES IDX 7 1 6 2 5 3 4 4 3 5 2 6 1 7 33 8 34 9 98 10 35 11 97 12
REMARK SMILES IDX 36 13 37 14 38 15 91 16 39 17 96 18 90 19 92 20 40 21 95 22
REMARK SMILES IDX 89 23 88 24 41 26 75 27 54 28 74 29 55 30 58 31 73 32 93 33
REMARK SMILES IDX 56 34 57 35 72 37 94 38 59 39 42 40 43 41 52 42 44 43 45 44
REMARK SMILES IDX 51 45 53 46 46 47 47 48 48 49 49 50 50 51 76 52 77 53 86 54
REMARK SMILES IDX 78 55 79 56 85 57 87 58 80 59 81 60 82 61 83 62 84 63 60 64
REMARK SMILES IDX 61 65 70 66 62 67 63 68 69 69 71 70 64 71 65 72 66 73 67 74
REMARK SMILES IDX 68 75 8 76 9 77 10 78 11 79 12 80 13 81 14 82 15 83 20 84
REMARK SMILES IDX 32 85 21 86 22 87 16 88 17 91 18 92 19 93 23 94 24 95 31 96
REMARK SMILES IDX 25 98 30 99 26 100 29 101 27 102 28 104
REMARK H PARENT 92 25 58 36 16 89 16 90 23 97 26 103
REMARK Flexibility Score: inf
ROOT
ATOM      1  C   UNL A   1      37.452  20.592  24.519  1.00  0.00     0.188 C 
ENDROOT
BRANCH   1   2
ATOM      2  O   UNL A   1      38.304  21.008  25.590  1.00  0.00    -0.376 OA
BRANCH   2   3
ATOM      3  C   UNL A   1      39.430  20.152  25.764  1.00  0.00     0.202 C 
BRANCH   3   4
ATOM      4  C   UNL A   1      40.417  20.641  26.841  1.00  0.00     0.261 C 
BRANCH   4   5
ATOM      5  O   UNL A   1      41.812  20.515  26.482  1.00  0.00    -0.460 OA
BRANCH   5   6
ATOM      6  C   UNL A   1      42.747  21.418  26.113  1.00  0.00     0.338 C 
ATOM      7  O   UNL A   1      43.269  21.296  25.006  1.00  0.00    -0.246 OA
BRANCH   6   8
ATOM      8  C   UNL A   1      43.285  22.473  27.031  1.00  0.00     0.060 A 
ATOM      9  C   UNL A   1      44.624  22.841  27.134  1.00  0.00     0.016 A 
ATOM     10  C   UNL A   1      42.356  23.194  27.803  1.00  0.00     0.016 A 
ATOM     11  C   UNL A   1      45.047  23.852  28.000  1.00  0.00     0.010 A 
ATOM     12  C   UNL A   1      42.768  24.218  28.669  1.00  0.00     0.010 A 
ATOM     13  C   UNL A   1      44.128  24.534  28.793  1.00  0.00    -0.014 A 
BRANCH  13  14
ATOM     14  C   UNL A   1      44.611  25.464  29.841  1.00  0.00     0.031 A 
ATOM     15  C   UNL A   1      44.813  26.893  29.491  1.00  0.00     0.074 A 
ATOM     16  C   UNL A   1      44.791  25.080  31.118  1.00  0.00     0.049 A 
ATOM     17  N   UNL A   1      45.192  27.862  30.274  1.00  0.00    -0.248 NA
ATOM     18  C   UNL A   1      44.487  27.301  28.117  1.00  0.00     0.031 C 
ATOM     19  C   UNL A   1      44.435  23.768  31.605  1.00  0.00     0.029 A 
ATOM     20  N   UNL A   1      45.323  25.704  32.223  1.00  0.00    -0.354 N 
ATOM     21  C   UNL A   1      45.116  29.005  29.505  1.00  0.00     0.074 A 
ATOM     22  C   UNL A   1      44.696  28.608  28.177  1.00  0.00     0.031 C 
ATOM     23  C   UNL A   1      44.882  23.637  32.860  1.00  0.00     0.029 A 
ATOM     24  C   UNL A   1      45.507  24.853  33.294  1.00  0.00     0.049 A 
ATOM     25  H   UNL A   1      45.550  26.661  32.247  1.00  0.00     0.167 HD
ATOM     26  C   UNL A   1      45.357  30.272  29.898  1.00  0.00     0.037 A 
ATOM     27  C   UNL A   1      46.099  24.996  34.497  1.00  0.00     0.037 A 
ATOM     28  C   UNL A   1      45.797  30.636  31.217  1.00  0.00     0.049 A 
ATOM     29  C   UNL A   1      46.511  26.383  34.851  1.00  0.00     0.074 A 
ATOM     30  C   UNL A   1      46.099  31.895  31.700  1.00  0.00     0.029 A 
ATOM     31  N   UNL A   1      46.026  29.743  32.258  1.00  0.00    -0.354 N 
ATOM     32  N   UNL A   1      46.383  27.464  34.120  1.00  0.00    -0.248 NA
ATOM     33  C   UNL A   1      47.079  26.602  36.182  1.00  0.00     0.031 C 
ATOM     34  C   UNL A   1      46.579  31.757  33.006  1.00  0.00     0.029 A 
ATOM     35  C   UNL A   1      46.524  30.419  33.360  1.00  0.00     0.049 A 
ATOM     36  H   UNL A   1      45.859  28.773  32.218  1.00  0.00     0.167 HD
ATOM     37  C   UNL A   1      46.818  28.502  34.918  1.00  0.00     0.074 A 
ATOM     38  C   UNL A   1      47.187  27.923  36.196  1.00  0.00     0.031 C 
ATOM     39  C   UNL A   1      46.904  29.815  34.612  1.00  0.00     0.037 A 
BRANCH  26  40
ATOM     40  C   UNL A   1      45.210  31.333  28.859  1.00  0.00     0.058 A 
ATOM     41  C   UNL A   1      46.241  31.638  27.958  1.00  0.00     0.135 A 
ATOM     42  C   UNL A   1      44.011  32.053  28.768  1.00  0.00     0.135 A 
ATOM     43  F   UNL A   1      47.425  31.009  28.042  1.00  0.00    -0.206 F 
ATOM     44  C   UNL A   1      46.082  32.621  26.990  1.00  0.00     0.059 A 
ATOM     45  C   UNL A   1      43.822  33.024  27.796  1.00  0.00     0.059 A 
ATOM     46  F   UNL A   1      43.014  31.816  29.636  1.00  0.00    -0.206 F 
ATOM     47  C   UNL A   1      44.864  33.300  26.911  1.00  0.00     0.060 A 
BRANCH  47  48
ATOM     48  S   UNL A   1      44.654  34.534  25.614  1.00  0.00     0.124 S 
ATOM     49  O   UNL A   1      43.308  35.022  25.890  1.00  0.00    -0.237 OA
ATOM     50  O   UNL A   1      45.739  35.465  25.894  1.00  0.00    -0.237 OA
ATOM     51  O   UNL A   1      44.799  33.758  24.382  1.00  0.00    -0.744 OA
ENDBRANCH  47  48
ENDBRANCH  26  40
BRANCH  27  52
ATOM     52  C   UNL A   1      46.306  23.854  35.445  1.00  0.00     0.058 A 
ATOM     53  C   UNL A   1      45.368  23.530  36.440  1.00  0.00     0.135 A 
ATOM     54  C   UNL A   1      47.481  23.081  35.407  1.00  0.00     0.135 A 
ATOM     55  F   UNL A   1      44.214  24.214  36.514  1.00  0.00    -0.206 F 
ATOM     56  C   UNL A   1      45.599  22.525  37.383  1.00  0.00     0.059 A 
ATOM     57  C   UNL A   1      47.729  22.064  36.329  1.00  0.00     0.059 A 
ATOM     58  F   UNL A   1      48.409  23.316  34.465  1.00  0.00    -0.206 F 
ATOM     59  C   UNL A   1      46.789  21.803  37.328  1.00  0.00     0.060 A 
BRANCH  59  60
ATOM     60  S   UNL A   1      47.091  20.486  38.532  1.00  0.00     0.124 S 
ATOM     61  O   UNL A   1      48.202  19.770  37.914  1.00  0.00    -0.237 OA
ATOM     62  O   UNL A   1      47.414  21.214  39.756  1.00  0.00    -0.237 OA
ATOM     63  O   UNL A   1      45.821  19.767  38.569  1.00  0.00    -0.744 OA
ENDBRANCH  59  60
ENDBRANCH  27  52
BRANCH  39  64
ATOM     64  C   UNL A   1      47.444  30.698  35.690  1.00  0.00     0.058 A 
ATOM     65  C   UNL A   1      46.588  31.296  36.627  1.00  0.00     0.135 A 
ATOM     66  C   UNL A   1      48.821  30.942  35.786  1.00  0.00     0.135 A 
ATOM     67  F   UNL A   1      45.261  31.106  36.553  1.00  0.00    -0.206 F 
ATOM     68  C   UNL A   1      47.081  32.133  37.615  1.00  0.00     0.059 A 
ATOM     69  C   UNL A   1      49.338  31.749  36.790  1.00  0.00     0.059 A 
ATOM     70  F   UNL A   1      49.672  30.393  34.905  1.00  0.00    -0.206 F 
ATOM     71  C   UNL A   1      48.458  32.348  37.692  1.00  0.00     0.060 A 
BRANCH  71  72
ATOM     72  S   UNL A   1      49.087  33.396  39.015  1.00  0.00     0.124 S 
ATOM     73  O   UNL A   1      47.849  33.857  39.637  1.00  0.00    -0.237 OA
ATOM     74  O   UNL A   1      49.882  32.458  39.802  1.00  0.00    -0.237 OA
ATOM     75  O   UNL A   1      49.852  34.415  38.304  1.00  0.00    -0.744 OA
ENDBRANCH  71  72
ENDBRANCH  39  64
ENDBRANCH  13  14
ENDBRANCH   6   8
ENDBRANCH   5   6
ENDBRANCH   4   5
ENDBRANCH   3   4
ENDBRANCH   2   3
ENDBRANCH   1   2
BRANCH   1  76
ATOM     76  C   UNL A   1      36.057  20.251  25.040  1.00  0.00     0.188 C 
BRANCH  76  77
ATOM     77  O   UNL A   1      34.951  20.977  24.506  1.00  0.00    -0.376 OA
BRANCH  77  78
ATOM     78  C   UNL A   1      33.644  20.542  24.843  1.00  0.00     0.202 C 
BRANCH  78  79
ATOM     79  C   UNL A   1      32.516  20.861  23.856  1.00  0.00     0.261 C 
BRANCH  79  80
ATOM     80  O   UNL A   1      32.684  22.057  23.081  1.00  0.00    -0.459 OA
BRANCH  80  81
ATOM     81  C   UNL A   1      32.169  23.185  23.658  1.00  0.00     0.368 C 
ATOM     82  O   UNL A   1      31.020  23.265  24.084  1.00  0.00    -0.245 OA
BRANCH  81  83
ATOM     83  C   UNL A   1      33.113  24.390  23.535  1.00  0.00     0.200 C 
ATOM     84  C   UNL A   1      33.053  25.226  22.257  1.00  0.00     0.087 C 
ATOM     85  C   UNL A   1      32.506  25.405  24.574  1.00  0.00     0.146 C 
ATOM     86  C   UNL A   1      33.522  26.582  22.753  1.00  0.00     0.072 C 
ATOM     87  C   UNL A   1      32.679  26.820  24.003  1.00  0.00     0.191 C 
BRANCH  83  88
ATOM     88  N   UNL A   1      34.501  24.063  23.950  1.00  0.00    -0.329 N 
ATOM     89  H   UNL A   1      35.103  24.491  23.246  1.00  0.00     0.347 HD
ATOM     90  H   UNL A   1      34.430  23.051  24.050  1.00  0.00     0.347 HD
BRANCH  88  91
ATOM     91  C   UNL A   1      35.098  24.416  25.241  1.00  0.00     0.183 C 
ATOM     92  C   UNL A   1      35.319  23.531  26.425  1.00  0.00     0.071 C 
ATOM     93  C   UNL A   1      36.496  23.971  25.605  1.00  0.00     0.071 C 
ENDBRANCH  88  91
ENDBRANCH  83  88
BRANCH  87  94
ATOM     94  N   UNL A   1      31.431  27.570  23.810  1.00  0.00    -0.323 N 
ATOM     95  C   UNL A   1      30.245  26.772  24.208  1.00  0.00     0.324 C 
ATOM     96  C   UNL A   1      31.147  28.359  22.601  1.00  0.00     0.328 C 
ATOM     97  H   UNL A   1      31.644  28.339  24.445  1.00  0.00     0.348 HD
ATOM     98  C   UNL A   1      28.888  27.202  23.582  1.00  0.00     0.324 C 
ATOM     99  C   UNL A   1      29.944  29.302  22.884  1.00  0.00     0.240 C 
ATOM    100  N   UNL A   1      28.734  28.641  23.380  1.00  0.00    -0.323 N 
ATOM    101  C   UNL A   1      29.493  30.186  21.725  1.00  0.00     0.077 C 
ATOM    102  C   UNL A   1      27.604  29.007  22.538  1.00  0.00     0.263 C 
ATOM    103  H   UNL A   1      28.546  28.981  24.323  1.00  0.00     0.348 HD
ATOM    104  C   UNL A   1      28.005  30.365  21.989  1.00  0.00     0.068 C 
ENDBRANCH  87  94
ENDBRANCH  81  83
ENDBRANCH  80  81
ENDBRANCH  79  80
ENDBRANCH  78  79
ENDBRANCH  77  78
ENDBRANCH  76  77
ENDBRANCH   1  76
TORSDOF 23
ENDMDL
MODEL 3
REMARK VINA RESULT:      -8.8      5.578     14.036
REMARK SMILES O=C(OCCOCCOCCOC(=O)[C@@]1([NH2+]C2CC2)CC[C@@H]([N@@H+]2CC[N@@H+]3CCC[C@@H]3C2)C1)c1ccc(-c2c3nc(c(-c4c(F)cc(S(=O)(=O)[O-])cc4F)c4ccc([nH]4)c(-c4c(F)cc(S(=O)(=O)[O-])cc4F)c4nc(c(-c5c(F)cc(S(=O)(=O)[O-])cc5F)c5ccc2[nH]5)C=C4)C=C3)cc1
REMARK SMILES IDX 7 1 6 2 5 3 4 4 3 5 2 6 1 7 33 8 34 9 98 10 35 11 97 12
REMARK SMILES IDX 36 13 37 14 38 15 91 16 39 17 96 18 90 19 92 20 40 21 95 22
REMARK SMILES IDX 89 23 88 24 41 26 75 27 54 28 74 29 55 30 58 31 73 32 93 33
REMARK SMILES IDX 56 34 57 35 72 37 94 38 59 39 42 40 43 41 52 42 44 43 45 44
REMARK SMILES IDX 51 45 53 46 46 47 47 48 48 49 49 50 50 51 76 52 77 53 86 54
REMARK SMILES IDX 78 55 79 56 85 57 87 58 80 59 81 60 82 61 83 62 84 63 60 64
REMARK SMILES IDX 61 65 70 66 62 67 63 68 69 69 71 70 64 71 65 72 66 73 67 74
REMARK SMILES IDX 68 75 8 76 9 77 10 78 11 79 12 80 13 81 14 82 15 83 20 84
REMARK SMILES IDX 32 85 21 86 22 87 16 88 17 91 18 92 19 93 23 94 24 95 31 96
REMARK SMILES IDX 25 98 30 99 26 100 29 101 27 102 28 104
REMARK H PARENT 92 25 58 36 16 89 16 90 23 97 26 103
REMARK Flexibility Score: inf
ROOT
ATOM      1  C   UNL A   1      49.933  24.279  39.315  1.00  0.00     0.188 C 
ENDROOT
BRANCH   1   2
ATOM      2  O   UNL A   1      48.623  23.915  39.761  1.00  0.00    -0.376 OA
BRANCH   2   3
ATOM      3  C   UNL A   1      47.600  24.727  39.193  1.00  0.00     0.202 C 
BRANCH   3   4
ATOM      4  C   UNL A   1      47.295  25.997  40.009  1.00  0.00     0.261 C 
BRANCH   4   5
ATOM      5  O   UNL A   1      47.621  27.237  39.339  1.00  0.00    -0.460 OA
BRANCH   5   6
ATOM      6  C   UNL A   1      47.796  27.554  38.037  1.00  0.00     0.338 C 
ATOM      7  O   UNL A   1      48.933  27.492  37.572  1.00  0.00    -0.246 OA
BRANCH   6   8
ATOM      8  C   UNL A   1      46.711  28.112  37.169  1.00  0.00     0.060 A 
ATOM      9  C   UNL A   1      46.787  29.305  36.455  1.00  0.00     0.016 A 
ATOM     10  C   UNL A   1      45.546  27.339  37.011  1.00  0.00     0.016 A 
ATOM     11  C   UNL A   1      45.738  29.750  35.647  1.00  0.00     0.010 A 
ATOM     12  C   UNL A   1      44.490  27.771  36.194  1.00  0.00     0.010 A 
ATOM     13  C   UNL A   1      44.572  29.000  35.527  1.00  0.00    -0.014 A 
BRANCH  13  14
ATOM     14  C   UNL A   1      43.399  29.575  34.825  1.00  0.00     0.031 A 
ATOM     15  C   UNL A   1      43.156  29.195  33.410  1.00  0.00     0.074 A 
ATOM     16  C   UNL A   1      42.501  30.360  35.447  1.00  0.00     0.049 A 
ATOM     17  N   UNL A   1      42.169  29.561  32.643  1.00  0.00    -0.248 NA
ATOM     18  C   UNL A   1      44.089  28.236  32.801  1.00  0.00     0.031 C 
ATOM     19  C   UNL A   1      42.535  30.629  36.866  1.00  0.00     0.029 A 
ATOM     20  N   UNL A   1      41.421  31.089  35.005  1.00  0.00    -0.354 N 
ATOM     21  C   UNL A   1      42.335  28.852  31.471  1.00  0.00     0.074 A 
ATOM     22  C   UNL A   1      43.543  28.064  31.607  1.00  0.00     0.031 C 
ATOM     23  C   UNL A   1      41.620  31.564  37.151  1.00  0.00     0.029 A 
ATOM     24  C   UNL A   1      40.898  31.930  35.967  1.00  0.00     0.049 A 
ATOM     25  H   UNL A   1      41.058  31.019  34.093  1.00  0.00     0.167 HD
ATOM     26  C   UNL A   1      41.526  28.854  30.393  1.00  0.00     0.037 A 
ATOM     27  C   UNL A   1      39.952  32.889  35.941  1.00  0.00     0.037 A 
ATOM     28  C   UNL A   1      40.345  29.666  30.274  1.00  0.00     0.049 A 
ATOM     29  C   UNL A   1      39.171  32.989  34.676  1.00  0.00     0.074 A 
ATOM     30  C   UNL A   1      39.477  29.759  29.204  1.00  0.00     0.029 A 
ATOM     31  N   UNL A   1      39.878  30.544  31.245  1.00  0.00    -0.354 N 
ATOM     32  N   UNL A   1      39.316  32.268  33.591  1.00  0.00    -0.248 NA
ATOM     33  C   UNL A   1      38.074  33.958  34.631  1.00  0.00     0.031 C 
ATOM     34  C   UNL A   1      38.529  30.744  29.496  1.00  0.00     0.029 A 
ATOM     35  C   UNL A   1      38.770  31.227  30.771  1.00  0.00     0.049 A 
ATOM     36  H   UNL A   1      40.277  30.664  32.138  1.00  0.00     0.167 HD
ATOM     37  C   UNL A   1      38.303  32.669  32.744  1.00  0.00     0.074 A 
ATOM     38  C   UNL A   1      37.536  33.675  33.455  1.00  0.00     0.031 C 
ATOM     39  C   UNL A   1      38.039  32.240  31.490  1.00  0.00     0.037 A 
BRANCH  26  40
ATOM     40  C   UNL A   1      41.942  27.998  29.244  1.00  0.00     0.058 A 
ATOM     41  C   UNL A   1      42.998  28.358  28.394  1.00  0.00     0.135 A 
ATOM     42  C   UNL A   1      41.267  26.795  28.994  1.00  0.00     0.135 A 
ATOM     43  F   UNL A   1      43.638  29.527  28.563  1.00  0.00    -0.206 F 
ATOM     44  C   UNL A   1      43.379  27.543  27.335  1.00  0.00     0.059 A 
ATOM     45  C   UNL A   1      41.644  25.956  27.957  1.00  0.00     0.059 A 
ATOM     46  F   UNL A   1      40.227  26.434  29.763  1.00  0.00    -0.206 F 
ATOM     47  C   UNL A   1      42.701  26.339  27.133  1.00  0.00     0.060 A 
BRANCH  47  48
ATOM     48  S   UNL A   1      43.244  25.266  25.790  1.00  0.00     0.124 S 
ATOM     49  O   UNL A   1      44.668  25.573  25.728  1.00  0.00    -0.237 OA
ATOM     50  O   UNL A   1      42.898  23.943  26.292  1.00  0.00    -0.237 OA
ATOM     51  O   UNL A   1      42.453  25.728  24.648  1.00  0.00    -0.744 OA
ENDBRANCH  47  48
ENDBRANCH  26  40
BRANCH  27  52
ATOM     52  C   UNL A   1      39.665  33.783  37.109  1.00  0.00     0.058 A 
ATOM     53  C   UNL A   1      40.294  35.031  37.266  1.00  0.00     0.135 A 
ATOM     54  C   UNL A   1      38.782  33.386  38.129  1.00  0.00     0.135 A 
ATOM     55  F   UNL A   1      41.130  35.478  36.316  1.00  0.00    -0.206 F 
ATOM     56  C   UNL A   1      40.098  35.825  38.399  1.00  0.00     0.059 A 
ATOM     57  C   UNL A   1      38.560  34.169  39.263  1.00  0.00     0.059 A 
ATOM     58  F   UNL A   1      38.124  32.219  38.032  1.00  0.00    -0.206 F 
ATOM     59  C   UNL A   1      39.237  35.381  39.399  1.00  0.00     0.060 A 
BRANCH  59  60
ATOM     60  S   UNL A   1      38.960  36.412  40.862  1.00  0.00     0.124 S 
ATOM     61  O   UNL A   1      37.936  35.650  41.570  1.00  0.00    -0.237 OA
ATOM     62  O   UNL A   1      40.272  36.451  41.501  1.00  0.00    -0.237 OA
ATOM     63  O   UNL A   1      38.520  37.685  40.297  1.00  0.00    -0.744 OA
ENDBRANCH  59  60
ENDBRANCH  27  52
BRANCH  39  64
ATOM     64  C   UNL A   1      36.876  32.889  30.815  1.00  0.00     0.058 A 
ATOM     65  C   UNL A   1      35.561  32.494  31.103  1.00  0.00     0.135 A 
ATOM     66  C   UNL A   1      37.078  33.912  29.878  1.00  0.00     0.135 A 
ATOM     67  F   UNL A   1      35.328  31.501  31.976  1.00  0.00    -0.206 F 
ATOM     68  C   UNL A   1      34.480  33.077  30.463  1.00  0.00     0.059 A 
ATOM     69  C   UNL A   1      36.007  34.534  29.252  1.00  0.00     0.059 A 
ATOM     70  F   UNL A   1      38.320  34.316  29.570  1.00  0.00    -0.206 F 
ATOM     71  C   UNL A   1      34.713  34.101  29.544  1.00  0.00     0.060 A 
BRANCH  71  72
ATOM     72  S   UNL A   1      33.294  34.886  28.760  1.00  0.00     0.124 S 
ATOM     73  O   UNL A   1      33.918  36.026  28.096  1.00  0.00    -0.237 OA
ATOM     74  O   UNL A   1      32.803  33.829  27.880  1.00  0.00    -0.237 OA
ATOM     75  O   UNL A   1      32.423  35.211  29.885  1.00  0.00    -0.744 OA
ENDBRANCH  71  72
ENDBRANCH  39  64
ENDBRANCH  13  14
ENDBRANCH   6   8
ENDBRANCH   5   6
ENDBRANCH   4   5
ENDBRANCH   3   4
ENDBRANCH   2   3
ENDBRANCH   1   2
BRANCH   1  76
ATOM     76  C   UNL A   1      50.703  23.049  38.839  1.00  0.00     0.188 C 
BRANCH  76  77
ATOM     77  O   UNL A   1      51.207  23.055  37.503  1.00  0.00    -0.376 OA
BRANCH  77  78
ATOM     78  C   UNL A   1      51.532  21.809  36.910  1.00  0.00     0.202 C 
BRANCH  78  79
ATOM     79  C   UNL A   1      51.106  20.539  37.656  1.00  0.00     0.261 C 
BRANCH  79  80
ATOM     80  O   UNL A   1      49.869  19.949  37.229  1.00  0.00    -0.459 OA
BRANCH  80  81
ATOM     81  C   UNL A   1      48.883  19.947  38.177  1.00  0.00     0.368 C 
ATOM     82  O   UNL A   1      49.087  19.732  39.368  1.00  0.00    -0.245 OA
BRANCH  81  83
ATOM     83  C   UNL A   1      47.479  20.046  37.561  1.00  0.00     0.200 C 
ATOM     84  C   UNL A   1      46.635  21.277  37.887  1.00  0.00     0.087 C 
ATOM     85  C   UNL A   1      47.792  20.303  36.041  1.00  0.00     0.146 C 
ATOM     86  C   UNL A   1      45.741  21.372  36.663  1.00  0.00     0.072 C 
ATOM     87  C   UNL A   1      46.717  21.254  35.495  1.00  0.00     0.191 C 
BRANCH  83  88
ATOM     88  N   UNL A   1      46.721  18.775  37.680  1.00  0.00    -0.329 N 
ATOM     89  H   UNL A   1      47.409  18.034  37.541  1.00  0.00     0.347 HD
ATOM     90  H   UNL A   1      45.972  18.943  37.008  1.00  0.00     0.347 HD
BRANCH  88  91
ATOM     91  C   UNL A   1      45.939  18.368  38.851  1.00  0.00     0.183 C 
ATOM     92  C   UNL A   1      45.202  17.085  39.065  1.00  0.00     0.071 C 
ATOM     93  C   UNL A   1      46.469  17.343  39.828  1.00  0.00     0.071 C 
ENDBRANCH  88  91
ENDBRANCH  83  88
BRANCH  87  94
ATOM     94  N   UNL A   1      47.226  22.519  34.946  1.00  0.00    -0.323 N 
ATOM     95  C   UNL A   1      48.393  23.019  35.713  1.00  0.00     0.324 C 
ATOM     96  C   UNL A   1      46.350  23.630  34.546  1.00  0.00     0.328 C 
ATOM     97  H   UNL A   1      47.460  22.170  34.017  1.00  0.00     0.348 HD
ATOM     98  C   UNL A   1      48.688  24.541  35.600  1.00  0.00     0.324 C 
ATOM     99  C   UNL A   1      47.166  24.630  33.679  1.00  0.00     0.240 C 
ATOM    100  N   UNL A   1      48.402  25.125  34.291  1.00  0.00    -0.323 N 
ATOM    101  C   UNL A   1      46.416  25.866  33.190  1.00  0.00     0.077 C 
ATOM    102  C   UNL A   1      48.400  26.581  34.275  1.00  0.00     0.263 C 
ATOM    103  H   UNL A   1      49.189  24.806  33.726  1.00  0.00     0.348 HD
ATOM    104  C   UNL A   1      47.515  26.914  33.086  1.00  0.00     0.068 C 
ENDBRANCH  87  94
ENDBRANCH  81  83
ENDBRANCH  80  81
ENDBRANCH  79  80
ENDBRANCH  78  79
ENDBRANCH  77  78
ENDBRANCH  76  77
ENDBRANCH   1  76
TORSDOF 23
ENDMDL
