MODEL 1
REMARK VINA RESULT:     -11.5      0.000      0.000
REMARK SMILES O=C(OCCOCCOCCOC(=O)c1cccn(Cc2ccc3c(c2)OC(F)(F)O3)c1=O)c1ccc(-c2c3nc(c(-c4c(F)cc(S(=O)(=O)[O-])cc4F)c4ccc([nH]4)c(-c4c(F)cc(S(=O)(=O)[O-])cc4F)c4nc(c(-c5c(F)cc(S(=O)(=O)[O-])cc5F)c5ccc2[nH]5)C=C4)C=C3)cc1
REMARK SMILES IDX 7 1 6 2 5 3 4 4 3 5 2 6 1 7 34 8 35 9 99 10 36 11 98 12
REMARK SMILES IDX 37 13 38 14 39 15 92 16 40 17 97 18 91 19 93 20 41 21 96 22
REMARK SMILES IDX 90 23 89 24 42 26 76 27 55 28 75 29 56 30 59 31 74 32 94 33
REMARK SMILES IDX 57 34 58 35 73 37 95 38 60 39 43 40 44 41 53 42 45 43 46 44
REMARK SMILES IDX 52 45 54 46 47 47 48 48 49 49 50 50 51 51 77 52 78 53 87 54
REMARK SMILES IDX 79 55 80 56 86 57 88 58 81 59 82 60 83 61 84 62 85 63 61 64
REMARK SMILES IDX 62 65 71 66 63 67 64 68 70 69 72 70 65 71 66 72 67 73 68 74
REMARK SMILES IDX 69 75 8 76 9 77 10 78 11 79 12 80 13 81 14 82 15 83 16 84
REMARK SMILES IDX 32 85 17 86 19 87 33 88 18 89 20 90 21 91 22 92 26 93 23 94
REMARK SMILES IDX 25 95 24 96 27 97 31 98 28 99 29 100 30 101
REMARK H PARENT 93 25 59 36
REMARK Flexibility Score: inf
ROOT
ATOM      1  C   UNL A   1      43.821  21.202  25.383  1.00  0.00     0.188 C 
ENDROOT
BRANCH   1   2
ATOM      2  O   UNL A   1      43.452  22.192  24.416  1.00  0.00    -0.376 OA
BRANCH   2   3
ATOM      3  C   UNL A   1      44.407  23.252  24.311  1.00  0.00     0.202 C 
BRANCH   3   4
ATOM      4  C   UNL A   1      44.194  24.422  25.281  1.00  0.00     0.261 C 
BRANCH   4   5
ATOM      5  O   UNL A   1      42.858  24.516  25.794  1.00  0.00    -0.460 OA
BRANCH   5   6
ATOM      6  C   UNL A   1      42.080  25.610  25.985  1.00  0.00     0.338 C 
ATOM      7  O   UNL A   1      41.531  26.086  24.991  1.00  0.00    -0.246 OA
BRANCH   6   8
ATOM      8  C   UNL A   1      41.865  26.310  27.300  1.00  0.00     0.060 A 
ATOM      9  C   UNL A   1      42.813  27.295  27.647  1.00  0.00     0.016 A 
ATOM     10  C   UNL A   1      40.831  26.081  28.209  1.00  0.00     0.016 A 
ATOM     11  C   UNL A   1      42.713  28.023  28.841  1.00  0.00     0.010 A 
ATOM     12  C   UNL A   1      40.708  26.820  29.388  1.00  0.00     0.010 A 
ATOM     13  C   UNL A   1      41.643  27.799  29.713  1.00  0.00    -0.014 A 
BRANCH  13  14
ATOM     14  C   UNL A   1      41.362  28.710  30.844  1.00  0.00     0.031 A 
ATOM     15  C   UNL A   1      42.020  28.568  32.183  1.00  0.00     0.074 A 
ATOM     16  C   UNL A   1      40.368  29.603  30.683  1.00  0.00     0.049 A 
ATOM     17  N   UNL A   1      42.043  29.422  33.174  1.00  0.00    -0.248 NA
ATOM     18  C   UNL A   1      42.727  27.312  32.464  1.00  0.00     0.031 C 
ATOM     19  C   UNL A   1      39.535  29.729  29.483  1.00  0.00     0.029 A 
ATOM     20  N   UNL A   1      39.862  30.538  31.542  1.00  0.00    -0.354 N 
ATOM     21  C   UNL A   1      42.864  28.858  34.144  1.00  0.00     0.074 A 
ATOM     22  C   UNL A   1      43.201  27.534  33.685  1.00  0.00     0.031 C 
ATOM     23  C   UNL A   1      38.607  30.675  29.694  1.00  0.00     0.029 A 
ATOM     24  C   UNL A   1      38.791  31.227  31.031  1.00  0.00     0.049 A 
ATOM     25  H   UNL A   1      40.229  30.700  32.441  1.00  0.00     0.167 HD
ATOM     26  C   UNL A   1      43.323  29.435  35.279  1.00  0.00     0.037 A 
ATOM     27  C   UNL A   1      38.051  32.206  31.580  1.00  0.00     0.037 A 
ATOM     28  C   UNL A   1      42.798  30.665  35.801  1.00  0.00     0.049 A 
ATOM     29  C   UNL A   1      38.443  32.735  32.929  1.00  0.00     0.074 A 
ATOM     30  C   UNL A   1      43.177  31.347  36.942  1.00  0.00     0.029 A 
ATOM     31  N   UNL A   1      41.716  31.339  35.262  1.00  0.00    -0.354 N 
ATOM     32  N   UNL A   1      39.449  32.374  33.691  1.00  0.00    -0.248 NA
ATOM     33  C   UNL A   1      37.620  33.815  33.484  1.00  0.00     0.031 C 
ATOM     34  C   UNL A   1      42.270  32.392  37.135  1.00  0.00     0.029 A 
ATOM     35  C   UNL A   1      41.358  32.383  36.090  1.00  0.00     0.049 A 
ATOM     36  H   UNL A   1      41.269  31.107  34.416  1.00  0.00     0.167 HD
ATOM     37  C   UNL A   1      39.399  33.206  34.802  1.00  0.00     0.074 A 
ATOM     38  C   UNL A   1      38.265  34.088  34.611  1.00  0.00     0.031 C 
ATOM     39  C   UNL A   1      40.223  33.243  35.878  1.00  0.00     0.037 A 
BRANCH  26  40
ATOM     40  C   UNL A   1      44.483  28.819  36.005  1.00  0.00     0.058 A 
ATOM     41  C   UNL A   1      45.774  29.323  35.771  1.00  0.00     0.135 A 
ATOM     42  C   UNL A   1      44.337  27.833  36.988  1.00  0.00     0.135 A 
ATOM     43  F   UNL A   1      45.971  30.268  34.836  1.00  0.00    -0.206 F 
ATOM     44  C   UNL A   1      46.888  28.842  36.450  1.00  0.00     0.059 A 
ATOM     45  C   UNL A   1      45.441  27.334  37.681  1.00  0.00     0.059 A 
ATOM     46  F   UNL A   1      43.121  27.346  37.278  1.00  0.00    -0.206 F 
ATOM     47  C   UNL A   1      46.715  27.829  37.388  1.00  0.00     0.060 A 
BRANCH  47  48
ATOM     48  S   UNL A   1      48.156  27.151  38.240  1.00  0.00     0.124 S 
ATOM     49  O   UNL A   1      49.247  27.803  37.524  1.00  0.00    -0.237 OA
ATOM     50  O   UNL A   1      47.963  27.586  39.621  1.00  0.00    -0.237 OA
ATOM     51  O   UNL A   1      48.014  25.716  38.014  1.00  0.00    -0.744 OA
ENDBRANCH  47  48
ENDBRANCH  26  40
BRANCH  27  52
ATOM     52  C   UNL A   1      36.927  32.782  30.805  1.00  0.00     0.058 A 
ATOM     53  C   UNL A   1      35.611  32.368  31.044  1.00  0.00     0.135 A 
ATOM     54  C   UNL A   1      37.136  33.814  29.876  1.00  0.00     0.135 A 
ATOM     55  F   UNL A   1      35.367  31.390  31.930  1.00  0.00    -0.206 F 
ATOM     56  C   UNL A   1      34.536  32.956  30.389  1.00  0.00     0.059 A 
ATOM     57  C   UNL A   1      36.074  34.431  29.223  1.00  0.00     0.059 A 
ATOM     58  F   UNL A   1      38.378  34.261  29.633  1.00  0.00    -0.206 F 
ATOM     59  C   UNL A   1      34.776  33.993  29.486  1.00  0.00     0.060 A 
BRANCH  59  60
ATOM     60  S   UNL A   1      33.362  34.795  28.701  1.00  0.00     0.124 S 
ATOM     61  O   UNL A   1      33.995  35.942  28.060  1.00  0.00    -0.237 OA
ATOM     62  O   UNL A   1      32.879  33.748  27.806  1.00  0.00    -0.237 OA
ATOM     63  O   UNL A   1      32.484  35.104  29.825  1.00  0.00    -0.744 OA
ENDBRANCH  59  60
ENDBRANCH  27  52
BRANCH  39  64
ATOM     64  C   UNL A   1      39.933  34.257  36.942  1.00  0.00     0.058 A 
ATOM     65  C   UNL A   1      39.024  33.983  37.974  1.00  0.00     0.135 A 
ATOM     66  C   UNL A   1      40.651  35.461  36.990  1.00  0.00     0.135 A 
ATOM     67  F   UNL A   1      38.316  32.843  37.967  1.00  0.00    -0.206 F 
ATOM     68  C   UNL A   1      38.827  34.880  39.016  1.00  0.00     0.059 A 
ATOM     69  C   UNL A   1      40.491  36.359  38.039  1.00  0.00     0.059 A 
ATOM     70  F   UNL A   1      41.546  35.755  36.034  1.00  0.00    -0.206 F 
ATOM     71  C   UNL A   1      39.570  36.062  39.042  1.00  0.00     0.060 A 
BRANCH  71  72
ATOM     72  S   UNL A   1      39.341  37.189  40.431  1.00  0.00     0.124 S 
ATOM     73  O   UNL A   1      38.242  38.022  39.952  1.00  0.00    -0.237 OA
ATOM     74  O   UNL A   1      39.016  36.276  41.523  1.00  0.00    -0.237 OA
ATOM     75  O   UNL A   1      40.634  37.858  40.542  1.00  0.00    -0.744 OA
ENDBRANCH  71  72
ENDBRANCH  39  64
ENDBRANCH  13  14
ENDBRANCH   6   8
ENDBRANCH   5   6
ENDBRANCH   4   5
ENDBRANCH   3   4
ENDBRANCH   2   3
ENDBRANCH   1   2
BRANCH   1  76
ATOM     76  C   UNL A   1      42.620  20.610  26.127  1.00  0.00     0.188 C 
BRANCH  76  77
ATOM     77  O   UNL A   1      41.649  21.530  26.616  1.00  0.00    -0.376 OA
BRANCH  77  78
ATOM     78  C   UNL A   1      40.274  21.241  26.376  1.00  0.00     0.202 C 
BRANCH  78  79
ATOM     79  C   UNL A   1      39.287  22.410  26.268  1.00  0.00     0.261 C 
BRANCH  79  80
ATOM     80  O   UNL A   1      38.028  22.066  25.675  1.00  0.00    -0.459 OA
BRANCH  80  81
ATOM     81  C   UNL A   1      37.097  23.055  25.727  1.00  0.00     0.343 C 
ATOM     82  O   UNL A   1      37.151  24.065  26.410  1.00  0.00    -0.246 OA
BRANCH  81  83
ATOM     83  C   UNL A   1      36.007  22.797  24.784  1.00  0.00     0.125 A 
ATOM     84  C   UNL A   1      35.900  23.484  23.634  1.00  0.00     0.023 A 
ATOM     85  C   UNL A   1      34.917  21.894  25.211  1.00  0.00     0.265 A 
ATOM     86  C   UNL A   1      34.706  23.383  22.830  1.00  0.00     0.019 A 
ATOM     87  N   UNL A   1      33.739  21.983  24.473  1.00  0.00    -0.310 N 
ATOM     88  O   UNL A   1      35.096  21.126  26.153  1.00  0.00    -0.268 OA
ATOM     89  C   UNL A   1      33.657  22.690  23.287  1.00  0.00     0.089 A 
BRANCH  87  90
ATOM     90  C   UNL A   1      32.574  21.264  24.958  1.00  0.00     0.161 C 
BRANCH  90  91
ATOM     91  C   UNL A   1      32.608  19.795  24.627  1.00  0.00    -0.024 A 
ATOM     92  C   UNL A   1      32.531  19.368  23.282  1.00  0.00     0.010 A 
ATOM     93  C   UNL A   1      32.830  18.856  25.649  1.00  0.00     0.056 A 
ATOM     94  C   UNL A   1      32.719  18.025  22.950  1.00  0.00     0.051 A 
ATOM     95  C   UNL A   1      33.020  17.543  25.291  1.00  0.00     0.173 A 
ATOM     96  C   UNL A   1      32.979  17.141  23.975  1.00  0.00     0.172 A 
ATOM     97  O   UNL A   1      33.301  16.524  26.145  1.00  0.00    -0.395 OA
ATOM     98  O   UNL A   1      33.248  15.815  23.834  1.00  0.00    -0.395 OA
ATOM     99  C   UNL A   1      33.582  15.496  25.193  1.00  0.00     0.586 C 
ATOM    100  F   UNL A   1      34.890  15.149  25.264  1.00  0.00    -0.125 F 
ATOM    101  F   UNL A   1      32.865  14.392  25.545  1.00  0.00    -0.125 F 
ENDBRANCH  90  91
ENDBRANCH  87  90
ENDBRANCH  81  83
ENDBRANCH  80  81
ENDBRANCH  79  80
ENDBRANCH  78  79
ENDBRANCH  77  78
ENDBRANCH  76  77
ENDBRANCH   1  76
TORSDOF 22
ENDMDL
MODEL 2
REMARK VINA RESULT:     -11.1      6.044     11.689
REMARK SMILES O=C(OCCOCCOCCOC(=O)c1cccn(Cc2ccc3c(c2)OC(F)(F)O3)c1=O)c1ccc(-c2c3nc(c(-c4c(F)cc(S(=O)(=O)[O-])cc4F)c4ccc([nH]4)c(-c4c(F)cc(S(=O)(=O)[O-])cc4F)c4nc(c(-c5c(F)cc(S(=O)(=O)[O-])cc5F)c5ccc2[nH]5)C=C4)C=C3)cc1
REMARK SMILES IDX 7 1 6 2 5 3 4 4 3 5 2 6 1 7 34 8 35 9 99 10 36 11 98 12
REMARK SMILES IDX 37 13 38 14 39 15 92 16 40 17 97 18 91 19 93 20 41 21 96 22
REMARK SMILES IDX 90 23 89 24 42 26 76 27 55 28 75 29 56 30 59 31 74 32 94 33
REMARK SMILES IDX 57 34 58 35 73 37 95 38 60 39 43 40 44 41 53 42 45 43 46 44
REMARK SMILES IDX 52 45 54 46 47 47 48 48 49 49 50 50 51 51 77 52 78 53 87 54
REMARK SMILES IDX 79 55 80 56 86 57 88 58 81 59 82 60 83 61 84 62 85 63 61 64
REMARK SMILES IDX 62 65 71 66 63 67 64 68 70 69 72 70 65 71 66 72 67 73 68 74
REMARK SMILES IDX 69 75 8 76 9 77 10 78 11 79 12 80 13 81 14 82 15 83 16 84
REMARK SMILES IDX 32 85 17 86 19 87 33 88 18 89 20 90 21 91 22 92 26 93 23 94
REMARK SMILES IDX 25 95 24 96 27 97 31 98 28 99 29 100 30 101
REMARK H PARENT 93 25 59 36
REMARK Flexibility Score: inf
ROOT
ATOM      1  C   UNL A   1      33.931  32.535  28.158  1.00  0.00     0.188 C 
ENDROOT
BRANCH   1   2
ATOM      2  O   UNL A   1      35.239  32.702  28.718  1.00  0.00    -0.376 OA
BRANCH   2   3
ATOM      3  C   UNL A   1      35.213  33.233  30.046  1.00  0.00     0.202 C 
BRANCH   3   4
ATOM      4  C   UNL A   1      35.181  32.186  31.168  1.00  0.00     0.261 C 
BRANCH   4   5
ATOM      5  O   UNL A   1      35.709  30.909  30.785  1.00  0.00    -0.460 OA
BRANCH   5   6
ATOM      6  C   UNL A   1      36.755  30.217  31.300  1.00  0.00     0.338 C 
ATOM      7  O   UNL A   1      36.593  29.698  32.406  1.00  0.00    -0.246 OA
BRANCH   6   8
ATOM      8  C   UNL A   1      38.105  30.065  30.653  1.00  0.00     0.060 A 
ATOM      9  C   UNL A   1      39.201  29.889  31.523  1.00  0.00     0.016 A 
ATOM     10  C   UNL A   1      38.382  30.084  29.284  1.00  0.00     0.016 A 
ATOM     11  C   UNL A   1      40.506  29.725  31.038  1.00  0.00     0.010 A 
ATOM     12  C   UNL A   1      39.675  29.895  28.791  1.00  0.00     0.010 A 
ATOM     13  C   UNL A   1      40.747  29.709  29.660  1.00  0.00    -0.014 A 
BRANCH  13  14
ATOM     14  C   UNL A   1      42.053  29.288  29.107  1.00  0.00     0.031 A 
ATOM     15  C   UNL A   1      43.155  30.257  28.803  1.00  0.00     0.074 A 
ATOM     16  C   UNL A   1      42.179  28.000  28.737  1.00  0.00     0.049 A 
ATOM     17  N   UNL A   1      44.412  30.005  28.541  1.00  0.00    -0.248 NA
ATOM     18  C   UNL A   1      42.816  31.685  28.770  1.00  0.00     0.031 C 
ATOM     19  C   UNL A   1      41.119  26.991  28.825  1.00  0.00     0.029 A 
ATOM     20  N   UNL A   1      43.231  27.333  28.175  1.00  0.00    -0.354 N 
ATOM     21  C   UNL A   1      45.034  31.243  28.432  1.00  0.00     0.074 A 
ATOM     22  C   UNL A   1      43.995  32.240  28.512  1.00  0.00     0.031 C 
ATOM     23  C   UNL A   1      41.572  25.837  28.312  1.00  0.00     0.029 A 
ATOM     24  C   UNL A   1      42.952  26.023  27.878  1.00  0.00     0.049 A 
ATOM     25  H   UNL A   1      44.104  27.753  27.998  1.00  0.00     0.167 HD
ATOM     26  C   UNL A   1      46.359  31.499  28.328  1.00  0.00     0.037 A 
ATOM     27  C   UNL A   1      43.732  25.076  27.328  1.00  0.00     0.037 A 
ATOM     28  C   UNL A   1      47.333  30.485  28.038  1.00  0.00     0.049 A 
ATOM     29  C   UNL A   1      45.167  25.405  27.036  1.00  0.00     0.074 A 
ATOM     30  C   UNL A   1      48.702  30.620  27.904  1.00  0.00     0.029 A 
ATOM     31  N   UNL A   1      47.020  29.170  27.742  1.00  0.00    -0.354 N 
ATOM     32  N   UNL A   1      45.811  26.528  27.250  1.00  0.00    -0.248 NA
ATOM     33  C   UNL A   1      45.988  24.338  26.453  1.00  0.00     0.031 C 
ATOM     34  C   UNL A   1      49.208  29.399  27.449  1.00  0.00     0.029 A 
ATOM     35  C   UNL A   1      48.158  28.498  27.345  1.00  0.00     0.049 A 
ATOM     36  H   UNL A   1      46.122  28.773  27.805  1.00  0.00     0.167 HD
ATOM     37  C   UNL A   1      47.123  26.293  26.858  1.00  0.00     0.074 A 
ATOM     38  C   UNL A   1      47.178  24.921  26.395  1.00  0.00     0.031 C 
ATOM     39  C   UNL A   1      48.186  27.133  26.887  1.00  0.00     0.037 A 
BRANCH  26  40
ATOM     40  C   UNL A   1      46.868  32.885  28.595  1.00  0.00     0.058 A 
ATOM     41  C   UNL A   1      47.218  33.237  29.911  1.00  0.00     0.135 A 
ATOM     42  C   UNL A   1      47.115  33.821  27.583  1.00  0.00     0.135 A 
ATOM     43  F   UNL A   1      46.999  32.377  30.920  1.00  0.00    -0.206 F 
ATOM     44  C   UNL A   1      47.750  34.482  30.224  1.00  0.00     0.059 A 
ATOM     45  C   UNL A   1      47.648  35.077  27.875  1.00  0.00     0.059 A 
ATOM     46  F   UNL A   1      46.836  33.520  26.306  1.00  0.00    -0.206 F 
ATOM     47  C   UNL A   1      47.940  35.406  29.202  1.00  0.00     0.060 A 
BRANCH  47  48
ATOM     48  S   UNL A   1      48.578  37.050  29.596  1.00  0.00     0.124 S 
ATOM     49  O   UNL A   1      48.813  37.595  28.264  1.00  0.00    -0.237 OA
ATOM     50  O   UNL A   1      47.483  37.663  30.341  1.00  0.00    -0.237 OA
ATOM     51  O   UNL A   1      49.772  36.748  30.380  1.00  0.00    -0.744 OA
ENDBRANCH  47  48
ENDBRANCH  26  40
BRANCH  27  52
ATOM     52  C   UNL A   1      43.173  23.723  27.102  1.00  0.00     0.058 A 
ATOM     53  C   UNL A   1      42.877  23.281  25.806  1.00  0.00     0.135 A 
ATOM     54  C   UNL A   1      43.005  22.817  28.162  1.00  0.00     0.135 A 
ATOM     55  F   UNL A   1      43.032  24.111  24.764  1.00  0.00    -0.206 F 
ATOM     56  C   UNL A   1      42.434  21.987  25.565  1.00  0.00     0.059 A 
ATOM     57  C   UNL A   1      42.580  21.511  27.944  1.00  0.00     0.059 A 
ATOM     58  F   UNL A   1      43.299  23.189  29.418  1.00  0.00    -0.206 F 
ATOM     59  C   UNL A   1      42.296  21.106  26.640  1.00  0.00     0.060 A 
BRANCH  59  60
ATOM     60  S   UNL A   1      41.790  19.407  26.299  1.00  0.00     0.124 S 
ATOM     61  O   UNL A   1      42.174  18.733  27.535  1.00  0.00    -0.237 OA
ATOM     62  O   UNL A   1      40.356  19.557  26.072  1.00  0.00    -0.237 OA
ATOM     63  O   UNL A   1      42.571  19.053  25.118  1.00  0.00    -0.744 OA
ENDBRANCH  59  60
ENDBRANCH  27  52
BRANCH  39  64
ATOM     64  C   UNL A   1      49.501  26.609  26.398  1.00  0.00     0.058 A 
ATOM     65  C   UNL A   1      49.959  26.895  25.104  1.00  0.00     0.135 A 
ATOM     66  C   UNL A   1      50.355  25.912  27.267  1.00  0.00     0.135 A 
ATOM     67  F   UNL A   1      49.175  27.560  24.241  1.00  0.00    -0.206 F 
ATOM     68  C   UNL A   1      51.220  26.495  24.682  1.00  0.00     0.059 A 
ATOM     69  C   UNL A   1      51.631  25.528  26.875  1.00  0.00     0.059 A 
ATOM     70  F   UNL A   1      49.965  25.633  28.521  1.00  0.00    -0.206 F 
ATOM     71  C   UNL A   1      52.050  25.817  25.577  1.00  0.00     0.060 A 
BRANCH  71  72
ATOM     72  S   UNL A   1      53.705  25.354  25.030  1.00  0.00     0.124 S 
ATOM     73  O   UNL A   1      54.541  26.134  25.938  1.00  0.00    -0.237 OA
ATOM     74  O   UNL A   1      53.711  23.910  25.246  1.00  0.00    -0.237 OA
ATOM     75  O   UNL A   1      53.732  25.775  23.633  1.00  0.00    -0.744 OA
ENDBRANCH  71  72
ENDBRANCH  39  64
ENDBRANCH  13  14
ENDBRANCH   6   8
ENDBRANCH   5   6
ENDBRANCH   4   5
ENDBRANCH   3   4
ENDBRANCH   2   3
ENDBRANCH   1   2
BRANCH   1  76
ATOM     76  C   UNL A   1      33.727  31.164  27.506  1.00  0.00     0.188 C 
BRANCH  76  77
ATOM     77  O   UNL A   1      34.651  30.140  27.859  1.00  0.00    -0.376 OA
BRANCH  77  78
ATOM     78  C   UNL A   1      34.777  29.022  26.983  1.00  0.00     0.202 C 
BRANCH  78  79
ATOM     79  C   UNL A   1      33.633  28.724  26.006  1.00  0.00     0.261 C 
BRANCH  79  80
ATOM     80  O   UNL A   1      32.832  27.590  26.365  1.00  0.00    -0.459 OA
BRANCH  80  81
ATOM     81  C   UNL A   1      31.992  27.167  25.384  1.00  0.00     0.343 C 
ATOM     82  O   UNL A   1      31.516  27.852  24.492  1.00  0.00    -0.246 OA
BRANCH  81  83
ATOM     83  C   UNL A   1      31.763  25.724  25.478  1.00  0.00     0.125 A 
ATOM     84  C   UNL A   1      30.743  25.222  26.195  1.00  0.00     0.023 A 
ATOM     85  C   UNL A   1      32.793  24.819  24.922  1.00  0.00     0.265 A 
ATOM     86  C   UNL A   1      30.666  23.807  26.466  1.00  0.00     0.019 A 
ATOM     87  N   UNL A   1      32.739  23.501  25.369  1.00  0.00    -0.310 N 
ATOM     88  O   UNL A   1      33.609  25.251  24.112  1.00  0.00    -0.268 OA
ATOM     89  C   UNL A   1      31.672  23.007  26.098  1.00  0.00     0.089 A 
BRANCH  87  90
ATOM     90  C   UNL A   1      33.831  22.613  25.009  1.00  0.00     0.161 C 
BRANCH  90  91
ATOM     91  C   UNL A   1      33.359  21.294  24.455  1.00  0.00    -0.024 A 
ATOM     92  C   UNL A   1      32.469  21.262  23.359  1.00  0.00     0.010 A 
ATOM     93  C   UNL A   1      33.895  20.096  24.957  1.00  0.00     0.056 A 
ATOM     94  C   UNL A   1      32.148  20.054  22.736  1.00  0.00     0.051 A 
ATOM     95  C   UNL A   1      33.569  18.924  24.319  1.00  0.00     0.173 A 
ATOM     96  C   UNL A   1      32.728  18.905  23.229  1.00  0.00     0.172 A 
ATOM     97  O   UNL A   1      34.044  17.691  24.639  1.00  0.00    -0.395 OA
ATOM     98  O   UNL A   1      32.582  17.655  22.713  1.00  0.00    -0.395 OA
ATOM     99  C   UNL A   1      33.527  16.950  23.532  1.00  0.00     0.586 C 
ATOM    100  F   UNL A   1      34.548  16.508  22.759  1.00  0.00    -0.125 F 
ATOM    101  F   UNL A   1      32.902  15.844  24.024  1.00  0.00    -0.125 F 
ENDBRANCH  90  91
ENDBRANCH  87  90
ENDBRANCH  81  83
ENDBRANCH  80  81
ENDBRANCH  79  80
ENDBRANCH  78  79
ENDBRANCH  77  78
ENDBRANCH  76  77
ENDBRANCH   1  76
TORSDOF 22
ENDMDL
MODEL 3
REMARK VINA RESULT:     -11.0      2.898      3.946
REMARK SMILES O=C(OCCOCCOCCOC(=O)c1cccn(Cc2ccc3c(c2)OC(F)(F)O3)c1=O)c1ccc(-c2c3nc(c(-c4c(F)cc(S(=O)(=O)[O-])cc4F)c4ccc([nH]4)c(-c4c(F)cc(S(=O)(=O)[O-])cc4F)c4nc(c(-c5c(F)cc(S(=O)(=O)[O-])cc5F)c5ccc2[nH]5)C=C4)C=C3)cc1
REMARK SMILES IDX 7 1 6 2 5 3 4 4 3 5 2 6 1 7 34 8 35 9 99 10 36 11 98 12
REMARK SMILES IDX 37 13 38 14 39 15 92 16 40 17 97 18 91 19 93 20 41 21 96 22
REMARK SMILES IDX 90 23 89 24 42 26 76 27 55 28 75 29 56 30 59 31 74 32 94 33
REMARK SMILES IDX 57 34 58 35 73 37 95 38 60 39 43 40 44 41 53 42 45 43 46 44
REMARK SMILES IDX 52 45 54 46 47 47 48 48 49 49 50 50 51 51 77 52 78 53 87 54
REMARK SMILES IDX 79 55 80 56 86 57 88 58 81 59 82 60 83 61 84 62 85 63 61 64
REMARK SMILES IDX 62 65 71 66 63 67 64 68 70 69 72 70 65 71 66 72 67 73 68 74
REMARK SMILES IDX 69 75 8 76 9 77 10 78 11 79 12 80 13 81 14 82 15 83 16 84
REMARK SMILES IDX 32 85 17 86 19 87 33 88 18 89 20 90 21 91 22 92 26 93 23 94
REMARK SMILES IDX 25 95 24 96 27 97 31 98 28 99 29 100 30 101
REMARK H PARENT 93 25 59 36
REMARK Flexibility Score: inf
ROOT
ATOM      1  C   UNL A   1      44.040  21.071  25.174  1.00  0.00     0.188 C 
ENDROOT
BRANCH   1   2
ATOM      2  O   UNL A   1      43.539  22.229  24.495  1.00  0.00    -0.376 OA
BRANCH   2   3
ATOM      3  C   UNL A   1      44.439  23.340  24.547  1.00  0.00     0.202 C 
BRANCH   3   4
ATOM      4  C   UNL A   1      44.094  24.411  25.590  1.00  0.00     0.261 C 
BRANCH   4   5
ATOM      5  O   UNL A   1      42.686  24.591  25.795  1.00  0.00    -0.460 OA
BRANCH   5   6
ATOM      6  C   UNL A   1      41.982  25.730  26.010  1.00  0.00     0.338 C 
ATOM      7  O   UNL A   1      41.519  26.296  25.019  1.00  0.00    -0.246 OA
BRANCH   6   8
ATOM      8  C   UNL A   1      41.754  26.377  27.349  1.00  0.00     0.060 A 
ATOM      9  C   UNL A   1      42.730  27.303  27.771  1.00  0.00     0.016 A 
ATOM     10  C   UNL A   1      40.683  26.150  28.215  1.00  0.00     0.016 A 
ATOM     11  C   UNL A   1      42.622  27.979  28.994  1.00  0.00     0.010 A 
ATOM     12  C   UNL A   1      40.553  26.838  29.424  1.00  0.00     0.010 A 
ATOM     13  C   UNL A   1      41.516  27.761  29.823  1.00  0.00    -0.014 A 
BRANCH  13  14
ATOM     14  C   UNL A   1      41.237  28.630  30.987  1.00  0.00     0.031 A 
ATOM     15  C   UNL A   1      41.881  28.426  32.325  1.00  0.00     0.074 A 
ATOM     16  C   UNL A   1      40.256  29.542  30.853  1.00  0.00     0.049 A 
ATOM     17  N   UNL A   1      41.906  29.238  33.349  1.00  0.00    -0.248 NA
ATOM     18  C   UNL A   1      42.568  27.150  32.561  1.00  0.00     0.031 C 
ATOM     19  C   UNL A   1      39.436  29.727  29.652  1.00  0.00     0.029 A 
ATOM     20  N   UNL A   1      39.755  30.448  31.744  1.00  0.00    -0.354 N 
ATOM     21  C   UNL A   1      42.711  28.625  34.302  1.00  0.00     0.074 A 
ATOM     22  C   UNL A   1      43.034  27.316  33.794  1.00  0.00     0.031 C 
ATOM     23  C   UNL A   1      38.519  30.676  29.892  1.00  0.00     0.029 A 
ATOM     24  C   UNL A   1      38.698  31.172  31.252  1.00  0.00     0.049 A 
ATOM     25  H   UNL A   1      40.116  30.570  32.653  1.00  0.00     0.167 HD
ATOM     26  C   UNL A   1      43.167  29.151  35.464  1.00  0.00     0.037 A 
ATOM     27  C   UNL A   1      37.966  32.139  31.834  1.00  0.00     0.037 A 
ATOM     28  C   UNL A   1      42.654  30.365  36.030  1.00  0.00     0.049 A 
ATOM     29  C   UNL A   1      38.353  32.607  33.206  1.00  0.00     0.074 A 
ATOM     30  C   UNL A   1      43.031  30.996  37.201  1.00  0.00     0.029 A 
ATOM     31  N   UNL A   1      41.585  31.075  35.509  1.00  0.00    -0.354 N 
ATOM     32  N   UNL A   1      39.346  32.203  33.961  1.00  0.00    -0.248 NA
ATOM     33  C   UNL A   1      37.539  33.675  33.797  1.00  0.00     0.031 C 
ATOM     34  C   UNL A   1      42.136  32.044  37.428  1.00  0.00     0.029 A 
ATOM     35  C   UNL A   1      41.233  32.090  36.375  1.00  0.00     0.049 A 
ATOM     36  H   UNL A   1      41.143  30.883  34.651  1.00  0.00     0.167 HD
ATOM     37  C   UNL A   1      39.298  32.991  35.104  1.00  0.00     0.074 A 
ATOM     38  C   UNL A   1      38.177  33.894  34.939  1.00  0.00     0.031 C 
ATOM     39  C   UNL A   1      40.112  32.973  36.188  1.00  0.00     0.037 A 
BRANCH  26  40
ATOM     40  C   UNL A   1      44.312  28.490  36.175  1.00  0.00     0.058 A 
ATOM     41  C   UNL A   1      45.614  28.973  35.956  1.00  0.00     0.135 A 
ATOM     42  C   UNL A   1      44.143  27.481  37.131  1.00  0.00     0.135 A 
ATOM     43  F   UNL A   1      45.833  29.938  35.047  1.00  0.00    -0.206 F 
ATOM     44  C   UNL A   1      46.716  28.449  36.623  1.00  0.00     0.059 A 
ATOM     45  C   UNL A   1      45.234  26.940  37.811  1.00  0.00     0.059 A 
ATOM     46  F   UNL A   1      42.916  27.013  37.405  1.00  0.00    -0.206 F 
ATOM     47  C   UNL A   1      46.519  27.415  37.533  1.00  0.00     0.060 A 
BRANCH  47  48
ATOM     48  S   UNL A   1      47.944  26.684  38.369  1.00  0.00     0.124 S 
ATOM     49  O   UNL A   1      48.836  27.832  38.475  1.00  0.00    -0.237 OA
ATOM     50  O   UNL A   1      47.382  26.206  39.629  1.00  0.00    -0.237 OA
ATOM     51  O   UNL A   1      48.358  25.640  37.437  1.00  0.00    -0.744 OA
ENDBRANCH  47  48
ENDBRANCH  26  40
BRANCH  27  52
ATOM     52  C   UNL A   1      36.857  32.760  31.072  1.00  0.00     0.058 A 
ATOM     53  C   UNL A   1      37.122  33.669  30.040  1.00  0.00     0.135 A 
ATOM     54  C   UNL A   1      35.521  32.392  31.301  1.00  0.00     0.135 A 
ATOM     55  F   UNL A   1      38.385  34.040  29.783  1.00  0.00    -0.206 F 
ATOM     56  C   UNL A   1      36.101  34.196  29.259  1.00  0.00     0.059 A 
ATOM     57  C   UNL A   1      34.484  32.892  30.520  1.00  0.00     0.059 A 
ATOM     58  F   UNL A   1      35.221  31.505  32.263  1.00  0.00    -0.206 F 
ATOM     59  C   UNL A   1      34.786  33.795  29.501  1.00  0.00     0.060 A 
BRANCH  59  60
ATOM     60  S   UNL A   1      33.482  34.432  28.427  1.00  0.00     0.124 S 
ATOM     61  O   UNL A   1      32.523  34.941  29.401  1.00  0.00    -0.237 OA
ATOM     62  O   UNL A   1      34.196  35.438  27.648  1.00  0.00    -0.237 OA
ATOM     63  O   UNL A   1      33.057  33.254  27.677  1.00  0.00    -0.744 OA
ENDBRANCH  59  60
ENDBRANCH  27  52
BRANCH  39  64
ATOM     64  C   UNL A   1      39.826  33.947  37.290  1.00  0.00     0.058 A 
ATOM     65  C   UNL A   1      39.083  33.568  38.416  1.00  0.00     0.135 A 
ATOM     66  C   UNL A   1      40.392  35.231  37.267  1.00  0.00     0.135 A 
ATOM     67  F   UNL A   1      38.524  32.349  38.479  1.00  0.00    -0.206 F 
ATOM     68  C   UNL A   1      38.899  34.437  39.483  1.00  0.00     0.059 A 
ATOM     69  C   UNL A   1      40.246  36.106  38.337  1.00  0.00     0.059 A 
ATOM     70  F   UNL A   1      41.127  35.629  36.217  1.00  0.00    -0.206 F 
ATOM     71  C   UNL A   1      39.491  35.702  39.436  1.00  0.00     0.060 A 
BRANCH  71  72
ATOM     72  S   UNL A   1      39.289  36.797  40.854  1.00  0.00     0.124 S 
ATOM     73  O   UNL A   1      38.577  37.922  40.254  1.00  0.00    -0.237 OA
ATOM     74  O   UNL A   1      38.510  35.974  41.775  1.00  0.00    -0.237 OA
ATOM     75  O   UNL A   1      40.660  37.071  41.271  1.00  0.00    -0.744 OA
ENDBRANCH  71  72
ENDBRANCH  39  64
ENDBRANCH  13  14
ENDBRANCH   6   8
ENDBRANCH   5   6
ENDBRANCH   4   5
ENDBRANCH   3   4
ENDBRANCH   2   3
ENDBRANCH   1   2
BRANCH   1  76
ATOM     76  C   UNL A   1      42.944  20.262  25.873  1.00  0.00     0.188 C 
BRANCH  76  77
ATOM     77  O   UNL A   1      42.071  20.978  26.741  1.00  0.00    -0.376 OA
BRANCH  77  78
ATOM     78  C   UNL A   1      40.672  20.919  26.479  1.00  0.00     0.202 C 
BRANCH  78  79
ATOM     79  C   UNL A   1      39.861  22.219  26.533  1.00  0.00     0.261 C 
BRANCH  79  80
ATOM     80  O   UNL A   1      38.488  22.075  26.142  1.00  0.00    -0.459 OA
BRANCH  80  81
ATOM     81  C   UNL A   1      37.828  23.252  25.977  1.00  0.00     0.343 C 
ATOM     82  O   UNL A   1      38.196  24.349  26.365  1.00  0.00    -0.246 OA
BRANCH  81  83
ATOM     83  C   UNL A   1      36.608  23.060  25.191  1.00  0.00     0.125 A 
ATOM     84  C   UNL A   1      36.638  23.028  23.848  1.00  0.00     0.023 A 
ATOM     85  C   UNL A   1      35.311  23.092  25.901  1.00  0.00     0.265 A 
ATOM     86  C   UNL A   1      35.413  23.069  23.087  1.00  0.00     0.019 A 
ATOM     87  N   UNL A   1      34.192  23.300  25.099  1.00  0.00    -0.310 N 
ATOM     88  O   UNL A   1      35.279  22.927  27.118  1.00  0.00    -0.268 OA
ATOM     89  C   UNL A   1      34.249  23.253  23.718  1.00  0.00     0.089 A 
BRANCH  87  90
ATOM     90  C   UNL A   1      32.916  23.531  25.753  1.00  0.00     0.161 C 
BRANCH  90  91
ATOM     91  C   UNL A   1      32.537  24.988  25.809  1.00  0.00    -0.024 A 
ATOM     92  C   UNL A   1      31.186  25.363  25.987  1.00  0.00     0.010 A 
ATOM     93  C   UNL A   1      33.541  25.970  25.799  1.00  0.00     0.056 A 
ATOM     94  C   UNL A   1      30.840  26.699  26.198  1.00  0.00     0.051 A 
ATOM     95  C   UNL A   1      33.172  27.275  26.017  1.00  0.00     0.173 A 
ATOM     96  C   UNL A   1      31.857  27.629  26.225  1.00  0.00     0.172 A 
ATOM     97  O   UNL A   1      34.020  28.334  26.096  1.00  0.00    -0.395 OA
ATOM     98  O   UNL A   1      31.716  28.957  26.479  1.00  0.00    -0.395 OA
ATOM     99  C   UNL A   1      33.099  29.337  26.528  1.00  0.00     0.586 C 
ATOM    100  F   UNL A   1      33.410  29.734  27.786  1.00  0.00    -0.125 F 
ATOM    101  F   UNL A   1      33.257  30.425  25.725  1.00  0.00    -0.125 F 
ENDBRANCH  90  91
ENDBRANCH  87  90
ENDBRANCH  81  83
ENDBRANCH  80  81
ENDBRANCH  79  80
ENDBRANCH  78  79
ENDBRANCH  77  78
ENDBRANCH  76  77
ENDBRANCH   1  76
TORSDOF 22
ENDMDL
