MODEL 1
REMARK VINA RESULT:     -11.6      0.000      0.000
REMARK SMILES CCC[C@@](C)(NC(=O)N1CCN(C)C(=O)C1(C)C)C(=O)OCCOCCOCCOC(=O)c1ccc(-c2c3nc(c(-c4c(F)cc(S(=O)(=O)[O-])cc4F)c4ccc([nH]4)c(-c4c(F)cc(S(=O)(=O)[O-])cc4F)c4nc(c(-c5c(F)cc(S(=O)(=O)[O-])cc5F)c5ccc2[nH]5)C=C4)C=C3)cc1
REMARK SMILES IDX 26 1 25 2 24 3 23 4 22 5 21 6 19 7 20 8 4 9 5 10 3 11 2 12
REMARK SMILES IDX 1 13 6 14 7 15 8 17 9 18 10 19 16 20 11 21 14 22 17 23 18 24
REMARK SMILES IDX 12 25 15 26 13 27 27 28 28 29 29 30 30 31 31 32 32 33 33 34
REMARK SMILES IDX 34 35 98 36 35 37 97 38 36 39 37 40 38 41 91 42 39 43 96 44
REMARK SMILES IDX 90 45 92 46 40 47 95 48 89 49 88 50 41 52 75 53 54 54 74 55
REMARK SMILES IDX 55 56 58 57 73 58 93 59 56 60 57 61 72 63 94 64 59 65 42 66
REMARK SMILES IDX 43 67 52 68 44 69 45 70 51 71 53 72 46 73 47 74 48 75 49 76
REMARK SMILES IDX 50 77 76 78 77 79 86 80 78 81 79 82 85 83 87 84 80 85 81 86
REMARK SMILES IDX 82 87 83 88 84 89 60 90 61 91 70 92 62 93 63 94 69 95 71 96
REMARK SMILES IDX 64 97 65 98 66 99 67 100 68 101
REMARK H PARENT 6 16 92 51 58 62
REMARK Flexibility Score: inf
ROOT
ATOM      1  C   UNL A   1      31.254  28.035  27.808  1.00  0.00     0.188 C 
ENDROOT
BRANCH   1   2
ATOM      2  C   UNL A   1      31.662  26.943  26.672  1.00  0.00     0.188 C 
BRANCH   2   3
ATOM      3  O   UNL A   1      31.890  25.431  26.941  1.00  0.00    -0.376 OA
BRANCH   3   4
ATOM      4  C   UNL A   1      31.386  23.550  26.856  1.00  0.00     0.202 C 
BRANCH   4   5
ATOM      5  C   UNL A   1      32.571  22.321  27.662  1.00  0.00     0.261 C 
BRANCH   5   6
ATOM      6  O   UNL A   1      34.122  21.977  27.020  1.00  0.00    -0.462 OA
BRANCH   6   7
ATOM      7  C   UNL A   1      35.080  22.288  25.975  1.00  0.00     0.331 C 
ATOM      8  O   UNL A   1      36.175  21.715  26.060  1.00  0.00    -0.249 OA
BRANCH   7   9
ATOM      9  C   UNL A   1      34.851  23.476  24.629  1.00  0.00     0.136 C 
ATOM     10  C   UNL A   1      36.367  23.629  24.128  1.00  0.00     0.047 C 
BRANCH   9  11
ATOM     11  C   UNL A   1      34.129  22.893  23.349  1.00  0.00     0.040 C 
BRANCH  11  12
ATOM     12  C   UNL A   1      33.213  21.656  23.461  1.00  0.00    -0.000 C 
ATOM     13  C   UNL A   1      32.016  21.706  22.529  1.00  0.00     0.004 C 
ENDBRANCH  11  12
ENDBRANCH   9  11
BRANCH   9  14
ATOM     14  N   UNL A   1      34.402  25.104  24.644  1.00  0.00    -0.322 N 
ATOM     15  C   UNL A   1      33.552  26.089  24.097  1.00  0.00     0.319 C 
ATOM     16  H   UNL A   1      34.969  25.552  25.313  1.00  0.00     0.166 HD
ATOM     17  O   UNL A   1      33.707  27.243  24.491  1.00  0.00    -0.249 OA
BRANCH  15  18
ATOM     18  N   UNL A   1      32.486  25.697  23.280  1.00  0.00    -0.309 N 
ATOM     19  C   UNL A   1      30.870  24.843  23.650  1.00  0.00     0.144 C 
ATOM     20  C   UNL A   1      32.370  26.854  22.252  1.00  0.00     0.118 C 
ATOM     21  C   UNL A   1      29.237  25.919  23.895  1.00  0.00     0.140 C 
ATOM     22  C   UNL A   1      30.997  28.313  22.899  1.00  0.00     0.247 C 
ATOM     23  C   UNL A   1      33.891  27.079  21.543  1.00  0.00     0.045 C 
ATOM     24  C   UNL A   1      32.278  25.567  20.967  1.00  0.00     0.045 C 
ATOM     25  N   UNL A   1      29.404  27.728  23.500  1.00  0.00    -0.342 N 
ATOM     26  O   UNL A   1      30.909  29.543  22.761  1.00  0.00    -0.272 OA
ATOM     27  C   UNL A   1      28.219  28.489  23.070  1.00  0.00     0.146 C 
ENDBRANCH  15  18
ENDBRANCH   9  14
ENDBRANCH   7   9
ENDBRANCH   6   7
ENDBRANCH   5   6
ENDBRANCH   4   5
ENDBRANCH   3   4
ENDBRANCH   2   3
ENDBRANCH   1   2
BRANCH   1  28
ATOM     28  O   UNL A   1      31.362  29.443  27.652  1.00  0.00    -0.376 OA
BRANCH  28  29
ATOM     29  C   UNL A   1      32.182  30.088  26.681  1.00  0.00     0.202 C 
BRANCH  29  30
ATOM     30  C   UNL A   1      33.112  31.258  27.049  1.00  0.00     0.261 C 
BRANCH  30  31
ATOM     31  O   UNL A   1      34.479  30.919  27.302  1.00  0.00    -0.460 OA
BRANCH  31  32
ATOM     32  C   UNL A   1      34.974  31.353  28.488  1.00  0.00     0.338 C 
ATOM     33  O   UNL A   1      34.414  32.078  29.288  1.00  0.00    -0.246 OA
BRANCH  32  34
ATOM     34  C   UNL A   1      36.234  30.622  28.741  1.00  0.00     0.060 A 
ATOM     35  C   UNL A   1      37.019  30.959  29.858  1.00  0.00     0.016 A 
ATOM     36  C   UNL A   1      36.644  29.620  27.865  1.00  0.00     0.016 A 
ATOM     37  C   UNL A   1      38.209  30.289  30.113  1.00  0.00     0.010 A 
ATOM     38  C   UNL A   1      37.884  29.012  28.071  1.00  0.00     0.010 A 
ATOM     39  C   UNL A   1      38.679  29.367  29.177  1.00  0.00    -0.014 A 
BRANCH  39  40
ATOM     40  C   UNL A   1      40.110  29.000  29.190  1.00  0.00     0.031 A 
ATOM     41  C   UNL A   1      41.100  30.078  29.531  1.00  0.00     0.074 A 
ATOM     42  C   UNL A   1      40.524  27.753  28.918  1.00  0.00     0.049 A 
ATOM     43  N   UNL A   1      42.402  30.069  29.439  1.00  0.00    -0.248 NA
ATOM     44  C   UNL A   1      40.539  31.339  30.048  1.00  0.00     0.031 C 
ATOM     45  C   UNL A   1      39.658  26.598  28.698  1.00  0.00     0.029 A 
ATOM     46  N   UNL A   1      41.796  27.263  28.763  1.00  0.00    -0.354 N 
ATOM     47  C   UNL A   1      42.816  31.324  29.870  1.00  0.00     0.074 A 
ATOM     48  C   UNL A   1      41.628  32.071  30.215  1.00  0.00     0.031 C 
ATOM     49  C   UNL A   1      40.428  25.535  28.401  1.00  0.00     0.029 A 
ATOM     50  C   UNL A   1      41.829  25.953  28.353  1.00  0.00     0.049 A 
ATOM     51  H   UNL A   1      42.606  27.798  28.929  1.00  0.00     0.167 HD
ATOM     52  C   UNL A   1      44.075  31.810  29.961  1.00  0.00     0.037 A 
ATOM     53  C   UNL A   1      42.869  25.203  27.939  1.00  0.00     0.037 A 
ATOM     54  C   UNL A   1      45.247  31.064  29.591  1.00  0.00     0.049 A 
ATOM     55  C   UNL A   1      44.250  25.813  27.894  1.00  0.00     0.074 A 
ATOM     56  C   UNL A   1      46.569  31.467  29.622  1.00  0.00     0.029 A 
ATOM     57  N   UNL A   1      45.236  29.763  29.106  1.00  0.00    -0.354 N 
ATOM     58  N   UNL A   1      44.640  27.007  28.274  1.00  0.00    -0.248 NA
ATOM     59  C   UNL A   1      45.329  24.978  27.346  1.00  0.00     0.031 C 
ATOM     60  C   UNL A   1      47.351  30.434  29.098  1.00  0.00     0.029 A 
ATOM     61  C   UNL A   1      46.525  29.363  28.798  1.00  0.00     0.049 A 
ATOM     62  H   UNL A   1      44.430  29.207  28.998  1.00  0.00     0.167 HD
ATOM     63  C   UNL A   1      46.011  27.056  28.037  1.00  0.00     0.074 A 
ATOM     64  C   UNL A   1      46.385  25.770  27.488  1.00  0.00     0.031 C 
ATOM     65  C   UNL A   1      46.884  28.073  28.257  1.00  0.00     0.037 A 
BRANCH  52  66
ATOM     66  C   UNL A   1      44.234  33.233  30.417  1.00  0.00     0.058 A 
ATOM     67  C   UNL A   1      44.181  34.312  29.519  1.00  0.00     0.135 A 
ATOM     68  C   UNL A   1      44.446  33.521  31.775  1.00  0.00     0.135 A 
ATOM     69  F   UNL A   1      44.006  34.092  28.207  1.00  0.00    -0.206 F 
ATOM     70  C   UNL A   1      44.371  35.622  29.948  1.00  0.00     0.059 A 
ATOM     71  C   UNL A   1      44.606  34.825  32.230  1.00  0.00     0.059 A 
ATOM     72  F   UNL A   1      44.511  32.526  32.674  1.00  0.00    -0.206 F 
ATOM     73  C   UNL A   1      44.586  35.867  31.305  1.00  0.00     0.060 A 
BRANCH  73  74
ATOM     74  S   UNL A   1      44.850  37.570  31.841  1.00  0.00     0.124 S 
ATOM     75  O   UNL A   1      46.179  37.843  31.301  1.00  0.00    -0.237 OA
ATOM     76  O   UNL A   1      43.747  38.274  31.197  1.00  0.00    -0.237 OA
ATOM     77  O   UNL A   1      44.772  37.485  33.296  1.00  0.00    -0.744 OA
ENDBRANCH  73  74
ENDBRANCH  52  66
BRANCH  53  78
ATOM     78  C   UNL A   1      42.644  23.804  27.488  1.00  0.00     0.058 A 
ATOM     79  C   UNL A   1      42.551  22.755  28.415  1.00  0.00     0.135 A 
ATOM     80  C   UNL A   1      42.520  23.484  26.127  1.00  0.00     0.135 A 
ATOM     81  F   UNL A   1      42.684  23.008  29.727  1.00  0.00    -0.206 F 
ATOM     82  C   UNL A   1      42.352  21.440  28.011  1.00  0.00     0.059 A 
ATOM     83  C   UNL A   1      42.292  22.180  25.698  1.00  0.00     0.059 A 
ATOM     84  F   UNL A   1      42.602  24.449  25.197  1.00  0.00    -0.206 F 
ATOM     85  C   UNL A   1      42.217  21.163  26.649  1.00  0.00     0.060 A 
BRANCH  85  86
ATOM     86  S   UNL A   1      41.911  19.458  26.141  1.00  0.00     0.124 S 
ATOM     87  O   UNL A   1      42.798  19.329  24.990  1.00  0.00    -0.237 OA
ATOM     88  O   UNL A   1      42.302  18.710  27.333  1.00  0.00    -0.237 OA
ATOM     89  O   UNL A   1      40.483  19.446  25.839  1.00  0.00    -0.744 OA
ENDBRANCH  85  86
ENDBRANCH  53  78
BRANCH  65  90
ATOM     90  C   UNL A   1      48.335  27.843  27.931  1.00  0.00     0.058 A 
ATOM     91  C   UNL A   1      49.246  27.389  28.897  1.00  0.00     0.135 A 
ATOM     92  C   UNL A   1      48.799  27.985  26.612  1.00  0.00     0.135 A 
ATOM     93  F   UNL A   1      48.859  27.244  30.174  1.00  0.00    -0.206 F 
ATOM     94  C   UNL A   1      50.564  27.086  28.568  1.00  0.00     0.059 A 
ATOM     95  C   UNL A   1      50.104  27.661  26.255  1.00  0.00     0.059 A 
ATOM     96  F   UNL A   1      47.967  28.407  25.645  1.00  0.00    -0.206 F 
ATOM     97  C   UNL A   1      50.982  27.215  27.242  1.00  0.00     0.060 A 
BRANCH  97  98
ATOM     98  S   UNL A   1      52.674  26.747  26.820  1.00  0.00     0.124 S 
ATOM     99  O   UNL A   1      52.912  27.544  25.623  1.00  0.00    -0.237 OA
ATOM    100  O   UNL A   1      53.414  27.153  28.010  1.00  0.00    -0.237 OA
ATOM    101  O   UNL A   1      52.585  25.305  26.606  1.00  0.00    -0.744 OA
ENDBRANCH  97  98
ENDBRANCH  65  90
ENDBRANCH  39  40
ENDBRANCH  32  34
ENDBRANCH  31  32
ENDBRANCH  30  31
ENDBRANCH  29  30
ENDBRANCH  28  29
ENDBRANCH   1  28
TORSDOF 24
ENDMDL
MODEL 2
REMARK VINA RESULT:     -10.7      5.723     12.223
REMARK SMILES CCC[C@@](C)(NC(=O)N1CCN(C)C(=O)C1(C)C)C(=O)OCCOCCOCCOC(=O)c1ccc(-c2c3nc(c(-c4c(F)cc(S(=O)(=O)[O-])cc4F)c4ccc([nH]4)c(-c4c(F)cc(S(=O)(=O)[O-])cc4F)c4nc(c(-c5c(F)cc(S(=O)(=O)[O-])cc5F)c5ccc2[nH]5)C=C4)C=C3)cc1
REMARK SMILES IDX 26 1 25 2 24 3 23 4 22 5 21 6 19 7 20 8 4 9 5 10 3 11 2 12
REMARK SMILES IDX 1 13 6 14 7 15 8 17 9 18 10 19 16 20 11 21 14 22 17 23 18 24
REMARK SMILES IDX 12 25 15 26 13 27 27 28 28 29 29 30 30 31 31 32 32 33 33 34
REMARK SMILES IDX 34 35 98 36 35 37 97 38 36 39 37 40 38 41 91 42 39 43 96 44
REMARK SMILES IDX 90 45 92 46 40 47 95 48 89 49 88 50 41 52 75 53 54 54 74 55
REMARK SMILES IDX 55 56 58 57 73 58 93 59 56 60 57 61 72 63 94 64 59 65 42 66
REMARK SMILES IDX 43 67 52 68 44 69 45 70 51 71 53 72 46 73 47 74 48 75 49 76
REMARK SMILES IDX 50 77 76 78 77 79 86 80 78 81 79 82 85 83 87 84 80 85 81 86
REMARK SMILES IDX 82 87 83 88 84 89 60 90 61 91 70 92 62 93 63 94 69 95 71 96
REMARK SMILES IDX 64 97 65 98 66 99 67 100 68 101
REMARK H PARENT 6 16 92 51 58 62
REMARK Flexibility Score: inf
ROOT
ATOM      1  C   UNL A   1      43.881  23.182  24.275  1.00  0.00     0.188 C 
ENDROOT
BRANCH   1   2
ATOM      2  C   UNL A   1      42.887  22.460  25.344  1.00  0.00     0.188 C 
BRANCH   2   3
ATOM      3  O   UNL A   1      41.932  23.212  26.309  1.00  0.00    -0.376 OA
BRANCH   3   4
ATOM      4  C   UNL A   1      40.248  23.449  27.261  1.00  0.00     0.202 C 
BRANCH   4   5
ATOM      5  C   UNL A   1      39.601  25.217  27.405  1.00  0.00     0.261 C 
BRANCH   5   6
ATOM      6  O   UNL A   1      39.423  26.017  28.910  1.00  0.00    -0.462 OA
BRANCH   6   7
ATOM      7  C   UNL A   1      39.355  27.301  29.581  1.00  0.00     0.331 C 
ATOM      8  O   UNL A   1      38.921  27.281  30.741  1.00  0.00    -0.249 OA
BRANCH   7   9
ATOM      9  C   UNL A   1      39.763  28.911  28.860  1.00  0.00     0.136 C 
ATOM     10  C   UNL A   1      41.187  29.174  29.549  1.00  0.00     0.047 C 
BRANCH   9  11
ATOM     11  C   UNL A   1      40.133  28.871  27.323  1.00  0.00     0.040 C 
BRANCH  11  12
ATOM     12  C   UNL A   1      41.603  28.994  26.868  1.00  0.00    -0.000 C 
ATOM     13  C   UNL A   1      41.940  28.116  25.677  1.00  0.00     0.004 C 
ENDBRANCH  11  12
ENDBRANCH   9  11
BRANCH   9  14
ATOM     14  N   UNL A   1      39.069  30.435  29.073  1.00  0.00    -0.322 N 
ATOM     15  C   UNL A   1      38.489  31.339  29.989  1.00  0.00     0.319 C 
ATOM     16  H   UNL A   1      39.070  30.877  28.193  1.00  0.00     0.166 HD
ATOM     17  O   UNL A   1      38.076  32.405  29.536  1.00  0.00    -0.249 OA
BRANCH  15  18
ATOM     18  N   UNL A   1      38.559  31.068  31.359  1.00  0.00    -0.309 N 
ATOM     19  C   UNL A   1      39.636  31.751  32.721  1.00  0.00     0.144 C 
ATOM     20  C   UNL A   1      37.076  30.863  31.767  1.00  0.00     0.118 C 
ATOM     21  C   UNL A   1      38.951  33.206  33.861  1.00  0.00     0.140 C 
ATOM     22  C   UNL A   1      36.215  32.664  32.435  1.00  0.00     0.247 C 
ATOM     23  C   UNL A   1      36.408  29.691  30.744  1.00  0.00     0.045 C 
ATOM     24  C   UNL A   1      37.630  29.368  32.648  1.00  0.00     0.045 C 
ATOM     25  N   UNL A   1      37.157  33.630  33.626  1.00  0.00    -0.342 N 
ATOM     26  O   UNL A   1      35.074  33.149  32.389  1.00  0.00    -0.272 OA
ATOM     27  C   UNL A   1      36.398  34.219  34.743  1.00  0.00     0.146 C 
ENDBRANCH  15  18
ENDBRANCH   9  14
ENDBRANCH   7   9
ENDBRANCH   6   7
ENDBRANCH   5   6
ENDBRANCH   4   5
ENDBRANCH   3   4
ENDBRANCH   2   3
ENDBRANCH   1   2
BRANCH   1  28
ATOM     28  O   UNL A   1      45.118  22.642  23.829  1.00  0.00    -0.376 OA
BRANCH  28  29
ATOM     29  C   UNL A   1      46.399  23.115  24.234  1.00  0.00     0.202 C 
BRANCH  29  30
ATOM     30  C   UNL A   1      46.568  24.407  25.052  1.00  0.00     0.261 C 
BRANCH  30  31
ATOM     31  O   UNL A   1      46.896  24.238  26.435  1.00  0.00    -0.460 OA
BRANCH  31  32
ATOM     32  C   UNL A   1      45.839  24.024  27.259  1.00  0.00     0.338 C 
ATOM     33  O   UNL A   1      45.301  22.958  27.490  1.00  0.00    -0.246 OA
BRANCH  32  34
ATOM     34  C   UNL A   1      45.585  25.282  27.994  1.00  0.00     0.060 A 
ATOM     35  C   UNL A   1      46.671  26.072  28.412  1.00  0.00     0.016 A 
ATOM     36  C   UNL A   1      44.279  25.666  28.285  1.00  0.00     0.016 A 
ATOM     37  C   UNL A   1      46.457  27.255  29.108  1.00  0.00     0.010 A 
ATOM     38  C   UNL A   1      44.069  26.805  29.064  1.00  0.00     0.010 A 
ATOM     39  C   UNL A   1      45.159  27.582  29.501  1.00  0.00    -0.014 A 
BRANCH  39  40
ATOM     40  C   UNL A   1      44.966  28.551  30.600  1.00  0.00     0.031 A 
ATOM     41  C   UNL A   1      45.050  28.029  32.007  1.00  0.00     0.074 A 
ATOM     42  C   UNL A   1      44.732  29.851  30.365  1.00  0.00     0.049 A 
ATOM     43  N   UNL A   1      44.745  28.619  33.130  1.00  0.00    -0.248 NA
ATOM     44  C   UNL A   1      45.547  26.651  32.163  1.00  0.00     0.031 C 
ATOM     45  C   UNL A   1      44.754  30.497  29.056  1.00  0.00     0.029 A 
ATOM     46  N   UNL A   1      44.410  30.858  31.239  1.00  0.00    -0.354 N 
ATOM     47  C   UNL A   1      44.998  27.683  34.125  1.00  0.00     0.074 A 
ATOM     48  C   UNL A   1      45.472  26.483  33.473  1.00  0.00     0.031 C 
ATOM     49  C   UNL A   1      44.421  31.792  29.210  1.00  0.00     0.029 A 
ATOM     50  C   UNL A   1      44.109  32.045  30.617  1.00  0.00     0.049 A 
ATOM     51  H   UNL A   1      44.396  30.741  32.217  1.00  0.00     0.167 HD
ATOM     52  C   UNL A   1      44.840  27.811  35.462  1.00  0.00     0.037 A 
ATOM     53  C   UNL A   1      43.592  33.180  31.126  1.00  0.00     0.037 A 
ATOM     54  C   UNL A   1      44.344  29.002  36.096  1.00  0.00     0.049 A 
ATOM     55  C   UNL A   1      43.271  33.252  32.599  1.00  0.00     0.074 A 
ATOM     56  C   UNL A   1      44.123  29.232  37.442  1.00  0.00     0.029 A 
ATOM     57  N   UNL A   1      43.976  30.160  35.426  1.00  0.00    -0.354 N 
ATOM     58  N   UNL A   1      43.481  32.358  33.537  1.00  0.00    -0.248 NA
ATOM     59  C   UNL A   1      42.622  34.481  33.080  1.00  0.00     0.031 C 
ATOM     60  C   UNL A   1      43.564  30.506  37.579  1.00  0.00     0.029 A 
ATOM     61  C   UNL A   1      43.494  31.095  36.326  1.00  0.00     0.049 A 
ATOM     62  H   UNL A   1      44.047  30.297  34.453  1.00  0.00     0.167 HD
ATOM     63  C   UNL A   1      43.018  32.928  34.721  1.00  0.00     0.074 A 
ATOM     64  C   UNL A   1      42.522  34.245  34.383  1.00  0.00     0.031 C 
ATOM     65  C   UNL A   1      43.008  32.408  35.975  1.00  0.00     0.037 A 
BRANCH  52  66
ATOM     66  C   UNL A   1      45.145  26.609  36.311  1.00  0.00     0.058 A 
ATOM     67  C   UNL A   1      46.407  26.412  36.896  1.00  0.00     0.135 A 
ATOM     68  C   UNL A   1      44.159  25.636  36.539  1.00  0.00     0.135 A 
ATOM     69  F   UNL A   1      47.394  27.299  36.690  1.00  0.00    -0.206 F 
ATOM     70  C   UNL A   1      46.690  25.275  37.646  1.00  0.00     0.059 A 
ATOM     71  C   UNL A   1      44.410  24.507  37.313  1.00  0.00     0.059 A 
ATOM     72  F   UNL A   1      42.938  25.771  35.999  1.00  0.00    -0.206 F 
ATOM     73  C   UNL A   1      45.684  24.327  37.845  1.00  0.00     0.060 A 
BRANCH  73  74
ATOM     74  S   UNL A   1      46.074  22.847  38.802  1.00  0.00     0.124 S 
ATOM     75  O   UNL A   1      47.516  22.988  38.983  1.00  0.00    -0.237 OA
ATOM     76  O   UNL A   1      45.264  23.030  40.002  1.00  0.00    -0.237 OA
ATOM     77  O   UNL A   1      45.656  21.756  37.927  1.00  0.00    -0.744 OA
ENDBRANCH  73  74
ENDBRANCH  52  66
BRANCH  53  78
ATOM     78  C   UNL A   1      43.301  34.331  30.229  1.00  0.00     0.058 A 
ATOM     79  C   UNL A   1      44.280  35.297  29.958  1.00  0.00     0.135 A 
ATOM     80  C   UNL A   1      42.041  34.491  29.630  1.00  0.00     0.135 A 
ATOM     81  F   UNL A   1      45.493  35.198  30.523  1.00  0.00    -0.206 F 
ATOM     82  C   UNL A   1      44.021  36.385  29.131  1.00  0.00     0.059 A 
ATOM     83  C   UNL A   1      41.766  35.555  28.777  1.00  0.00     0.059 A 
ATOM     84  F   UNL A   1      41.067  33.597  29.858  1.00  0.00    -0.206 F 
ATOM     85  C   UNL A   1      42.762  36.502  28.539  1.00  0.00     0.060 A 
BRANCH  85  86
ATOM     86  S   UNL A   1      42.455  37.894  27.431  1.00  0.00     0.124 S 
ATOM     87  O   UNL A   1      41.812  38.848  28.328  1.00  0.00    -0.237 OA
ATOM     88  O   UNL A   1      43.804  38.239  26.995  1.00  0.00    -0.237 OA
ATOM     89  O   UNL A   1      41.595  37.321  26.401  1.00  0.00    -0.744 OA
ENDBRANCH  85  86
ENDBRANCH  53  78
BRANCH  65  90
ATOM     90  C   UNL A   1      42.467  33.263  37.090  1.00  0.00     0.058 A 
ATOM     91  C   UNL A   1      41.130  33.175  37.507  1.00  0.00     0.135 A 
ATOM     92  C   UNL A   1      43.323  34.110  37.815  1.00  0.00     0.135 A 
ATOM     93  F   UNL A   1      40.267  32.388  36.845  1.00  0.00    -0.206 F 
ATOM     94  C   UNL A   1      40.660  33.897  38.600  1.00  0.00     0.059 A 
ATOM     95  C   UNL A   1      42.881  34.820  38.928  1.00  0.00     0.059 A 
ATOM     96  F   UNL A   1      44.615  34.226  37.466  1.00  0.00    -0.206 F 
ATOM     97  C   UNL A   1      41.546  34.709  39.311  1.00  0.00     0.060 A 
BRANCH  97  98
ATOM     98  S   UNL A   1      40.936  35.581  40.770  1.00  0.00     0.124 S 
ATOM     99  O   UNL A   1      41.086  36.974  40.367  1.00  0.00    -0.237 OA
ATOM    100  O   UNL A   1      39.564  35.094  40.872  1.00  0.00    -0.237 OA
ATOM    101  O   UNL A   1      41.833  35.136  41.833  1.00  0.00    -0.744 OA
ENDBRANCH  97  98
ENDBRANCH  65  90
ENDBRANCH  39  40
ENDBRANCH  32  34
ENDBRANCH  31  32
ENDBRANCH  30  31
ENDBRANCH  29  30
ENDBRANCH  28  29
ENDBRANCH   1  28
TORSDOF 24
ENDMDL
MODEL 3
REMARK VINA RESULT:     -10.5      4.970     10.434
REMARK SMILES CCC[C@@](C)(NC(=O)N1CCN(C)C(=O)C1(C)C)C(=O)OCCOCCOCCOC(=O)c1ccc(-c2c3nc(c(-c4c(F)cc(S(=O)(=O)[O-])cc4F)c4ccc([nH]4)c(-c4c(F)cc(S(=O)(=O)[O-])cc4F)c4nc(c(-c5c(F)cc(S(=O)(=O)[O-])cc5F)c5ccc2[nH]5)C=C4)C=C3)cc1
REMARK SMILES IDX 26 1 25 2 24 3 23 4 22 5 21 6 19 7 20 8 4 9 5 10 3 11 2 12
REMARK SMILES IDX 1 13 6 14 7 15 8 17 9 18 10 19 16 20 11 21 14 22 17 23 18 24
REMARK SMILES IDX 12 25 15 26 13 27 27 28 28 29 29 30 30 31 31 32 32 33 33 34
REMARK SMILES IDX 34 35 98 36 35 37 97 38 36 39 37 40 38 41 91 42 39 43 96 44
REMARK SMILES IDX 90 45 92 46 40 47 95 48 89 49 88 50 41 52 75 53 54 54 74 55
REMARK SMILES IDX 55 56 58 57 73 58 93 59 56 60 57 61 72 63 94 64 59 65 42 66
REMARK SMILES IDX 43 67 52 68 44 69 45 70 51 71 53 72 46 73 47 74 48 75 49 76
REMARK SMILES IDX 50 77 76 78 77 79 86 80 78 81 79 82 85 83 87 84 80 85 81 86
REMARK SMILES IDX 82 87 83 88 84 89 60 90 61 91 70 92 62 93 63 94 69 95 71 96
REMARK SMILES IDX 64 97 65 98 66 99 67 100 68 101
REMARK H PARENT 6 16 92 51 58 62
REMARK Flexibility Score: inf
ROOT
ATOM      1  C   UNL A   1      38.259  29.229  28.076  1.00  0.00     0.188 C 
ENDROOT
BRANCH   1   2
ATOM      2  C   UNL A   1      39.633  28.379  27.868  1.00  0.00     0.188 C 
BRANCH   2   3
ATOM      3  O   UNL A   1      39.698  26.845  27.645  1.00  0.00    -0.376 OA
BRANCH   3   4
ATOM      4  C   UNL A   1      40.156  25.251  26.621  1.00  0.00     0.202 C 
BRANCH   4   5
ATOM      5  C   UNL A   1      38.896  23.844  26.640  1.00  0.00     0.261 C 
BRANCH   5   6
ATOM      6  O   UNL A   1      37.274  24.049  26.125  1.00  0.00    -0.462 OA
BRANCH   6   7
ATOM      7  C   UNL A   1      36.032  23.378  25.793  1.00  0.00     0.331 C 
ATOM      8  O   UNL A   1      35.454  22.817  26.734  1.00  0.00    -0.249 OA
BRANCH   7   9
ATOM      9  C   UNL A   1      35.307  23.219  24.142  1.00  0.00     0.136 C 
ATOM     10  C   UNL A   1      36.619  22.856  23.293  1.00  0.00     0.047 C 
BRANCH   9  11
ATOM     11  C   UNL A   1      34.406  21.936  23.937  1.00  0.00     0.040 C 
BRANCH  11  12
ATOM     12  C   UNL A   1      33.080  21.778  24.711  1.00  0.00    -0.000 C 
ATOM     13  C   UNL A   1      32.928  20.422  25.376  1.00  0.00     0.004 C 
ENDBRANCH  11  12
ENDBRANCH   9  11
BRANCH   9  14
ATOM     14  N   UNL A   1      34.623  24.367  23.111  1.00  0.00    -0.322 N 
ATOM     15  C   UNL A   1      33.652  25.382  22.968  1.00  0.00     0.319 C 
ATOM     16  H   UNL A   1      35.101  24.304  22.251  1.00  0.00     0.166 HD
ATOM     17  O   UNL A   1      33.557  25.914  21.864  1.00  0.00    -0.249 OA
BRANCH  15  18
ATOM     18  N   UNL A   1      32.973  25.845  24.100  1.00  0.00    -0.309 N 
ATOM     19  C   UNL A   1      33.369  27.179  25.342  1.00  0.00     0.144 C 
ATOM     20  C   UNL A   1      31.481  25.798  23.675  1.00  0.00     0.118 C 
ATOM     21  C   UNL A   1      32.582  28.972  25.125  1.00  0.00     0.140 C 
ATOM     22  C   UNL A   1      30.860  27.642  22.871  1.00  0.00     0.247 C 
ATOM     23  C   UNL A   1      31.145  24.236  23.115  1.00  0.00     0.045 C 
ATOM     24  C   UNL A   1      31.157  24.986  25.273  1.00  0.00     0.045 C 
ATOM     25  N   UNL A   1      31.294  29.125  23.793  1.00  0.00    -0.342 N 
ATOM     26  O   UNL A   1      30.042  27.976  22.000  1.00  0.00    -0.272 OA
ATOM     27  C   UNL A   1      30.250  30.158  23.907  1.00  0.00     0.146 C 
ENDBRANCH  15  18
ENDBRANCH   9  14
ENDBRANCH   7   9
ENDBRANCH   6   7
ENDBRANCH   5   6
ENDBRANCH   4   5
ENDBRANCH   3   4
ENDBRANCH   2   3
ENDBRANCH   1   2
BRANCH   1  28
ATOM     28  O   UNL A   1      38.204  30.610  28.403  1.00  0.00    -0.376 OA
BRANCH  28  29
ATOM     29  C   UNL A   1      37.037  31.288  28.861  1.00  0.00     0.202 C 
BRANCH  29  30
ATOM     30  C   UNL A   1      37.030  32.107  30.163  1.00  0.00     0.261 C 
BRANCH  30  31
ATOM     31  O   UNL A   1      38.308  32.355  30.756  1.00  0.00    -0.460 OA
BRANCH  31  32
ATOM     32  C   UNL A   1      38.462  33.586  31.307  1.00  0.00     0.338 C 
ATOM     33  O   UNL A   1      37.805  34.066  32.211  1.00  0.00    -0.246 OA
BRANCH  32  34
ATOM     34  C   UNL A   1      39.708  34.166  30.761  1.00  0.00     0.060 A 
ATOM     35  C   UNL A   1      39.724  34.656  29.443  1.00  0.00     0.016 A 
ATOM     36  C   UNL A   1      40.858  34.208  31.544  1.00  0.00     0.016 A 
ATOM     37  C   UNL A   1      40.884  35.202  28.906  1.00  0.00     0.010 A 
ATOM     38  C   UNL A   1      42.045  34.672  30.975  1.00  0.00     0.010 A 
ATOM     39  C   UNL A   1      42.064  35.140  29.647  1.00  0.00    -0.014 A 
BRANCH  39  40
ATOM     40  C   UNL A   1      43.358  35.281  28.946  1.00  0.00     0.031 A 
ATOM     41  C   UNL A   1      44.139  34.027  28.672  1.00  0.00     0.074 A 
ATOM     42  C   UNL A   1      43.825  36.477  28.556  1.00  0.00     0.049 A 
ATOM     43  N   UNL A   1      45.363  33.888  28.242  1.00  0.00    -0.248 NA
ATOM     44  C   UNL A   1      43.437  32.754  28.917  1.00  0.00     0.031 C 
ATOM     45  C   UNL A   1      43.106  37.744  28.651  1.00  0.00     0.029 A 
ATOM     46  N   UNL A   1      45.040  36.811  28.014  1.00  0.00    -0.354 N 
ATOM     47  C   UNL A   1      45.586  32.518  28.180  1.00  0.00     0.074 A 
ATOM     48  C   UNL A   1      44.374  31.867  28.624  1.00  0.00     0.031 C 
ATOM     49  C   UNL A   1      43.911  38.729  28.213  1.00  0.00     0.029 A 
ATOM     50  C   UNL A   1      45.216  38.165  27.864  1.00  0.00     0.049 A 
ATOM     51  H   UNL A   1      45.719  36.146  27.757  1.00  0.00     0.167 HD
ATOM     52  C   UNL A   1      46.704  31.863  27.795  1.00  0.00     0.037 A 
ATOM     53  C   UNL A   1      46.322  38.861  27.535  1.00  0.00     0.037 A 
ATOM     54  C   UNL A   1      47.912  32.523  27.378  1.00  0.00     0.049 A 
ATOM     55  C   UNL A   1      47.609  38.121  27.262  1.00  0.00     0.074 A 
ATOM     56  C   UNL A   1      49.112  31.957  26.989  1.00  0.00     0.029 A 
ATOM     57  N   UNL A   1      48.078  33.900  27.312  1.00  0.00    -0.354 N 
ATOM     58  N   UNL A   1      47.830  36.828  27.231  1.00  0.00    -0.248 NA
ATOM     59  C   UNL A   1      48.803  38.937  27.000  1.00  0.00     0.031 C 
ATOM     60  C   UNL A   1      50.022  32.990  26.748  1.00  0.00     0.029 A 
ATOM     61  C   UNL A   1      49.373  34.201  26.926  1.00  0.00     0.049 A 
ATOM     62  H   UNL A   1      47.379  34.564  27.511  1.00  0.00     0.167 HD
ATOM     63  C   UNL A   1      49.178  36.676  26.918  1.00  0.00     0.074 A 
ATOM     64  C   UNL A   1      49.722  38.008  26.763  1.00  0.00     0.031 C 
ATOM     65  C   UNL A   1      49.900  35.536  26.769  1.00  0.00     0.037 A 
BRANCH  52  66
ATOM     66  C   UNL A   1      46.686  30.362  27.873  1.00  0.00     0.058 A 
ATOM     67  C   UNL A   1      46.948  29.676  29.070  1.00  0.00     0.135 A 
ATOM     68  C   UNL A   1      46.407  29.599  26.728  1.00  0.00     0.135 A 
ATOM     69  F   UNL A   1      47.245  30.357  30.188  1.00  0.00    -0.206 F 
ATOM     70  C   UNL A   1      46.969  28.286  29.120  1.00  0.00     0.059 A 
ATOM     71  C   UNL A   1      46.391  28.208  26.762  1.00  0.00     0.059 A 
ATOM     72  F   UNL A   1      46.157  30.204  25.556  1.00  0.00    -0.206 F 
ATOM     73  C   UNL A   1      46.692  27.562  27.959  1.00  0.00     0.060 A 
BRANCH  73  74
ATOM     74  S   UNL A   1      46.744  25.759  28.037  1.00  0.00     0.124 S 
ATOM     75  O   UNL A   1      47.349  25.429  26.750  1.00  0.00    -0.237 OA
ATOM     76  O   UNL A   1      47.579  25.522  29.209  1.00  0.00    -0.237 OA
ATOM     77  O   UNL A   1      45.341  25.385  28.183  1.00  0.00    -0.744 OA
ENDBRANCH  73  74
ENDBRANCH  52  66
BRANCH  53  78
ATOM     78  C   UNL A   1      46.276  40.348  27.487  1.00  0.00     0.058 A 
ATOM     79  C   UNL A   1      46.036  41.022  26.281  1.00  0.00     0.135 A 
ATOM     80  C   UNL A   1      46.477  41.123  28.640  1.00  0.00     0.135 A 
ATOM     81  F   UNL A   1      45.859  40.325  25.148  1.00  0.00    -0.206 F 
ATOM     82  C   UNL A   1      46.002  42.410  26.217  1.00  0.00     0.059 A 
ATOM     83  C   UNL A   1      46.419  42.513  28.607  1.00  0.00     0.059 A 
ATOM     84  F   UNL A   1      46.713  40.529  29.820  1.00  0.00    -0.206 F 
ATOM     85  C   UNL A   1      46.188  43.148  27.388  1.00  0.00     0.060 A 
BRANCH  85  86
ATOM     86  S   UNL A   1      46.095  44.949  27.297  1.00  0.00     0.124 S 
ATOM     87  O   UNL A   1      47.506  45.315  27.253  1.00  0.00    -0.237 OA
ATOM     88  O   UNL A   1      45.345  45.154  26.062  1.00  0.00    -0.237 OA
ATOM     89  O   UNL A   1      45.389  45.312  28.522  1.00  0.00    -0.744 OA
ENDBRANCH  85  86
ENDBRANCH  53  78
BRANCH  65  90
ATOM     90  C   UNL A   1      51.353  35.663  26.397  1.00  0.00     0.058 A 
ATOM     91  C   UNL A   1      52.369  35.628  27.364  1.00  0.00     0.135 A 
ATOM     92  C   UNL A   1      51.739  35.722  25.046  1.00  0.00     0.135 A 
ATOM     93  F   UNL A   1      52.058  35.580  28.669  1.00  0.00    -0.206 F 
ATOM     94  C   UNL A   1      53.714  35.649  27.007  1.00  0.00     0.059 A 
ATOM     95  C   UNL A   1      53.077  35.716  24.666  1.00  0.00     0.059 A 
ATOM     96  F   UNL A   1      50.808  35.749  24.079  1.00  0.00    -0.206 F 
ATOM     97  C   UNL A   1      54.059  35.683  25.654  1.00  0.00     0.060 A 
BRANCH  97  98
ATOM     98  S   UNL A   1      55.808  35.635  25.207  1.00  0.00     0.124 S 
ATOM     99  O   UNL A   1      55.802  34.707  24.083  1.00  0.00    -0.237 OA
ATOM    100  O   UNL A   1      56.082  37.030  24.877  1.00  0.00    -0.237 OA
ATOM    101  O   UNL A   1      56.456  35.146  26.421  1.00  0.00    -0.744 OA
ENDBRANCH  97  98
ENDBRANCH  65  90
ENDBRANCH  39  40
ENDBRANCH  32  34
ENDBRANCH  31  32
ENDBRANCH  30  31
ENDBRANCH  29  30
ENDBRANCH  28  29
ENDBRANCH   1  28
TORSDOF 24
ENDMDL
