MODEL 1
REMARK VINA RESULT:     -13.2      0.000      0.000
REMARK SMILES Cc1ccc(-c2nc(C)cc(N3CCCC[C@H]3C(=O)OCCOCCOCCOC(=O)c3ccc(-c4c5nc(c(-c6c(F)cc(S(=O)(=O)[O-])cc6F)c6ccc([nH]6)c(-c6c(F)cc(S(=O)(=O)[O-])cc6F)c6nc(c(-c7c(F)cc(S(=O)(=O)[O-])cc7F)c7ccc4[nH]7)C=C6)C=C5)cc3)n2)cc1
REMARK SMILES IDX 25 1 24 2 23 3 22 4 21 5 20 6 18 7 19 8 17 9 12 10 13 11
REMARK SMILES IDX 14 12 16 13 15 14 11 15 6 16 7 17 98 18 8 19 9 20 10 21 5 22
REMARK SMILES IDX 1 23 2 24 3 25 100 26 4 27 99 28 26 29 27 30 28 31 29 32
REMARK SMILES IDX 30 33 31 34 32 35 33 36 97 37 34 38 96 39 35 40 36 41 37 42
REMARK SMILES IDX 90 43 38 44 95 45 89 46 91 47 39 48 94 49 88 50 87 51 40 53
REMARK SMILES IDX 74 54 53 55 73 56 54 57 57 58 72 59 92 60 55 61 56 62 71 64
REMARK SMILES IDX 93 65 58 66 41 67 42 68 51 69 43 70 44 71 50 72 52 73 45 74
REMARK SMILES IDX 46 75 47 76 48 77 49 78 75 79 76 80 85 81 77 82 78 83 84 84
REMARK SMILES IDX 86 85 79 86 80 87 81 88 82 89 83 90 59 91 60 92 69 93 61 94
REMARK SMILES IDX 62 95 68 96 70 97 63 98 64 99 65 100 66 101 67 102
REMARK H PARENT 91 52 57 63
REMARK Flexibility Score: inf
ROOT
ATOM      1  C   UNL A   1      33.507  22.678  23.976  1.00  0.00     0.188 C 
ENDROOT
BRANCH   1   2
ATOM      2  C   UNL A   1      32.093  23.092  23.577  1.00  0.00     0.188 C 
BRANCH   2   3
ATOM      3  O   UNL A   1      31.356  24.185  24.174  1.00  0.00    -0.376 OA
BRANCH   3   4
ATOM      4  C   UNL A   1      30.446  25.080  23.494  1.00  0.00     0.202 C 
BRANCH   4   5
ATOM      5  C   UNL A   1      29.115  26.029  24.124  1.00  0.00     0.261 C 
BRANCH   5   6
ATOM      6  O   UNL A   1      28.027  27.258  23.370  1.00  0.00    -0.462 OA
BRANCH   6   7
ATOM      7  C   UNL A   1      27.654  28.702  23.453  1.00  0.00     0.328 C 
ATOM      8  O   UNL A   1      26.578  29.240  23.150  1.00  0.00    -0.250 OA
BRANCH   7   9
ATOM      9  C   UNL A   1      28.665  29.785  23.760  1.00  0.00     0.193 C 
ATOM     10  N   UNL A   1      29.887  29.617  22.945  1.00  0.00    -0.343 N 
ATOM     11  C   UNL A   1      29.763  29.962  21.538  1.00  0.00     0.119 C 
ATOM     12  C   UNL A   1      29.161  31.360  21.398  1.00  0.00     0.022 C 
ATOM     13  C   UNL A   1      28.126  31.189  23.675  1.00  0.00     0.037 C 
ATOM     14  C   UNL A   1      27.896  31.574  22.225  1.00  0.00     0.005 C 
BRANCH  10  15
ATOM     15  C   UNL A   1      31.062  28.972  23.271  1.00  0.00     0.133 A 
ATOM     16  C   UNL A   1      32.827  29.024  24.767  1.00  0.00     0.161 A 
ATOM     17  N   UNL A   1      33.626  28.225  24.063  1.00  0.00    -0.233 NA
ATOM     18  N   UNL A   1      31.579  29.391  24.432  1.00  0.00    -0.211 NA
ATOM     19  C   UNL A   1      33.094  27.748  22.920  1.00  0.00     0.043 A 
ATOM     20  C   UNL A   1      34.039  26.876  22.145  1.00  0.00     0.067 C 
ATOM     21  C   UNL A   1      31.803  28.093  22.485  1.00  0.00     0.070 A 
BRANCH  16  22
ATOM     22  C   UNL A   1      33.319  29.621  26.002  1.00  0.00     0.019 A 
ATOM     23  C   UNL A   1      35.107  31.871  29.209  1.00  0.00     0.044 C 
ATOM     24  C   UNL A   1      34.446  31.055  28.143  1.00  0.00    -0.051 A 
ATOM     25  C   UNL A   1      34.985  29.820  27.755  1.00  0.00     0.004 A 
ATOM     26  C   UNL A   1      33.311  31.543  27.492  1.00  0.00     0.004 A 
ATOM     27  C   UNL A   1      34.420  29.102  26.697  1.00  0.00     0.012 A 
ATOM     28  C   UNL A   1      32.757  30.831  26.436  1.00  0.00     0.012 A 
ENDBRANCH  16  22
ENDBRANCH  10  15
ENDBRANCH   7   9
ENDBRANCH   6   7
ENDBRANCH   5   6
ENDBRANCH   4   5
ENDBRANCH   3   4
ENDBRANCH   2   3
ENDBRANCH   1   2
BRANCH   1  29
ATOM     29  O   UNL A   1      34.459  23.224  23.090  1.00  0.00    -0.376 OA
BRANCH  29  30
ATOM     30  C   UNL A   1      35.809  23.068  23.473  1.00  0.00     0.202 C 
BRANCH  30  31
ATOM     31  C   UNL A   1      36.077  21.860  24.385  1.00  0.00     0.261 C 
BRANCH  31  32
ATOM     32  O   UNL A   1      36.714  22.204  25.638  1.00  0.00    -0.460 OA
BRANCH  32  33
ATOM     33  C   UNL A   1      38.005  21.761  25.844  1.00  0.00     0.338 C 
ATOM     34  O   UNL A   1      38.385  20.662  25.468  1.00  0.00    -0.246 OA
BRANCH  33  35
ATOM     35  C   UNL A   1      38.889  22.874  26.291  1.00  0.00     0.060 A 
ATOM     36  C   UNL A   1      40.148  22.850  26.907  1.00  0.00     0.016 A 
ATOM     37  C   UNL A   1      38.372  24.100  26.086  1.00  0.00     0.016 A 
ATOM     38  C   UNL A   1      40.761  24.027  27.538  1.00  0.00     0.010 A 
ATOM     39  C   UNL A   1      38.931  25.161  26.780  1.00  0.00     0.010 A 
ATOM     40  C   UNL A   1      40.123  25.272  27.600  1.00  0.00    -0.014 A 
BRANCH  40  41
ATOM     41  C   UNL A   1      40.680  26.694  28.513  1.00  0.00     0.031 A 
ATOM     42  C   UNL A   1      39.974  28.342  28.777  1.00  0.00     0.074 A 
ATOM     43  C   UNL A   1      41.922  26.637  29.042  1.00  0.00     0.049 A 
ATOM     44  N   UNL A   1      40.638  29.419  29.146  1.00  0.00    -0.248 NA
ATOM     45  C   UNL A   1      38.522  28.875  28.595  1.00  0.00     0.031 C 
ATOM     46  C   UNL A   1      42.457  27.475  30.113  1.00  0.00     0.029 A 
ATOM     47  N   UNL A   1      43.001  25.823  28.681  1.00  0.00    -0.354 N 
ATOM     48  C   UNL A   1      39.700  30.439  29.425  1.00  0.00     0.074 A 
ATOM     49  C   UNL A   1      38.540  30.187  28.690  1.00  0.00     0.031 C 
ATOM     50  C   UNL A   1      43.791  27.332  30.149  1.00  0.00     0.029 A 
ATOM     51  C   UNL A   1      44.157  26.560  28.978  1.00  0.00     0.049 A 
ATOM     52  H   UNL A   1      42.958  24.919  28.296  1.00  0.00     0.167 HD
ATOM     53  C   UNL A   1      39.787  31.262  30.506  1.00  0.00     0.037 A 
ATOM     54  C   UNL A   1      45.012  26.950  27.993  1.00  0.00     0.037 A 
ATOM     55  C   UNL A   1      41.176  31.388  30.830  1.00  0.00     0.049 A 
ATOM     56  C   UNL A   1      45.227  28.449  27.987  1.00  0.00     0.074 A 
ATOM     57  C   UNL A   1      41.982  30.893  31.829  1.00  0.00     0.029 A 
ATOM     58  N   UNL A   1      42.004  31.810  29.800  1.00  0.00    -0.354 N 
ATOM     59  N   UNL A   1      44.455  29.296  28.615  1.00  0.00    -0.248 NA
ATOM     60  C   UNL A   1      46.346  29.114  27.330  1.00  0.00     0.031 C 
ATOM     61  C   UNL A   1      43.305  30.847  31.295  1.00  0.00     0.029 A 
ATOM     62  C   UNL A   1      43.293  31.386  30.016  1.00  0.00     0.049 A 
ATOM     63  H   UNL A   1      41.709  32.338  29.024  1.00  0.00     0.167 HD
ATOM     64  C   UNL A   1      44.924  30.571  28.455  1.00  0.00     0.074 A 
ATOM     65  C   UNL A   1      46.122  30.401  27.655  1.00  0.00     0.031 C 
ATOM     66  C   UNL A   1      44.287  31.657  28.986  1.00  0.00     0.037 A 
BRANCH  53  67
ATOM     67  C   UNL A   1      38.592  31.813  31.315  1.00  0.00     0.058 A 
ATOM     68  C   UNL A   1      38.072  33.090  31.020  1.00  0.00     0.135 A 
ATOM     69  C   UNL A   1      38.005  31.220  32.472  1.00  0.00     0.135 A 
ATOM     70  F   UNL A   1      38.552  33.797  29.987  1.00  0.00    -0.206 F 
ATOM     71  C   UNL A   1      37.071  33.717  31.790  1.00  0.00     0.059 A 
ATOM     72  C   UNL A   1      36.963  31.797  33.214  1.00  0.00     0.059 A 
ATOM     73  F   UNL A   1      38.458  30.081  33.012  1.00  0.00    -0.206 F 
ATOM     74  C   UNL A   1      36.519  33.062  32.886  1.00  0.00     0.060 A 
BRANCH  74  75
ATOM     75  S   UNL A   1      35.271  33.882  33.907  1.00  0.00     0.124 S 
ATOM     76  O   UNL A   1      35.670  33.475  35.252  1.00  0.00    -0.237 OA
ATOM     77  O   UNL A   1      35.470  35.290  33.582  1.00  0.00    -0.237 OA
ATOM     78  O   UNL A   1      34.011  33.310  33.436  1.00  0.00    -0.744 OA
ENDBRANCH  74  75
ENDBRANCH  53  67
BRANCH  54  79
ATOM     79  C   UNL A   1      45.046  25.989  26.845  1.00  0.00     0.058 A 
ATOM     80  C   UNL A   1      45.901  24.868  26.942  1.00  0.00     0.135 A 
ATOM     81  C   UNL A   1      44.005  25.898  25.915  1.00  0.00     0.135 A 
ATOM     82  F   UNL A   1      46.900  24.868  27.840  1.00  0.00    -0.206 F 
ATOM     83  C   UNL A   1      45.676  23.686  26.237  1.00  0.00     0.059 A 
ATOM     84  C   UNL A   1      43.774  24.726  25.170  1.00  0.00     0.059 A 
ATOM     85  F   UNL A   1      43.114  26.895  25.826  1.00  0.00    -0.206 F 
ATOM     86  C   UNL A   1      44.589  23.611  25.374  1.00  0.00     0.060 A 
BRANCH  86  87
ATOM     87  S   UNL A   1      44.168  21.981  24.695  1.00  0.00     0.124 S 
ATOM     88  O   UNL A   1      44.340  22.189  23.264  1.00  0.00    -0.237 OA
ATOM     89  O   UNL A   1      45.170  21.126  25.331  1.00  0.00    -0.237 OA
ATOM     90  O   UNL A   1      42.795  21.774  25.145  1.00  0.00    -0.744 OA
ENDBRANCH  86  87
ENDBRANCH  54  79
BRANCH  66  91
ATOM     91  C   UNL A   1      44.517  33.101  28.587  1.00  0.00     0.058 A 
ATOM     92  C   UNL A   1      44.244  33.618  27.311  1.00  0.00     0.135 A 
ATOM     93  C   UNL A   1      44.860  34.067  29.571  1.00  0.00     0.135 A 
ATOM     94  F   UNL A   1      43.783  32.840  26.321  1.00  0.00    -0.206 F 
ATOM     95  C   UNL A   1      44.387  34.972  27.005  1.00  0.00     0.059 A 
ATOM     96  C   UNL A   1      44.926  35.430  29.308  1.00  0.00     0.059 A 
ATOM     97  F   UNL A   1      45.124  33.719  30.839  1.00  0.00    -0.206 F 
ATOM     98  C   UNL A   1      44.731  35.870  28.010  1.00  0.00     0.060 A 
BRANCH  98  99
ATOM     99  S   UNL A   1      44.909  37.621  27.638  1.00  0.00     0.124 S 
ATOM    100  O   UNL A   1      43.666  37.887  26.919  1.00  0.00    -0.237 OA
ATOM    101  O   UNL A   1      45.014  38.230  28.960  1.00  0.00    -0.237 OA
ATOM    102  O   UNL A   1      46.127  37.667  26.835  1.00  0.00    -0.744 OA
ENDBRANCH  98  99
ENDBRANCH  66  91
ENDBRANCH  40  41
ENDBRANCH  33  35
ENDBRANCH  32  33
ENDBRANCH  31  32
ENDBRANCH  30  31
ENDBRANCH  29  30
ENDBRANCH   1  29
TORSDOF 22
ENDMDL
MODEL 2
REMARK VINA RESULT:     -13.0      1.283      2.499
REMARK SMILES Cc1ccc(-c2nc(C)cc(N3CCCC[C@H]3C(=O)OCCOCCOCCOC(=O)c3ccc(-c4c5nc(c(-c6c(F)cc(S(=O)(=O)[O-])cc6F)c6ccc([nH]6)c(-c6c(F)cc(S(=O)(=O)[O-])cc6F)c6nc(c(-c7c(F)cc(S(=O)(=O)[O-])cc7F)c7ccc4[nH]7)C=C6)C=C5)cc3)n2)cc1
REMARK SMILES IDX 25 1 24 2 23 3 22 4 21 5 20 6 18 7 19 8 17 9 12 10 13 11
REMARK SMILES IDX 14 12 16 13 15 14 11 15 6 16 7 17 98 18 8 19 9 20 10 21 5 22
REMARK SMILES IDX 1 23 2 24 3 25 100 26 4 27 99 28 26 29 27 30 28 31 29 32
REMARK SMILES IDX 30 33 31 34 32 35 33 36 97 37 34 38 96 39 35 40 36 41 37 42
REMARK SMILES IDX 90 43 38 44 95 45 89 46 91 47 39 48 94 49 88 50 87 51 40 53
REMARK SMILES IDX 74 54 53 55 73 56 54 57 57 58 72 59 92 60 55 61 56 62 71 64
REMARK SMILES IDX 93 65 58 66 41 67 42 68 51 69 43 70 44 71 50 72 52 73 45 74
REMARK SMILES IDX 46 75 47 76 48 77 49 78 75 79 76 80 85 81 77 82 78 83 84 84
REMARK SMILES IDX 86 85 79 86 80 87 81 88 82 89 83 90 59 91 60 92 69 93 61 94
REMARK SMILES IDX 62 95 68 96 70 97 63 98 64 99 65 100 66 101 67 102
REMARK H PARENT 91 52 57 63
REMARK Flexibility Score: inf
ROOT
ATOM      1  C   UNL A   1      34.424  22.998  23.310  1.00  0.00     0.188 C 
ENDROOT
BRANCH   1   2
ATOM      2  C   UNL A   1      33.534  24.038  22.632  1.00  0.00     0.188 C 
BRANCH   2   3
ATOM      3  O   UNL A   1      33.984  25.337  22.181  1.00  0.00    -0.376 OA
BRANCH   3   4
ATOM      4  C   UNL A   1      33.254  26.582  22.280  1.00  0.00     0.202 C 
BRANCH   4   5
ATOM      5  C   UNL A   1      31.534  26.894  22.169  1.00  0.00     0.261 C 
BRANCH   5   6
ATOM      6  O   UNL A   1      30.587  28.311  21.571  1.00  0.00    -0.462 OA
BRANCH   6   7
ATOM      7  C   UNL A   1      29.412  29.167  21.917  1.00  0.00     0.328 C 
ATOM      8  O   UNL A   1      28.760  29.918  21.176  1.00  0.00    -0.250 OA
BRANCH   7   9
ATOM      9  C   UNL A   1      28.956  29.382  23.343  1.00  0.00     0.193 C 
ATOM     10  N   UNL A   1      29.872  30.294  24.062  1.00  0.00    -0.343 N 
ATOM     11  C   UNL A   1      29.785  31.699  23.693  1.00  0.00     0.119 C 
ATOM     12  C   UNL A   1      28.330  32.163  23.763  1.00  0.00     0.022 C 
ATOM     13  C   UNL A   1      27.519  29.808  23.486  1.00  0.00     0.037 C 
ATOM     14  C   UNL A   1      27.352  31.246  23.033  1.00  0.00     0.005 C 
BRANCH  10  15
ATOM     15  C   UNL A   1      30.949  29.983  24.865  1.00  0.00     0.133 A 
ATOM     16  C   UNL A   1      32.053  28.197  25.839  1.00  0.00     0.161 A 
ATOM     17  N   UNL A   1      32.758  28.927  26.701  1.00  0.00    -0.233 NA
ATOM     18  N   UNL A   1      31.189  28.668  24.925  1.00  0.00    -0.211 NA
ATOM     19  C   UNL A   1      32.570  30.258  26.611  1.00  0.00     0.043 A 
ATOM     20  C   UNL A   1      33.361  31.039  27.620  1.00  0.00     0.067 C 
ATOM     21  C   UNL A   1      31.673  30.836  25.695  1.00  0.00     0.070 A 
BRANCH  16  22
ATOM     22  C   UNL A   1      32.157  26.745  25.877  1.00  0.00     0.019 A 
ATOM     23  C   UNL A   1      32.270  22.519  26.700  1.00  0.00     0.044 C 
ATOM     24  C   UNL A   1      32.236  23.972  26.344  1.00  0.00    -0.051 A 
ATOM     25  C   UNL A   1      33.425  24.709  26.250  1.00  0.00     0.004 A 
ATOM     26  C   UNL A   1      31.013  24.616  26.152  1.00  0.00     0.004 A 
ATOM     27  C   UNL A   1      33.387  26.086  26.008  1.00  0.00     0.012 A 
ATOM     28  C   UNL A   1      30.978  25.986  25.921  1.00  0.00     0.012 A 
ENDBRANCH  16  22
ENDBRANCH  10  15
ENDBRANCH   7   9
ENDBRANCH   6   7
ENDBRANCH   5   6
ENDBRANCH   4   5
ENDBRANCH   3   4
ENDBRANCH   2   3
ENDBRANCH   1   2
BRANCH   1  29
ATOM     29  O   UNL A   1      35.650  22.866  22.627  1.00  0.00    -0.376 OA
BRANCH  29  30
ATOM     30  C   UNL A   1      36.794  22.739  23.445  1.00  0.00     0.202 C 
BRANCH  30  31
ATOM     31  C   UNL A   1      36.724  21.590  24.464  1.00  0.00     0.261 C 
BRANCH  31  32
ATOM     32  O   UNL A   1      37.255  21.932  25.766  1.00  0.00    -0.460 OA
BRANCH  32  33
ATOM     33  C   UNL A   1      38.594  21.686  25.997  1.00  0.00     0.338 C 
ATOM     34  O   UNL A   1      39.133  20.641  25.663  1.00  0.00    -0.246 OA
BRANCH  33  35
ATOM     35  C   UNL A   1      39.304  22.930  26.409  1.00  0.00     0.060 A 
ATOM     36  C   UNL A   1      40.601  23.119  26.905  1.00  0.00     0.016 A 
ATOM     37  C   UNL A   1      38.558  24.046  26.306  1.00  0.00     0.016 A 
ATOM     38  C   UNL A   1      41.052  24.371  27.529  1.00  0.00     0.010 A 
ATOM     39  C   UNL A   1      38.984  25.172  26.992  1.00  0.00     0.010 A 
ATOM     40  C   UNL A   1      40.210  25.477  27.703  1.00  0.00    -0.014 A 
BRANCH  40  41
ATOM     41  C   UNL A   1      40.590  26.952  28.623  1.00  0.00     0.031 A 
ATOM     42  C   UNL A   1      39.780  28.568  28.749  1.00  0.00     0.074 A 
ATOM     43  C   UNL A   1      41.766  26.975  29.290  1.00  0.00     0.049 A 
ATOM     44  N   UNL A   1      40.345  29.689  29.152  1.00  0.00    -0.248 NA
ATOM     45  C   UNL A   1      38.334  29.020  28.386  1.00  0.00     0.031 C 
ATOM     46  C   UNL A   1      42.134  27.871  30.385  1.00  0.00     0.029 A 
ATOM     47  N   UNL A   1      42.917  26.208  29.081  1.00  0.00    -0.354 N 
ATOM     48  C   UNL A   1      39.333  30.666  29.288  1.00  0.00     0.074 A 
ATOM     49  C   UNL A   1      38.278  30.333  28.437  1.00  0.00     0.031 C 
ATOM     50  C   UNL A   1      43.460  27.799  30.575  1.00  0.00     0.029 A 
ATOM     51  C   UNL A   1      43.994  27.013  29.480  1.00  0.00     0.049 A 
ATOM     52  H   UNL A   1      42.962  25.292  28.726  1.00  0.00     0.167 HD
ATOM     53  C   UNL A   1      39.257  31.524  30.343  1.00  0.00     0.037 A 
ATOM     54  C   UNL A   1      44.936  27.417  28.584  1.00  0.00     0.037 A 
ATOM     55  C   UNL A   1      40.592  31.731  30.816  1.00  0.00     0.049 A 
ATOM     56  C   UNL A   1      45.077  28.924  28.550  1.00  0.00     0.074 A 
ATOM     57  C   UNL A   1      41.302  31.309  31.916  1.00  0.00     0.029 A 
ATOM     58  N   UNL A   1      41.510  32.165  29.872  1.00  0.00    -0.354 N 
ATOM     59  N   UNL A   1      44.199  29.749  29.058  1.00  0.00    -0.248 NA
ATOM     60  C   UNL A   1      46.230  29.628  28.000  1.00  0.00     0.031 C 
ATOM     61  C   UNL A   1      42.678  31.315  31.535  1.00  0.00     0.029 A 
ATOM     62  C   UNL A   1      42.786  31.816  30.246  1.00  0.00     0.049 A 
ATOM     63  H   UNL A   1      41.281  32.654  29.049  1.00  0.00     0.167 HD
ATOM     64  C   UNL A   1      44.621  31.041  28.907  1.00  0.00     0.074 A 
ATOM     65  C   UNL A   1      45.909  30.910  28.252  1.00  0.00     0.031 C 
ATOM     66  C   UNL A   1      43.876  32.108  29.325  1.00  0.00     0.037 A 
BRANCH  53  67
ATOM     67  C   UNL A   1      37.953  32.036  30.992  1.00  0.00     0.058 A 
ATOM     68  C   UNL A   1      37.332  33.204  30.502  1.00  0.00     0.135 A 
ATOM     69  C   UNL A   1      37.337  31.527  32.175  1.00  0.00     0.135 A 
ATOM     70  F   UNL A   1      37.820  33.828  29.421  1.00  0.00    -0.206 F 
ATOM     71  C   UNL A   1      36.216  33.806  31.116  1.00  0.00     0.059 A 
ATOM     72  C   UNL A   1      36.187  32.072  32.765  1.00  0.00     0.059 A 
ATOM     73  F   UNL A   1      37.856  30.518  32.886  1.00  0.00    -0.206 F 
ATOM     74  C   UNL A   1      35.646  33.233  32.248  1.00  0.00     0.060 A 
BRANCH  74  75
ATOM     75  S   UNL A   1      34.246  34.030  33.070  1.00  0.00     0.124 S 
ATOM     76  O   UNL A   1      33.283  32.936  33.151  1.00  0.00    -0.237 OA
ATOM     77  O   UNL A   1      34.827  34.463  34.336  1.00  0.00    -0.237 OA
ATOM     78  O   UNL A   1      33.880  35.110  32.155  1.00  0.00    -0.744 OA
ENDBRANCH  74  75
ENDBRANCH  53  67
BRANCH  54  79
ATOM     79  C   UNL A   1      45.146  26.426  27.482  1.00  0.00     0.058 A 
ATOM     80  C   UNL A   1      45.727  25.180  27.811  1.00  0.00     0.135 A 
ATOM     81  C   UNL A   1      44.433  26.482  26.279  1.00  0.00     0.135 A 
ATOM     82  F   UNL A   1      46.394  25.041  28.968  1.00  0.00    -0.206 F 
ATOM     83  C   UNL A   1      45.524  24.031  27.048  1.00  0.00     0.059 A 
ATOM     84  C   UNL A   1      44.239  25.342  25.477  1.00  0.00     0.059 A 
ATOM     85  F   UNL A   1      43.797  27.613  25.945  1.00  0.00    -0.206 F 
ATOM     86  C   UNL A   1      44.750  24.112  25.896  1.00  0.00     0.060 A 
BRANCH  86  87
ATOM     87  S   UNL A   1      44.278  22.556  25.090  1.00  0.00     0.124 S 
ATOM     88  O   UNL A   1      43.909  21.720  26.225  1.00  0.00    -0.237 OA
ATOM     89  O   UNL A   1      43.168  22.986  24.240  1.00  0.00    -0.237 OA
ATOM     90  O   UNL A   1      45.491  22.162  24.381  1.00  0.00    -0.744 OA
ENDBRANCH  86  87
ENDBRANCH  54  79
BRANCH  66  91
ATOM     91  C   UNL A   1      44.080  33.550  28.903  1.00  0.00     0.058 A 
ATOM     92  C   UNL A   1      44.475  34.576  29.775  1.00  0.00     0.135 A 
ATOM     93  C   UNL A   1      44.054  33.900  27.527  1.00  0.00     0.135 A 
ATOM     94  F   UNL A   1      44.669  34.353  31.083  1.00  0.00    -0.206 F 
ATOM     95  C   UNL A   1      44.737  35.874  29.333  1.00  0.00     0.059 A 
ATOM     96  C   UNL A   1      44.392  35.164  27.057  1.00  0.00     0.059 A 
ATOM     97  F   UNL A   1      43.717  33.013  26.579  1.00  0.00    -0.206 F 
ATOM     98  C   UNL A   1      44.690  36.159  27.973  1.00  0.00     0.060 A 
BRANCH  98  99
ATOM     99  S   UNL A   1      45.036  37.822  27.383  1.00  0.00     0.124 S 
ATOM    100  O   UNL A   1      43.720  38.236  26.907  1.00  0.00    -0.237 OA
ATOM    101  O   UNL A   1      45.514  38.504  28.583  1.00  0.00    -0.237 OA
ATOM    102  O   UNL A   1      46.044  37.605  26.351  1.00  0.00    -0.744 OA
ENDBRANCH  98  99
ENDBRANCH  66  91
ENDBRANCH  40  41
ENDBRANCH  33  35
ENDBRANCH  32  33
ENDBRANCH  31  32
ENDBRANCH  30  31
ENDBRANCH  29  30
ENDBRANCH   1  29
TORSDOF 22
ENDMDL
MODEL 3
REMARK VINA RESULT:     -11.6      1.431      3.404
REMARK SMILES Cc1ccc(-c2nc(C)cc(N3CCCC[C@H]3C(=O)OCCOCCOCCOC(=O)c3ccc(-c4c5nc(c(-c6c(F)cc(S(=O)(=O)[O-])cc6F)c6ccc([nH]6)c(-c6c(F)cc(S(=O)(=O)[O-])cc6F)c6nc(c(-c7c(F)cc(S(=O)(=O)[O-])cc7F)c7ccc4[nH]7)C=C6)C=C5)cc3)n2)cc1
REMARK SMILES IDX 25 1 24 2 23 3 22 4 21 5 20 6 18 7 19 8 17 9 12 10 13 11
REMARK SMILES IDX 14 12 16 13 15 14 11 15 6 16 7 17 98 18 8 19 9 20 10 21 5 22
REMARK SMILES IDX 1 23 2 24 3 25 100 26 4 27 99 28 26 29 27 30 28 31 29 32
REMARK SMILES IDX 30 33 31 34 32 35 33 36 97 37 34 38 96 39 35 40 36 41 37 42
REMARK SMILES IDX 90 43 38 44 95 45 89 46 91 47 39 48 94 49 88 50 87 51 40 53
REMARK SMILES IDX 74 54 53 55 73 56 54 57 57 58 72 59 92 60 55 61 56 62 71 64
REMARK SMILES IDX 93 65 58 66 41 67 42 68 51 69 43 70 44 71 50 72 52 73 45 74
REMARK SMILES IDX 46 75 47 76 48 77 49 78 75 79 76 80 85 81 77 82 78 83 84 84
REMARK SMILES IDX 86 85 79 86 80 87 81 88 82 89 83 90 59 91 60 92 69 93 61 94
REMARK SMILES IDX 62 95 68 96 70 97 63 98 64 99 65 100 66 101 67 102
REMARK H PARENT 91 52 57 63
REMARK Flexibility Score: inf
ROOT
ATOM      1  C   UNL A   1      32.516  22.025  24.493  1.00  0.00     0.188 C 
ENDROOT
BRANCH   1   2
ATOM      2  C   UNL A   1      32.346  21.693  23.013  1.00  0.00     0.188 C 
BRANCH   2   3
ATOM      3  O   UNL A   1      32.745  22.558  21.924  1.00  0.00    -0.376 OA
BRANCH   3   4
ATOM      4  C   UNL A   1      33.295  23.891  22.043  1.00  0.00     0.202 C 
BRANCH   4   5
ATOM      5  C   UNL A   1      32.532  25.452  21.817  1.00  0.00     0.261 C 
BRANCH   5   6
ATOM      6  O   UNL A   1      33.157  27.143  21.922  1.00  0.00    -0.462 OA
BRANCH   6   7
ATOM      7  C   UNL A   1      33.657  28.149  22.907  1.00  0.00     0.328 C 
ATOM      8  O   UNL A   1      34.815  28.565  23.065  1.00  0.00    -0.250 OA
BRANCH   7   9
ATOM      9  C   UNL A   1      32.795  28.685  24.029  1.00  0.00     0.193 C 
ATOM     10  N   UNL A   1      31.704  27.743  24.357  1.00  0.00    -0.343 N 
ATOM     11  C   UNL A   1      32.101  26.540  25.073  1.00  0.00     0.119 C 
ATOM     12  C   UNL A   1      32.931  26.917  26.300  1.00  0.00     0.022 C 
ATOM     13  C   UNL A   1      33.556  29.110  25.258  1.00  0.00     0.037 C 
ATOM     14  C   UNL A   1      34.068  27.891  26.002  1.00  0.00     0.005 C 
BRANCH  10  15
ATOM     15  C   UNL A   1      30.406  27.725  23.892  1.00  0.00     0.133 A 
ATOM     16  C   UNL A   1      28.827  29.033  22.819  1.00  0.00     0.161 A 
ATOM     17  N   UNL A   1      27.782  28.266  23.129  1.00  0.00    -0.233 NA
ATOM     18  N   UNL A   1      30.107  28.797  23.149  1.00  0.00    -0.211 NA
ATOM     19  C   UNL A   1      28.078  27.152  23.827  1.00  0.00     0.043 A 
ATOM     20  C   UNL A   1      26.869  26.334  24.178  1.00  0.00     0.067 C 
ATOM     21  C   UNL A   1      29.388  26.836  24.228  1.00  0.00     0.070 A 
BRANCH  16  22
ATOM     22  C   UNL A   1      28.611  30.278  22.096  1.00  0.00     0.019 A 
ATOM     23  C   UNL A   1      27.354  34.012  20.356  1.00  0.00     0.044 C 
ATOM     24  C   UNL A   1      27.854  32.724  20.929  1.00  0.00    -0.051 A 
ATOM     25  C   UNL A   1      27.702  31.523  20.221  1.00  0.00     0.004 A 
ATOM     26  C   UNL A   1      28.434  32.702  22.199  1.00  0.00     0.004 A 
ATOM     27  C   UNL A   1      28.087  30.308  20.796  1.00  0.00     0.012 A 
ATOM     28  C   UNL A   1      28.808  31.492  22.771  1.00  0.00     0.012 A 
ENDBRANCH  16  22
ENDBRANCH  10  15
ENDBRANCH   7   9
ENDBRANCH   6   7
ENDBRANCH   5   6
ENDBRANCH   4   5
ENDBRANCH   3   4
ENDBRANCH   2   3
ENDBRANCH   1   2
BRANCH   1  29
ATOM     29  O   UNL A   1      33.729  21.504  24.988  1.00  0.00    -0.376 OA
BRANCH  29  30
ATOM     30  C   UNL A   1      34.877  22.291  24.744  1.00  0.00     0.202 C 
BRANCH  30  31
ATOM     31  C   UNL A   1      35.691  22.636  26.001  1.00  0.00     0.261 C 
BRANCH  31  32
ATOM     32  O   UNL A   1      36.693  21.648  26.337  1.00  0.00    -0.460 OA
BRANCH  32  33
ATOM     33  C   UNL A   1      37.896  21.701  25.662  1.00  0.00     0.338 C 
ATOM     34  O   UNL A   1      38.083  21.101  24.614  1.00  0.00    -0.246 OA
BRANCH  33  35
ATOM     35  C   UNL A   1      38.771  22.777  26.208  1.00  0.00     0.060 A 
ATOM     36  C   UNL A   1      39.913  22.703  27.018  1.00  0.00     0.016 A 
ATOM     37  C   UNL A   1      38.376  24.022  25.882  1.00  0.00     0.016 A 
ATOM     38  C   UNL A   1      40.494  23.867  27.700  1.00  0.00     0.010 A 
ATOM     39  C   UNL A   1      38.887  25.076  26.622  1.00  0.00     0.010 A 
ATOM     40  C   UNL A   1      39.939  25.150  27.618  1.00  0.00    -0.014 A 
BRANCH  40  41
ATOM     41  C   UNL A   1      40.438  26.574  28.562  1.00  0.00     0.031 A 
ATOM     42  C   UNL A   1      39.736  28.234  28.749  1.00  0.00     0.074 A 
ATOM     43  C   UNL A   1      41.630  26.505  29.194  1.00  0.00     0.049 A 
ATOM     44  N   UNL A   1      40.383  29.307  29.162  1.00  0.00    -0.248 NA
ATOM     45  C   UNL A   1      38.313  28.786  28.440  1.00  0.00     0.031 C 
ATOM     46  C   UNL A   1      42.085  27.347  30.299  1.00  0.00     0.029 A 
ATOM     47  N   UNL A   1      42.723  25.673  28.934  1.00  0.00    -0.354 N 
ATOM     48  C   UNL A   1      39.440  30.342  29.352  1.00  0.00     0.074 A 
ATOM     49  C   UNL A   1      38.342  30.099  28.523  1.00  0.00     0.031 C 
ATOM     50  C   UNL A   1      43.408  27.187  30.449  1.00  0.00     0.029 A 
ATOM     51  C   UNL A   1      43.860  26.397  29.320  1.00  0.00     0.049 A 
ATOM     52  H   UNL A   1      42.700  24.765  28.555  1.00  0.00     0.167 HD
ATOM     53  C   UNL A   1      39.448  31.175  30.428  1.00  0.00     0.037 A 
ATOM     54  C   UNL A   1      44.801  26.764  28.407  1.00  0.00     0.037 A 
ATOM     55  C   UNL A   1      40.806  31.286  30.867  1.00  0.00     0.049 A 
ATOM     56  C   UNL A   1      45.038  28.259  28.405  1.00  0.00     0.074 A 
ATOM     57  C   UNL A   1      41.518  30.791  31.935  1.00  0.00     0.029 A 
ATOM     58  N   UNL A   1      41.724  31.685  29.907  1.00  0.00    -0.354 N 
ATOM     59  N   UNL A   1      44.229  29.125  28.958  1.00  0.00    -0.248 NA
ATOM     60  C   UNL A   1      46.218  28.902  27.839  1.00  0.00     0.031 C 
ATOM     61  C   UNL A   1      42.880  30.719  31.515  1.00  0.00     0.029 A 
ATOM     62  C   UNL A   1      42.984  31.245  30.236  1.00  0.00     0.049 A 
ATOM     63  H   UNL A   1      41.504  32.208  29.104  1.00  0.00     0.167 HD
ATOM     64  C   UNL A   1      44.728  30.391  28.826  1.00  0.00     0.074 A 
ATOM     65  C   UNL A   1      45.987  30.195  28.131  1.00  0.00     0.031 C 
ATOM     66  C   UNL A   1      44.065  31.491  29.291  1.00  0.00     0.037 A 
BRANCH  53  67
ATOM     67  C   UNL A   1      38.197  31.752  31.127  1.00  0.00     0.058 A 
ATOM     68  C   UNL A   1      37.920  33.133  31.049  1.00  0.00     0.135 A 
ATOM     69  C   UNL A   1      37.315  31.051  32.002  1.00  0.00     0.135 A 
ATOM     70  F   UNL A   1      38.689  33.938  30.302  1.00  0.00    -0.206 F 
ATOM     71  C   UNL A   1      36.876  33.756  31.761  1.00  0.00     0.059 A 
ATOM     72  C   UNL A   1      36.229  31.638  32.668  1.00  0.00     0.059 A 
ATOM     73  F   UNL A   1      37.494  29.766  32.335  1.00  0.00    -0.206 F 
ATOM     74  C   UNL A   1      36.031  33.002  32.568  1.00  0.00     0.060 A 
BRANCH  74  75
ATOM     75  S   UNL A   1      34.722  33.804  33.524  1.00  0.00     0.124 S 
ATOM     76  O   UNL A   1      34.772  35.171  33.015  1.00  0.00    -0.237 OA
ATOM     77  O   UNL A   1      33.542  33.029  33.157  1.00  0.00    -0.237 OA
ATOM     78  O   UNL A   1      35.161  33.643  34.910  1.00  0.00    -0.744 OA
ENDBRANCH  74  75
ENDBRANCH  53  67
BRANCH  54  79
ATOM     79  C   UNL A   1      44.918  25.790  27.276  1.00  0.00     0.058 A 
ATOM     80  C   UNL A   1      45.656  24.604  27.493  1.00  0.00     0.135 A 
ATOM     81  C   UNL A   1      44.015  25.773  26.207  1.00  0.00     0.135 A 
ATOM     82  F   UNL A   1      46.514  24.533  28.524  1.00  0.00    -0.206 F 
ATOM     83  C   UNL A   1      45.436  23.437  26.763  1.00  0.00     0.059 A 
ATOM     84  C   UNL A   1      43.796  24.616  25.437  1.00  0.00     0.059 A 
ATOM     85  F   UNL A   1      43.231  26.840  25.993  1.00  0.00    -0.206 F 
ATOM     86  C   UNL A   1      44.479  23.440  25.754  1.00  0.00     0.060 A 
BRANCH  86  87
ATOM     87  S   UNL A   1      44.025  21.843  25.022  1.00  0.00     0.124 S 
ATOM     88  O   UNL A   1      44.027  22.144  23.597  1.00  0.00    -0.237 OA
ATOM     89  O   UNL A   1      45.116  20.984  25.484  1.00  0.00    -0.237 OA
ATOM     90  O   UNL A   1      42.719  21.563  25.609  1.00  0.00    -0.744 OA
ENDBRANCH  86  87
ENDBRANCH  54  79
BRANCH  66  91
ATOM     91  C   UNL A   1      44.350  32.928  28.898  1.00  0.00     0.058 A 
ATOM     92  C   UNL A   1      44.237  33.423  27.590  1.00  0.00     0.135 A 
ATOM     93  C   UNL A   1      44.576  33.909  29.901  1.00  0.00     0.135 A 
ATOM     94  F   UNL A   1      43.896  32.630  26.565  1.00  0.00    -0.206 F 
ATOM     95  C   UNL A   1      44.422  34.772  27.282  1.00  0.00     0.059 A 
ATOM     96  C   UNL A   1      44.680  35.267  29.625  1.00  0.00     0.059 A 
ATOM     97  F   UNL A   1      44.681  33.582  31.197  1.00  0.00    -0.206 F 
ATOM     98  C   UNL A   1      44.647  35.686  28.306  1.00  0.00     0.060 A 
BRANCH  98  99
ATOM     99  S   UNL A   1      44.877  37.429  27.929  1.00  0.00     0.124 S 
ATOM    100  O   UNL A   1      45.353  37.363  26.551  1.00  0.00    -0.237 OA
ATOM    101  O   UNL A   1      43.539  37.984  28.107  1.00  0.00    -0.237 OA
ATOM    102  O   UNL A   1      45.861  37.854  28.920  1.00  0.00    -0.744 OA
ENDBRANCH  98  99
ENDBRANCH  66  91
ENDBRANCH  40  41
ENDBRANCH  33  35
ENDBRANCH  32  33
ENDBRANCH  31  32
ENDBRANCH  30  31
ENDBRANCH  29  30
ENDBRANCH   1  29
TORSDOF 22
ENDMDL
