MODEL 1
REMARK VINA RESULT:     -10.6      0.000      0.000
REMARK SMILES Cc1ccc(OCC(=O)NNC(=O)[C@H]2CCCC[C@@H]2C(=O)OCCOCCOCCOC(=O)c2ccc(-c3c4nc(c(-c5c(F)cc(S(=O)(=O)[O-])cc5F)c5ccc([nH]5)c(-c5c(F)cc(S(=O)(=O)[O-])cc5F)c5nc(c(-c6c(F)cc(S(=O)(=O)[O-])cc6F)c6ccc3[nH]6)C=C5)C=C4)cc2)cc1
REMARK SMILES IDX 26 1 25 2 24 3 23 4 22 5 20 6 21 7 19 8 14 9 15 10 16 11
REMARK SMILES IDX 18 12 17 13 12 14 11 15 13 17 10 18 8 19 9 20 7 22 6 23 5 24
REMARK SMILES IDX 1 25 2 26 3 27 101 28 4 29 100 30 27 31 28 32 29 33 30 34
REMARK SMILES IDX 31 35 32 36 33 37 34 38 35 39 99 40 36 41 98 42 37 43 38 44
REMARK SMILES IDX 39 45 92 46 40 47 97 48 91 49 93 50 41 51 96 52 90 53 89 54
REMARK SMILES IDX 42 56 76 57 55 58 75 59 56 60 59 61 74 62 94 63 57 64 58 65
REMARK SMILES IDX 73 67 95 68 60 69 43 70 44 71 53 72 45 73 46 74 52 75 54 76
REMARK SMILES IDX 47 77 48 78 49 79 50 80 51 81 77 82 78 83 87 84 79 85 80 86
REMARK SMILES IDX 86 87 88 88 81 89 82 90 83 91 84 92 85 93 61 94 62 95 71 96
REMARK SMILES IDX 63 97 64 98 70 99 72 100 65 101 66 102 67 103 68 104 69 105
REMARK H PARENT 11 16 10 21 93 55 59 66
REMARK Flexibility Score: inf
ROOT
ATOM      1  C   UNL A   1      40.272  20.708  26.367  1.00  0.00     0.188 C 
ENDROOT
BRANCH   1   2
ATOM      2  O   UNL A   1      39.903  22.073  26.113  1.00  0.00    -0.376 OA
BRANCH   2   3
ATOM      3  C   UNL A   1      38.555  22.528  25.987  1.00  0.00     0.202 C 
BRANCH   3   4
ATOM      4  C   UNL A   1      37.415  21.425  25.659  1.00  0.00     0.261 C 
BRANCH   4   5
ATOM      5  O   UNL A   1      36.005  21.520  26.210  1.00  0.00    -0.463 OA
BRANCH   5   6
ATOM      6  C   UNL A   1      34.963  21.139  25.365  1.00  0.00     0.309 C 
ATOM      7  O   UNL A   1      35.059  20.101  24.733  1.00  0.00    -0.252 OA
BRANCH   6   8
ATOM      8  C   UNL A   1      33.743  22.122  25.081  1.00  0.00     0.111 C 
ATOM      9  C   UNL A   1      33.117  22.401  23.623  1.00  0.00     0.094 C 
ATOM     10  C   UNL A   1      33.861  23.370  22.662  1.00  0.00     0.014 C 
ATOM     11  C   UNL A   1      34.789  24.398  23.266  1.00  0.00     0.001 C 
ATOM     12  C   UNL A   1      34.261  23.457  25.638  1.00  0.00     0.016 C 
ATOM     13  C   UNL A   1      35.228  24.188  24.704  1.00  0.00     0.001 C 
BRANCH   9  14
ATOM     14  C   UNL A   1      31.778  23.158  23.712  1.00  0.00     0.242 C 
ATOM     15  N   UNL A   1      30.718  22.659  24.431  1.00  0.00    -0.267 N 
ATOM     16  H   UNL A   1      29.853  22.606  23.965  1.00  0.00     0.191 HD
ATOM     17  O   UNL A   1      31.496  24.035  22.887  1.00  0.00    -0.273 OA
BRANCH  15  18
ATOM     18  N   UNL A   1      30.744  22.222  25.748  1.00  0.00    -0.265 N 
ATOM     19  C   UNL A   1      30.631  23.110  26.804  1.00  0.00     0.276 C 
ATOM     20  O   UNL A   1      30.425  22.688  27.942  1.00  0.00    -0.269 OA
ATOM     21  H   UNL A   1      30.844  21.261  25.936  1.00  0.00     0.191 HD
BRANCH  19  22
ATOM     22  C   UNL A   1      30.622  24.631  26.534  1.00  0.00     0.331 C 
BRANCH  22  23
ATOM     23  O   UNL A   1      29.486  25.236  25.938  1.00  0.00    -0.484 OA
BRANCH  23  24
ATOM     24  C   UNL A   1      29.682  26.226  25.015  1.00  0.00     0.120 A 
ATOM     25  C   UNL A   1      30.775  29.368  22.269  1.00  0.00     0.044 C 
ATOM     26  C   UNL A   1      30.384  28.289  23.232  1.00  0.00    -0.051 A 
ATOM     27  C   UNL A   1      31.267  27.900  24.240  1.00  0.00     0.007 A 
ATOM     28  C   UNL A   1      29.140  27.655  23.142  1.00  0.00     0.007 A 
ATOM     29  C   UNL A   1      30.919  26.872  25.117  1.00  0.00     0.047 A 
ATOM     30  C   UNL A   1      28.784  26.636  24.035  1.00  0.00     0.047 A 
ENDBRANCH  23  24
ENDBRANCH  22  23
ENDBRANCH  19  22
ENDBRANCH  15  18
ENDBRANCH   9  14
ENDBRANCH   6   8
ENDBRANCH   5   6
ENDBRANCH   4   5
ENDBRANCH   3   4
ENDBRANCH   2   3
ENDBRANCH   1   2
BRANCH   1  31
ATOM     31  C   UNL A   1      41.174  20.302  27.541  1.00  0.00     0.188 C 
BRANCH  31  32
ATOM     32  O   UNL A   1      42.059  19.269  27.160  1.00  0.00    -0.376 OA
BRANCH  32  33
ATOM     33  C   UNL A   1      42.277  19.101  25.774  1.00  0.00     0.202 C 
BRANCH  33  34
ATOM     34  C   UNL A   1      43.756  19.236  25.401  1.00  0.00     0.261 C 
BRANCH  34  35
ATOM     35  O   UNL A   1      43.961  20.452  24.639  1.00  0.00    -0.460 OA
BRANCH  35  36
ATOM     36  C   UNL A   1      44.961  21.284  25.075  1.00  0.00     0.338 C 
ATOM     37  O   UNL A   1      46.142  20.959  25.022  1.00  0.00    -0.246 OA
BRANCH  36  38
ATOM     38  C   UNL A   1      44.428  22.624  25.514  1.00  0.00     0.060 A 
ATOM     39  C   UNL A   1      44.817  23.875  25.025  1.00  0.00     0.016 A 
ATOM     40  C   UNL A   1      43.581  22.666  26.586  1.00  0.00     0.016 A 
ATOM     41  C   UNL A   1      44.464  25.115  25.713  1.00  0.00     0.010 A 
ATOM     42  C   UNL A   1      43.375  23.885  27.255  1.00  0.00     0.010 A 
ATOM     43  C   UNL A   1      43.750  25.155  26.912  1.00  0.00    -0.014 A 
BRANCH  43  44
ATOM     44  C   UNL A   1      43.546  26.202  28.031  1.00  0.00     0.031 A 
ATOM     45  C   UNL A   1      42.434  27.276  28.179  1.00  0.00     0.074 A 
ATOM     46  C   UNL A   1      44.255  26.050  29.161  1.00  0.00     0.049 A 
ATOM     47  N   UNL A   1      41.452  27.393  29.043  1.00  0.00    -0.248 NA
ATOM     48  C   UNL A   1      42.508  28.446  27.311  1.00  0.00     0.031 C 
ATOM     49  C   UNL A   1      44.056  26.724  30.436  1.00  0.00     0.029 A 
ATOM     50  N   UNL A   1      45.500  25.448  29.266  1.00  0.00    -0.354 N 
ATOM     51  C   UNL A   1      40.665  28.522  28.692  1.00  0.00     0.074 A 
ATOM     52  C   UNL A   1      41.328  29.045  27.489  1.00  0.00     0.031 C 
ATOM     53  C   UNL A   1      45.247  26.808  31.047  1.00  0.00     0.029 A 
ATOM     54  C   UNL A   1      46.243  26.270  30.136  1.00  0.00     0.049 A 
ATOM     55  H   UNL A   1      45.801  24.621  28.825  1.00  0.00     0.167 HD
ATOM     56  C   UNL A   1      40.255  29.518  29.549  1.00  0.00     0.037 A 
ATOM     57  C   UNL A   1      47.263  26.981  29.570  1.00  0.00     0.037 A 
ATOM     58  C   UNL A   1      41.377  30.073  30.289  1.00  0.00     0.049 A 
ATOM     59  C   UNL A   1      46.913  28.452  29.364  1.00  0.00     0.074 A 
ATOM     60  C   UNL A   1      41.883  29.915  31.561  1.00  0.00     0.029 A 
ATOM     61  N   UNL A   1      42.340  30.787  29.589  1.00  0.00    -0.354 N 
ATOM     62  N   UNL A   1      45.761  29.007  29.659  1.00  0.00    -0.248 NA
ATOM     63  C   UNL A   1      47.851  29.420  28.799  1.00  0.00     0.031 C 
ATOM     64  C   UNL A   1      43.261  30.295  31.516  1.00  0.00     0.029 A 
ATOM     65  C   UNL A   1      43.556  30.750  30.241  1.00  0.00     0.049 A 
ATOM     66  H   UNL A   1      42.177  31.257  28.740  1.00  0.00     0.167 HD
ATOM     67  C   UNL A   1      45.790  30.342  29.347  1.00  0.00     0.074 A 
ATOM     68  C   UNL A   1      47.118  30.547  28.791  1.00  0.00     0.031 C 
ATOM     69  C   UNL A   1      44.759  31.216  29.562  1.00  0.00     0.037 A 
BRANCH  56  70
ATOM     70  C   UNL A   1      38.884  30.194  29.367  1.00  0.00     0.058 A 
ATOM     71  C   UNL A   1      37.732  29.458  29.007  1.00  0.00     0.135 A 
ATOM     72  C   UNL A   1      38.671  31.594  29.452  1.00  0.00     0.135 A 
ATOM     73  F   UNL A   1      37.790  28.124  28.876  1.00  0.00    -0.206 F 
ATOM     74  C   UNL A   1      36.488  30.059  28.720  1.00  0.00     0.059 A 
ATOM     75  C   UNL A   1      37.436  32.215  29.179  1.00  0.00     0.059 A 
ATOM     76  F   UNL A   1      39.670  32.420  29.795  1.00  0.00    -0.206 F 
ATOM     77  C   UNL A   1      36.352  31.442  28.788  1.00  0.00     0.060 A 
BRANCH  77  78
ATOM     78  S   UNL A   1      34.779  32.206  28.301  1.00  0.00     0.124 S 
ATOM     79  O   UNL A   1      35.230  33.399  27.589  1.00  0.00    -0.237 OA
ATOM     80  O   UNL A   1      34.164  31.174  27.473  1.00  0.00    -0.237 OA
ATOM     81  O   UNL A   1      34.108  32.464  29.573  1.00  0.00    -0.744 OA
ENDBRANCH  77  78
ENDBRANCH  56  70
BRANCH  57  82
ATOM     82  C   UNL A   1      48.116  26.056  28.738  1.00  0.00     0.058 A 
ATOM     83  C   UNL A   1      48.014  26.243  27.334  1.00  0.00     0.135 A 
ATOM     84  C   UNL A   1      49.287  25.437  29.198  1.00  0.00     0.135 A 
ATOM     85  F   UNL A   1      46.905  26.796  26.814  1.00  0.00    -0.206 F 
ATOM     86  C   UNL A   1      49.102  26.087  26.482  1.00  0.00     0.059 A 
ATOM     87  C   UNL A   1      50.374  25.197  28.334  1.00  0.00     0.059 A 
ATOM     88  F   UNL A   1      49.472  25.237  30.512  1.00  0.00    -0.206 F 
ATOM     89  C   UNL A   1      50.304  25.636  27.009  1.00  0.00     0.060 A 
BRANCH  89  90
ATOM     90  S   UNL A   1      51.790  25.863  25.990  1.00  0.00     0.124 S 
ATOM     91  O   UNL A   1      52.526  26.876  26.740  1.00  0.00    -0.237 OA
ATOM     92  O   UNL A   1      52.365  24.518  26.020  1.00  0.00    -0.237 OA
ATOM     93  O   UNL A   1      51.265  26.292  24.702  1.00  0.00    -0.744 OA
ENDBRANCH  89  90
ENDBRANCH  57  82
BRANCH  69  94
ATOM     94  C   UNL A   1      44.871  32.663  29.191  1.00  0.00     0.058 A 
ATOM     95  C   UNL A   1      45.193  33.631  30.153  1.00  0.00     0.135 A 
ATOM     96  C   UNL A   1      44.537  33.130  27.904  1.00  0.00     0.135 A 
ATOM     97  F   UNL A   1      45.494  33.265  31.409  1.00  0.00    -0.206 F 
ATOM     98  C   UNL A   1      45.214  34.990  29.852  1.00  0.00     0.059 A 
ATOM     99  C   UNL A   1      44.505  34.489  27.591  1.00  0.00     0.059 A 
ATOM    100  F   UNL A   1      44.240  32.265  26.919  1.00  0.00    -0.206 F 
ATOM    101  C   UNL A   1      44.867  35.411  28.569  1.00  0.00     0.060 A 
BRANCH 101 102
ATOM    102  S   UNL A   1      44.872  37.176  28.196  1.00  0.00     0.124 S 
ATOM    103  O   UNL A   1      45.899  37.692  29.096  1.00  0.00    -0.237 OA
ATOM    104  O   UNL A   1      45.222  37.169  26.780  1.00  0.00    -0.237 OA
ATOM    105  O   UNL A   1      43.508  37.589  28.509  1.00  0.00    -0.744 OA
ENDBRANCH 101 102
ENDBRANCH  69  94
ENDBRANCH  43  44
ENDBRANCH  36  38
ENDBRANCH  35  36
ENDBRANCH  34  35
ENDBRANCH  33  34
ENDBRANCH  32  33
ENDBRANCH  31  32
ENDBRANCH   1  31
TORSDOF 25
ENDMDL
MODEL 2
REMARK VINA RESULT:     -10.4      1.329      1.989
REMARK SMILES Cc1ccc(OCC(=O)NNC(=O)[C@H]2CCCC[C@@H]2C(=O)OCCOCCOCCOC(=O)c2ccc(-c3c4nc(c(-c5c(F)cc(S(=O)(=O)[O-])cc5F)c5ccc([nH]5)c(-c5c(F)cc(S(=O)(=O)[O-])cc5F)c5nc(c(-c6c(F)cc(S(=O)(=O)[O-])cc6F)c6ccc3[nH]6)C=C5)C=C4)cc2)cc1
REMARK SMILES IDX 26 1 25 2 24 3 23 4 22 5 20 6 21 7 19 8 14 9 15 10 16 11
REMARK SMILES IDX 18 12 17 13 12 14 11 15 13 17 10 18 8 19 9 20 7 22 6 23 5 24
REMARK SMILES IDX 1 25 2 26 3 27 101 28 4 29 100 30 27 31 28 32 29 33 30 34
REMARK SMILES IDX 31 35 32 36 33 37 34 38 35 39 99 40 36 41 98 42 37 43 38 44
REMARK SMILES IDX 39 45 92 46 40 47 97 48 91 49 93 50 41 51 96 52 90 53 89 54
REMARK SMILES IDX 42 56 76 57 55 58 75 59 56 60 59 61 74 62 94 63 57 64 58 65
REMARK SMILES IDX 73 67 95 68 60 69 43 70 44 71 53 72 45 73 46 74 52 75 54 76
REMARK SMILES IDX 47 77 48 78 49 79 50 80 51 81 77 82 78 83 87 84 79 85 80 86
REMARK SMILES IDX 86 87 88 88 81 89 82 90 83 91 84 92 85 93 61 94 62 95 71 96
REMARK SMILES IDX 63 97 64 98 70 99 72 100 65 101 66 102 67 103 68 104 69 105
REMARK H PARENT 11 16 10 21 93 55 59 66
REMARK Flexibility Score: inf
ROOT
ATOM      1  C   UNL A   1      40.673  21.706  26.683  1.00  0.00     0.188 C 
ENDROOT
BRANCH   1   2
ATOM      2  O   UNL A   1      39.707  22.734  26.955  1.00  0.00    -0.376 OA
BRANCH   2   3
ATOM      3  C   UNL A   1      38.571  23.003  26.131  1.00  0.00     0.202 C 
BRANCH   3   4
ATOM      4  C   UNL A   1      37.923  21.764  25.313  1.00  0.00     0.261 C 
BRANCH   4   5
ATOM      5  O   UNL A   1      36.591  21.868  24.596  1.00  0.00    -0.463 OA
BRANCH   5   6
ATOM      6  C   UNL A   1      35.467  22.138  25.375  1.00  0.00     0.309 C 
ATOM      7  O   UNL A   1      35.394  21.666  26.497  1.00  0.00    -0.252 OA
BRANCH   6   8
ATOM      8  C   UNL A   1      34.211  22.897  24.759  1.00  0.00     0.111 C 
ATOM      9  C   UNL A   1      32.893  23.306  25.591  1.00  0.00     0.094 C 
ATOM     10  C   UNL A   1      31.831  22.212  25.893  1.00  0.00     0.014 C 
ATOM     11  C   UNL A   1      31.778  21.002  24.988  1.00  0.00     0.001 C 
ATOM     12  C   UNL A   1      33.783  21.955  23.624  1.00  0.00     0.016 C 
ATOM     13  C   UNL A   1      32.975  20.743  24.093  1.00  0.00     0.001 C 
BRANCH   9  14
ATOM     14  C   UNL A   1      31.996  24.277  24.800  1.00  0.00     0.242 C 
ATOM     15  N   UNL A   1      30.931  24.912  25.392  1.00  0.00    -0.267 N 
ATOM     16  H   UNL A   1      30.063  24.845  24.932  1.00  0.00     0.191 HD
ATOM     17  O   UNL A   1      31.982  24.254  23.564  1.00  0.00    -0.273 OA
BRANCH  15  18
ATOM     18  N   UNL A   1      30.954  25.642  26.573  1.00  0.00    -0.265 N 
ATOM     19  C   UNL A   1      31.404  26.950  26.603  1.00  0.00     0.276 C 
ATOM     20  O   UNL A   1      31.203  27.646  27.599  1.00  0.00    -0.269 OA
ATOM     21  H   UNL A   1      30.645  25.219  27.407  1.00  0.00     0.191 HD
BRANCH  19  22
ATOM     22  C   UNL A   1      32.030  27.580  25.339  1.00  0.00     0.331 C 
BRANCH  22  23
ATOM     23  O   UNL A   1      31.359  27.480  24.094  1.00  0.00    -0.484 OA
BRANCH  23  24
ATOM     24  C   UNL A   1      30.389  28.399  23.800  1.00  0.00     0.120 A 
ATOM     25  C   UNL A   1      27.653  31.646  23.037  1.00  0.00     0.044 C 
ATOM     26  C   UNL A   1      28.591  30.512  23.315  1.00  0.00    -0.051 A 
ATOM     27  C   UNL A   1      29.774  30.742  24.020  1.00  0.00     0.007 A 
ATOM     28  C   UNL A   1      28.307  29.213  22.880  1.00  0.00     0.007 A 
ATOM     29  C   UNL A   1      30.666  29.694  24.251  1.00  0.00     0.047 A 
ATOM     30  C   UNL A   1      29.194  28.158  23.129  1.00  0.00     0.047 A 
ENDBRANCH  23  24
ENDBRANCH  22  23
ENDBRANCH  19  22
ENDBRANCH  15  18
ENDBRANCH   9  14
ENDBRANCH   6   8
ENDBRANCH   5   6
ENDBRANCH   4   5
ENDBRANCH   3   4
ENDBRANCH   2   3
ENDBRANCH   1   2
BRANCH   1  31
ATOM     31  C   UNL A   1      41.069  20.650  27.725  1.00  0.00     0.188 C 
BRANCH  31  32
ATOM     32  O   UNL A   1      41.690  19.542  27.107  1.00  0.00    -0.376 OA
BRANCH  32  33
ATOM     33  C   UNL A   1      42.047  19.694  25.748  1.00  0.00     0.202 C 
BRANCH  33  34
ATOM     34  C   UNL A   1      43.565  19.699  25.546  1.00  0.00     0.261 C 
BRANCH  34  35
ATOM     35  O   UNL A   1      43.970  20.928  24.892  1.00  0.00    -0.460 OA
BRANCH  35  36
ATOM     36  C   UNL A   1      44.835  21.733  25.587  1.00  0.00     0.338 C 
ATOM     37  O   UNL A   1      46.040  21.506  25.628  1.00  0.00    -0.246 OA
BRANCH  36  38
ATOM     38  C   UNL A   1      44.138  22.930  26.181  1.00  0.00     0.060 A 
ATOM     39  C   UNL A   1      43.953  24.175  25.569  1.00  0.00     0.016 A 
ATOM     40  C   UNL A   1      43.757  22.876  27.492  1.00  0.00     0.016 A 
ATOM     41  C   UNL A   1      43.534  25.352  26.326  1.00  0.00     0.010 A 
ATOM     42  C   UNL A   1      43.467  24.068  28.177  1.00  0.00     0.010 A 
ATOM     43  C   UNL A   1      43.317  25.343  27.705  1.00  0.00    -0.014 A 
BRANCH  43  44
ATOM     44  C   UNL A   1      43.239  26.424  28.808  1.00  0.00     0.031 A 
ATOM     45  C   UNL A   1      42.158  27.515  29.038  1.00  0.00     0.074 A 
ATOM     46  C   UNL A   1      44.058  26.295  29.863  1.00  0.00     0.049 A 
ATOM     47  N   UNL A   1      41.271  27.668  29.994  1.00  0.00    -0.248 NA
ATOM     48  C   UNL A   1      42.153  28.660  28.132  1.00  0.00     0.031 C 
ATOM     49  C   UNL A   1      43.998  27.007  31.132  1.00  0.00     0.029 A 
ATOM     50  N   UNL A   1      45.302  25.681  29.857  1.00  0.00    -0.354 N 
ATOM     51  C   UNL A   1      40.463  28.797  29.693  1.00  0.00     0.074 A 
ATOM     52  C   UNL A   1      41.004  29.278  28.413  1.00  0.00     0.031 C 
ATOM     53  C   UNL A   1      45.246  27.094  31.614  1.00  0.00     0.029 A 
ATOM     54  C   UNL A   1      46.138  26.518  30.622  1.00  0.00     0.049 A 
ATOM     55  H   UNL A   1      45.548  24.838  29.412  1.00  0.00     0.167 HD
ATOM     56  C   UNL A   1      40.152  29.822  30.557  1.00  0.00     0.037 A 
ATOM     57  C   UNL A   1      47.101  27.199  29.934  1.00  0.00     0.037 A 
ATOM     58  C   UNL A   1      41.350  30.384  31.162  1.00  0.00     0.049 A 
ATOM     59  C   UNL A   1      46.746  28.668  29.722  1.00  0.00     0.074 A 
ATOM     60  C   UNL A   1      41.982  30.255  32.380  1.00  0.00     0.029 A 
ATOM     61  N   UNL A   1      42.243  31.065  30.346  1.00  0.00    -0.354 N 
ATOM     62  N   UNL A   1      45.635  29.246  30.117  1.00  0.00    -0.248 NA
ATOM     63  C   UNL A   1      47.630  29.609  29.036  1.00  0.00     0.031 C 
ATOM     64  C   UNL A   1      43.352  30.616  32.182  1.00  0.00     0.029 A 
ATOM     65  C   UNL A   1      43.519  31.032  30.871  1.00  0.00     0.049 A 
ATOM     66  H   UNL A   1      41.997  31.513  29.505  1.00  0.00     0.167 HD
ATOM     67  C   UNL A   1      45.645  30.571  29.765  1.00  0.00     0.074 A 
ATOM     68  C   UNL A   1      46.910  30.744  29.069  1.00  0.00     0.031 C 
ATOM     69  C   UNL A   1      44.650  31.463  30.058  1.00  0.00     0.037 A 
BRANCH  56  70
ATOM     70  C   UNL A   1      38.776  30.510  30.498  1.00  0.00     0.058 A 
ATOM     71  C   UNL A   1      38.622  31.825  30.003  1.00  0.00     0.135 A 
ATOM     72  C   UNL A   1      37.581  29.940  31.006  1.00  0.00     0.135 A 
ATOM     73  F   UNL A   1      39.673  32.492  29.504  1.00  0.00    -0.206 F 
ATOM     74  C   UNL A   1      37.399  32.527  30.040  1.00  0.00     0.059 A 
ATOM     75  C   UNL A   1      36.347  30.618  31.046  1.00  0.00     0.059 A 
ATOM     76  F   UNL A   1      37.571  28.693  31.499  1.00  0.00    -0.206 F 
ATOM     77  C   UNL A   1      36.268  31.924  30.583  1.00  0.00     0.060 A 
BRANCH  77  78
ATOM     78  S   UNL A   1      34.733  32.883  30.732  1.00  0.00     0.124 S 
ATOM     79  O   UNL A   1      34.041  32.542  29.492  1.00  0.00    -0.237 OA
ATOM     80  O   UNL A   1      34.138  32.348  31.952  1.00  0.00    -0.237 OA
ATOM     81  O   UNL A   1      35.194  34.267  30.822  1.00  0.00    -0.744 OA
ENDBRANCH  77  78
ENDBRANCH  56  70
BRANCH  57  82
ATOM     82  C   UNL A   1      47.856  26.241  29.046  1.00  0.00     0.058 A 
ATOM     83  C   UNL A   1      47.625  26.401  27.655  1.00  0.00     0.135 A 
ATOM     84  C   UNL A   1      49.053  25.610  29.408  1.00  0.00     0.135 A 
ATOM     85  F   UNL A   1      46.481  26.964  27.229  1.00  0.00    -0.206 F 
ATOM     86  C   UNL A   1      48.624  26.206  26.708  1.00  0.00     0.059 A 
ATOM     87  C   UNL A   1      50.049  25.331  28.451  1.00  0.00     0.059 A 
ATOM     88  F   UNL A   1      49.359  25.433  30.703  1.00  0.00    -0.206 F 
ATOM     89  C   UNL A   1      49.862  25.742  27.129  1.00  0.00     0.060 A 
BRANCH  89  90
ATOM     90  S   UNL A   1      51.249  25.919  25.970  1.00  0.00     0.124 S 
ATOM     91  O   UNL A   1      50.563  26.093  24.693  1.00  0.00    -0.237 OA
ATOM     92  O   UNL A   1      51.910  27.114  26.495  1.00  0.00    -0.237 OA
ATOM     93  O   UNL A   1      51.989  24.675  26.121  1.00  0.00    -0.744 OA
ENDBRANCH  89  90
ENDBRANCH  57  82
BRANCH  69  94
ATOM     94  C   UNL A   1      44.737  32.898  29.636  1.00  0.00     0.058 A 
ATOM     95  C   UNL A   1      45.113  33.896  30.546  1.00  0.00     0.135 A 
ATOM     96  C   UNL A   1      44.327  33.324  28.356  1.00  0.00     0.135 A 
ATOM     97  F   UNL A   1      45.487  33.571  31.793  1.00  0.00    -0.206 F 
ATOM     98  C   UNL A   1      45.113  35.245  30.202  1.00  0.00     0.059 A 
ATOM     99  C   UNL A   1      44.273  34.672  28.003  1.00  0.00     0.059 A 
ATOM    100  F   UNL A   1      43.975  32.428  27.418  1.00  0.00    -0.206 F 
ATOM    101  C   UNL A   1      44.690  35.624  28.928  1.00  0.00     0.060 A 
BRANCH 101 102
ATOM    102  S   UNL A   1      44.669  37.377  28.500  1.00  0.00     0.124 S 
ATOM    103  O   UNL A   1      43.994  37.980  29.646  1.00  0.00    -0.237 OA
ATOM    104  O   UNL A   1      46.096  37.662  28.389  1.00  0.00    -0.237 OA
ATOM    105  O   UNL A   1      43.918  37.408  27.249  1.00  0.00    -0.744 OA
ENDBRANCH 101 102
ENDBRANCH  69  94
ENDBRANCH  43  44
ENDBRANCH  36  38
ENDBRANCH  35  36
ENDBRANCH  34  35
ENDBRANCH  33  34
ENDBRANCH  32  33
ENDBRANCH  31  32
ENDBRANCH   1  31
TORSDOF 25
ENDMDL
MODEL 3
REMARK VINA RESULT:     -10.4      4.296      5.941
REMARK SMILES Cc1ccc(OCC(=O)NNC(=O)[C@H]2CCCC[C@@H]2C(=O)OCCOCCOCCOC(=O)c2ccc(-c3c4nc(c(-c5c(F)cc(S(=O)(=O)[O-])cc5F)c5ccc([nH]5)c(-c5c(F)cc(S(=O)(=O)[O-])cc5F)c5nc(c(-c6c(F)cc(S(=O)(=O)[O-])cc6F)c6ccc3[nH]6)C=C5)C=C4)cc2)cc1
REMARK SMILES IDX 26 1 25 2 24 3 23 4 22 5 20 6 21 7 19 8 14 9 15 10 16 11
REMARK SMILES IDX 18 12 17 13 12 14 11 15 13 17 10 18 8 19 9 20 7 22 6 23 5 24
REMARK SMILES IDX 1 25 2 26 3 27 101 28 4 29 100 30 27 31 28 32 29 33 30 34
REMARK SMILES IDX 31 35 32 36 33 37 34 38 35 39 99 40 36 41 98 42 37 43 38 44
REMARK SMILES IDX 39 45 92 46 40 47 97 48 91 49 93 50 41 51 96 52 90 53 89 54
REMARK SMILES IDX 42 56 76 57 55 58 75 59 56 60 59 61 74 62 94 63 57 64 58 65
REMARK SMILES IDX 73 67 95 68 60 69 43 70 44 71 53 72 45 73 46 74 52 75 54 76
REMARK SMILES IDX 47 77 48 78 49 79 50 80 51 81 77 82 78 83 87 84 79 85 80 86
REMARK SMILES IDX 86 87 88 88 81 89 82 90 83 91 84 92 85 93 61 94 62 95 71 96
REMARK SMILES IDX 63 97 64 98 70 99 72 100 65 101 66 102 67 103 68 104 69 105
REMARK H PARENT 11 16 10 21 93 55 59 66
REMARK Flexibility Score: inf
ROOT
ATOM      1  C   UNL A   1      40.404  23.000  27.468  1.00  0.00     0.188 C 
ENDROOT
BRANCH   1   2
ATOM      2  O   UNL A   1      40.209  21.758  26.772  1.00  0.00    -0.376 OA
BRANCH   2   3
ATOM      3  C   UNL A   1      39.100  21.487  25.913  1.00  0.00     0.202 C 
BRANCH   3   4
ATOM      4  C   UNL A   1      37.852  22.520  25.945  1.00  0.00     0.261 C 
BRANCH   4   5
ATOM      5  O   UNL A   1      36.688  22.423  24.978  1.00  0.00    -0.463 OA
BRANCH   5   6
ATOM      6  C   UNL A   1      35.661  23.355  25.121  1.00  0.00     0.309 C 
ATOM      7  O   UNL A   1      35.921  24.466  25.550  1.00  0.00    -0.252 OA
BRANCH   6   8
ATOM      8  C   UNL A   1      34.141  22.932  24.903  1.00  0.00     0.111 C 
ATOM      9  C   UNL A   1      32.875  23.772  25.441  1.00  0.00     0.094 C 
ATOM     10  C   UNL A   1      32.484  23.655  26.941  1.00  0.00     0.014 C 
ATOM     11  C   UNL A   1      32.913  22.418  27.695  1.00  0.00     0.001 C 
ATOM     12  C   UNL A   1      34.093  21.537  25.544  1.00  0.00     0.016 C 
ATOM     13  C   UNL A   1      33.998  21.558  27.072  1.00  0.00     0.001 C 
BRANCH   9  14
ATOM     14  C   UNL A   1      31.555  23.271  24.826  1.00  0.00     0.242 C 
ATOM     15  N   UNL A   1      31.118  23.719  23.602  1.00  0.00    -0.267 N 
ATOM     16  H   UNL A   1      30.195  24.057  23.559  1.00  0.00     0.191 HD
ATOM     17  O   UNL A   1      30.694  22.736  25.535  1.00  0.00    -0.273 OA
BRANCH  15  18
ATOM     18  N   UNL A   1      31.847  23.743  22.421  1.00  0.00    -0.265 N 
ATOM     19  C   UNL A   1      32.214  24.937  21.825  1.00  0.00     0.276 C 
ATOM     20  O   UNL A   1      33.047  24.939  20.917  1.00  0.00    -0.269 OA
ATOM     21  H   UNL A   1      32.108  22.893  21.999  1.00  0.00     0.191 HD
BRANCH  19  22
ATOM     22  C   UNL A   1      31.689  26.275  22.391  1.00  0.00     0.331 C 
BRANCH  22  23
ATOM     23  O   UNL A   1      32.541  27.407  22.433  1.00  0.00    -0.484 OA
BRANCH  23  24
ATOM     24  C   UNL A   1      32.881  27.924  23.654  1.00  0.00     0.120 A 
ATOM     25  C   UNL A   1      34.249  29.149  27.557  1.00  0.00     0.044 C 
ATOM     26  C   UNL A   1      33.756  28.721  26.208  1.00  0.00    -0.051 A 
ATOM     27  C   UNL A   1      34.070  27.451  25.722  1.00  0.00     0.007 A 
ATOM     28  C   UNL A   1      32.980  29.575  25.416  1.00  0.00     0.007 A 
ATOM     29  C   UNL A   1      33.641  27.062  24.452  1.00  0.00     0.047 A 
ATOM     30  C   UNL A   1      32.535  29.176  24.149  1.00  0.00     0.047 A 
ENDBRANCH  23  24
ENDBRANCH  22  23
ENDBRANCH  19  22
ENDBRANCH  15  18
ENDBRANCH   9  14
ENDBRANCH   6   8
ENDBRANCH   5   6
ENDBRANCH   4   5
ENDBRANCH   3   4
ENDBRANCH   2   3
ENDBRANCH   1   2
BRANCH   1  31
ATOM     31  C   UNL A   1      41.798  23.534  27.826  1.00  0.00     0.188 C 
BRANCH  31  32
ATOM     32  O   UNL A   1      42.763  23.076  26.902  1.00  0.00    -0.376 OA
BRANCH  32  33
ATOM     33  C   UNL A   1      43.616  24.054  26.340  1.00  0.00     0.202 C 
BRANCH  33  34
ATOM     34  C   UNL A   1      42.834  25.182  25.660  1.00  0.00     0.261 C 
BRANCH  34  35
ATOM     35  O   UNL A   1      43.477  26.453  25.924  1.00  0.00    -0.460 OA
BRANCH  35  36
ATOM     36  C   UNL A   1      42.843  27.570  25.443  1.00  0.00     0.338 C 
ATOM     37  O   UNL A   1      42.633  27.730  24.245  1.00  0.00    -0.246 OA
BRANCH  36  38
ATOM     38  C   UNL A   1      42.376  28.476  26.554  1.00  0.00     0.060 A 
ATOM     39  C   UNL A   1      43.172  29.344  27.309  1.00  0.00     0.016 A 
ATOM     40  C   UNL A   1      41.083  28.366  26.982  1.00  0.00     0.016 A 
ATOM     41  C   UNL A   1      42.687  29.953  28.546  1.00  0.00     0.010 A 
ATOM     42  C   UNL A   1      40.724  28.894  28.234  1.00  0.00     0.010 A 
ATOM     43  C   UNL A   1      41.426  29.701  29.086  1.00  0.00    -0.014 A 
BRANCH  43  44
ATOM     44  C   UNL A   1      40.777  29.870  30.479  1.00  0.00     0.031 A 
ATOM     45  C   UNL A   1      39.752  30.932  30.962  1.00  0.00     0.074 A 
ATOM     46  C   UNL A   1      40.900  28.855  31.350  1.00  0.00     0.049 A 
ATOM     47  N   UNL A   1      38.491  30.822  31.314  1.00  0.00    -0.248 NA
ATOM     48  C   UNL A   1      40.245  32.285  31.199  1.00  0.00     0.031 C 
ATOM     49  C   UNL A   1      40.174  28.656  32.596  1.00  0.00     0.029 A 
ATOM     50  N   UNL A   1      41.947  27.945  31.397  1.00  0.00    -0.354 N 
ATOM     51  C   UNL A   1      37.982  32.116  31.602  1.00  0.00     0.074 A 
ATOM     52  C   UNL A   1      39.130  33.002  31.359  1.00  0.00     0.031 C 
ATOM     53  C   UNL A   1      40.968  27.967  33.429  1.00  0.00     0.029 A 
ATOM     54  C   UNL A   1      42.248  27.790  32.764  1.00  0.00     0.049 A 
ATOM     55  H   UNL A   1      42.385  27.502  30.635  1.00  0.00     0.167 HD
ATOM     56  C   UNL A   1      37.265  32.471  32.722  1.00  0.00     0.037 A 
ATOM     57  C   UNL A   1      43.436  28.318  33.183  1.00  0.00     0.037 A 
ATOM     58  C   UNL A   1      37.955  32.074  33.939  1.00  0.00     0.049 A 
ATOM     59  C   UNL A   1      43.264  29.635  33.934  1.00  0.00     0.074 A 
ATOM     60  C   UNL A   1      37.832  31.035  34.837  1.00  0.00     0.029 A 
ATOM     61  N   UNL A   1      39.152  32.702  34.253  1.00  0.00    -0.354 N 
ATOM     62  N   UNL A   1      42.120  30.241  34.151  1.00  0.00    -0.248 NA
ATOM     63  C   UNL A   1      44.387  30.378  34.504  1.00  0.00     0.031 C 
ATOM     64  C   UNL A   1      39.097  30.894  35.490  1.00  0.00     0.029 A 
ATOM     65  C   UNL A   1      39.946  31.892  35.040  1.00  0.00     0.049 A 
ATOM     66  H   UNL A   1      39.401  33.606  33.955  1.00  0.00     0.167 HD
ATOM     67  C   UNL A   1      42.329  31.398  34.857  1.00  0.00     0.074 A 
ATOM     68  C   UNL A   1      43.772  31.449  35.035  1.00  0.00     0.031 C 
ATOM     69  C   UNL A   1      41.341  32.248  35.273  1.00  0.00     0.037 A 
BRANCH  56  70
ATOM     70  C   UNL A   1      36.142  33.522  32.635  1.00  0.00     0.058 A 
ATOM     71  C   UNL A   1      35.213  33.532  31.571  1.00  0.00     0.135 A 
ATOM     72  C   UNL A   1      35.996  34.603  33.541  1.00  0.00     0.135 A 
ATOM     73  F   UNL A   1      35.243  32.575  30.631  1.00  0.00    -0.206 F 
ATOM     74  C   UNL A   1      34.246  34.544  31.398  1.00  0.00     0.059 A 
ATOM     75  C   UNL A   1      35.032  35.621  33.393  1.00  0.00     0.059 A 
ATOM     76  F   UNL A   1      36.800  34.720  34.607  1.00  0.00    -0.206 F 
ATOM     77  C   UNL A   1      34.174  35.599  32.303  1.00  0.00     0.060 A 
BRANCH  77  78
ATOM     78  S   UNL A   1      33.004  36.954  32.000  1.00  0.00     0.124 S 
ATOM     79  O   UNL A   1      31.753  36.392  32.501  1.00  0.00    -0.237 OA
ATOM     80  O   UNL A   1      33.565  38.044  32.791  1.00  0.00    -0.237 OA
ATOM     81  O   UNL A   1      33.059  37.146  30.553  1.00  0.00    -0.744 OA
ENDBRANCH  77  78
ENDBRANCH  56  70
BRANCH  57  82
ATOM     82  C   UNL A   1      44.541  27.857  32.265  1.00  0.00     0.058 A 
ATOM     83  C   UNL A   1      45.118  28.873  31.460  1.00  0.00     0.135 A 
ATOM     84  C   UNL A   1      45.331  26.721  32.492  1.00  0.00     0.135 A 
ATOM     85  F   UNL A   1      44.407  29.976  31.167  1.00  0.00    -0.206 F 
ATOM     86  C   UNL A   1      46.471  28.890  31.139  1.00  0.00     0.059 A 
ATOM     87  C   UNL A   1      46.685  26.686  32.104  1.00  0.00     0.059 A 
ATOM     88  F   UNL A   1      44.869  25.719  33.256  1.00  0.00    -0.206 F 
ATOM     89  C   UNL A   1      47.265  27.822  31.536  1.00  0.00     0.060 A 
BRANCH  89  90
ATOM     90  S   UNL A   1      49.063  28.072  31.499  1.00  0.00     0.124 S 
ATOM     91  O   UNL A   1      49.181  29.366  30.836  1.00  0.00    -0.237 OA
ATOM     92  O   UNL A   1      49.381  28.066  32.926  1.00  0.00    -0.237 OA
ATOM     93  O   UNL A   1      49.556  26.930  30.742  1.00  0.00    -0.744 OA
ENDBRANCH  89  90
ENDBRANCH  57  82
BRANCH  69  94
ATOM     94  C   UNL A   1      41.654  33.495  36.041  1.00  0.00     0.058 A 
ATOM     95  C   UNL A   1      42.048  34.668  35.382  1.00  0.00     0.135 A 
ATOM     96  C   UNL A   1      41.693  33.512  37.450  1.00  0.00     0.135 A 
ATOM     97  F   UNL A   1      42.066  34.719  34.041  1.00  0.00    -0.206 F 
ATOM     98  C   UNL A   1      42.431  35.812  36.078  1.00  0.00     0.059 A 
ATOM     99  C   UNL A   1      42.118  34.629  38.169  1.00  0.00     0.059 A 
ATOM    100  F   UNL A   1      41.307  32.437  38.158  1.00  0.00    -0.206 F 
ATOM    101  C   UNL A   1      42.465  35.783  37.471  1.00  0.00     0.060 A 
BRANCH 101 102
ATOM    102  S   UNL A   1      42.989  37.261  38.364  1.00  0.00     0.124 S 
ATOM    103  O   UNL A   1      43.896  36.723  39.374  1.00  0.00    -0.237 OA
ATOM    104  O   UNL A   1      43.621  38.031  37.297  1.00  0.00    -0.237 OA
ATOM    105  O   UNL A   1      41.736  37.803  38.879  1.00  0.00    -0.744 OA
ENDBRANCH 101 102
ENDBRANCH  69  94
ENDBRANCH  43  44
ENDBRANCH  36  38
ENDBRANCH  35  36
ENDBRANCH  34  35
ENDBRANCH  33  34
ENDBRANCH  32  33
ENDBRANCH  31  32
ENDBRANCH   1  31
TORSDOF 25
ENDMDL
