MODEL 1
REMARK VINA RESULT:      -9.6      0.000      0.000
REMARK SMILES O=C(CN(CC(F)(F)F)S(=O)(=O)c1cccc(F)c1)OCCOCCOCCOC(=O)c1ccc(-c2c3nc(c(-c4c(F)cc(S(=O)(=O)[O-])cc4F)c4ccc([nH]4)c(-c4c(F)cc(S(=O)(=O)[O-])cc4F)c4nc(c(-c5c(F)cc(S(=O)(=O)[O-])cc5F)c5ccc2[nH]5)C=C4)C=C3)cc1
REMARK SMILES IDX 24 1 23 2 22 3 21 4 20 5 2 6 1 7 3 8 4 9 5 10 6 11 7 12 8 13
REMARK SMILES IDX 9 14 10 15 11 16 12 17 13 18 14 19 19 20 15 21 17 22 16 23
REMARK SMILES IDX 18 24 25 25 26 26 27 27 28 28 29 29 30 30 31 31 32 32 33 33
REMARK SMILES IDX 97 34 34 35 96 36 35 37 36 38 37 39 90 40 38 41 95 42 89 43
REMARK SMILES IDX 91 44 39 45 94 46 88 47 87 48 40 50 74 51 53 52 73 53 54 54
REMARK SMILES IDX 57 55 72 56 92 57 55 58 56 59 71 61 93 62 58 63 41 64 42 65
REMARK SMILES IDX 51 66 43 67 44 68 50 69 52 70 45 71 46 72 47 73 48 74 49 75
REMARK SMILES IDX 75 76 76 77 85 78 77 79 78 80 84 81 86 82 79 83 80 84 81 85
REMARK SMILES IDX 82 86 83 87 59 88 60 89 69 90 61 91 62 92 68 93 70 94 63 95
REMARK SMILES IDX 64 96 65 97 66 98 67 99
REMARK H PARENT 91 49 57 60
REMARK Flexibility Score: inf
ROOT
ATOM      1  C   UNL A   1      35.996  21.879  24.924  1.00  0.00     0.188 C 
ENDROOT
BRANCH   1   2
ATOM      2  O   UNL A   1      35.312  20.682  25.225  1.00  0.00    -0.376 OA
BRANCH   2   3
ATOM      3  C   UNL A   1      34.166  20.704  26.040  1.00  0.00     0.202 C 
BRANCH   3   4
ATOM      4  C   UNL A   1      33.110  21.742  25.649  1.00  0.00     0.261 C 
BRANCH   4   5
ATOM      5  O   UNL A   1      32.357  22.381  26.702  1.00  0.00    -0.462 OA
BRANCH   5   6
ATOM      6  C   UNL A   1      31.138  22.965  26.631  1.00  0.00     0.321 C 
ATOM      7  O   UNL A   1      30.385  22.911  27.603  1.00  0.00    -0.251 OA
BRANCH   6   8
ATOM      8  C   UNL A   1      30.656  23.492  25.293  1.00  0.00     0.225 C 
BRANCH   8   9
ATOM      9  N   UNL A   1      31.338  24.722  24.813  1.00  0.00    -0.178 NA
BRANCH   9  10
ATOM     10  C   UNL A   1      31.901  24.551  23.407  1.00  0.00     0.218 C 
BRANCH  10  11
ATOM     11  C   UNL A   1      33.419  24.621  23.187  1.00  0.00     0.402 C 
ATOM     12  F   UNL A   1      33.929  23.491  22.684  1.00  0.00    -0.170 F 
ATOM     13  F   UNL A   1      33.687  25.618  22.310  1.00  0.00    -0.170 F 
ATOM     14  F   UNL A   1      34.063  24.928  24.335  1.00  0.00    -0.170 F 
ENDBRANCH  10  11
ENDBRANCH   9  10
BRANCH   9  15
ATOM     15  S   UNL A   1      30.335  26.076  25.121  1.00  0.00     0.244 S 
ATOM     16  O   UNL A   1      29.595  26.362  23.914  1.00  0.00    -0.207 OA
ATOM     17  O   UNL A   1      29.656  25.814  26.366  1.00  0.00    -0.207 OA
BRANCH  15  18
ATOM     18  C   UNL A   1      31.474  27.384  25.428  1.00  0.00     0.085 A 
ATOM     19  C   UNL A   1      31.664  27.825  26.745  1.00  0.00     0.022 A 
ATOM     20  C   UNL A   1      32.097  28.024  24.358  1.00  0.00     0.061 A 
ATOM     21  C   UNL A   1      32.501  28.909  26.993  1.00  0.00     0.004 A 
ATOM     22  C   UNL A   1      32.956  29.076  24.629  1.00  0.00     0.124 A 
ATOM     23  C   UNL A   1      33.156  29.528  25.931  1.00  0.00     0.039 A 
ATOM     24  F   UNL A   1      33.606  29.668  23.621  1.00  0.00    -0.207 F 
ENDBRANCH  15  18
ENDBRANCH   9  15
ENDBRANCH   8   9
ENDBRANCH   6   8
ENDBRANCH   5   6
ENDBRANCH   4   5
ENDBRANCH   3   4
ENDBRANCH   2   3
ENDBRANCH   1   2
BRANCH   1  25
ATOM     25  C   UNL A   1      37.274  22.056  25.752  1.00  0.00     0.188 C 
BRANCH  25  26
ATOM     26  O   UNL A   1      38.476  21.475  25.269  1.00  0.00    -0.376 OA
BRANCH  26  27
ATOM     27  C   UNL A   1      38.502  20.073  25.033  1.00  0.00     0.202 C 
BRANCH  27  28
ATOM     28  C   UNL A   1      39.549  19.221  25.773  1.00  0.00     0.261 C 
BRANCH  28  29
ATOM     29  O   UNL A   1      40.928  19.395  25.375  1.00  0.00    -0.460 OA
BRANCH  29  30
ATOM     30  C   UNL A   1      41.823  19.536  26.388  1.00  0.00     0.338 C 
ATOM     31  O   UNL A   1      42.459  18.647  26.930  1.00  0.00    -0.246 OA
BRANCH  30  32
ATOM     32  C   UNL A   1      42.036  20.964  26.719  1.00  0.00     0.060 A 
ATOM     33  C   UNL A   1      42.131  21.913  25.687  1.00  0.00     0.016 A 
ATOM     34  C   UNL A   1      42.297  21.337  28.037  1.00  0.00     0.016 A 
ATOM     35  C   UNL A   1      42.519  23.230  25.970  1.00  0.00     0.010 A 
ATOM     36  C   UNL A   1      42.705  22.646  28.313  1.00  0.00     0.010 A 
ATOM     37  C   UNL A   1      42.857  23.591  27.279  1.00  0.00    -0.014 A 
BRANCH  37  38
ATOM     38  C   UNL A   1      43.562  24.869  27.577  1.00  0.00     0.031 A 
ATOM     39  C   UNL A   1      42.743  26.043  28.043  1.00  0.00     0.074 A 
ATOM     40  C   UNL A   1      44.886  25.013  27.388  1.00  0.00     0.049 A 
ATOM     41  N   UNL A   1      43.084  27.299  28.170  1.00  0.00    -0.248 NA
ATOM     42  C   UNL A   1      41.342  25.761  28.398  1.00  0.00     0.031 C 
ATOM     43  C   UNL A   1      45.807  23.947  27.007  1.00  0.00     0.029 A 
ATOM     44  N   UNL A   1      45.680  26.134  27.464  1.00  0.00    -0.354 N 
ATOM     45  C   UNL A   1      41.937  27.961  28.596  1.00  0.00     0.074 A 
ATOM     46  C   UNL A   1      40.886  26.971  28.684  1.00  0.00     0.031 C 
ATOM     47  C   UNL A   1      47.038  24.468  26.856  1.00  0.00     0.029 A 
ATOM     48  C   UNL A   1      46.982  25.914  27.082  1.00  0.00     0.049 A 
ATOM     49  H   UNL A   1      45.347  27.011  27.765  1.00  0.00     0.167 HD
ATOM     50  C   UNL A   1      41.776  29.273  28.890  1.00  0.00     0.037 A 
ATOM     51  C   UNL A   1      48.002  26.780  26.897  1.00  0.00     0.037 A 
ATOM     52  C   UNL A   1      42.827  30.252  28.801  1.00  0.00     0.049 A 
ATOM     53  C   UNL A   1      47.785  28.253  27.141  1.00  0.00     0.074 A 
ATOM     54  C   UNL A   1      42.765  31.604  29.091  1.00  0.00     0.029 A 
ATOM     55  N   UNL A   1      44.125  29.991  28.386  1.00  0.00    -0.354 N 
ATOM     56  N   UNL A   1      46.697  28.871  27.536  1.00  0.00    -0.248 NA
ATOM     57  C   UNL A   1      48.928  29.150  26.909  1.00  0.00     0.031 C 
ATOM     58  C   UNL A   1      44.006  32.172  28.789  1.00  0.00     0.029 A 
ATOM     59  C   UNL A   1      44.864  31.162  28.382  1.00  0.00     0.049 A 
ATOM     60  H   UNL A   1      44.469  29.104  28.133  1.00  0.00     0.167 HD
ATOM     61  C   UNL A   1      47.033  30.220  27.632  1.00  0.00     0.074 A 
ATOM     62  C   UNL A   1      48.424  30.330  27.249  1.00  0.00     0.031 C 
ATOM     63  C   UNL A   1      46.257  31.265  28.013  1.00  0.00     0.037 A 
BRANCH  50  64
ATOM     64  C   UNL A   1      40.404  29.738  29.301  1.00  0.00     0.058 A 
ATOM     65  C   UNL A   1      40.122  30.008  30.650  1.00  0.00     0.135 A 
ATOM     66  C   UNL A   1      39.357  29.878  28.376  1.00  0.00     0.135 A 
ATOM     67  F   UNL A   1      41.082  29.894  31.580  1.00  0.00    -0.206 F 
ATOM     68  C   UNL A   1      38.851  30.393  31.068  1.00  0.00     0.059 A 
ATOM     69  C   UNL A   1      38.087  30.294  28.766  1.00  0.00     0.059 A 
ATOM     70  F   UNL A   1      39.576  29.653  27.070  1.00  0.00    -0.206 F 
ATOM     71  C   UNL A   1      37.842  30.539  30.117  1.00  0.00     0.060 A 
BRANCH  71  72
ATOM     72  S   UNL A   1      36.216  31.098  30.669  1.00  0.00     0.124 S 
ATOM     73  O   UNL A   1      35.924  30.159  31.746  1.00  0.00    -0.237 OA
ATOM     74  O   UNL A   1      36.490  32.472  31.079  1.00  0.00    -0.237 OA
ATOM     75  O   UNL A   1      35.388  30.963  29.474  1.00  0.00    -0.744 OA
ENDBRANCH  71  72
ENDBRANCH  50  64
BRANCH  51  76
ATOM     76  C   UNL A   1      49.326  26.263  26.452  1.00  0.00     0.058 A 
ATOM     77  C   UNL A   1      50.235  25.702  27.364  1.00  0.00     0.135 A 
ATOM     78  C   UNL A   1      49.731  26.374  25.114  1.00  0.00     0.135 A 
ATOM     79  F   UNL A   1      49.898  25.568  28.657  1.00  0.00    -0.206 F 
ATOM     80  C   UNL A   1      51.514  25.318  26.976  1.00  0.00     0.059 A 
ATOM     81  C   UNL A   1      50.998  25.973  24.696  1.00  0.00     0.059 A 
ATOM     82  F   UNL A   1      48.889  26.879  24.200  1.00  0.00    -0.206 F 
ATOM     83  C   UNL A   1      51.891  25.469  25.641  1.00  0.00     0.060 A 
BRANCH  83  84
ATOM     84  S   UNL A   1      53.577  25.022  25.174  1.00  0.00     0.124 S 
ATOM     85  O   UNL A   1      54.353  25.666  26.228  1.00  0.00    -0.237 OA
ATOM     86  O   UNL A   1      53.529  23.564  25.223  1.00  0.00    -0.237 OA
ATOM     87  O   UNL A   1      53.726  25.599  23.842  1.00  0.00    -0.744 OA
ENDBRANCH  83  84
ENDBRANCH  51  76
BRANCH  63  88
ATOM     88  C   UNL A   1      46.876  32.638  28.080  1.00  0.00     0.058 A 
ATOM     89  C   UNL A   1      46.783  33.507  26.978  1.00  0.00     0.135 A 
ATOM     90  C   UNL A   1      47.677  33.036  29.160  1.00  0.00     0.135 A 
ATOM     91  F   UNL A   1      46.034  33.174  25.916  1.00  0.00    -0.206 F 
ATOM     92  C   UNL A   1      47.496  34.700  26.928  1.00  0.00     0.059 A 
ATOM     93  C   UNL A   1      48.379  34.241  29.143  1.00  0.00     0.059 A 
ATOM     94  F   UNL A   1      47.793  32.250  30.242  1.00  0.00    -0.206 F 
ATOM     95  C   UNL A   1      48.300  35.054  28.011  1.00  0.00     0.060 A 
BRANCH  95  96
ATOM     96  S   UNL A   1      49.252  36.585  27.907  1.00  0.00     0.124 S 
ATOM     97  O   UNL A   1      49.077  37.140  29.245  1.00  0.00    -0.237 OA
ATOM     98  O   UNL A   1      50.591  36.093  27.595  1.00  0.00    -0.237 OA
ATOM     99  O   UNL A   1      48.596  37.323  26.832  1.00  0.00    -0.744 OA
ENDBRANCH  95  96
ENDBRANCH  63  88
ENDBRANCH  37  38
ENDBRANCH  30  32
ENDBRANCH  29  30
ENDBRANCH  28  29
ENDBRANCH  27  28
ENDBRANCH  26  27
ENDBRANCH  25  26
ENDBRANCH   1  25
TORSDOF 25
ENDMDL
MODEL 2
REMARK VINA RESULT:      -9.4      1.448      2.245
REMARK SMILES O=C(CN(CC(F)(F)F)S(=O)(=O)c1cccc(F)c1)OCCOCCOCCOC(=O)c1ccc(-c2c3nc(c(-c4c(F)cc(S(=O)(=O)[O-])cc4F)c4ccc([nH]4)c(-c4c(F)cc(S(=O)(=O)[O-])cc4F)c4nc(c(-c5c(F)cc(S(=O)(=O)[O-])cc5F)c5ccc2[nH]5)C=C4)C=C3)cc1
REMARK SMILES IDX 24 1 23 2 22 3 21 4 20 5 2 6 1 7 3 8 4 9 5 10 6 11 7 12 8 13
REMARK SMILES IDX 9 14 10 15 11 16 12 17 13 18 14 19 19 20 15 21 17 22 16 23
REMARK SMILES IDX 18 24 25 25 26 26 27 27 28 28 29 29 30 30 31 31 32 32 33 33
REMARK SMILES IDX 97 34 34 35 96 36 35 37 36 38 37 39 90 40 38 41 95 42 89 43
REMARK SMILES IDX 91 44 39 45 94 46 88 47 87 48 40 50 74 51 53 52 73 53 54 54
REMARK SMILES IDX 57 55 72 56 92 57 55 58 56 59 71 61 93 62 58 63 41 64 42 65
REMARK SMILES IDX 51 66 43 67 44 68 50 69 52 70 45 71 46 72 47 73 48 74 49 75
REMARK SMILES IDX 75 76 76 77 85 78 77 79 78 80 84 81 86 82 79 83 80 84 81 85
REMARK SMILES IDX 82 86 83 87 59 88 60 89 69 90 61 91 62 92 68 93 70 94 63 95
REMARK SMILES IDX 64 96 65 97 66 98 67 99
REMARK H PARENT 91 49 57 60
REMARK Flexibility Score: inf
ROOT
ATOM      1  C   UNL A   1      37.971  21.770  25.371  1.00  0.00     0.188 C 
ENDROOT
BRANCH   1   2
ATOM      2  O   UNL A   1      37.618  20.471  24.948  1.00  0.00    -0.376 OA
BRANCH   2   3
ATOM      3  C   UNL A   1      36.275  20.054  24.982  1.00  0.00     0.202 C 
BRANCH   3   4
ATOM      4  C   UNL A   1      35.263  21.145  25.342  1.00  0.00     0.261 C 
BRANCH   4   5
ATOM      5  O   UNL A   1      33.971  21.118  24.700  1.00  0.00    -0.462 OA
BRANCH   5   6
ATOM      6  C   UNL A   1      32.788  20.698  25.205  1.00  0.00     0.321 C 
ATOM      7  O   UNL A   1      32.575  19.492  25.324  1.00  0.00    -0.251 OA
BRANCH   6   8
ATOM      8  C   UNL A   1      31.683  21.714  25.422  1.00  0.00     0.225 C 
BRANCH   8   9
ATOM      9  N   UNL A   1      32.048  23.123  25.120  1.00  0.00    -0.178 NA
BRANCH   9  10
ATOM     10  C   UNL A   1      31.801  23.475  23.659  1.00  0.00     0.218 C 
BRANCH  10  11
ATOM     11  C   UNL A   1      32.928  24.111  22.833  1.00  0.00     0.402 C 
ATOM     12  F   UNL A   1      33.019  23.611  21.596  1.00  0.00    -0.170 F 
ATOM     13  F   UNL A   1      32.691  25.440  22.722  1.00  0.00    -0.170 F 
ATOM     14  F   UNL A   1      34.122  23.979  23.455  1.00  0.00    -0.170 F 
ENDBRANCH  10  11
ENDBRANCH   9  10
BRANCH   9  15
ATOM     15  S   UNL A   1      31.381  24.145  26.322  1.00  0.00     0.244 S 
ATOM     16  O   UNL A   1      29.943  24.087  26.202  1.00  0.00    -0.207 OA
ATOM     17  O   UNL A   1      32.038  23.813  27.561  1.00  0.00    -0.207 OA
BRANCH  15  18
ATOM     18  C   UNL A   1      31.937  25.753  25.865  1.00  0.00     0.085 A 
ATOM     19  C   UNL A   1      33.277  26.096  26.087  1.00  0.00     0.022 A 
ATOM     20  C   UNL A   1      31.025  26.688  25.380  1.00  0.00     0.061 A 
ATOM     21  C   UNL A   1      33.712  27.388  25.804  1.00  0.00     0.004 A 
ATOM     22  C   UNL A   1      31.485  27.956  25.068  1.00  0.00     0.124 A 
ATOM     23  C   UNL A   1      32.813  28.316  25.282  1.00  0.00     0.039 A 
ATOM     24  F   UNL A   1      30.638  28.852  24.549  1.00  0.00    -0.207 F 
ENDBRANCH  15  18
ENDBRANCH   9  15
ENDBRANCH   8   9
ENDBRANCH   6   8
ENDBRANCH   5   6
ENDBRANCH   4   5
ENDBRANCH   3   4
ENDBRANCH   2   3
ENDBRANCH   1   2
BRANCH   1  25
ATOM     25  C   UNL A   1      39.303  21.806  26.128  1.00  0.00     0.188 C 
BRANCH  25  26
ATOM     26  O   UNL A   1      40.341  20.933  25.709  1.00  0.00    -0.376 OA
BRANCH  26  27
ATOM     27  C   UNL A   1      40.675  19.831  26.545  1.00  0.00     0.202 C 
BRANCH  27  28
ATOM     28  C   UNL A   1      41.810  18.891  26.104  1.00  0.00     0.261 C 
BRANCH  28  29
ATOM     29  O   UNL A   1      42.577  19.294  24.946  1.00  0.00    -0.460 OA
BRANCH  29  30
ATOM     30  C   UNL A   1      43.841  19.727  25.195  1.00  0.00     0.338 C 
ATOM     31  O   UNL A   1      44.873  19.097  25.038  1.00  0.00    -0.246 OA
BRANCH  30  32
ATOM     32  C   UNL A   1      43.848  21.152  25.600  1.00  0.00     0.060 A 
ATOM     33  C   UNL A   1      44.011  22.153  24.628  1.00  0.00     0.016 A 
ATOM     34  C   UNL A   1      43.850  21.486  26.953  1.00  0.00     0.016 A 
ATOM     35  C   UNL A   1      44.209  23.487  25.010  1.00  0.00     0.010 A 
ATOM     36  C   UNL A   1      44.070  22.815  27.333  1.00  0.00     0.010 A 
ATOM     37  C   UNL A   1      44.289  23.817  26.368  1.00  0.00    -0.014 A 
BRANCH  37  38
ATOM     38  C   UNL A   1      44.800  25.142  26.819  1.00  0.00     0.031 A 
ATOM     39  C   UNL A   1      43.807  26.152  27.330  1.00  0.00     0.074 A 
ATOM     40  C   UNL A   1      46.101  25.474  26.726  1.00  0.00     0.049 A 
ATOM     41  N   UNL A   1      43.970  27.424  27.586  1.00  0.00    -0.248 NA
ATOM     42  C   UNL A   1      42.441  25.659  27.570  1.00  0.00     0.031 C 
ATOM     43  C   UNL A   1      47.175  24.576  26.314  1.00  0.00     0.029 A 
ATOM     44  N   UNL A   1      46.732  26.676  26.948  1.00  0.00    -0.354 N 
ATOM     45  C   UNL A   1      42.724  27.889  27.994  1.00  0.00     0.074 A 
ATOM     46  C   UNL A   1      41.813  26.768  27.930  1.00  0.00     0.031 C 
ATOM     47  C   UNL A   1      48.330  25.263  26.287  1.00  0.00     0.029 A 
ATOM     48  C   UNL A   1      48.069  26.663  26.631  1.00  0.00     0.049 A 
ATOM     49  H   UNL A   1      46.269  27.470  27.301  1.00  0.00     0.167 HD
ATOM     50  C   UNL A   1      42.373  29.137  28.388  1.00  0.00     0.037 A 
ATOM     51  C   UNL A   1      48.972  27.666  26.586  1.00  0.00     0.037 A 
ATOM     52  C   UNL A   1      43.286  30.248  28.450  1.00  0.00     0.049 A 
ATOM     53  C   UNL A   1      48.546  29.070  26.941  1.00  0.00     0.074 A 
ATOM     54  C   UNL A   1      43.028  31.547  28.850  1.00  0.00     0.029 A 
ATOM     55  N   UNL A   1      44.627  30.196  28.097  1.00  0.00    -0.354 N 
ATOM     56  N   UNL A   1      47.366  29.503  27.318  1.00  0.00    -0.248 NA
ATOM     57  C   UNL A   1      49.569  30.125  26.859  1.00  0.00     0.031 C 
ATOM     58  C   UNL A   1      44.195  32.296  28.677  1.00  0.00     0.029 A 
ATOM     59  C   UNL A   1      45.201  31.448  28.240  1.00  0.00     0.049 A 
ATOM     60  H   UNL A   1      45.100  29.388  27.791  1.00  0.00     0.167 HD
ATOM     61  C   UNL A   1      47.512  30.868  27.551  1.00  0.00     0.074 A 
ATOM     62  C   UNL A   1      48.894  31.193  27.266  1.00  0.00     0.031 C 
ATOM     63  C   UNL A   1      46.584  31.764  27.969  1.00  0.00     0.037 A 
BRANCH  50  64
ATOM     64  C   UNL A   1      40.931  29.379  28.750  1.00  0.00     0.058 A 
ATOM     65  C   UNL A   1      40.550  29.501  30.096  1.00  0.00     0.135 A 
ATOM     66  C   UNL A   1      39.922  29.452  27.777  1.00  0.00     0.135 A 
ATOM     67  F   UNL A   1      41.471  29.444  31.071  1.00  0.00    -0.206 F 
ATOM     68  C   UNL A   1      39.220  29.679  30.465  1.00  0.00     0.059 A 
ATOM     69  C   UNL A   1      38.589  29.662  28.121  1.00  0.00     0.059 A 
ATOM     70  F   UNL A   1      40.233  29.361  26.474  1.00  0.00    -0.206 F 
ATOM     71  C   UNL A   1      38.247  29.764  29.469  1.00  0.00     0.060 A 
BRANCH  71  72
ATOM     72  S   UNL A   1      36.535  30.055  29.963  1.00  0.00     0.124 S 
ATOM     73  O   UNL A   1      35.797  29.524  28.823  1.00  0.00    -0.237 OA
ATOM     74  O   UNL A   1      36.440  29.283  31.198  1.00  0.00    -0.237 OA
ATOM     75  O   UNL A   1      36.474  31.504  30.133  1.00  0.00    -0.744 OA
ENDBRANCH  71  72
ENDBRANCH  50  64
BRANCH  51  76
ATOM     76  C   UNL A   1      50.374  27.368  26.183  1.00  0.00     0.058 A 
ATOM     77  C   UNL A   1      50.790  27.483  24.847  1.00  0.00     0.135 A 
ATOM     78  C   UNL A   1      51.310  26.904  27.119  1.00  0.00     0.135 A 
ATOM     79  F   UNL A   1      49.938  27.927  23.910  1.00  0.00    -0.206 F 
ATOM     80  C   UNL A   1      52.066  27.102  24.445  1.00  0.00     0.059 A 
ATOM     81  C   UNL A   1      52.602  26.539  26.745  1.00  0.00     0.059 A 
ATOM     82  F   UNL A   1      50.968  26.801  28.412  1.00  0.00    -0.206 F 
ATOM     83  C   UNL A   1      52.961  26.619  25.401  1.00  0.00     0.060 A 
BRANCH  83  84
ATOM     84  S   UNL A   1      54.590  26.071  24.845  1.00  0.00     0.124 S 
ATOM     85  O   UNL A   1      54.521  24.637  25.105  1.00  0.00    -0.237 OA
ATOM     86  O   UNL A   1      54.578  26.462  23.439  1.00  0.00    -0.237 OA
ATOM     87  O   UNL A   1      55.509  26.820  25.695  1.00  0.00    -0.744 OA
ENDBRANCH  83  84
ENDBRANCH  51  76
BRANCH  63  88
ATOM     88  C   UNL A   1      47.009  33.193  28.193  1.00  0.00     0.058 A 
ATOM     89  C   UNL A   1      47.417  33.614  29.471  1.00  0.00     0.135 A 
ATOM     90  C   UNL A   1      46.873  34.171  27.196  1.00  0.00     0.135 A 
ATOM     91  F   UNL A   1      47.559  32.722  30.463  1.00  0.00    -0.206 F 
ATOM     92  C   UNL A   1      47.635  34.956  29.762  1.00  0.00     0.059 A 
ATOM     93  C   UNL A   1      47.113  35.519  27.459  1.00  0.00     0.059 A 
ATOM     94  F   UNL A   1      46.496  33.823  25.956  1.00  0.00    -0.206 F 
ATOM     95  C   UNL A   1      47.470  35.903  28.752  1.00  0.00     0.060 A 
BRANCH  95  96
ATOM     96  S   UNL A   1      47.713  37.646  29.162  1.00  0.00     0.124 S 
ATOM     97  O   UNL A   1      49.030  37.908  28.591  1.00  0.00    -0.237 OA
ATOM     98  O   UNL A   1      46.589  38.280  28.480  1.00  0.00    -0.237 OA
ATOM     99  O   UNL A   1      47.647  37.666  30.620  1.00  0.00    -0.744 OA
ENDBRANCH  95  96
ENDBRANCH  63  88
ENDBRANCH  37  38
ENDBRANCH  30  32
ENDBRANCH  29  30
ENDBRANCH  28  29
ENDBRANCH  27  28
ENDBRANCH  26  27
ENDBRANCH  25  26
ENDBRANCH   1  25
TORSDOF 25
ENDMDL
MODEL 3
REMARK VINA RESULT:      -9.3      1.715      8.324
REMARK SMILES O=C(CN(CC(F)(F)F)S(=O)(=O)c1cccc(F)c1)OCCOCCOCCOC(=O)c1ccc(-c2c3nc(c(-c4c(F)cc(S(=O)(=O)[O-])cc4F)c4ccc([nH]4)c(-c4c(F)cc(S(=O)(=O)[O-])cc4F)c4nc(c(-c5c(F)cc(S(=O)(=O)[O-])cc5F)c5ccc2[nH]5)C=C4)C=C3)cc1
REMARK SMILES IDX 24 1 23 2 22 3 21 4 20 5 2 6 1 7 3 8 4 9 5 10 6 11 7 12 8 13
REMARK SMILES IDX 9 14 10 15 11 16 12 17 13 18 14 19 19 20 15 21 17 22 16 23
REMARK SMILES IDX 18 24 25 25 26 26 27 27 28 28 29 29 30 30 31 31 32 32 33 33
REMARK SMILES IDX 97 34 34 35 96 36 35 37 36 38 37 39 90 40 38 41 95 42 89 43
REMARK SMILES IDX 91 44 39 45 94 46 88 47 87 48 40 50 74 51 53 52 73 53 54 54
REMARK SMILES IDX 57 55 72 56 92 57 55 58 56 59 71 61 93 62 58 63 41 64 42 65
REMARK SMILES IDX 51 66 43 67 44 68 50 69 52 70 45 71 46 72 47 73 48 74 49 75
REMARK SMILES IDX 75 76 76 77 85 78 77 79 78 80 84 81 86 82 79 83 80 84 81 85
REMARK SMILES IDX 82 86 83 87 59 88 60 89 69 90 61 91 62 92 68 93 70 94 63 95
REMARK SMILES IDX 64 96 65 97 66 98 67 99
REMARK H PARENT 91 49 57 60
REMARK Flexibility Score: inf
ROOT
ATOM      1  C   UNL A   1      39.182  21.066  25.773  1.00  0.00     0.188 C 
ENDROOT
BRANCH   1   2
ATOM      2  O   UNL A   1      38.646  19.923  25.143  1.00  0.00    -0.376 OA
BRANCH   2   3
ATOM      3  C   UNL A   1      37.254  19.778  25.001  1.00  0.00     0.202 C 
BRANCH   3   4
ATOM      4  C   UNL A   1      36.428  21.003  25.402  1.00  0.00     0.261 C 
BRANCH   4   5
ATOM      5  O   UNL A   1      35.222  21.285  24.661  1.00  0.00    -0.462 OA
BRANCH   5   6
ATOM      6  C   UNL A   1      33.966  20.835  24.891  1.00  0.00     0.321 C 
ATOM      7  O   UNL A   1      33.523  19.908  24.215  1.00  0.00    -0.251 OA
BRANCH   6   8
ATOM      8  C   UNL A   1      33.072  21.614  25.837  1.00  0.00     0.225 C 
BRANCH   8   9
ATOM      9  N   UNL A   1      32.901  23.053  25.508  1.00  0.00    -0.178 NA
BRANCH   9  10
ATOM     10  C   UNL A   1      33.150  23.334  24.032  1.00  0.00     0.218 C 
BRANCH  10  11
ATOM     11  C   UNL A   1      34.134  24.441  23.628  1.00  0.00     0.402 C 
ATOM     12  F   UNL A   1      33.584  25.368  22.835  1.00  0.00    -0.170 F 
ATOM     13  F   UNL A   1      34.570  25.067  24.748  1.00  0.00    -0.170 F 
ATOM     14  F   UNL A   1      35.225  23.925  23.019  1.00  0.00    -0.170 F 
ENDBRANCH  10  11
ENDBRANCH   9  10
BRANCH   9  15
ATOM     15  S   UNL A   1      31.442  23.618  26.203  1.00  0.00     0.244 S 
ATOM     16  O   UNL A   1      30.360  22.827  25.663  1.00  0.00    -0.207 OA
ATOM     17  O   UNL A   1      31.663  23.701  27.625  1.00  0.00    -0.207 OA
BRANCH  15  18
ATOM     18  C   UNL A   1      31.303  25.271  25.612  1.00  0.00     0.085 A 
ATOM     19  C   UNL A   1      31.995  26.291  26.279  1.00  0.00     0.022 A 
ATOM     20  C   UNL A   1      30.443  25.558  24.554  1.00  0.00     0.061 A 
ATOM     21  C   UNL A   1      31.834  27.612  25.871  1.00  0.00     0.004 A 
ATOM     22  C   UNL A   1      30.325  26.874  24.139  1.00  0.00     0.124 A 
ATOM     23  C   UNL A   1      31.004  27.901  24.790  1.00  0.00     0.039 A 
ATOM     24  F   UNL A   1      29.546  27.163  23.090  1.00  0.00    -0.207 F 
ENDBRANCH  15  18
ENDBRANCH   9  15
ENDBRANCH   8   9
ENDBRANCH   6   8
ENDBRANCH   5   6
ENDBRANCH   4   5
ENDBRANCH   3   4
ENDBRANCH   2   3
ENDBRANCH   1   2
BRANCH   1  25
ATOM     25  C   UNL A   1      40.497  20.777  26.507  1.00  0.00     0.188 C 
BRANCH  25  26
ATOM     26  O   UNL A   1      41.526  20.098  25.804  1.00  0.00    -0.376 OA
BRANCH  26  27
ATOM     27  C   UNL A   1      42.287  19.118  26.500  1.00  0.00     0.202 C 
BRANCH  27  28
ATOM     28  C   UNL A   1      43.331  18.303  25.716  1.00  0.00     0.261 C 
BRANCH  28  29
ATOM     29  O   UNL A   1      43.796  18.870  24.469  1.00  0.00    -0.460 OA
BRANCH  29  30
ATOM     30  C   UNL A   1      44.935  19.607  24.543  1.00  0.00     0.338 C 
ATOM     31  O   UNL A   1      46.059  19.247  24.237  1.00  0.00    -0.246 OA
BRANCH  30  32
ATOM     32  C   UNL A   1      44.645  20.999  24.957  1.00  0.00     0.060 A 
ATOM     33  C   UNL A   1      44.186  21.929  24.009  1.00  0.00     0.016 A 
ATOM     34  C   UNL A   1      44.976  21.421  26.244  1.00  0.00     0.016 A 
ATOM     35  C   UNL A   1      44.088  23.287  24.338  1.00  0.00     0.010 A 
ATOM     36  C   UNL A   1      44.898  22.781  26.563  1.00  0.00     0.010 A 
ATOM     37  C   UNL A   1      44.491  23.729  25.604  1.00  0.00    -0.014 A 
BRANCH  37  38
ATOM     38  C   UNL A   1      44.699  25.174  25.896  1.00  0.00     0.031 A 
ATOM     39  C   UNL A   1      46.088  25.738  25.749  1.00  0.00     0.074 A 
ATOM     40  C   UNL A   1      43.703  25.963  26.337  1.00  0.00     0.049 A 
ATOM     41  N   UNL A   1      46.562  26.895  26.131  1.00  0.00    -0.248 NA
ATOM     42  C   UNL A   1      47.079  24.867  25.094  1.00  0.00     0.031 C 
ATOM     43  C   UNL A   1      42.303  25.569  26.461  1.00  0.00     0.029 A 
ATOM     44  N   UNL A   1      43.729  27.261  26.792  1.00  0.00    -0.354 N 
ATOM     45  C   UNL A   1      47.910  26.883  25.786  1.00  0.00     0.074 A 
ATOM     46  C   UNL A   1      48.181  25.597  25.184  1.00  0.00     0.031 C 
ATOM     47  C   UNL A   1      41.607  26.593  26.983  1.00  0.00     0.029 A 
ATOM     48  C   UNL A   1      42.521  27.699  27.278  1.00  0.00     0.049 A 
ATOM     49  H   UNL A   1      44.538  27.824  26.770  1.00  0.00     0.167 HD
ATOM     50  C   UNL A   1      48.835  27.858  25.953  1.00  0.00     0.037 A 
ATOM     51  C   UNL A   1      42.193  28.842  27.920  1.00  0.00     0.037 A 
ATOM     52  C   UNL A   1      48.557  29.138  26.552  1.00  0.00     0.049 A 
ATOM     53  C   UNL A   1      43.254  29.883  28.180  1.00  0.00     0.074 A 
ATOM     54  C   UNL A   1      49.426  30.196  26.753  1.00  0.00     0.029 A 
ATOM     55  N   UNL A   1      47.325  29.531  27.053  1.00  0.00    -0.354 N 
ATOM     56  N   UNL A   1      44.526  29.861  27.858  1.00  0.00    -0.248 NA
ATOM     57  C   UNL A   1      42.842  31.100  28.897  1.00  0.00     0.031 C 
ATOM     58  C   UNL A   1      48.735  31.203  27.433  1.00  0.00     0.029 A 
ATOM     59  C   UNL A   1      47.417  30.803  27.590  1.00  0.00     0.049 A 
ATOM     60  H   UNL A   1      46.505  28.985  27.028  1.00  0.00     0.167 HD
ATOM     61  C   UNL A   1      45.056  31.071  28.300  1.00  0.00     0.074 A 
ATOM     62  C   UNL A   1      43.969  31.800  28.919  1.00  0.00     0.031 C 
ATOM     63  C   UNL A   1      46.327  31.533  28.194  1.00  0.00     0.037 A 
BRANCH  50  64
ATOM     64  C   UNL A   1      50.247  27.569  25.515  1.00  0.00     0.058 A 
ATOM     65  C   UNL A   1      50.605  27.674  24.161  1.00  0.00     0.135 A 
ATOM     66  C   UNL A   1      51.236  27.151  26.420  1.00  0.00     0.135 A 
ATOM     67  F   UNL A   1      49.703  28.072  23.250  1.00  0.00    -0.206 F 
ATOM     68  C   UNL A   1      51.888  27.368  23.719  1.00  0.00     0.059 A 
ATOM     69  C   UNL A   1      52.535  26.872  26.006  1.00  0.00     0.059 A 
ATOM     70  F   UNL A   1      50.954  27.053  27.730  1.00  0.00    -0.206 F 
ATOM     71  C   UNL A   1      52.849  26.974  24.651  1.00  0.00     0.060 A 
BRANCH  71  72
ATOM     72  S   UNL A   1      54.524  26.640  24.067  1.00  0.00     0.124 S 
ATOM     73  O   UNL A   1      54.352  26.673  22.619  1.00  0.00    -0.237 OA
ATOM     74  O   UNL A   1      55.274  27.750  24.645  1.00  0.00    -0.237 OA
ATOM     75  O   UNL A   1      54.825  25.329  24.635  1.00  0.00    -0.744 OA
ENDBRANCH  71  72
ENDBRANCH  50  64
BRANCH  51  76
ATOM     76  C   UNL A   1      40.787  29.052  28.362  1.00  0.00     0.058 A 
ATOM     77  C   UNL A   1      39.763  29.318  27.438  1.00  0.00     0.135 A 
ATOM     78  C   UNL A   1      40.451  29.050  29.723  1.00  0.00     0.135 A 
ATOM     79  F   UNL A   1      40.027  29.328  26.122  1.00  0.00    -0.206 F 
ATOM     80  C   UNL A   1      38.470  29.623  27.850  1.00  0.00     0.059 A 
ATOM     81  C   UNL A   1      39.157  29.329  30.160  1.00  0.00     0.059 A 
ATOM     82  F   UNL A   1      41.388  28.776  30.643  1.00  0.00    -0.206 F 
ATOM     83  C   UNL A   1      38.180  29.639  29.215  1.00  0.00     0.060 A 
BRANCH  83  84
ATOM     84  S   UNL A   1      36.510  30.100  29.728  1.00  0.00     0.124 S 
ATOM     85  O   UNL A   1      35.725  29.684  28.571  1.00  0.00    -0.237 OA
ATOM     86  O   UNL A   1      36.332  29.300  30.936  1.00  0.00    -0.237 OA
ATOM     87  O   UNL A   1      36.605  31.540  29.939  1.00  0.00    -0.744 OA
ENDBRANCH  83  84
ENDBRANCH  51  76
BRANCH  63  88
ATOM     88  C   UNL A   1      46.641  32.911  28.717  1.00  0.00     0.058 A 
ATOM     89  C   UNL A   1      46.544  34.026  27.866  1.00  0.00     0.135 A 
ATOM     90  C   UNL A   1      47.174  33.112  29.999  1.00  0.00     0.135 A 
ATOM     91  F   UNL A   1      46.047  33.890  26.627  1.00  0.00    -0.206 F 
ATOM     92  C   UNL A   1      47.003  35.281  28.252  1.00  0.00     0.059 A 
ATOM     93  C   UNL A   1      47.614  34.368  30.417  1.00  0.00     0.059 A 
ATOM     94  F   UNL A   1      47.279  32.085  30.856  1.00  0.00    -0.206 F 
ATOM     95  C   UNL A   1      47.547  35.440  29.527  1.00  0.00     0.060 A 
BRANCH  95  96
ATOM     96  S   UNL A   1      48.177  37.067  29.993  1.00  0.00     0.124 S 
ATOM     97  O   UNL A   1      48.269  36.950  31.444  1.00  0.00    -0.237 OA
ATOM     98  O   UNL A   1      49.450  37.118  29.279  1.00  0.00    -0.237 OA
ATOM     99  O   UNL A   1      47.153  37.983  29.502  1.00  0.00    -0.744 OA
ENDBRANCH  95  96
ENDBRANCH  63  88
ENDBRANCH  37  38
ENDBRANCH  30  32
ENDBRANCH  29  30
ENDBRANCH  28  29
ENDBRANCH  27  28
ENDBRANCH  26  27
ENDBRANCH  25  26
ENDBRANCH   1  25
TORSDOF 25
ENDMDL
