MODEL 1
REMARK VINA RESULT:     -10.8      0.000      0.000
REMARK SMILES O=C(OCCOCCOCCOC(=O)c1ccc(-n2cnc3ccccc32)nc1)c1ccc(-c2c3nc(c(-c4c(F)cc(S(=O)(=O)[O-])cc4F)c4ccc([nH]4)c(-c4c(F)cc(S(=O)(=O)[O-])cc4F)c4nc(c(-c5c(F)cc(S(=O)(=O)[O-])cc5F)c5ccc2[nH]5)C=C4)C=C3)cc1
REMARK SMILES IDX 7 1 6 2 5 3 4 4 3 5 2 6 1 7 30 8 31 9 95 10 32 11 94 12
REMARK SMILES IDX 33 13 34 14 35 15 88 16 36 17 93 18 87 19 89 20 37 21 92 22
REMARK SMILES IDX 86 23 85 24 38 26 72 27 51 28 71 29 52 30 55 31 70 32 90 33
REMARK SMILES IDX 53 34 54 35 69 37 91 38 56 39 39 40 40 41 49 42 41 43 42 44
REMARK SMILES IDX 48 45 50 46 43 47 44 48 45 49 46 50 47 51 73 52 74 53 83 54
REMARK SMILES IDX 75 55 76 56 82 57 84 58 77 59 78 60 79 61 80 62 81 63 57 64
REMARK SMILES IDX 58 65 67 66 59 67 60 68 66 69 68 70 61 71 62 72 63 73 64 74
REMARK SMILES IDX 65 75 8 76 9 77 10 78 11 79 12 80 13 81 14 82 15 83 16 84
REMARK SMILES IDX 29 85 17 86 28 87 18 88 19 89 20 90 27 91 21 92 22 93 26 94
REMARK SMILES IDX 23 95 25 96 24 97
REMARK H PARENT 89 25 55 36
REMARK Flexibility Score: inf
ROOT
ATOM      1  C   UNL A   1      35.192  33.377  27.970  1.00  0.00     0.188 C 
ENDROOT
BRANCH   1   2
ATOM      2  O   UNL A   1      34.506  34.615  27.879  1.00  0.00    -0.376 OA
BRANCH   2   3
ATOM      3  C   UNL A   1      33.314  34.681  28.645  1.00  0.00     0.202 C 
BRANCH   3   4
ATOM      4  C   UNL A   1      33.436  35.316  30.040  1.00  0.00     0.261 C 
BRANCH   4   5
ATOM      5  O   UNL A   1      33.424  34.479  31.231  1.00  0.00    -0.460 OA
BRANCH   5   6
ATOM      6  C   UNL A   1      34.414  34.166  32.105  1.00  0.00     0.338 C 
ATOM      7  O   UNL A   1      34.410  34.602  33.250  1.00  0.00    -0.246 OA
BRANCH   6   8
ATOM      8  C   UNL A   1      35.564  33.403  31.596  1.00  0.00     0.060 A 
ATOM      9  C   UNL A   1      35.448  32.016  31.545  1.00  0.00     0.016 A 
ATOM     10  C   UNL A   1      36.789  34.023  31.339  1.00  0.00     0.016 A 
ATOM     11  C   UNL A   1      36.609  31.262  31.463  1.00  0.00     0.010 A 
ATOM     12  C   UNL A   1      37.954  33.263  31.355  1.00  0.00     0.010 A 
ATOM     13  C   UNL A   1      37.872  31.879  31.492  1.00  0.00    -0.014 A 
BRANCH  13  14
ATOM     14  C   UNL A   1      39.047  31.031  31.234  1.00  0.00     0.031 A 
ATOM     15  C   UNL A   1      39.829  30.947  32.494  1.00  0.00     0.074 A 
ATOM     16  C   UNL A   1      39.369  30.318  30.129  1.00  0.00     0.049 A 
ATOM     17  N   UNL A   1      40.942  31.538  32.783  1.00  0.00    -0.248 NA
ATOM     18  C   UNL A   1      39.131  30.369  33.660  1.00  0.00     0.031 C 
ATOM     19  C   UNL A   1      38.558  30.098  28.928  1.00  0.00     0.029 A 
ATOM     20  N   UNL A   1      40.498  29.578  29.859  1.00  0.00    -0.354 N 
ATOM     21  C   UNL A   1      41.194  31.163  34.100  1.00  0.00     0.074 A 
ATOM     22  C   UNL A   1      39.949  30.706  34.654  1.00  0.00     0.031 C 
ATOM     23  C   UNL A   1      39.154  29.190  28.128  1.00  0.00     0.029 A 
ATOM     24  C   UNL A   1      40.389  28.748  28.740  1.00  0.00     0.049 A 
ATOM     25  H   UNL A   1      41.313  29.627  30.408  1.00  0.00     0.167 HD
ATOM     26  C   UNL A   1      42.453  30.856  34.504  1.00  0.00     0.037 A 
ATOM     27  C   UNL A   1      41.195  27.722  28.353  1.00  0.00     0.037 A 
ATOM     28  C   UNL A   1      43.441  31.376  33.604  1.00  0.00     0.049 A 
ATOM     29  C   UNL A   1      42.513  27.949  28.991  1.00  0.00     0.074 A 
ATOM     30  C   UNL A   1      43.950  32.614  33.288  1.00  0.00     0.029 A 
ATOM     31  N   UNL A   1      43.764  30.522  32.584  1.00  0.00    -0.354 N 
ATOM     32  N   UNL A   1      43.285  28.962  28.697  1.00  0.00    -0.248 NA
ATOM     33  C   UNL A   1      42.811  27.287  30.254  1.00  0.00     0.031 C 
ATOM     34  C   UNL A   1      44.406  32.517  31.939  1.00  0.00     0.029 A 
ATOM     35  C   UNL A   1      44.198  31.214  31.487  1.00  0.00     0.049 A 
ATOM     36  H   UNL A   1      43.691  29.542  32.633  1.00  0.00     0.167 HD
ATOM     37  C   UNL A   1      43.856  29.326  29.902  1.00  0.00     0.074 A 
ATOM     38  C   UNL A   1      43.647  28.183  30.785  1.00  0.00     0.031 C 
ATOM     39  C   UNL A   1      44.177  30.626  30.162  1.00  0.00     0.037 A 
BRANCH  26  40
ATOM     40  C   UNL A   1      42.727  29.653  35.375  1.00  0.00     0.058 A 
ATOM     41  C   UNL A   1      43.558  29.779  36.500  1.00  0.00     0.135 A 
ATOM     42  C   UNL A   1      42.418  28.326  34.986  1.00  0.00     0.135 A 
ATOM     43  F   UNL A   1      43.971  30.990  36.905  1.00  0.00    -0.206 F 
ATOM     44  C   UNL A   1      44.039  28.665  37.190  1.00  0.00     0.059 A 
ATOM     45  C   UNL A   1      42.822  27.210  35.699  1.00  0.00     0.059 A 
ATOM     46  F   UNL A   1      41.802  28.044  33.832  1.00  0.00    -0.206 F 
ATOM     47  C   UNL A   1      43.656  27.386  36.786  1.00  0.00     0.060 A 
BRANCH  47  48
ATOM     48  S   UNL A   1      44.303  25.942  37.644  1.00  0.00     0.124 S 
ATOM     49  O   UNL A   1      43.513  24.872  37.048  1.00  0.00    -0.237 OA
ATOM     50  O   UNL A   1      45.714  25.983  37.275  1.00  0.00    -0.237 OA
ATOM     51  O   UNL A   1      44.020  26.233  39.047  1.00  0.00    -0.744 OA
ENDBRANCH  47  48
ENDBRANCH  26  40
BRANCH  27  52
ATOM     52  C   UNL A   1      40.791  26.429  27.708  1.00  0.00     0.058 A 
ATOM     53  C   UNL A   1      41.477  25.894  26.597  1.00  0.00     0.135 A 
ATOM     54  C   UNL A   1      39.873  25.550  28.323  1.00  0.00     0.135 A 
ATOM     55  F   UNL A   1      42.377  26.638  25.936  1.00  0.00    -0.206 F 
ATOM     56  C   UNL A   1      41.315  24.561  26.178  1.00  0.00     0.059 A 
ATOM     57  C   UNL A   1      39.678  24.232  27.913  1.00  0.00     0.059 A 
ATOM     58  F   UNL A   1      39.189  25.906  29.419  1.00  0.00    -0.206 F 
ATOM     59  C   UNL A   1      40.432  23.728  26.866  1.00  0.00     0.060 A 
BRANCH  59  60
ATOM     60  S   UNL A   1      40.380  21.956  26.505  1.00  0.00     0.124 S 
ATOM     61  O   UNL A   1      40.467  21.369  27.836  1.00  0.00    -0.237 OA
ATOM     62  O   UNL A   1      39.094  21.820  25.828  1.00  0.00    -0.237 OA
ATOM     63  O   UNL A   1      41.551  21.749  25.655  1.00  0.00    -0.744 OA
ENDBRANCH  59  60
ENDBRANCH  27  52
BRANCH  39  64
ATOM     64  C   UNL A   1      44.410  31.549  28.998  1.00  0.00     0.058 A 
ATOM     65  C   UNL A   1      45.522  31.516  28.141  1.00  0.00     0.135 A 
ATOM     66  C   UNL A   1      43.368  32.430  28.671  1.00  0.00     0.135 A 
ATOM     67  F   UNL A   1      46.523  30.646  28.349  1.00  0.00    -0.206 F 
ATOM     68  C   UNL A   1      45.596  32.341  27.011  1.00  0.00     0.059 A 
ATOM     69  C   UNL A   1      43.408  33.238  27.542  1.00  0.00     0.059 A 
ATOM     70  F   UNL A   1      42.258  32.469  29.427  1.00  0.00    -0.206 F 
ATOM     71  C   UNL A   1      44.530  33.196  26.719  1.00  0.00     0.060 A 
BRANCH  71  72
ATOM     72  S   UNL A   1      44.578  34.227  25.233  1.00  0.00     0.124 S 
ATOM     73  O   UNL A   1      43.387  35.055  25.394  1.00  0.00    -0.237 OA
ATOM     74  O   UNL A   1      45.859  34.914  25.359  1.00  0.00    -0.237 OA
ATOM     75  O   UNL A   1      44.515  33.254  24.143  1.00  0.00    -0.744 OA
ENDBRANCH  71  72
ENDBRANCH  39  64
ENDBRANCH  13  14
ENDBRANCH   6   8
ENDBRANCH   5   6
ENDBRANCH   4   5
ENDBRANCH   3   4
ENDBRANCH   2   3
ENDBRANCH   1   2
BRANCH   1  76
ATOM     76  C   UNL A   1      34.255  32.168  27.950  1.00  0.00     0.188 C 
BRANCH  76  77
ATOM     77  O   UNL A   1      34.854  30.881  28.023  1.00  0.00    -0.376 OA
BRANCH  77  78
ATOM     78  C   UNL A   1      34.169  29.792  27.415  1.00  0.00     0.202 C 
BRANCH  78  79
ATOM     79  C   UNL A   1      32.709  29.933  26.965  1.00  0.00     0.261 C 
BRANCH  79  80
ATOM     80  O   UNL A   1      32.021  28.766  26.523  1.00  0.00    -0.460 OA
BRANCH  80  81
ATOM     81  C   UNL A   1      32.560  28.178  25.442  1.00  0.00     0.339 C 
ATOM     82  O   UNL A   1      32.726  28.676  24.336  1.00  0.00    -0.246 OA
BRANCH  81  83
ATOM     83  C   UNL A   1      32.752  26.755  25.724  1.00  0.00     0.078 A 
ATOM     84  C   UNL A   1      31.695  26.044  26.284  1.00  0.00     0.021 A 
ATOM     85  C   UNL A   1      33.951  26.094  25.486  1.00  0.00     0.129 A 
ATOM     86  C   UNL A   1      31.833  24.677  26.466  1.00  0.00     0.048 A 
ATOM     87  N   UNL A   1      34.132  24.760  25.690  1.00  0.00    -0.238 NA
ATOM     88  C   UNL A   1      33.033  24.071  26.092  1.00  0.00     0.138 A 
BRANCH  88  89
ATOM     89  N   UNL A   1      33.031  22.669  25.920  1.00  0.00    -0.283 N 
ATOM     90  C   UNL A   1      33.534  21.729  26.784  1.00  0.00     0.206 A 
ATOM     91  C   UNL A   1      32.674  22.002  24.759  1.00  0.00     0.074 A 
ATOM     92  N   UNL A   1      33.395  20.502  26.321  1.00  0.00    -0.236 NA
ATOM     93  C   UNL A   1      32.893  20.659  25.050  1.00  0.00     0.089 A 
ATOM     94  C   UNL A   1      32.282  22.444  23.484  1.00  0.00     0.029 A 
ATOM     95  C   UNL A   1      32.638  19.697  24.059  1.00  0.00     0.030 A 
ATOM     96  C   UNL A   1      32.066  21.476  22.503  1.00  0.00     0.002 A 
ATOM     97  C   UNL A   1      32.227  20.122  22.786  1.00  0.00     0.002 A 
ENDBRANCH  88  89
ENDBRANCH  81  83
ENDBRANCH  80  81
ENDBRANCH  79  80
ENDBRANCH  78  79
ENDBRANCH  77  78
ENDBRANCH  76  77
ENDBRANCH   1  76
TORSDOF 21
ENDMDL
MODEL 2
REMARK VINA RESULT:     -10.2      1.466      2.221
REMARK SMILES O=C(OCCOCCOCCOC(=O)c1ccc(-n2cnc3ccccc32)nc1)c1ccc(-c2c3nc(c(-c4c(F)cc(S(=O)(=O)[O-])cc4F)c4ccc([nH]4)c(-c4c(F)cc(S(=O)(=O)[O-])cc4F)c4nc(c(-c5c(F)cc(S(=O)(=O)[O-])cc5F)c5ccc2[nH]5)C=C4)C=C3)cc1
REMARK SMILES IDX 7 1 6 2 5 3 4 4 3 5 2 6 1 7 30 8 31 9 95 10 32 11 94 12
REMARK SMILES IDX 33 13 34 14 35 15 88 16 36 17 93 18 87 19 89 20 37 21 92 22
REMARK SMILES IDX 86 23 85 24 38 26 72 27 51 28 71 29 52 30 55 31 70 32 90 33
REMARK SMILES IDX 53 34 54 35 69 37 91 38 56 39 39 40 40 41 49 42 41 43 42 44
REMARK SMILES IDX 48 45 50 46 43 47 44 48 45 49 46 50 47 51 73 52 74 53 83 54
REMARK SMILES IDX 75 55 76 56 82 57 84 58 77 59 78 60 79 61 80 62 81 63 57 64
REMARK SMILES IDX 58 65 67 66 59 67 60 68 66 69 68 70 61 71 62 72 63 73 64 74
REMARK SMILES IDX 65 75 8 76 9 77 10 78 11 79 12 80 13 81 14 82 15 83 16 84
REMARK SMILES IDX 29 85 17 86 28 87 18 88 19 89 20 90 27 91 21 92 22 93 26 94
REMARK SMILES IDX 23 95 25 96 24 97
REMARK H PARENT 89 25 55 36
REMARK Flexibility Score: inf
ROOT
ATOM      1  C   UNL A   1      34.353  30.861  27.527  1.00  0.00     0.188 C 
ENDROOT
BRANCH   1   2
ATOM      2  O   UNL A   1      34.842  32.179  27.719  1.00  0.00    -0.376 OA
BRANCH   2   3
ATOM      3  C   UNL A   1      33.872  33.100  28.190  1.00  0.00     0.202 C 
BRANCH   3   4
ATOM      4  C   UNL A   1      34.336  34.078  29.282  1.00  0.00     0.261 C 
BRANCH   4   5
ATOM      5  O   UNL A   1      34.081  33.787  30.685  1.00  0.00    -0.460 OA
BRANCH   5   6
ATOM      6  C   UNL A   1      34.752  32.999  31.563  1.00  0.00     0.338 C 
ATOM      7  O   UNL A   1      34.395  32.906  32.732  1.00  0.00    -0.246 OA
BRANCH   6   8
ATOM      8  C   UNL A   1      36.002  32.371  31.107  1.00  0.00     0.060 A 
ATOM      9  C   UNL A   1      35.998  30.993  30.909  1.00  0.00     0.016 A 
ATOM     10  C   UNL A   1      37.195  33.095  31.043  1.00  0.00     0.016 A 
ATOM     11  C   UNL A   1      37.216  30.331  30.878  1.00  0.00     0.010 A 
ATOM     12  C   UNL A   1      38.407  32.417  31.108  1.00  0.00     0.010 A 
ATOM     13  C   UNL A   1      38.419  31.024  31.101  1.00  0.00    -0.014 A 
BRANCH  13  14
ATOM     14  C   UNL A   1      39.675  30.287  30.887  1.00  0.00     0.031 A 
ATOM     15  C   UNL A   1      40.410  30.263  32.178  1.00  0.00     0.074 A 
ATOM     16  C   UNL A   1      40.105  29.615  29.793  1.00  0.00     0.049 A 
ATOM     17  N   UNL A   1      41.452  30.950  32.515  1.00  0.00    -0.248 NA
ATOM     18  C   UNL A   1      39.721  29.616  33.312  1.00  0.00     0.031 C 
ATOM     19  C   UNL A   1      39.366  29.332  28.558  1.00  0.00     0.029 A 
ATOM     20  N   UNL A   1      41.306  28.982  29.566  1.00  0.00    -0.354 N 
ATOM     21  C   UNL A   1      41.684  30.589  33.839  1.00  0.00     0.074 A 
ATOM     22  C   UNL A   1      40.464  30.017  34.339  1.00  0.00     0.031 C 
ATOM     23  C   UNL A   1      40.074  28.489  27.780  1.00  0.00     0.029 A 
ATOM     24  C   UNL A   1      41.318  28.155  28.440  1.00  0.00     0.049 A 
ATOM     25  H   UNL A   1      42.090  29.100  30.148  1.00  0.00     0.167 HD
ATOM     26  C   UNL A   1      42.949  30.394  34.293  1.00  0.00     0.037 A 
ATOM     27  C   UNL A   1      42.228  27.208  28.081  1.00  0.00     0.037 A 
ATOM     28  C   UNL A   1      43.921  31.008  33.436  1.00  0.00     0.049 A 
ATOM     29  C   UNL A   1      43.494  27.548  28.774  1.00  0.00     0.074 A 
ATOM     30  C   UNL A   1      44.328  32.289  33.147  1.00  0.00     0.029 A 
ATOM     31  N   UNL A   1      44.360  30.195  32.427  1.00  0.00    -0.354 N 
ATOM     32  N   UNL A   1      44.182  28.629  28.516  1.00  0.00    -0.248 NA
ATOM     33  C   UNL A   1      43.799  26.906  30.045  1.00  0.00     0.031 C 
ATOM     34  C   UNL A   1      44.845  32.245  31.818  1.00  0.00     0.029 A 
ATOM     35  C   UNL A   1      44.774  30.932  31.351  1.00  0.00     0.049 A 
ATOM     36  H   UNL A   1      44.375  29.212  32.469  1.00  0.00     0.167 HD
ATOM     37  C   UNL A   1      44.669  29.033  29.746  1.00  0.00     0.074 A 
ATOM     38  C   UNL A   1      44.528  27.869  30.614  1.00  0.00     0.031 C 
ATOM     39  C   UNL A   1      44.860  30.355  30.024  1.00  0.00     0.037 A 
BRANCH  26  40
ATOM     40  C   UNL A   1      43.295  29.212  35.169  1.00  0.00     0.058 A 
ATOM     41  C   UNL A   1      43.961  29.418  36.387  1.00  0.00     0.135 A 
ATOM     42  C   UNL A   1      43.232  27.869  34.722  1.00  0.00     0.135 A 
ATOM     43  F   UNL A   1      44.140  30.662  36.860  1.00  0.00    -0.206 F 
ATOM     44  C   UNL A   1      44.518  28.362  37.111  1.00  0.00     0.059 A 
ATOM     45  C   UNL A   1      43.712  26.799  35.459  1.00  0.00     0.059 A 
ATOM     46  F   UNL A   1      42.803  27.542  33.498  1.00  0.00    -0.206 F 
ATOM     47  C   UNL A   1      44.379  27.056  36.641  1.00  0.00     0.060 A 
BRANCH  47  48
ATOM     48  S   UNL A   1      45.129  25.692  37.545  1.00  0.00     0.124 S 
ATOM     49  O   UNL A   1      43.970  25.115  38.214  1.00  0.00    -0.237 OA
ATOM     50  O   UNL A   1      45.708  24.901  36.464  1.00  0.00    -0.237 OA
ATOM     51  O   UNL A   1      46.096  26.359  38.413  1.00  0.00    -0.744 OA
ENDBRANCH  47  48
ENDBRANCH  26  40
BRANCH  27  52
ATOM     52  C   UNL A   1      41.970  25.889  27.414  1.00  0.00     0.058 A 
ATOM     53  C   UNL A   1      42.841  25.352  26.444  1.00  0.00     0.135 A 
ATOM     54  C   UNL A   1      40.988  24.997  27.897  1.00  0.00     0.135 A 
ATOM     55  F   UNL A   1      43.816  26.109  25.917  1.00  0.00    -0.206 F 
ATOM     56  C   UNL A   1      42.785  24.006  26.041  1.00  0.00     0.059 A 
ATOM     57  C   UNL A   1      40.897  23.665  27.497  1.00  0.00     0.059 A 
ATOM     58  F   UNL A   1      40.125  25.356  28.858  1.00  0.00    -0.206 F 
ATOM     59  C   UNL A   1      41.825  23.161  26.598  1.00  0.00     0.060 A 
BRANCH  59  60
ATOM     60  S   UNL A   1      41.879  21.381  26.281  1.00  0.00     0.124 S 
ATOM     61  O   UNL A   1      42.845  21.292  25.192  1.00  0.00    -0.237 OA
ATOM     62  O   UNL A   1      42.317  20.854  27.570  1.00  0.00    -0.237 OA
ATOM     63  O   UNL A   1      40.501  21.059  25.918  1.00  0.00    -0.744 OA
ENDBRANCH  59  60
ENDBRANCH  27  52
BRANCH  39  64
ATOM     64  C   UNL A   1      45.056  31.305  28.875  1.00  0.00     0.058 A 
ATOM     65  C   UNL A   1      44.029  31.935  28.153  1.00  0.00     0.135 A 
ATOM     66  C   UNL A   1      46.376  31.686  28.587  1.00  0.00     0.135 A 
ATOM     67  F   UNL A   1      42.741  31.675  28.426  1.00  0.00    -0.206 F 
ATOM     68  C   UNL A   1      44.311  32.895  27.173  1.00  0.00     0.059 A 
ATOM     69  C   UNL A   1      46.677  32.654  27.638  1.00  0.00     0.059 A 
ATOM     70  F   UNL A   1      47.396  31.153  29.281  1.00  0.00    -0.206 F 
ATOM     71  C   UNL A   1      45.640  33.250  26.926  1.00  0.00     0.060 A 
BRANCH  71  72
ATOM     72  S   UNL A   1      46.023  34.530  25.708  1.00  0.00     0.124 S 
ATOM     73  O   UNL A   1      47.430  34.271  25.419  1.00  0.00    -0.237 OA
ATOM     74  O   UNL A   1      45.084  34.240  24.629  1.00  0.00    -0.237 OA
ATOM     75  O   UNL A   1      45.757  35.775  26.427  1.00  0.00    -0.744 OA
ENDBRANCH  71  72
ENDBRANCH  39  64
ENDBRANCH  13  14
ENDBRANCH   6   8
ENDBRANCH   5   6
ENDBRANCH   4   5
ENDBRANCH   3   4
ENDBRANCH   2   3
ENDBRANCH   1   2
BRANCH   1  76
ATOM     76  C   UNL A   1      32.872  30.820  27.145  1.00  0.00     0.188 C 
BRANCH  76  77
ATOM     77  O   UNL A   1      32.262  29.540  27.050  1.00  0.00    -0.376 OA
BRANCH  77  78
ATOM     78  C   UNL A   1      32.390  28.830  25.824  1.00  0.00     0.202 C 
BRANCH  78  79
ATOM     79  C   UNL A   1      31.687  29.322  24.552  1.00  0.00     0.261 C 
BRANCH  79  80
ATOM     80  O   UNL A   1      30.486  28.671  24.146  1.00  0.00    -0.460 OA
BRANCH  80  81
ATOM     81  C   UNL A   1      30.510  28.191  22.891  1.00  0.00     0.339 C 
ATOM     82  O   UNL A   1      30.133  28.761  21.875  1.00  0.00    -0.246 OA
BRANCH  81  83
ATOM     83  C   UNL A   1      30.883  26.777  22.933  1.00  0.00     0.078 A 
ATOM     84  C   UNL A   1      31.967  26.356  22.168  1.00  0.00     0.021 A 
ATOM     85  C   UNL A   1      30.183  25.833  23.675  1.00  0.00     0.129 A 
ATOM     86  C   UNL A   1      32.387  25.039  22.273  1.00  0.00     0.048 A 
ATOM     87  N   UNL A   1      30.546  24.525  23.770  1.00  0.00    -0.238 NA
ATOM     88  C   UNL A   1      31.696  24.185  23.133  1.00  0.00     0.138 A 
BRANCH  88  89
ATOM     89  N   UNL A   1      32.341  22.990  23.522  1.00  0.00    -0.283 N 
ATOM     90  C   UNL A   1      32.129  21.732  23.015  1.00  0.00     0.206 A 
ATOM     91  C   UNL A   1      33.182  22.849  24.615  1.00  0.00     0.074 A 
ATOM     92  N   UNL A   1      32.877  20.823  23.608  1.00  0.00    -0.236 NA
ATOM     93  C   UNL A   1      33.511  21.497  24.626  1.00  0.00     0.089 A 
ATOM     94  C   UNL A   1      33.597  23.736  25.623  1.00  0.00     0.029 A 
ATOM     95  C   UNL A   1      34.356  21.011  25.638  1.00  0.00     0.030 A 
ATOM     96  C   UNL A   1      34.408  23.228  26.638  1.00  0.00     0.002 A 
ATOM     97  C   UNL A   1      34.795  21.889  26.641  1.00  0.00     0.002 A 
ENDBRANCH  88  89
ENDBRANCH  81  83
ENDBRANCH  80  81
ENDBRANCH  79  80
ENDBRANCH  78  79
ENDBRANCH  77  78
ENDBRANCH  76  77
ENDBRANCH   1  76
TORSDOF 21
ENDMDL
MODEL 3
REMARK VINA RESULT:      -9.8      7.539     13.896
REMARK SMILES O=C(OCCOCCOCCOC(=O)c1ccc(-n2cnc3ccccc32)nc1)c1ccc(-c2c3nc(c(-c4c(F)cc(S(=O)(=O)[O-])cc4F)c4ccc([nH]4)c(-c4c(F)cc(S(=O)(=O)[O-])cc4F)c4nc(c(-c5c(F)cc(S(=O)(=O)[O-])cc5F)c5ccc2[nH]5)C=C4)C=C3)cc1
REMARK SMILES IDX 7 1 6 2 5 3 4 4 3 5 2 6 1 7 30 8 31 9 95 10 32 11 94 12
REMARK SMILES IDX 33 13 34 14 35 15 88 16 36 17 93 18 87 19 89 20 37 21 92 22
REMARK SMILES IDX 86 23 85 24 38 26 72 27 51 28 71 29 52 30 55 31 70 32 90 33
REMARK SMILES IDX 53 34 54 35 69 37 91 38 56 39 39 40 40 41 49 42 41 43 42 44
REMARK SMILES IDX 48 45 50 46 43 47 44 48 45 49 46 50 47 51 73 52 74 53 83 54
REMARK SMILES IDX 75 55 76 56 82 57 84 58 77 59 78 60 79 61 80 62 81 63 57 64
REMARK SMILES IDX 58 65 67 66 59 67 60 68 66 69 68 70 61 71 62 72 63 73 64 74
REMARK SMILES IDX 65 75 8 76 9 77 10 78 11 79 12 80 13 81 14 82 15 83 16 84
REMARK SMILES IDX 29 85 17 86 28 87 18 88 19 89 20 90 27 91 21 92 22 93 26 94
REMARK SMILES IDX 23 95 25 96 24 97
REMARK H PARENT 89 25 55 36
REMARK Flexibility Score: inf
ROOT
ATOM      1  C   UNL A   1      42.757  41.869  31.358  1.00  0.00     0.188 C 
ENDROOT
BRANCH   1   2
ATOM      2  O   UNL A   1      42.050  41.331  32.464  1.00  0.00    -0.376 OA
BRANCH   2   3
ATOM      3  C   UNL A   1      42.283  42.005  33.690  1.00  0.00     0.202 C 
BRANCH   3   4
ATOM      4  C   UNL A   1      43.746  42.079  34.158  1.00  0.00     0.261 C 
BRANCH   4   5
ATOM      5  O   UNL A   1      44.436  40.878  34.604  1.00  0.00    -0.460 OA
BRANCH   5   6
ATOM      6  C   UNL A   1      44.892  39.807  33.907  1.00  0.00     0.338 C 
ATOM      7  O   UNL A   1      45.696  39.942  32.992  1.00  0.00    -0.246 OA
BRANCH   6   8
ATOM      8  C   UNL A   1      44.288  38.495  34.188  1.00  0.00     0.060 A 
ATOM      9  C   UNL A   1      43.730  37.798  33.120  1.00  0.00     0.016 A 
ATOM     10  C   UNL A   1      44.121  38.042  35.498  1.00  0.00     0.016 A 
ATOM     11  C   UNL A   1      42.822  36.787  33.399  1.00  0.00     0.010 A 
ATOM     12  C   UNL A   1      43.139  37.095  35.771  1.00  0.00     0.010 A 
ATOM     13  C   UNL A   1      42.430  36.515  34.721  1.00  0.00    -0.014 A 
BRANCH  13  14
ATOM     14  C   UNL A   1      41.595  35.324  34.949  1.00  0.00     0.031 A 
ATOM     15  C   UNL A   1      42.163  34.213  34.144  1.00  0.00     0.074 A 
ATOM     16  C   UNL A   1      40.565  35.146  35.810  1.00  0.00     0.049 A 
ATOM     17  N   UNL A   1      41.704  33.709  33.045  1.00  0.00    -0.248 NA
ATOM     18  C   UNL A   1      43.554  33.826  34.450  1.00  0.00     0.031 C 
ATOM     19  C   UNL A   1      40.083  36.066  36.845  1.00  0.00     0.029 A 
ATOM     20  N   UNL A   1      39.740  34.058  35.979  1.00  0.00    -0.354 N 
ATOM     21  C   UNL A   1      42.647  32.749  32.691  1.00  0.00     0.074 A 
ATOM     22  C   UNL A   1      43.855  33.062  33.404  1.00  0.00     0.031 C 
ATOM     23  C   UNL A   1      39.153  35.456  37.608  1.00  0.00     0.029 A 
ATOM     24  C   UNL A   1      38.958  34.102  37.136  1.00  0.00     0.049 A 
ATOM     25  H   UNL A   1      39.703  33.310  35.340  1.00  0.00     0.167 HD
ATOM     26  C   UNL A   1      42.260  31.550  32.185  1.00  0.00     0.037 A 
ATOM     27  C   UNL A   1      38.247  33.104  37.729  1.00  0.00     0.037 A 
ATOM     28  C   UNL A   1      40.918  31.595  31.682  1.00  0.00     0.049 A 
ATOM     29  C   UNL A   1      37.976  32.092  36.680  1.00  0.00     0.074 A 
ATOM     30  C   UNL A   1      40.276  32.148  30.598  1.00  0.00     0.029 A 
ATOM     31  N   UNL A   1      39.966  31.295  32.618  1.00  0.00    -0.354 N 
ATOM     32  N   UNL A   1      37.215  32.322  35.643  1.00  0.00    -0.248 NA
ATOM     33  C   UNL A   1      38.870  30.948  36.553  1.00  0.00     0.031 C 
ATOM     34  C   UNL A   1      38.927  32.362  31.009  1.00  0.00     0.029 A 
ATOM     35  C   UNL A   1      38.776  31.897  32.315  1.00  0.00     0.049 A 
ATOM     36  H   UNL A   1      40.118  30.723  33.404  1.00  0.00     0.167 HD
ATOM     37  C   UNL A   1      37.829  31.649  34.604  1.00  0.00     0.074 A 
ATOM     38  C   UNL A   1      38.747  30.712  35.244  1.00  0.00     0.031 C 
ATOM     39  C   UNL A   1      37.759  32.119  33.324  1.00  0.00     0.037 A 
BRANCH  26  40
ATOM     40  C   UNL A   1      42.890  30.260  32.655  1.00  0.00     0.058 A 
ATOM     41  C   UNL A   1      43.449  29.375  31.720  1.00  0.00     0.135 A 
ATOM     42  C   UNL A   1      42.719  29.743  33.963  1.00  0.00     0.135 A 
ATOM     43  F   UNL A   1      43.583  29.742  30.435  1.00  0.00    -0.206 F 
ATOM     44  C   UNL A   1      43.819  28.073  32.065  1.00  0.00     0.059 A 
ATOM     45  C   UNL A   1      43.146  28.482  34.345  1.00  0.00     0.059 A 
ATOM     46  F   UNL A   1      42.028  30.395  34.906  1.00  0.00    -0.206 F 
ATOM     47  C   UNL A   1      43.671  27.642  33.383  1.00  0.00     0.060 A 
BRANCH  47  48
ATOM     48  S   UNL A   1      44.106  25.953  33.829  1.00  0.00     0.124 S 
ATOM     49  O   UNL A   1      45.406  26.145  34.460  1.00  0.00    -0.237 OA
ATOM     50  O   UNL A   1      43.007  25.587  34.716  1.00  0.00    -0.237 OA
ATOM     51  O   UNL A   1      44.122  25.262  32.542  1.00  0.00    -0.744 OA
ENDBRANCH  47  48
ENDBRANCH  26  40
BRANCH  27  52
ATOM     52  C   UNL A   1      38.053  32.858  39.196  1.00  0.00     0.058 A 
ATOM     53  C   UNL A   1      39.109  32.968  40.125  1.00  0.00     0.135 A 
ATOM     54  C   UNL A   1      36.765  32.756  39.765  1.00  0.00     0.135 A 
ATOM     55  F   UNL A   1      40.377  33.075  39.697  1.00  0.00    -0.206 F 
ATOM     56  C   UNL A   1      38.892  33.045  41.512  1.00  0.00     0.059 A 
ATOM     57  C   UNL A   1      36.525  32.807  41.137  1.00  0.00     0.059 A 
ATOM     58  F   UNL A   1      35.664  32.697  39.003  1.00  0.00    -0.206 F 
ATOM     59  C   UNL A   1      37.588  32.994  42.006  1.00  0.00     0.060 A 
BRANCH  59  60
ATOM     60  S   UNL A   1      37.260  33.328  43.754  1.00  0.00     0.124 S 
ATOM     61  O   UNL A   1      38.606  33.389  44.312  1.00  0.00    -0.237 OA
ATOM     62  O   UNL A   1      36.535  34.592  43.692  1.00  0.00    -0.237 OA
ATOM     63  O   UNL A   1      36.463  32.178  44.175  1.00  0.00    -0.744 OA
ENDBRANCH  59  60
ENDBRANCH  27  52
BRANCH  39  64
ATOM     64  C   UNL A   1      36.616  33.025  32.960  1.00  0.00     0.058 A 
ATOM     65  C   UNL A   1      36.615  34.424  33.076  1.00  0.00     0.135 A 
ATOM     66  C   UNL A   1      35.510  32.428  32.336  1.00  0.00     0.135 A 
ATOM     67  F   UNL A   1      37.672  35.070  33.595  1.00  0.00    -0.206 F 
ATOM     68  C   UNL A   1      35.546  35.194  32.601  1.00  0.00     0.059 A 
ATOM     69  C   UNL A   1      34.451  33.173  31.834  1.00  0.00     0.059 A 
ATOM     70  F   UNL A   1      35.478  31.097  32.152  1.00  0.00    -0.206 F 
ATOM     71  C   UNL A   1      34.469  34.558  31.978  1.00  0.00     0.060 A 
BRANCH  71  72
ATOM     72  S   UNL A   1      33.106  35.537  31.304  1.00  0.00     0.124 S 
ATOM     73  O   UNL A   1      33.655  36.888  31.329  1.00  0.00    -0.237 OA
ATOM     74  O   UNL A   1      32.909  34.949  29.983  1.00  0.00    -0.237 OA
ATOM     75  O   UNL A   1      32.015  35.293  32.247  1.00  0.00    -0.744 OA
ENDBRANCH  71  72
ENDBRANCH  39  64
ENDBRANCH  13  14
ENDBRANCH   6   8
ENDBRANCH   5   6
ENDBRANCH   4   5
ENDBRANCH   3   4
ENDBRANCH   2   3
ENDBRANCH   1   2
BRANCH   1  76
ATOM     76  C   UNL A   1      43.196  40.804  30.351  1.00  0.00     0.188 C 
BRANCH  76  77
ATOM     77  O   UNL A   1      43.790  41.260  29.143  1.00  0.00    -0.376 OA
BRANCH  77  78
ATOM     78  C   UNL A   1      44.166  40.286  28.176  1.00  0.00     0.202 C 
BRANCH  78  79
ATOM     79  C   UNL A   1      43.461  40.214  26.815  1.00  0.00     0.261 C 
BRANCH  79  80
ATOM     80  O   UNL A   1      43.203  41.431  26.120  1.00  0.00    -0.460 OA
BRANCH  80  81
ATOM     81  C   UNL A   1      42.078  41.425  25.387  1.00  0.00     0.339 C 
ATOM     82  O   UNL A   1      41.041  40.821  25.629  1.00  0.00    -0.246 OA
BRANCH  81  83
ATOM     83  C   UNL A   1      42.336  42.108  24.119  1.00  0.00     0.078 A 
ATOM     84  C   UNL A   1      43.287  43.124  24.096  1.00  0.00     0.021 A 
ATOM     85  C   UNL A   1      41.650  41.809  22.947  1.00  0.00     0.129 A 
ATOM     86  C   UNL A   1      43.606  43.712  22.882  1.00  0.00     0.048 A 
ATOM     87  N   UNL A   1      41.912  42.395  21.747  1.00  0.00    -0.238 NA
ATOM     88  C   UNL A   1      42.951  43.270  21.733  1.00  0.00     0.138 A 
BRANCH  88  89
ATOM     89  N   UNL A   1      43.535  43.585  20.486  1.00  0.00    -0.283 N 
ATOM     90  C   UNL A   1      44.873  43.708  20.206  1.00  0.00     0.206 A 
ATOM     91  C   UNL A   1      42.846  44.001  19.358  1.00  0.00     0.074 A 
ATOM     92  N   UNL A   1      45.091  44.032  18.947  1.00  0.00    -0.236 NA
ATOM     93  C   UNL A   1      43.841  44.250  18.417  1.00  0.00     0.089 A 
ATOM     94  C   UNL A   1      41.488  44.267  19.110  1.00  0.00     0.029 A 
ATOM     95  C   UNL A   1      43.471  44.710  17.142  1.00  0.00     0.030 A 
ATOM     96  C   UNL A   1      41.145  44.755  17.849  1.00  0.00     0.002 A 
ATOM     97  C   UNL A   1      42.117  44.961  16.873  1.00  0.00     0.002 A 
ENDBRANCH  88  89
ENDBRANCH  81  83
ENDBRANCH  80  81
ENDBRANCH  79  80
ENDBRANCH  78  79
ENDBRANCH  77  78
ENDBRANCH  76  77
ENDBRANCH   1  76
TORSDOF 21
ENDMDL
