MODEL 1
REMARK VINA RESULT:     -10.7      0.000      0.000
REMARK SMILES NS(=O)(=O)c1ccc(/N=N/c2ccc(O)c(C(=O)OCCOCCOCCOC(=O)c3ccc(-c4c5nc(c(-c6c(F)cc(S(=O)(=O)[O-])cc6F)c6ccc([nH]6)c(-c6c(F)cc(S(=O)(=O)[O-])cc6F)c6nc(c(-c7c(F)cc(S(=O)(=O)[O-])cc7F)c7ccc4[nH]7)C=C6)C=C5)cc3)c2)cc1
REMARK SMILES IDX 23 1 22 2 21 3 20 4 19 5 17 6 18 7 16 8 11 9 12 10 97 11
REMARK SMILES IDX 13 12 14 13 10 14 9 15 8 16 5 17 6 18 99 19 7 20 98 21 2 22
REMARK SMILES IDX 3 23 4 24 1 25 15 28 24 30 25 31 26 32 27 33 28 34 29 35
REMARK SMILES IDX 30 36 31 37 32 38 96 39 33 40 95 41 34 42 35 43 36 44 89 45
REMARK SMILES IDX 37 46 94 47 88 48 90 49 38 50 93 51 87 52 86 53 39 55 73 56
REMARK SMILES IDX 52 57 72 58 53 59 56 60 71 61 91 62 54 63 55 64 70 66 92 67
REMARK SMILES IDX 57 68 40 69 41 70 50 71 42 72 43 73 49 74 51 75 44 76 45 77
REMARK SMILES IDX 46 78 47 79 48 80 74 81 75 82 84 83 76 84 77 85 83 86 85 87
REMARK SMILES IDX 78 88 79 89 80 90 81 91 82 92 58 93 59 94 68 95 60 96 61 97
REMARK SMILES IDX 67 98 69 99 62 100 63 101 64 102 65 103 66 104
REMARK H PARENT 1 26 1 27 15 29 90 54 56 65
REMARK Flexibility Score: inf
ROOT
ATOM      1  C   UNL A   1      35.083  32.828  27.990  1.00  0.00     0.188 C 
ENDROOT
BRANCH   1   2
ATOM      2  O   UNL A   1      34.273  31.681  27.818  1.00  0.00    -0.376 OA
BRANCH   2   3
ATOM      3  C   UNL A   1      34.832  30.380  27.894  1.00  0.00     0.202 C 
BRANCH   3   4
ATOM      4  C   UNL A   1      34.609  29.305  26.817  1.00  0.00     0.261 C 
BRANCH   4   5
ATOM      5  O   UNL A   1      33.354  28.614  26.858  1.00  0.00    -0.460 OA
BRANCH   5   6
ATOM      6  C   UNL A   1      32.527  28.853  25.810  1.00  0.00     0.342 C 
ATOM      7  O   UNL A   1      31.807  29.827  25.651  1.00  0.00    -0.246 OA
BRANCH   6   8
ATOM      8  C   UNL A   1      32.782  27.894  24.719  1.00  0.00     0.104 A 
ATOM      9  C   UNL A   1      32.887  25.618  23.864  1.00  0.00     0.087 A 
ATOM     10  C   UNL A   1      33.455  26.115  22.682  1.00  0.00     0.034 A 
ATOM     11  C   UNL A   1      32.560  26.522  24.888  1.00  0.00     0.049 A 
ATOM     12  C   UNL A   1      33.689  27.481  22.513  1.00  0.00     0.049 A 
ATOM     13  C   UNL A   1      33.347  28.367  23.527  1.00  0.00     0.130 A 
BRANCH   9  14
ATOM     14  N   UNL A   1      32.749  24.221  23.995  1.00  0.00    -0.151 NA
ATOM     15  N   UNL A   1      33.849  23.645  24.109  1.00  0.00    -0.151 NA
BRANCH  15  16
ATOM     16  C   UNL A   1      33.739  22.241  24.204  1.00  0.00     0.086 A 
ATOM     17  C   UNL A   1      33.366  19.451  24.266  1.00  0.00     0.082 A 
ATOM     18  C   UNL A   1      32.378  20.270  23.720  1.00  0.00     0.024 A 
ATOM     19  C   UNL A   1      34.536  20.008  24.787  1.00  0.00     0.024 A 
ATOM     20  C   UNL A   1      32.571  21.655  23.692  1.00  0.00     0.031 A 
ATOM     21  C   UNL A   1      34.719  21.395  24.751  1.00  0.00     0.031 A 
BRANCH  17  22
ATOM     22  S   UNL A   1      33.176  17.697  24.336  1.00  0.00     0.238 S 
ATOM     23  O   UNL A   1      32.032  17.392  25.171  1.00  0.00    -0.207 OA
ATOM     24  O   UNL A   1      34.470  17.102  24.536  1.00  0.00    -0.207 OA
BRANCH  22  25
ATOM     25  N   UNL A   1      32.708  17.251  22.782  1.00  0.00    -0.225 NA
ATOM     26  H   UNL A   1      32.191  18.017  22.349  1.00  0.00     0.137 HD
ATOM     27  H   UNL A   1      32.111  16.424  22.831  1.00  0.00     0.137 HD
ENDBRANCH  22  25
ENDBRANCH  17  22
ENDBRANCH  15  16
ENDBRANCH   9  14
BRANCH  13  28
ATOM     28  O   UNL A   1      33.648  29.683  23.308  1.00  0.00    -0.507 OA
ATOM     29  H   UNL A   1      34.528  29.986  23.414  1.00  0.00     0.293 HD
ENDBRANCH  13  28
ENDBRANCH   6   8
ENDBRANCH   5   6
ENDBRANCH   4   5
ENDBRANCH   3   4
ENDBRANCH   2   3
ENDBRANCH   1   2
BRANCH   1  30
ATOM     30  C   UNL A   1      34.664  33.928  28.985  1.00  0.00     0.188 C 
BRANCH  30  31
ATOM     31  O   UNL A   1      34.051  33.525  30.185  1.00  0.00    -0.376 OA
BRANCH  31  32
ATOM     32  C   UNL A   1      34.837  33.198  31.317  1.00  0.00     0.202 C 
BRANCH  32  33
ATOM     33  C   UNL A   1      35.554  31.857  31.585  1.00  0.00     0.261 C 
BRANCH  33  34
ATOM     34  O   UNL A   1      36.620  31.462  30.722  1.00  0.00    -0.460 OA
BRANCH  34  35
ATOM     35  C   UNL A   1      37.078  30.196  30.898  1.00  0.00     0.338 C 
ATOM     36  O   UNL A   1      36.439  29.229  31.271  1.00  0.00    -0.246 OA
BRANCH  35  37
ATOM     37  C   UNL A   1      38.463  30.120  30.396  1.00  0.00     0.060 A 
ATOM     38  C   UNL A   1      38.688  30.210  29.016  1.00  0.00     0.016 A 
ATOM     39  C   UNL A   1      39.525  29.928  31.279  1.00  0.00     0.016 A 
ATOM     40  C   UNL A   1      39.983  30.088  28.512  1.00  0.00     0.010 A 
ATOM     41  C   UNL A   1      40.819  29.784  30.769  1.00  0.00     0.010 A 
ATOM     42  C   UNL A   1      41.052  29.836  29.382  1.00  0.00    -0.014 A 
BRANCH  42  43
ATOM     43  C   UNL A   1      42.384  29.469  28.840  1.00  0.00     0.031 A 
ATOM     44  C   UNL A   1      42.613  28.053  28.386  1.00  0.00     0.074 A 
ATOM     45  C   UNL A   1      43.376  30.376  28.753  1.00  0.00     0.049 A 
ATOM     46  N   UNL A   1      43.709  27.486  27.955  1.00  0.00    -0.248 NA
ATOM     47  C   UNL A   1      41.447  27.156  28.428  1.00  0.00     0.031 C 
ATOM     48  C   UNL A   1      43.266  31.786  29.122  1.00  0.00     0.029 A 
ATOM     49  N   UNL A   1      44.678  30.236  28.340  1.00  0.00    -0.354 N 
ATOM     50  C   UNL A   1      43.370  26.164  27.684  1.00  0.00     0.074 A 
ATOM     51  C   UNL A   1      41.973  26.008  28.027  1.00  0.00     0.031 C 
ATOM     52  C   UNL A   1      44.459  32.378  28.935  1.00  0.00     0.029 A 
ATOM     53  C   UNL A   1      45.424  31.383  28.470  1.00  0.00     0.049 A 
ATOM     54  H   UNL A   1      45.042  29.392  27.986  1.00  0.00     0.167 HD
ATOM     55  C   UNL A   1      44.150  25.175  27.188  1.00  0.00     0.037 A 
ATOM     56  C   UNL A   1      46.739  31.596  28.263  1.00  0.00     0.037 A 
ATOM     57  C   UNL A   1      45.541  25.337  26.852  1.00  0.00     0.049 A 
ATOM     58  C   UNL A   1      47.606  30.460  27.781  1.00  0.00     0.074 A 
ATOM     59  C   UNL A   1      46.412  24.400  26.325  1.00  0.00     0.029 A 
ATOM     60  N   UNL A   1      46.266  26.509  27.017  1.00  0.00    -0.354 N 
ATOM     61  N   UNL A   1      47.269  29.222  27.505  1.00  0.00    -0.248 NA
ATOM     62  C   UNL A   1      49.032  30.751  27.575  1.00  0.00     0.031 C 
ATOM     63  C   UNL A   1      47.679  24.986  26.228  1.00  0.00     0.029 A 
ATOM     64  C   UNL A   1      47.582  26.309  26.630  1.00  0.00     0.049 A 
ATOM     65  H   UNL A   1      45.900  27.355  27.359  1.00  0.00     0.167 HD
ATOM     66  C   UNL A   1      48.434  28.597  27.064  1.00  0.00     0.074 A 
ATOM     67  C   UNL A   1      49.480  29.596  27.100  1.00  0.00     0.031 C 
ATOM     68  C   UNL A   1      48.615  27.315  26.660  1.00  0.00     0.037 A 
BRANCH  55  69
ATOM     69  C   UNL A   1      43.525  23.818  27.007  1.00  0.00     0.058 A 
ATOM     70  C   UNL A   1      43.184  23.320  25.739  1.00  0.00     0.135 A 
ATOM     71  C   UNL A   1      43.297  22.987  28.118  1.00  0.00     0.135 A 
ATOM     72  F   UNL A   1      43.362  24.077  24.644  1.00  0.00    -0.206 F 
ATOM     73  C   UNL A   1      42.615  22.060  25.581  1.00  0.00     0.059 A 
ATOM     74  C   UNL A   1      42.758  21.712  27.979  1.00  0.00     0.059 A 
ATOM     75  F   UNL A   1      43.602  23.413  29.354  1.00  0.00    -0.206 F 
ATOM     76  C   UNL A   1      42.408  21.263  26.707  1.00  0.00     0.060 A 
BRANCH  76  77
ATOM     77  S   UNL A   1      41.677  19.628  26.483  1.00  0.00     0.124 S 
ATOM     78  O   UNL A   1      40.251  19.941  26.493  1.00  0.00    -0.237 OA
ATOM     79  O   UNL A   1      42.225  19.216  25.195  1.00  0.00    -0.237 OA
ATOM     80  O   UNL A   1      42.161  18.876  27.637  1.00  0.00    -0.744 OA
ENDBRANCH  76  77
ENDBRANCH  55  69
BRANCH  56  81
ATOM     81  C   UNL A   1      47.325  32.940  28.523  1.00  0.00     0.058 A 
ATOM     82  C   UNL A   1      47.822  33.283  29.789  1.00  0.00     0.135 A 
ATOM     83  C   UNL A   1      47.390  33.913  27.513  1.00  0.00     0.135 A 
ATOM     84  F   UNL A   1      47.769  32.394  30.794  1.00  0.00    -0.206 F 
ATOM     85  C   UNL A   1      48.350  34.544  30.050  1.00  0.00     0.059 A 
ATOM     86  C   UNL A   1      47.940  35.172  27.742  1.00  0.00     0.059 A 
ATOM     87  F   UNL A   1      46.933  33.637  26.282  1.00  0.00    -0.206 F 
ATOM     88  C   UNL A   1      48.409  35.480  29.016  1.00  0.00     0.060 A 
BRANCH  88  89
ATOM     89  S   UNL A   1      49.137  37.098  29.355  1.00  0.00     0.124 S 
ATOM     90  O   UNL A   1      50.496  36.735  29.739  1.00  0.00    -0.237 OA
ATOM     91  O   UNL A   1      48.997  37.772  28.067  1.00  0.00    -0.237 OA
ATOM     92  O   UNL A   1      48.299  37.628  30.425  1.00  0.00    -0.744 OA
ENDBRANCH  88  89
ENDBRANCH  56  81
BRANCH  68  93
ATOM     93  C   UNL A   1      49.986  26.921  26.176  1.00  0.00     0.058 A 
ATOM     94  C   UNL A   1      50.380  27.084  24.837  1.00  0.00     0.135 A 
ATOM     95  C   UNL A   1      50.942  26.428  27.081  1.00  0.00     0.135 A 
ATOM     96  F   UNL A   1      49.507  27.546  23.929  1.00  0.00    -0.206 F 
ATOM     97  C   UNL A   1      51.662  26.750  24.410  1.00  0.00     0.059 A 
ATOM     98  C   UNL A   1      52.238  26.117  26.682  1.00  0.00     0.059 A 
ATOM     99  F   UNL A   1      50.626  26.263  28.375  1.00  0.00    -0.206 F 
ATOM    100  C   UNL A   1      52.586  26.271  25.341  1.00  0.00     0.060 A 
BRANCH 100 101
ATOM    101  S   UNL A   1      54.256  25.876  24.780  1.00  0.00     0.124 S 
ATOM    102  O   UNL A   1      55.071  26.648  25.713  1.00  0.00    -0.237 OA
ATOM    103  O   UNL A   1      54.306  24.427  24.944  1.00  0.00    -0.237 OA
ATOM    104  O   UNL A   1      54.271  26.346  23.398  1.00  0.00    -0.744 OA
ENDBRANCH 100 101
ENDBRANCH  68  93
ENDBRANCH  42  43
ENDBRANCH  35  37
ENDBRANCH  34  35
ENDBRANCH  33  34
ENDBRANCH  32  33
ENDBRANCH  31  32
ENDBRANCH  30  31
ENDBRANCH   1  30
TORSDOF 25
ENDMDL
MODEL 2
REMARK VINA RESULT:     -10.7      1.256      8.080
REMARK SMILES NS(=O)(=O)c1ccc(/N=N/c2ccc(O)c(C(=O)OCCOCCOCCOC(=O)c3ccc(-c4c5nc(c(-c6c(F)cc(S(=O)(=O)[O-])cc6F)c6ccc([nH]6)c(-c6c(F)cc(S(=O)(=O)[O-])cc6F)c6nc(c(-c7c(F)cc(S(=O)(=O)[O-])cc7F)c7ccc4[nH]7)C=C6)C=C5)cc3)c2)cc1
REMARK SMILES IDX 23 1 22 2 21 3 20 4 19 5 17 6 18 7 16 8 11 9 12 10 97 11
REMARK SMILES IDX 13 12 14 13 10 14 9 15 8 16 5 17 6 18 99 19 7 20 98 21 2 22
REMARK SMILES IDX 3 23 4 24 1 25 15 28 24 30 25 31 26 32 27 33 28 34 29 35
REMARK SMILES IDX 30 36 31 37 32 38 96 39 33 40 95 41 34 42 35 43 36 44 89 45
REMARK SMILES IDX 37 46 94 47 88 48 90 49 38 50 93 51 87 52 86 53 39 55 73 56
REMARK SMILES IDX 52 57 72 58 53 59 56 60 71 61 91 62 54 63 55 64 70 66 92 67
REMARK SMILES IDX 57 68 40 69 41 70 50 71 42 72 43 73 49 74 51 75 44 76 45 77
REMARK SMILES IDX 46 78 47 79 48 80 74 81 75 82 84 83 76 84 77 85 83 86 85 87
REMARK SMILES IDX 78 88 79 89 80 90 81 91 82 92 58 93 59 94 68 95 60 96 61 97
REMARK SMILES IDX 67 98 69 99 62 100 63 101 64 102 65 103 66 104
REMARK H PARENT 1 26 1 27 15 29 90 54 56 65
REMARK Flexibility Score: inf
ROOT
ATOM      1  C   UNL A   1      34.341  33.513  28.200  1.00  0.00     0.188 C 
ENDROOT
BRANCH   1   2
ATOM      2  O   UNL A   1      34.066  32.160  28.509  1.00  0.00    -0.376 OA
BRANCH   2   3
ATOM      3  C   UNL A   1      33.915  31.198  27.479  1.00  0.00     0.202 C 
BRANCH   3   4
ATOM      4  C   UNL A   1      32.618  30.404  27.253  1.00  0.00     0.261 C 
BRANCH   4   5
ATOM      5  O   UNL A   1      32.718  29.245  26.415  1.00  0.00    -0.460 OA
BRANCH   5   6
ATOM      6  C   UNL A   1      31.773  28.295  26.626  1.00  0.00     0.342 C 
ATOM      7  O   UNL A   1      31.103  28.138  27.634  1.00  0.00    -0.246 OA
BRANCH   6   8
ATOM      8  C   UNL A   1      31.452  27.596  25.367  1.00  0.00     0.104 A 
ATOM      9  C   UNL A   1      31.328  25.568  24.029  1.00  0.00     0.087 A 
ATOM     10  C   UNL A   1      31.004  26.353  22.913  1.00  0.00     0.034 A 
ATOM     11  C   UNL A   1      31.561  26.204  25.259  1.00  0.00     0.049 A 
ATOM     12  C   UNL A   1      30.906  27.742  23.014  1.00  0.00     0.049 A 
ATOM     13  C   UNL A   1      31.122  28.359  24.240  1.00  0.00     0.130 A 
BRANCH   9  14
ATOM     14  N   UNL A   1      31.484  24.179  23.837  1.00  0.00    -0.151 NA
ATOM     15  N   UNL A   1      32.158  23.649  24.742  1.00  0.00    -0.151 NA
BRANCH  15  16
ATOM     16  C   UNL A   1      32.361  22.265  24.552  1.00  0.00     0.086 A 
ATOM     17  C   UNL A   1      32.758  19.538  23.977  1.00  0.00     0.082 A 
ATOM     18  C   UNL A   1      32.345  20.406  22.967  1.00  0.00     0.024 A 
ATOM     19  C   UNL A   1      32.970  20.013  25.274  1.00  0.00     0.024 A 
ATOM     20  C   UNL A   1      32.150  21.759  23.261  1.00  0.00     0.031 A 
ATOM     21  C   UNL A   1      32.775  21.370  25.554  1.00  0.00     0.031 A 
BRANCH  17  22
ATOM     22  S   UNL A   1      33.014  17.818  23.670  1.00  0.00     0.238 S 
ATOM     23  O   UNL A   1      34.350  17.467  24.110  1.00  0.00    -0.207 OA
ATOM     24  O   UNL A   1      32.517  17.506  22.357  1.00  0.00    -0.207 OA
BRANCH  22  25
ATOM     25  N   UNL A   1      31.985  17.030  24.743  1.00  0.00    -0.225 NA
ATOM     26  H   UNL A   1      32.501  16.300  25.236  1.00  0.00     0.137 HD
ATOM     27  H   UNL A   1      31.212  16.610  24.226  1.00  0.00     0.137 HD
ENDBRANCH  22  25
ENDBRANCH  17  22
ENDBRANCH  15  16
ENDBRANCH   9  14
BRANCH  13  28
ATOM     28  O   UNL A   1      31.054  29.725  24.250  1.00  0.00    -0.507 OA
ATOM     29  H   UNL A   1      31.810  30.231  24.476  1.00  0.00     0.293 HD
ENDBRANCH  13  28
ENDBRANCH   6   8
ENDBRANCH   5   6
ENDBRANCH   4   5
ENDBRANCH   3   4
ENDBRANCH   2   3
ENDBRANCH   1   2
BRANCH   1  30
ATOM     30  C   UNL A   1      34.086  34.613  29.249  1.00  0.00     0.188 C 
BRANCH  30  31
ATOM     31  O   UNL A   1      33.911  34.212  30.586  1.00  0.00    -0.376 OA
BRANCH  31  32
ATOM     32  C   UNL A   1      34.864  34.567  31.572  1.00  0.00     0.202 C 
BRANCH  32  33
ATOM     33  C   UNL A   1      36.188  33.835  31.879  1.00  0.00     0.261 C 
BRANCH  33  34
ATOM     34  O   UNL A   1      36.772  33.015  30.866  1.00  0.00    -0.460 OA
BRANCH  34  35
ATOM     35  C   UNL A   1      36.595  31.678  31.021  1.00  0.00     0.338 C 
ATOM     36  O   UNL A   1      35.578  31.106  31.370  1.00  0.00    -0.246 OA
BRANCH  35  37
ATOM     37  C   UNL A   1      37.800  30.982  30.531  1.00  0.00     0.060 A 
ATOM     38  C   UNL A   1      38.766  30.568  31.458  1.00  0.00     0.016 A 
ATOM     39  C   UNL A   1      37.988  30.769  29.165  1.00  0.00     0.016 A 
ATOM     40  C   UNL A   1      39.939  29.956  31.016  1.00  0.00     0.010 A 
ATOM     41  C   UNL A   1      39.174  30.174  28.724  1.00  0.00     0.010 A 
ATOM     42  C   UNL A   1      40.166  29.789  29.644  1.00  0.00    -0.014 A 
BRANCH  42  43
ATOM     43  C   UNL A   1      41.502  29.360  29.156  1.00  0.00     0.031 A 
ATOM     44  C   UNL A   1      42.590  30.392  29.035  1.00  0.00     0.074 A 
ATOM     45  C   UNL A   1      41.745  28.079  28.825  1.00  0.00     0.049 A 
ATOM     46  N   UNL A   1      43.803  30.269  28.561  1.00  0.00    -0.248 NA
ATOM     47  C   UNL A   1      42.263  31.747  29.509  1.00  0.00     0.031 C 
ATOM     48  C   UNL A   1      40.787  26.981  28.938  1.00  0.00     0.029 A 
ATOM     49  N   UNL A   1      42.874  27.490  28.311  1.00  0.00    -0.354 N 
ATOM     50  C   UNL A   1      44.381  31.530  28.670  1.00  0.00     0.074 A 
ATOM     51  C   UNL A   1      43.376  32.409  29.228  1.00  0.00     0.031 C 
ATOM     52  C   UNL A   1      41.365  25.852  28.487  1.00  0.00     0.029 A 
ATOM     53  C   UNL A   1      42.718  26.156  28.021  1.00  0.00     0.049 A 
ATOM     54  H   UNL A   1      43.716  27.979  28.163  1.00  0.00     0.167 HD
ATOM     55  C   UNL A   1      45.637  31.916  28.343  1.00  0.00     0.037 A 
ATOM     56  C   UNL A   1      43.559  25.287  27.424  1.00  0.00     0.037 A 
ATOM     57  C   UNL A   1      46.631  31.035  27.785  1.00  0.00     0.049 A 
ATOM     58  C   UNL A   1      44.927  25.758  26.999  1.00  0.00     0.074 A 
ATOM     59  C   UNL A   1      47.938  31.327  27.436  1.00  0.00     0.029 A 
ATOM     60  N   UNL A   1      46.427  29.696  27.486  1.00  0.00    -0.354 N 
ATOM     61  N   UNL A   1      45.471  26.945  27.128  1.00  0.00    -0.248 NA
ATOM     62  C   UNL A   1      45.800  24.768  26.350  1.00  0.00     0.031 C 
ATOM     63  C   UNL A   1      48.506  30.180  26.871  1.00  0.00     0.029 A 
ATOM     64  C   UNL A   1      47.575  29.155  26.930  1.00  0.00     0.049 A 
ATOM     65  H   UNL A   1      45.591  29.203  27.646  1.00  0.00     0.167 HD
ATOM     66  C   UNL A   1      46.759  26.835  26.608  1.00  0.00     0.074 A 
ATOM     67  C   UNL A   1      46.915  25.465  26.171  1.00  0.00     0.031 C 
ATOM     68  C   UNL A   1      47.725  27.784  26.508  1.00  0.00     0.037 A 
BRANCH  55  69
ATOM     69  C   UNL A   1      45.998  33.361  28.549  1.00  0.00     0.058 A 
ATOM     70  C   UNL A   1      46.700  33.797  29.685  1.00  0.00     0.135 A 
ATOM     71  C   UNL A   1      45.670  34.322  27.576  1.00  0.00     0.135 A 
ATOM     72  F   UNL A   1      47.024  32.927  30.655  1.00  0.00    -0.206 F 
ATOM     73  C   UNL A   1      47.038  35.135  29.863  1.00  0.00     0.059 A 
ATOM     74  C   UNL A   1      46.026  35.660  27.719  1.00  0.00     0.059 A 
ATOM     75  F   UNL A   1      44.998  33.962  26.472  1.00  0.00    -0.206 F 
ATOM     76  C   UNL A   1      46.698  36.059  28.873  1.00  0.00     0.060 A 
BRANCH  76  77
ATOM     77  S   UNL A   1      47.152  37.788  29.115  1.00  0.00     0.124 S 
ATOM     78  O   UNL A   1      47.816  37.737  30.415  1.00  0.00    -0.237 OA
ATOM     79  O   UNL A   1      48.020  38.045  27.971  1.00  0.00    -0.237 OA
ATOM     80  O   UNL A   1      45.869  38.485  29.094  1.00  0.00    -0.744 OA
ENDBRANCH  76  77
ENDBRANCH  55  69
BRANCH  56  81
ATOM     81  C   UNL A   1      43.128  23.883  27.178  1.00  0.00     0.058 A 
ATOM     82  C   UNL A   1      42.681  23.472  25.914  1.00  0.00     0.135 A 
ATOM     83  C   UNL A   1      43.146  22.927  28.206  1.00  0.00     0.135 A 
ATOM     84  F   UNL A   1      42.629  24.351  24.901  1.00  0.00    -0.206 F 
ATOM     85  C   UNL A   1      42.254  22.168  25.680  1.00  0.00     0.059 A 
ATOM     86  C   UNL A   1      42.751  21.610  27.989  1.00  0.00     0.059 A 
ATOM     87  F   UNL A   1      43.569  23.266  29.433  1.00  0.00    -0.206 F 
ATOM     88  C   UNL A   1      42.298  21.243  26.724  1.00  0.00     0.060 A 
BRANCH  88  89
ATOM     89  S   UNL A   1      41.784  19.543  26.395  1.00  0.00     0.124 S 
ATOM     90  O   UNL A   1      42.277  18.851  27.580  1.00  0.00    -0.237 OA
ATOM     91  O   UNL A   1      40.334  19.676  26.291  1.00  0.00    -0.237 OA
ATOM     92  O   UNL A   1      42.467  19.220  25.147  1.00  0.00    -0.744 OA
ENDBRANCH  88  89
ENDBRANCH  56  81
BRANCH  68  93
ATOM     93  C   UNL A   1      49.059  27.368  25.947  1.00  0.00     0.058 A 
ATOM     94  C   UNL A   1      49.297  27.296  24.565  1.00  0.00     0.135 A 
ATOM     95  C   UNL A   1      50.135  27.096  26.809  1.00  0.00     0.135 A 
ATOM     96  F   UNL A   1      48.305  27.540  23.696  1.00  0.00    -0.206 F 
ATOM     97  C   UNL A   1      50.545  26.946  24.059  1.00  0.00     0.059 A 
ATOM     98  C   UNL A   1      51.400  26.775  26.325  1.00  0.00     0.059 A 
ATOM     99  F   UNL A   1      49.970  27.162  28.139  1.00  0.00    -0.206 F 
ATOM    100  C   UNL A   1      51.593  26.691  24.947  1.00  0.00     0.060 A 
BRANCH 100 101
ATOM    101  S   UNL A   1      53.216  26.273  24.276  1.00  0.00     0.124 S 
ATOM    102  O   UNL A   1      53.112  26.788  22.914  1.00  0.00    -0.237 OA
ATOM    103  O   UNL A   1      54.117  27.003  25.162  1.00  0.00    -0.237 OA
ATOM    104  O   UNL A   1      53.271  24.819  24.394  1.00  0.00    -0.744 OA
ENDBRANCH 100 101
ENDBRANCH  68  93
ENDBRANCH  42  43
ENDBRANCH  35  37
ENDBRANCH  34  35
ENDBRANCH  33  34
ENDBRANCH  32  33
ENDBRANCH  31  32
ENDBRANCH  30  31
ENDBRANCH   1  30
TORSDOF 25
ENDMDL
MODEL 3
REMARK VINA RESULT:     -10.4      6.450     12.356
REMARK SMILES NS(=O)(=O)c1ccc(/N=N/c2ccc(O)c(C(=O)OCCOCCOCCOC(=O)c3ccc(-c4c5nc(c(-c6c(F)cc(S(=O)(=O)[O-])cc6F)c6ccc([nH]6)c(-c6c(F)cc(S(=O)(=O)[O-])cc6F)c6nc(c(-c7c(F)cc(S(=O)(=O)[O-])cc7F)c7ccc4[nH]7)C=C6)C=C5)cc3)c2)cc1
REMARK SMILES IDX 23 1 22 2 21 3 20 4 19 5 17 6 18 7 16 8 11 9 12 10 97 11
REMARK SMILES IDX 13 12 14 13 10 14 9 15 8 16 5 17 6 18 99 19 7 20 98 21 2 22
REMARK SMILES IDX 3 23 4 24 1 25 15 28 24 30 25 31 26 32 27 33 28 34 29 35
REMARK SMILES IDX 30 36 31 37 32 38 96 39 33 40 95 41 34 42 35 43 36 44 89 45
REMARK SMILES IDX 37 46 94 47 88 48 90 49 38 50 93 51 87 52 86 53 39 55 73 56
REMARK SMILES IDX 52 57 72 58 53 59 56 60 71 61 91 62 54 63 55 64 70 66 92 67
REMARK SMILES IDX 57 68 40 69 41 70 50 71 42 72 43 73 49 74 51 75 44 76 45 77
REMARK SMILES IDX 46 78 47 79 48 80 74 81 75 82 84 83 76 84 77 85 83 86 85 87
REMARK SMILES IDX 78 88 79 89 80 90 81 91 82 92 58 93 59 94 68 95 60 96 61 97
REMARK SMILES IDX 67 98 69 99 62 100 63 101 64 102 65 103 66 104
REMARK H PARENT 1 26 1 27 15 29 90 54 56 65
REMARK Flexibility Score: inf
ROOT
ATOM      1  C   UNL A   1      40.251  21.823  27.267  1.00  0.00     0.188 C 
ENDROOT
BRANCH   1   2
ATOM      2  O   UNL A   1      39.927  23.029  26.603  1.00  0.00    -0.376 OA
BRANCH   2   3
ATOM      3  C   UNL A   1      38.613  23.266  26.128  1.00  0.00     0.202 C 
BRANCH   3   4
ATOM      4  C   UNL A   1      37.646  22.138  25.729  1.00  0.00     0.261 C 
BRANCH   4   5
ATOM      5  O   UNL A   1      36.355  22.543  25.257  1.00  0.00    -0.460 OA
BRANCH   5   6
ATOM      6  C   UNL A   1      35.308  21.854  25.774  1.00  0.00     0.342 C 
ATOM      7  O   UNL A   1      35.172  21.481  26.929  1.00  0.00    -0.246 OA
BRANCH   6   8
ATOM      8  C   UNL A   1      34.188  21.814  24.813  1.00  0.00     0.104 A 
ATOM      9  C   UNL A   1      32.448  22.923  23.524  1.00  0.00     0.087 A 
ATOM     10  C   UNL A   1      31.965  21.664  23.139  1.00  0.00     0.034 A 
ATOM     11  C   UNL A   1      33.563  22.988  24.376  1.00  0.00     0.049 A 
ATOM     12  C   UNL A   1      32.579  20.491  23.583  1.00  0.00     0.049 A 
ATOM     13  C   UNL A   1      33.691  20.568  24.412  1.00  0.00     0.130 A 
BRANCH   9  14
ATOM     14  N   UNL A   1      31.734  24.063  23.100  1.00  0.00    -0.151 NA
ATOM     15  N   UNL A   1      31.641  24.925  23.996  1.00  0.00    -0.151 NA
BRANCH  15  16
ATOM     16  C   UNL A   1      30.897  26.060  23.607  1.00  0.00     0.086 A 
ATOM     17  C   UNL A   1      29.277  28.271  22.965  1.00  0.00     0.082 A 
ATOM     18  C   UNL A   1      28.757  27.232  23.737  1.00  0.00     0.024 A 
ATOM     19  C   UNL A   1      30.594  28.217  22.504  1.00  0.00     0.024 A 
ATOM     20  C   UNL A   1      29.569  26.137  24.052  1.00  0.00     0.031 A 
ATOM     21  C   UNL A   1      31.398  27.117  22.829  1.00  0.00     0.031 A 
BRANCH  17  22
ATOM     22  S   UNL A   1      28.300  29.675  22.529  1.00  0.00     0.238 S 
ATOM     23  O   UNL A   1      28.420  29.891  21.101  1.00  0.00    -0.207 OA
ATOM     24  O   UNL A   1      28.528  30.714  23.497  1.00  0.00    -0.207 OA
BRANCH  22  25
ATOM     25  N   UNL A   1      26.708  29.182  22.759  1.00  0.00    -0.225 NA
ATOM     26  H   UNL A   1      26.674  28.473  23.493  1.00  0.00     0.137 HD
ATOM     27  H   UNL A   1      26.345  28.789  21.890  1.00  0.00     0.137 HD
ENDBRANCH  22  25
ENDBRANCH  17  22
ENDBRANCH  15  16
ENDBRANCH   9  14
BRANCH  13  28
ATOM     28  O   UNL A   1      34.209  19.378  24.842  1.00  0.00    -0.507 OA
ATOM     29  H   UNL A   1      34.961  19.014  24.420  1.00  0.00     0.293 HD
ENDBRANCH  13  28
ENDBRANCH   6   8
ENDBRANCH   5   6
ENDBRANCH   4   5
ENDBRANCH   3   4
ENDBRANCH   2   3
ENDBRANCH   1   2
BRANCH   1  30
ATOM     30  C   UNL A   1      41.096  20.750  26.554  1.00  0.00     0.188 C 
BRANCH  30  31
ATOM     31  O   UNL A   1      42.051  21.186  25.619  1.00  0.00    -0.376 OA
BRANCH  31  32
ATOM     32  C   UNL A   1      43.106  22.044  26.017  1.00  0.00     0.202 C 
BRANCH  32  33
ATOM     33  C   UNL A   1      43.282  23.527  25.628  1.00  0.00     0.261 C 
BRANCH  33  34
ATOM     34  O   UNL A   1      43.032  24.532  26.611  1.00  0.00    -0.460 OA
BRANCH  34  35
ATOM     35  C   UNL A   1      42.696  25.755  26.127  1.00  0.00     0.338 C 
ATOM     36  O   UNL A   1      42.645  26.095  24.958  1.00  0.00    -0.246 OA
BRANCH  35  37
ATOM     37  C   UNL A   1      42.225  26.594  27.245  1.00  0.00     0.060 A 
ATOM     38  C   UNL A   1      42.756  27.882  27.394  1.00  0.00     0.016 A 
ATOM     39  C   UNL A   1      41.293  26.099  28.157  1.00  0.00     0.016 A 
ATOM     40  C   UNL A   1      42.367  28.676  28.474  1.00  0.00     0.010 A 
ATOM     41  C   UNL A   1      40.922  26.888  29.250  1.00  0.00     0.010 A 
ATOM     42  C   UNL A   1      41.476  28.169  29.429  1.00  0.00    -0.014 A 
BRANCH  42  43
ATOM     43  C   UNL A   1      41.243  28.907  30.696  1.00  0.00     0.031 A 
ATOM     44  C   UNL A   1      40.127  29.915  30.749  1.00  0.00     0.074 A 
ATOM     45  C   UNL A   1      42.008  28.687  31.781  1.00  0.00     0.049 A 
ATOM     46  N   UNL A   1      39.789  30.729  31.714  1.00  0.00    -0.248 NA
ATOM     47  C   UNL A   1      39.283  30.020  29.548  1.00  0.00     0.031 C 
ATOM     48  C   UNL A   1      43.091  27.709  31.868  1.00  0.00     0.029 A 
ATOM     49  N   UNL A   1      41.997  29.288  33.016  1.00  0.00    -0.354 N 
ATOM     50  C   UNL A   1      38.700  31.451  31.235  1.00  0.00     0.074 A 
ATOM     51  C   UNL A   1      38.454  30.997  29.884  1.00  0.00     0.031 C 
ATOM     52  C   UNL A   1      43.654  27.790  33.087  1.00  0.00     0.029 A 
ATOM     53  C   UNL A   1      42.996  28.849  33.852  1.00  0.00     0.049 A 
ATOM     54  H   UNL A   1      41.337  29.971  33.276  1.00  0.00     0.167 HD
ATOM     55  C   UNL A   1      37.969  32.398  31.868  1.00  0.00     0.037 A 
ATOM     56  C   UNL A   1      43.354  29.272  35.082  1.00  0.00     0.037 A 
ATOM     57  C   UNL A   1      38.222  32.847  33.214  1.00  0.00     0.049 A 
ATOM     58  C   UNL A   1      42.571  30.381  35.739  1.00  0.00     0.074 A 
ATOM     59  C   UNL A   1      37.526  33.789  33.950  1.00  0.00     0.029 A 
ATOM     60  N   UNL A   1      39.255  32.393  34.021  1.00  0.00    -0.354 N 
ATOM     61  N   UNL A   1      41.530  31.039  35.287  1.00  0.00    -0.248 NA
ATOM     62  C   UNL A   1      43.009  30.803  37.078  1.00  0.00     0.031 C 
ATOM     63  C   UNL A   1      38.173  33.949  35.180  1.00  0.00     0.029 A 
ATOM     64  C   UNL A   1      39.233  33.057  35.237  1.00  0.00     0.049 A 
ATOM     65  H   UNL A   1      39.908  31.701  33.767  1.00  0.00     0.167 HD
ATOM     66  C   UNL A   1      41.169  31.927  36.298  1.00  0.00     0.074 A 
ATOM     67  C   UNL A   1      42.098  31.716  37.387  1.00  0.00     0.031 C 
ATOM     68  C   UNL A   1      40.157  32.831  36.321  1.00  0.00     0.037 A 
BRANCH  55  69
ATOM     69  C   UNL A   1      36.843  33.038  31.102  1.00  0.00     0.058 A 
ATOM     70  C   UNL A   1      37.078  33.910  30.027  1.00  0.00     0.135 A 
ATOM     71  C   UNL A   1      35.507  32.746  31.426  1.00  0.00     0.135 A 
ATOM     72  F   UNL A   1      38.334  34.240  29.684  1.00  0.00    -0.206 F 
ATOM     73  C   UNL A   1      36.030  34.490  29.317  1.00  0.00     0.059 A 
ATOM     74  C   UNL A   1      34.445  33.290  30.711  1.00  0.00     0.059 A 
ATOM     75  F   UNL A   1      35.224  31.921  32.446  1.00  0.00    -0.206 F 
ATOM     76  C   UNL A   1      34.717  34.172  29.666  1.00  0.00     0.060 A 
BRANCH  76  77
ATOM     77  S   UNL A   1      33.370  34.926  28.731  1.00  0.00     0.124 S 
ATOM     78  O   UNL A   1      32.349  35.082  29.763  1.00  0.00    -0.237 OA
ATOM     79  O   UNL A   1      33.979  36.162  28.251  1.00  0.00    -0.237 OA
ATOM     80  O   UNL A   1      33.073  33.935  27.701  1.00  0.00    -0.744 OA
ENDBRANCH  76  77
ENDBRANCH  55  69
BRANCH  56  81
ATOM     81  C   UNL A   1      44.520  28.654  35.771  1.00  0.00     0.058 A 
ATOM     82  C   UNL A   1      45.816  29.167  35.607  1.00  0.00     0.135 A 
ATOM     83  C   UNL A   1      44.365  27.533  36.600  1.00  0.00     0.135 A 
ATOM     84  F   UNL A   1      46.022  30.229  34.812  1.00  0.00    -0.206 F 
ATOM     85  C   UNL A   1      46.916  28.583  36.227  1.00  0.00     0.059 A 
ATOM     86  C   UNL A   1      45.445  26.948  37.255  1.00  0.00     0.059 A 
ATOM     87  F   UNL A   1      43.146  27.004  36.796  1.00  0.00    -0.206 F 
ATOM     88  C   UNL A   1      46.719  27.476  37.054  1.00  0.00     0.060 A 
BRANCH  88  89
ATOM     89  S   UNL A   1      48.148  26.755  37.890  1.00  0.00     0.124 S 
ATOM     90  O   UNL A   1      48.002  25.342  37.559  1.00  0.00    -0.237 OA
ATOM     91  O   UNL A   1      49.260  27.449  37.248  1.00  0.00    -0.237 OA
ATOM     92  O   UNL A   1      47.929  27.100  39.291  1.00  0.00    -0.744 OA
ENDBRANCH  88  89
ENDBRANCH  56  81
BRANCH  68  93
ATOM     93  C   UNL A   1      39.962  33.632  37.582  1.00  0.00     0.058 A 
ATOM     94  C   UNL A   1      40.690  34.805  37.840  1.00  0.00     0.135 A 
ATOM     95  C   UNL A   1      38.986  33.251  38.518  1.00  0.00     0.135 A 
ATOM     96  F   UNL A   1      41.638  35.213  36.983  1.00  0.00    -0.206 F 
ATOM     97  C   UNL A   1      40.475  35.556  38.992  1.00  0.00     0.059 A 
ATOM     98  C   UNL A   1      38.732  34.004  39.661  1.00  0.00     0.059 A 
ATOM     99  F   UNL A   1      38.250  32.146  38.318  1.00  0.00    -0.206 F 
ATOM    100  C   UNL A   1      39.490  35.149  39.895  1.00  0.00     0.060 A 
BRANCH 100 101
ATOM    101  S   UNL A   1      39.197  36.154  41.367  1.00  0.00     0.124 S 
ATOM    102  O   UNL A   1      40.481  36.053  42.053  1.00  0.00    -0.237 OA
ATOM    103  O   UNL A   1      38.885  37.460  40.795  1.00  0.00    -0.237 OA
ATOM    104  O   UNL A   1      38.081  35.480  42.023  1.00  0.00    -0.744 OA
ENDBRANCH 100 101
ENDBRANCH  68  93
ENDBRANCH  42  43
ENDBRANCH  35  37
ENDBRANCH  34  35
ENDBRANCH  33  34
ENDBRANCH  32  33
ENDBRANCH  31  32
ENDBRANCH  30  31
ENDBRANCH   1  30
TORSDOF 25
ENDMDL
