MODEL 1
REMARK VINA RESULT:     -10.5      0.000      0.000
REMARK SMILES CC(C)COc1cccc(C(=O)Nc2ccc(O)c(C(=O)OCCOCCOCCOC(=O)c3ccc(-c4c5nc(c(-c6c(F)cc(S(=O)(=O)[O-])cc6F)c6ccc([nH]6)c(-c6c(F)cc(S(=O)(=O)[O-])cc6F)c6nc(c(-c7c(F)cc(S(=O)(=O)[O-])cc7F)c7ccc4[nH]7)C=C6)C=C5)cc3)c2)c1
REMARK SMILES IDX 26 1 25 2 24 3 23 4 22 5 20 6 21 7 19 8 14 9 15 10 100 11
REMARK SMILES IDX 16 12 17 13 13 14 11 15 12 16 10 18 6 19 7 20 101 21 8 22
REMARK SMILES IDX 9 23 5 24 4 25 2 26 1 27 3 28 18 29 27 31 28 32 29 33 30 34
REMARK SMILES IDX 31 35 32 36 33 37 34 38 35 39 99 40 36 41 98 42 37 43 38 44
REMARK SMILES IDX 39 45 92 46 40 47 97 48 91 49 93 50 41 51 96 52 90 53 89 54
REMARK SMILES IDX 42 56 76 57 55 58 75 59 56 60 59 61 74 62 94 63 57 64 58 65
REMARK SMILES IDX 73 67 95 68 60 69 43 70 44 71 53 72 45 73 46 74 52 75 54 76
REMARK SMILES IDX 47 77 48 78 49 79 50 80 51 81 77 82 78 83 87 84 79 85 80 86
REMARK SMILES IDX 86 87 88 88 81 89 82 90 83 91 84 92 85 93 61 94 62 95 71 96
REMARK SMILES IDX 63 97 64 98 70 99 72 100 65 101 66 102 67 103 68 104 69 105
REMARK H PARENT 13 17 18 30 93 55 59 66
REMARK Flexibility Score: inf
ROOT
ATOM      1  C   UNL A   1      39.827  20.159  25.752  1.00  0.00     0.188 C 
ENDROOT
BRANCH   1   2
ATOM      2  O   UNL A   1      39.382  21.482  25.992  1.00  0.00    -0.376 OA
BRANCH   2   3
ATOM      3  C   UNL A   1      38.190  21.977  25.400  1.00  0.00     0.202 C 
BRANCH   3   4
ATOM      4  C   UNL A   1      37.434  23.183  25.969  1.00  0.00     0.261 C 
BRANCH   4   5
ATOM      5  O   UNL A   1      36.211  23.471  25.285  1.00  0.00    -0.460 OA
BRANCH   5   6
ATOM      6  C   UNL A   1      35.185  22.636  25.562  1.00  0.00     0.342 C 
ATOM      7  O   UNL A   1      35.121  21.820  26.477  1.00  0.00    -0.246 OA
BRANCH   6   8
ATOM      8  C   UNL A   1      34.006  22.943  24.726  1.00  0.00     0.103 A 
ATOM      9  C   UNL A   1      31.705  23.633  24.624  1.00  0.00     0.042 A 
ATOM     10  C   UNL A   1      31.862  23.941  23.266  1.00  0.00     0.030 A 
ATOM     11  C   UNL A   1      32.730  22.973  25.295  1.00  0.00     0.045 A 
ATOM     12  C   UNL A   1      33.096  23.738  22.635  1.00  0.00     0.049 A 
ATOM     13  C   UNL A   1      34.180  23.291  23.382  1.00  0.00     0.130 A 
BRANCH   9  14
ATOM     14  N   UNL A   1      30.574  24.128  25.304  1.00  0.00    -0.322 N 
ATOM     15  C   UNL A   1      30.250  25.412  25.745  1.00  0.00     0.255 C 
ATOM     16  O   UNL A   1      29.291  25.546  26.508  1.00  0.00    -0.269 OA
ATOM     17  H   UNL A   1      29.891  23.448  25.505  1.00  0.00     0.170 HD
BRANCH  15  18
ATOM     18  C   UNL A   1      30.929  26.658  25.252  1.00  0.00     0.043 A 
ATOM     19  C   UNL A   1      31.033  28.513  23.653  1.00  0.00     0.120 A 
ATOM     20  C   UNL A   1      32.233  28.928  24.216  1.00  0.00     0.046 A 
ATOM     21  C   UNL A   1      30.392  27.420  24.216  1.00  0.00     0.060 A 
ATOM     22  C   UNL A   1      32.741  28.265  25.343  1.00  0.00     0.005 A 
ATOM     23  C   UNL A   1      32.098  27.125  25.852  1.00  0.00     0.014 A 
BRANCH  19  24
ATOM     24  O   UNL A   1      30.656  29.015  22.442  1.00  0.00    -0.493 OA
BRANCH  24  25
ATOM     25  C   UNL A   1      29.282  29.387  22.198  1.00  0.00     0.232 C 
BRANCH  25  26
ATOM     26  C   UNL A   1      28.875  30.857  22.446  1.00  0.00     0.020 C 
ATOM     27  C   UNL A   1      28.402  31.565  21.169  1.00  0.00     0.011 C 
ATOM     28  C   UNL A   1      27.779  31.007  23.503  1.00  0.00     0.011 C 
ENDBRANCH  25  26
ENDBRANCH  24  25
ENDBRANCH  19  24
ENDBRANCH  15  18
ENDBRANCH   9  14
BRANCH  13  29
ATOM     29  O   UNL A   1      35.393  23.247  22.751  1.00  0.00    -0.507 OA
ATOM     30  H   UNL A   1      35.456  22.904  21.881  1.00  0.00     0.293 HD
ENDBRANCH  13  29
ENDBRANCH   6   8
ENDBRANCH   5   6
ENDBRANCH   4   5
ENDBRANCH   3   4
ENDBRANCH   2   3
ENDBRANCH   1   2
BRANCH   1  31
ATOM     31  C   UNL A   1      41.213  19.706  26.250  1.00  0.00     0.188 C 
BRANCH  31  32
ATOM     32  O   UNL A   1      42.267  19.532  25.339  1.00  0.00    -0.376 OA
BRANCH  32  33
ATOM     33  C   UNL A   1      43.354  20.437  25.397  1.00  0.00     0.202 C 
BRANCH  33  34
ATOM     34  C   UNL A   1      43.334  21.772  26.179  1.00  0.00     0.261 C 
BRANCH  34  35
ATOM     35  O   UNL A   1      42.466  22.823  25.720  1.00  0.00    -0.460 OA
BRANCH  35  36
ATOM     36  C   UNL A   1      43.058  24.036  25.535  1.00  0.00     0.338 C 
ATOM     37  O   UNL A   1      43.816  24.341  24.630  1.00  0.00    -0.246 OA
BRANCH  36  38
ATOM     38  C   UNL A   1      42.467  25.043  26.455  1.00  0.00     0.060 A 
ATOM     39  C   UNL A   1      43.028  26.330  26.494  1.00  0.00     0.016 A 
ATOM     40  C   UNL A   1      41.416  24.716  27.310  1.00  0.00     0.016 A 
ATOM     41  C   UNL A   1      42.576  27.275  27.418  1.00  0.00     0.010 A 
ATOM     42  C   UNL A   1      40.982  25.658  28.257  1.00  0.00     0.010 A 
ATOM     43  C   UNL A   1      41.589  26.926  28.347  1.00  0.00    -0.014 A 
BRANCH  43  44
ATOM     44  C   UNL A   1      41.354  27.801  29.529  1.00  0.00     0.031 A 
ATOM     45  C   UNL A   1      42.247  27.636  30.735  1.00  0.00     0.074 A 
ATOM     46  C   UNL A   1      40.406  28.757  29.530  1.00  0.00     0.049 A 
ATOM     47  N   UNL A   1      42.232  28.272  31.879  1.00  0.00    -0.248 NA
ATOM     48  C   UNL A   1      43.302  26.614  30.634  1.00  0.00     0.031 C 
ATOM     49  C   UNL A   1      39.503  29.056  28.420  1.00  0.00     0.029 A 
ATOM     50  N   UNL A   1      40.043  29.653  30.508  1.00  0.00    -0.354 N 
ATOM     51  C   UNL A   1      43.265  27.726  32.633  1.00  0.00     0.074 A 
ATOM     52  C   UNL A   1      43.864  26.680  31.831  1.00  0.00     0.031 C 
ATOM     53  C   UNL A   1      38.683  30.059  28.784  1.00  0.00     0.029 A 
ATOM     54  C   UNL A   1      38.984  30.457  30.159  1.00  0.00     0.049 A 
ATOM     55  H   UNL A   1      40.501  29.714  31.378  1.00  0.00     0.167 HD
ATOM     56  C   UNL A   1      43.689  28.069  33.873  1.00  0.00     0.037 A 
ATOM     57  C   UNL A   1      38.324  31.394  30.870  1.00  0.00     0.037 A 
ATOM     58  C   UNL A   1      43.094  29.108  34.674  1.00  0.00     0.049 A 
ATOM     59  C   UNL A   1      38.772  31.716  32.275  1.00  0.00     0.074 A 
ATOM     60  C   UNL A   1      43.463  29.538  35.938  1.00  0.00     0.029 A 
ATOM     61  N   UNL A   1      42.003  29.877  34.297  1.00  0.00    -0.354 N 
ATOM     62  N   UNL A   1      39.765  31.207  32.966  1.00  0.00    -0.248 NA
ATOM     63  C   UNL A   1      38.014  32.749  32.995  1.00  0.00     0.031 C 
ATOM     64  C   UNL A   1      42.561  30.526  36.347  1.00  0.00     0.029 A 
ATOM     65  C   UNL A   1      41.669  30.759  35.312  1.00  0.00     0.049 A 
ATOM     66  H   UNL A   1      41.534  29.806  33.434  1.00  0.00     0.167 HD
ATOM     67  C   UNL A   1      39.771  31.881  34.185  1.00  0.00     0.074 A 
ATOM     68  C   UNL A   1      38.693  32.846  34.129  1.00  0.00     0.031 C 
ATOM     69  C   UNL A   1      40.594  31.719  35.251  1.00  0.00     0.037 A 
BRANCH  56  70
ATOM     70  C   UNL A   1      44.842  27.294  34.456  1.00  0.00     0.058 A 
ATOM     71  C   UNL A   1      46.177  27.660  34.221  1.00  0.00     0.135 A 
ATOM     72  C   UNL A   1      44.605  26.193  35.297  1.00  0.00     0.135 A 
ATOM     73  F   UNL A   1      46.463  28.692  33.411  1.00  0.00    -0.206 F 
ATOM     74  C   UNL A   1      47.236  26.947  34.774  1.00  0.00     0.059 A 
ATOM     75  C   UNL A   1      45.648  25.485  35.888  1.00  0.00     0.059 A 
ATOM     76  F   UNL A   1      43.350  25.797  35.556  1.00  0.00    -0.206 F 
ATOM     77  C   UNL A   1      46.962  25.862  35.609  1.00  0.00     0.060 A 
BRANCH  77  78
ATOM     78  S   UNL A   1      48.347  24.958  36.332  1.00  0.00     0.124 S 
ATOM     79  O   UNL A   1      47.711  24.320  37.481  1.00  0.00    -0.237 OA
ATOM     80  O   UNL A   1      48.735  24.065  35.245  1.00  0.00    -0.237 OA
ATOM     81  O   UNL A   1      49.310  26.007  36.652  1.00  0.00    -0.744 OA
ENDBRANCH  77  78
ENDBRANCH  56  70
BRANCH  57  82
ATOM     82  C   UNL A   1      37.159  32.107  30.271  1.00  0.00     0.058 A 
ATOM     83  C   UNL A   1      35.842  31.700  30.534  1.00  0.00     0.135 A 
ATOM     84  C   UNL A   1      37.342  33.195  29.404  1.00  0.00     0.135 A 
ATOM     85  F   UNL A   1      35.612  30.653  31.341  1.00  0.00    -0.206 F 
ATOM     86  C   UNL A   1      34.751  32.333  29.945  1.00  0.00     0.059 A 
ATOM     87  C   UNL A   1      36.266  33.864  28.829  1.00  0.00     0.059 A 
ATOM     88  F   UNL A   1      38.581  33.629  29.121  1.00  0.00    -0.206 F 
ATOM     89  C   UNL A   1      34.973  33.418  29.097  1.00  0.00     0.060 A 
BRANCH  89  90
ATOM     90  S   UNL A   1      33.548  34.264  28.379  1.00  0.00     0.124 S 
ATOM     91  O   UNL A   1      34.190  35.318  27.603  1.00  0.00    -0.237 OA
ATOM     92  O   UNL A   1      32.916  33.198  27.608  1.00  0.00    -0.237 OA
ATOM     93  O   UNL A   1      32.796  34.710  29.549  1.00  0.00    -0.744 OA
ENDBRANCH  89  90
ENDBRANCH  57  82
BRANCH  69  94
ATOM     94  C   UNL A   1      40.390  32.634  36.433  1.00  0.00     0.058 A 
ATOM     95  C   UNL A   1      41.221  33.741  36.671  1.00  0.00     0.135 A 
ATOM     96  C   UNL A   1      39.334  32.409  37.333  1.00  0.00     0.135 A 
ATOM     97  F   UNL A   1      42.245  34.008  35.844  1.00  0.00    -0.206 F 
ATOM     98  C   UNL A   1      41.048  34.558  37.785  1.00  0.00     0.059 A 
ATOM     99  C   UNL A   1      39.120  33.234  38.434  1.00  0.00     0.059 A 
ATOM    100  F   UNL A   1      38.495  31.379  37.147  1.00  0.00    -0.206 F 
ATOM    101  C   UNL A   1      39.997  34.293  38.664  1.00  0.00     0.060 A 
BRANCH 101 102
ATOM    102  S   UNL A   1      39.790  35.351  40.113  1.00  0.00     0.124 S 
ATOM    103  O   UNL A   1      41.135  35.345  40.675  1.00  0.00    -0.237 OA
ATOM    104  O   UNL A   1      39.355  36.612  39.520  1.00  0.00    -0.237 OA
ATOM    105  O   UNL A   1      38.776  34.654  40.901  1.00  0.00    -0.744 OA
ENDBRANCH 101 102
ENDBRANCH  69  94
ENDBRANCH  43  44
ENDBRANCH  36  38
ENDBRANCH  35  36
ENDBRANCH  34  35
ENDBRANCH  33  34
ENDBRANCH  32  33
ENDBRANCH  31  32
ENDBRANCH   1  31
TORSDOF 26
ENDMDL
MODEL 2
REMARK VINA RESULT:     -10.0      1.559      2.429
REMARK SMILES CC(C)COc1cccc(C(=O)Nc2ccc(O)c(C(=O)OCCOCCOCCOC(=O)c3ccc(-c4c5nc(c(-c6c(F)cc(S(=O)(=O)[O-])cc6F)c6ccc([nH]6)c(-c6c(F)cc(S(=O)(=O)[O-])cc6F)c6nc(c(-c7c(F)cc(S(=O)(=O)[O-])cc7F)c7ccc4[nH]7)C=C6)C=C5)cc3)c2)c1
REMARK SMILES IDX 26 1 25 2 24 3 23 4 22 5 20 6 21 7 19 8 14 9 15 10 100 11
REMARK SMILES IDX 16 12 17 13 13 14 11 15 12 16 10 18 6 19 7 20 101 21 8 22
REMARK SMILES IDX 9 23 5 24 4 25 2 26 1 27 3 28 18 29 27 31 28 32 29 33 30 34
REMARK SMILES IDX 31 35 32 36 33 37 34 38 35 39 99 40 36 41 98 42 37 43 38 44
REMARK SMILES IDX 39 45 92 46 40 47 97 48 91 49 93 50 41 51 96 52 90 53 89 54
REMARK SMILES IDX 42 56 76 57 55 58 75 59 56 60 59 61 74 62 94 63 57 64 58 65
REMARK SMILES IDX 73 67 95 68 60 69 43 70 44 71 53 72 45 73 46 74 52 75 54 76
REMARK SMILES IDX 47 77 48 78 49 79 50 80 51 81 77 82 78 83 87 84 79 85 80 86
REMARK SMILES IDX 86 87 88 88 81 89 82 90 83 91 84 92 85 93 61 94 62 95 71 96
REMARK SMILES IDX 63 97 64 98 70 99 72 100 65 101 66 102 67 103 68 104 69 105
REMARK H PARENT 13 17 18 30 93 55 59 66
REMARK Flexibility Score: inf
ROOT
ATOM      1  C   UNL A   1      40.548  20.656  26.342  1.00  0.00     0.188 C 
ENDROOT
BRANCH   1   2
ATOM      2  O   UNL A   1      39.629  21.596  26.869  1.00  0.00    -0.376 OA
BRANCH   2   3
ATOM      3  C   UNL A   1      38.696  22.262  26.030  1.00  0.00     0.202 C 
BRANCH   3   4
ATOM      4  C   UNL A   1      37.514  21.533  25.383  1.00  0.00     0.261 C 
BRANCH   4   5
ATOM      5  O   UNL A   1      36.250  21.844  25.976  1.00  0.00    -0.460 OA
BRANCH   5   6
ATOM      6  C   UNL A   1      35.731  23.043  25.630  1.00  0.00     0.342 C 
ATOM      7  O   UNL A   1      36.264  24.142  25.747  1.00  0.00    -0.246 OA
BRANCH   6   8
ATOM      8  C   UNL A   1      34.464  22.883  24.887  1.00  0.00     0.103 A 
ATOM      9  C   UNL A   1      32.061  22.971  24.915  1.00  0.00     0.042 A 
ATOM     10  C   UNL A   1      32.051  23.023  23.515  1.00  0.00     0.030 A 
ATOM     11  C   UNL A   1      33.259  22.725  25.578  1.00  0.00     0.045 A 
ATOM     12  C   UNL A   1      33.255  22.994  22.799  1.00  0.00     0.049 A 
ATOM     13  C   UNL A   1      34.461  22.980  23.491  1.00  0.00     0.130 A 
BRANCH   9  14
ATOM     14  N   UNL A   1      30.885  23.311  25.613  1.00  0.00    -0.322 N 
ATOM     15  C   UNL A   1      30.428  24.531  26.113  1.00  0.00     0.255 C 
ATOM     16  O   UNL A   1      29.461  24.527  26.878  1.00  0.00    -0.269 OA
ATOM     17  H   UNL A   1      30.278  22.554  25.779  1.00  0.00     0.170 HD
BRANCH  15  18
ATOM     18  C   UNL A   1      30.971  25.864  25.681  1.00  0.00     0.043 A 
ATOM     19  C   UNL A   1      31.174  27.606  23.969  1.00  0.00     0.120 A 
ATOM     20  C   UNL A   1      32.061  28.299  24.782  1.00  0.00     0.046 A 
ATOM     21  C   UNL A   1      30.617  26.434  24.460  1.00  0.00     0.060 A 
ATOM     22  C   UNL A   1      32.342  27.823  26.072  1.00  0.00     0.005 A 
ATOM     23  C   UNL A   1      31.809  26.603  26.516  1.00  0.00     0.014 A 
BRANCH  19  24
ATOM     24  O   UNL A   1      31.071  27.947  22.652  1.00  0.00    -0.493 OA
BRANCH  24  25
ATOM     25  C   UNL A   1      30.148  28.975  22.230  1.00  0.00     0.232 C 
BRANCH  25  26
ATOM     26  C   UNL A   1      29.055  29.419  23.228  1.00  0.00     0.020 C 
ATOM     27  C   UNL A   1      29.116  30.919  23.545  1.00  0.00     0.011 C 
ATOM     28  C   UNL A   1      27.638  29.094  22.749  1.00  0.00     0.011 C 
ENDBRANCH  25  26
ENDBRANCH  24  25
ENDBRANCH  19  24
ENDBRANCH  15  18
ENDBRANCH   9  14
BRANCH  13  29
ATOM     29  O   UNL A   1      35.604  23.097  22.749  1.00  0.00    -0.507 OA
ATOM     30  H   UNL A   1      35.667  23.756  22.086  1.00  0.00     0.293 HD
ENDBRANCH  13  29
ENDBRANCH   6   8
ENDBRANCH   5   6
ENDBRANCH   4   5
ENDBRANCH   3   4
ENDBRANCH   2   3
ENDBRANCH   1   2
BRANCH   1  31
ATOM     31  C   UNL A   1      42.059  20.967  26.342  1.00  0.00     0.188 C 
BRANCH  31  32
ATOM     32  O   UNL A   1      42.631  21.676  25.275  1.00  0.00    -0.376 OA
BRANCH  32  33
ATOM     33  C   UNL A   1      42.874  23.060  25.448  1.00  0.00     0.202 C 
BRANCH  33  34
ATOM     34  C   UNL A   1      42.544  23.846  26.739  1.00  0.00     0.261 C 
BRANCH  34  35
ATOM     35  O   UNL A   1      41.233  24.423  26.874  1.00  0.00    -0.460 OA
BRANCH  35  36
ATOM     36  C   UNL A   1      41.089  25.680  26.368  1.00  0.00     0.338 C 
ATOM     37  O   UNL A   1      41.104  25.990  25.188  1.00  0.00    -0.246 OA
BRANCH  36  38
ATOM     38  C   UNL A   1      40.658  26.619  27.435  1.00  0.00     0.060 A 
ATOM     39  C   UNL A   1      41.155  27.933  27.416  1.00  0.00     0.016 A 
ATOM     40  C   UNL A   1      39.826  26.205  28.474  1.00  0.00     0.016 A 
ATOM     41  C   UNL A   1      40.863  28.818  28.457  1.00  0.00     0.010 A 
ATOM     42  C   UNL A   1      39.557  27.087  29.533  1.00  0.00     0.010 A 
ATOM     43  C   UNL A   1      40.110  28.383  29.553  1.00  0.00    -0.014 A 
BRANCH  43  44
ATOM     44  C   UNL A   1      40.087  29.201  30.797  1.00  0.00     0.031 A 
ATOM     45  C   UNL A   1      41.131  28.932  31.854  1.00  0.00     0.074 A 
ATOM     46  C   UNL A   1      39.198  30.196  30.979  1.00  0.00     0.049 A 
ATOM     47  N   UNL A   1      41.308  29.505  33.018  1.00  0.00    -0.248 NA
ATOM     48  C   UNL A   1      42.109  27.872  31.555  1.00  0.00     0.031 C 
ATOM     49  C   UNL A   1      38.165  30.594  30.025  1.00  0.00     0.029 A 
ATOM     50  N   UNL A   1      39.022  31.052  32.041  1.00  0.00    -0.354 N 
ATOM     51  C   UNL A   1      42.408  28.874  33.589  1.00  0.00     0.074 A 
ATOM     52  C   UNL A   1      42.836  27.849  32.661  1.00  0.00     0.031 C 
ATOM     53  C   UNL A   1      37.456  31.610  30.550  1.00  0.00     0.029 A 
ATOM     54  C   UNL A   1      37.966  31.919  31.885  1.00  0.00     0.049 A 
ATOM     55  H   UNL A   1      39.600  31.046  32.838  1.00  0.00     0.167 HD
ATOM     56  C   UNL A   1      43.018  29.130  34.772  1.00  0.00     0.037 A 
ATOM     57  C   UNL A   1      37.460  32.844  32.727  1.00  0.00     0.037 A 
ATOM     58  C   UNL A   1      42.595  30.149  35.698  1.00  0.00     0.049 A 
ATOM     59  C   UNL A   1      38.117  33.068  34.068  1.00  0.00     0.074 A 
ATOM     60  C   UNL A   1      43.159  30.493  36.916  1.00  0.00     0.029 A 
ATOM     61  N   UNL A   1      41.502  30.984  35.518  1.00  0.00    -0.354 N 
ATOM     62  N   UNL A   1      39.170  32.480  34.585  1.00  0.00    -0.248 NA
ATOM     63  C   UNL A   1      37.520  34.093  34.938  1.00  0.00     0.031 C 
ATOM     64  C   UNL A   1      42.374  31.494  37.496  1.00  0.00     0.029 A 
ATOM     65  C   UNL A   1      41.359  31.823  36.611  1.00  0.00     0.049 A 
ATOM     66  H   UNL A   1      40.914  30.981  34.728  1.00  0.00     0.167 HD
ATOM     67  C   UNL A   1      39.380  33.086  35.822  1.00  0.00     0.074 A 
ATOM     68  C   UNL A   1      38.355  34.098  35.967  1.00  0.00     0.031 C 
ATOM     69  C   UNL A   1      40.336  32.830  36.751  1.00  0.00     0.037 A 
BRANCH  56  70
ATOM     70  C   UNL A   1      44.201  28.275  35.146  1.00  0.00     0.058 A 
ATOM     71  C   UNL A   1      44.056  27.088  35.882  1.00  0.00     0.135 A 
ATOM     72  C   UNL A   1      45.495  28.629  34.727  1.00  0.00     0.135 A 
ATOM     73  F   UNL A   1      42.846  26.710  36.325  1.00  0.00    -0.206 F 
ATOM     74  C   UNL A   1      45.153  26.297  36.212  1.00  0.00     0.059 A 
ATOM     75  C   UNL A   1      46.602  27.837  35.018  1.00  0.00     0.059 A 
ATOM     76  F   UNL A   1      45.694  29.754  34.023  1.00  0.00    -0.206 F 
ATOM     77  C   UNL A   1      46.421  26.678  35.773  1.00  0.00     0.060 A 
BRANCH  77  78
ATOM     78  S   UNL A   1      47.831  25.632  36.196  1.00  0.00     0.124 S 
ATOM     79  O   UNL A   1      48.224  25.127  34.884  1.00  0.00    -0.237 OA
ATOM     80  O   UNL A   1      48.751  26.585  36.810  1.00  0.00    -0.237 OA
ATOM     81  O   UNL A   1      47.261  24.642  37.103  1.00  0.00    -0.744 OA
ENDBRANCH  77  78
ENDBRANCH  56  70
BRANCH  57  82
ATOM     82  C   UNL A   1      36.260  33.637  32.336  1.00  0.00     0.058 A 
ATOM     83  C   UNL A   1      34.988  33.334  32.843  1.00  0.00     0.135 A 
ATOM     84  C   UNL A   1      36.361  34.701  31.426  1.00  0.00     0.135 A 
ATOM     85  F   UNL A   1      34.834  32.314  33.702  1.00  0.00    -0.206 F 
ATOM     86  C   UNL A   1      33.856  34.043  32.450  1.00  0.00     0.059 A 
ATOM     87  C   UNL A   1      35.249  35.445  31.042  1.00  0.00     0.059 A 
ATOM     88  F   UNL A   1      37.555  35.038  30.912  1.00  0.00    -0.206 F 
ATOM     89  C   UNL A   1      33.998  35.101  31.552  1.00  0.00     0.060 A 
BRANCH  89  90
ATOM     90  S   UNL A   1      32.530  36.046  31.088  1.00  0.00     0.124 S 
ATOM     91  O   UNL A   1      32.133  35.386  29.850  1.00  0.00    -0.237 OA
ATOM     92  O   UNL A   1      31.654  35.832  32.235  1.00  0.00    -0.237 OA
ATOM     93  O   UNL A   1      33.038  37.408  30.943  1.00  0.00    -0.744 OA
ENDBRANCH  89  90
ENDBRANCH  57  82
BRANCH  69  94
ATOM     94  C   UNL A   1      40.346  33.687  37.992  1.00  0.00     0.058 A 
ATOM     95  C   UNL A   1      39.546  33.392  39.108  1.00  0.00     0.135 A 
ATOM     96  C   UNL A   1      41.182  34.814  38.071  1.00  0.00     0.135 A 
ATOM     97  F   UNL A   1      38.728  32.327  39.092  1.00  0.00    -0.206 F 
ATOM     98  C   UNL A   1      39.535  34.211  40.235  1.00  0.00     0.059 A 
ATOM     99  C   UNL A   1      41.214  35.627  39.201  1.00  0.00     0.059 A 
ATOM    100  F   UNL A   1      41.983  35.135  37.043  1.00  0.00    -0.206 F 
ATOM    101  C   UNL A   1      40.369  35.330  40.269  1.00  0.00     0.060 A 
BRANCH 101 102
ATOM    102  S   UNL A   1      40.336  36.392  41.729  1.00  0.00     0.124 S 
ATOM    103  O   UNL A   1      38.954  36.858  41.722  1.00  0.00    -0.237 OA
ATOM    104  O   UNL A   1      40.686  35.463  42.799  1.00  0.00    -0.237 OA
ATOM    105  O   UNL A   1      41.343  37.407  41.434  1.00  0.00    -0.744 OA
ENDBRANCH 101 102
ENDBRANCH  69  94
ENDBRANCH  43  44
ENDBRANCH  36  38
ENDBRANCH  35  36
ENDBRANCH  34  35
ENDBRANCH  33  34
ENDBRANCH  32  33
ENDBRANCH  31  32
ENDBRANCH   1  31
TORSDOF 26
ENDMDL
MODEL 3
REMARK VINA RESULT:      -8.9      5.000     14.573
REMARK SMILES CC(C)COc1cccc(C(=O)Nc2ccc(O)c(C(=O)OCCOCCOCCOC(=O)c3ccc(-c4c5nc(c(-c6c(F)cc(S(=O)(=O)[O-])cc6F)c6ccc([nH]6)c(-c6c(F)cc(S(=O)(=O)[O-])cc6F)c6nc(c(-c7c(F)cc(S(=O)(=O)[O-])cc7F)c7ccc4[nH]7)C=C6)C=C5)cc3)c2)c1
REMARK SMILES IDX 26 1 25 2 24 3 23 4 22 5 20 6 21 7 19 8 14 9 15 10 100 11
REMARK SMILES IDX 16 12 17 13 13 14 11 15 12 16 10 18 6 19 7 20 101 21 8 22
REMARK SMILES IDX 9 23 5 24 4 25 2 26 1 27 3 28 18 29 27 31 28 32 29 33 30 34
REMARK SMILES IDX 31 35 32 36 33 37 34 38 35 39 99 40 36 41 98 42 37 43 38 44
REMARK SMILES IDX 39 45 92 46 40 47 97 48 91 49 93 50 41 51 96 52 90 53 89 54
REMARK SMILES IDX 42 56 76 57 55 58 75 59 56 60 59 61 74 62 94 63 57 64 58 65
REMARK SMILES IDX 73 67 95 68 60 69 43 70 44 71 53 72 45 73 46 74 52 75 54 76
REMARK SMILES IDX 47 77 48 78 49 79 50 80 51 81 77 82 78 83 87 84 79 85 80 86
REMARK SMILES IDX 86 87 88 88 81 89 82 90 83 91 84 92 85 93 61 94 62 95 71 96
REMARK SMILES IDX 63 97 64 98 70 99 72 100 65 101 66 102 67 103 68 104 69 105
REMARK H PARENT 13 17 18 30 93 55 59 66
REMARK Flexibility Score: inf
ROOT
ATOM      1  C   UNL A   1      45.928  22.659  38.351  1.00  0.00     0.188 C 
ENDROOT
BRANCH   1   2
ATOM      2  O   UNL A   1      46.586  22.244  37.168  1.00  0.00    -0.376 OA
BRANCH   2   3
ATOM      3  C   UNL A   1      46.039  21.231  36.338  1.00  0.00     0.202 C 
BRANCH   3   4
ATOM      4  C   UNL A   1      46.532  19.780  36.386  1.00  0.00     0.261 C 
BRANCH   4   5
ATOM      5  O   UNL A   1      46.878  19.333  37.700  1.00  0.00    -0.460 OA
BRANCH   5   6
ATOM      6  C   UNL A   1      45.985  18.500  38.279  1.00  0.00     0.342 C 
ATOM      7  O   UNL A   1      44.961  18.046  37.777  1.00  0.00    -0.246 OA
BRANCH   6   8
ATOM      8  C   UNL A   1      46.478  18.011  39.583  1.00  0.00     0.103 A 
ATOM      9  C   UNL A   1      48.240  17.999  41.220  1.00  0.00     0.042 A 
ATOM     10  C   UNL A   1      47.341  17.507  42.177  1.00  0.00     0.030 A 
ATOM     11  C   UNL A   1      47.840  18.079  39.890  1.00  0.00     0.045 A 
ATOM     12  C   UNL A   1      46.008  17.258  41.829  1.00  0.00     0.049 A 
ATOM     13  C   UNL A   1      45.567  17.563  40.547  1.00  0.00     0.130 A 
BRANCH   9  14
ATOM     14  N   UNL A   1      49.470  18.531  41.658  1.00  0.00    -0.322 N 
ATOM     15  C   UNL A   1      50.523  19.118  40.957  1.00  0.00     0.255 C 
ATOM     16  O   UNL A   1      51.588  19.309  41.549  1.00  0.00    -0.269 OA
ATOM     17  H   UNL A   1      49.611  18.478  42.631  1.00  0.00     0.170 HD
BRANCH  15  18
ATOM     18  C   UNL A   1      50.402  19.639  39.553  1.00  0.00     0.043 A 
ATOM     19  C   UNL A   1      50.929  19.423  37.168  1.00  0.00     0.120 A 
ATOM     20  C   UNL A   1      50.304  20.639  36.923  1.00  0.00     0.046 A 
ATOM     21  C   UNL A   1      50.918  18.935  38.466  1.00  0.00     0.060 A 
ATOM     22  C   UNL A   1      49.659  21.316  37.969  1.00  0.00     0.005 A 
ATOM     23  C   UNL A   1      49.718  20.824  39.282  1.00  0.00     0.014 A 
BRANCH  19  24
ATOM     24  O   UNL A   1      51.732  18.881  36.209  1.00  0.00    -0.493 OA
BRANCH  24  25
ATOM     25  C   UNL A   1      52.721  19.690  35.535  1.00  0.00     0.232 C 
BRANCH  25  26
ATOM     26  C   UNL A   1      52.786  19.617  33.993  1.00  0.00     0.020 C 
ATOM     27  C   UNL A   1      53.210  20.946  33.354  1.00  0.00     0.011 C 
ATOM     28  C   UNL A   1      53.729  18.525  33.484  1.00  0.00     0.011 C 
ENDBRANCH  25  26
ENDBRANCH  24  25
ENDBRANCH  19  24
ENDBRANCH  15  18
ENDBRANCH   9  14
BRANCH  13  29
ATOM     29  O   UNL A   1      44.227  17.434  40.303  1.00  0.00    -0.507 OA
ATOM     30  H   UNL A   1      43.760  16.693  40.634  1.00  0.00     0.293 HD
ENDBRANCH  13  29
ENDBRANCH   6   8
ENDBRANCH   5   6
ENDBRANCH   4   5
ENDBRANCH   3   4
ENDBRANCH   2   3
ENDBRANCH   1   2
BRANCH   1  31
ATOM     31  C   UNL A   1      46.745  23.166  39.556  1.00  0.00     0.188 C 
BRANCH  31  32
ATOM     32  O   UNL A   1      47.917  23.909  39.348  1.00  0.00    -0.376 OA
BRANCH  32  33
ATOM     33  C   UNL A   1      47.990  25.209  39.904  1.00  0.00     0.202 C 
BRANCH  33  34
ATOM     34  C   UNL A   1      47.840  26.514  39.087  1.00  0.00     0.261 C 
BRANCH  34  35
ATOM     35  O   UNL A   1      48.516  26.612  37.821  1.00  0.00    -0.460 OA
BRANCH  35  36
ATOM     36  C   UNL A   1      47.809  26.175  36.742  1.00  0.00     0.338 C 
ATOM     37  O   UNL A   1      47.923  25.091  36.194  1.00  0.00    -0.246 OA
BRANCH  36  38
ATOM     38  C   UNL A   1      46.686  27.103  36.450  1.00  0.00     0.060 A 
ATOM     39  C   UNL A   1      45.372  26.662  36.677  1.00  0.00     0.016 A 
ATOM     40  C   UNL A   1      46.911  28.367  35.907  1.00  0.00     0.016 A 
ATOM     41  C   UNL A   1      44.283  27.459  36.317  1.00  0.00     0.010 A 
ATOM     42  C   UNL A   1      45.815  29.154  35.519  1.00  0.00     0.010 A 
ATOM     43  C   UNL A   1      44.496  28.687  35.681  1.00  0.00    -0.014 A 
BRANCH  43  44
ATOM     44  C   UNL A   1      43.358  29.366  35.001  1.00  0.00     0.031 A 
ATOM     45  C   UNL A   1      42.986  28.924  33.606  1.00  0.00     0.074 A 
ATOM     46  C   UNL A   1      42.632  30.322  35.611  1.00  0.00     0.049 A 
ATOM     47  N   UNL A   1      42.044  29.368  32.813  1.00  0.00    -0.248 NA
ATOM     48  C   UNL A   1      43.786  27.830  33.031  1.00  0.00     0.031 C 
ATOM     49  C   UNL A   1      42.851  30.814  36.970  1.00  0.00     0.029 A 
ATOM     50  N   UNL A   1      41.559  31.053  35.158  1.00  0.00    -0.354 N 
ATOM     51  C   UNL A   1      42.142  28.616  31.647  1.00  0.00     0.074 A 
ATOM     52  C   UNL A   1      43.258  27.711  31.822  1.00  0.00     0.031 C 
ATOM     53  C   UNL A   1      41.948  31.775  37.235  1.00  0.00     0.029 A 
ATOM     54  C   UNL A   1      41.102  31.985  36.060  1.00  0.00     0.049 A 
ATOM     55  H   UNL A   1      41.155  30.922  34.269  1.00  0.00     0.167 HD
ATOM     56  C   UNL A   1      41.367  28.660  30.536  1.00  0.00     0.037 A 
ATOM     57  C   UNL A   1      40.125  32.908  35.947  1.00  0.00     0.037 A 
ATOM     58  C   UNL A   1      40.256  29.560  30.359  1.00  0.00     0.049 A 
ATOM     59  C   UNL A   1      39.316  32.984  34.674  1.00  0.00     0.074 A 
ATOM     60  C   UNL A   1      39.403  29.670  29.274  1.00  0.00     0.029 A 
ATOM     61  N   UNL A   1      39.845  30.509  31.283  1.00  0.00    -0.354 N 
ATOM     62  N   UNL A   1      39.405  32.250  33.590  1.00  0.00    -0.248 NA
ATOM     63  C   UNL A   1      38.264  34.009  34.615  1.00  0.00     0.031 C 
ATOM     64  C   UNL A   1      38.514  30.722  29.518  1.00  0.00     0.029 A 
ATOM     65  C   UNL A   1      38.770  31.225  30.784  1.00  0.00     0.049 A 
ATOM     66  H   UNL A   1      40.258  30.653  32.166  1.00  0.00     0.167 HD
ATOM     67  C   UNL A   1      38.401  32.703  32.737  1.00  0.00     0.074 A 
ATOM     68  C   UNL A   1      37.707  33.762  33.439  1.00  0.00     0.031 C 
ATOM     69  C   UNL A   1      38.082  32.279  31.488  1.00  0.00     0.037 A 
BRANCH  56  70
ATOM     70  C   UNL A   1      41.710  27.722  29.408  1.00  0.00     0.058 A 
ATOM     71  C   UNL A   1      40.892  26.629  29.078  1.00  0.00     0.135 A 
ATOM     72  C   UNL A   1      42.851  27.945  28.620  1.00  0.00     0.135 A 
ATOM     73  F   UNL A   1      39.798  26.356  29.807  1.00  0.00    -0.206 F 
ATOM     74  C   UNL A   1      41.208  25.775  28.025  1.00  0.00     0.059 A 
ATOM     75  C   UNL A   1      43.170  27.123  27.543  1.00  0.00     0.059 A 
ATOM     76  F   UNL A   1      43.670  28.973  28.891  1.00  0.00    -0.206 F 
ATOM     77  C   UNL A   1      42.348  26.032  27.262  1.00  0.00     0.060 A 
BRANCH  77  78
ATOM     78  S   UNL A   1      42.735  24.923  25.890  1.00  0.00     0.124 S 
ATOM     79  O   UNL A   1      42.141  25.636  24.763  1.00  0.00    -0.237 OA
ATOM     80  O   UNL A   1      44.194  24.889  25.921  1.00  0.00    -0.237 OA
ATOM     81  O   UNL A   1      42.074  23.677  26.261  1.00  0.00    -0.744 OA
ENDBRANCH  77  78
ENDBRANCH  56  70
BRANCH  57  82
ATOM     82  C   UNL A   1      39.848  33.848  37.071  1.00  0.00     0.058 A 
ATOM     83  C   UNL A   1      39.045  33.470  38.157  1.00  0.00     0.135 A 
ATOM     84  C   UNL A   1      40.364  35.154  37.066  1.00  0.00     0.135 A 
ATOM     85  F   UNL A   1      38.512  32.239  38.200  1.00  0.00    -0.206 F 
ATOM     86  C   UNL A   1      38.747  34.356  39.189  1.00  0.00     0.059 A 
ATOM     87  C   UNL A   1      40.106  36.048  38.102  1.00  0.00     0.059 A 
ATOM     88  F   UNL A   1      41.142  35.568  36.053  1.00  0.00    -0.206 F 
ATOM     89  C   UNL A   1      39.287  35.642  39.154  1.00  0.00     0.060 A 
BRANCH  89  90
ATOM     90  S   UNL A   1      38.935  36.766  40.524  1.00  0.00     0.124 S 
ATOM     91  O   UNL A   1      38.484  37.960  39.817  1.00  0.00    -0.237 OA
ATOM     92  O   UNL A   1      37.910  36.037  41.263  1.00  0.00    -0.237 OA
ATOM     93  O   UNL A   1      40.222  36.883  41.203  1.00  0.00    -0.744 OA
ENDBRANCH  89  90
ENDBRANCH  57  82
BRANCH  69  94
ATOM     94  C   UNL A   1      36.901  32.933  30.813  1.00  0.00     0.058 A 
ATOM     95  C   UNL A   1      37.050  34.024  29.941  1.00  0.00     0.135 A 
ATOM     96  C   UNL A   1      35.600  32.448  31.031  1.00  0.00     0.135 A 
ATOM     97  F   UNL A   1      38.269  34.529  29.693  1.00  0.00    -0.206 F 
ATOM     98  C   UNL A   1      35.951  34.643  29.352  1.00  0.00     0.059 A 
ATOM     99  C   UNL A   1      34.489  33.029  30.425  1.00  0.00     0.059 A 
ATOM    100  F   UNL A   1      35.396  31.396  31.839  1.00  0.00    -0.206 F 
ATOM    101  C   UNL A   1      34.673  34.141  29.605  1.00  0.00     0.060 A 
BRANCH 101 102
ATOM    102  S   UNL A   1      33.253  34.961  28.848  1.00  0.00     0.124 S 
ATOM    103  O   UNL A   1      32.399  35.198  30.005  1.00  0.00    -0.237 OA
ATOM    104  O   UNL A   1      33.859  36.148  28.252  1.00  0.00    -0.237 OA
ATOM    105  O   UNL A   1      32.758  33.972  27.894  1.00  0.00    -0.744 OA
ENDBRANCH 101 102
ENDBRANCH  69  94
ENDBRANCH  43  44
ENDBRANCH  36  38
ENDBRANCH  35  36
ENDBRANCH  34  35
ENDBRANCH  33  34
ENDBRANCH  32  33
ENDBRANCH  31  32
ENDBRANCH   1  31
TORSDOF 26
ENDMDL
