MODEL 1
REMARK VINA RESULT:     -11.0      0.000      0.000
REMARK SMILES O=C(OCCOCCOCCOC(=O)[C@H]1CCCCN1C(=O)c1cn2ccccc2n1)c1ccc(-c2c3nc(c(-c4c(F)cc(S(=O)(=O)[O-])cc4F)c4ccc([nH]4)c(-c4c(F)cc(S(=O)(=O)[O-])cc4F)c4nc(c(-c5c(F)cc(S(=O)(=O)[O-])cc5F)c5ccc2[nH]5)C=C4)C=C3)cc1
REMARK SMILES IDX 7 1 6 2 5 3 4 4 3 5 2 6 1 7 32 8 33 9 97 10 34 11 96 12
REMARK SMILES IDX 35 13 36 14 37 15 90 16 38 17 95 18 89 19 91 20 39 21 94 22
REMARK SMILES IDX 88 23 87 24 40 26 74 27 53 28 73 29 54 30 57 31 72 32 92 33
REMARK SMILES IDX 55 34 56 35 71 37 93 38 58 39 41 40 42 41 51 42 43 43 44 44
REMARK SMILES IDX 50 45 52 46 45 47 46 48 47 49 48 50 49 51 75 52 76 53 85 54
REMARK SMILES IDX 77 55 78 56 84 57 86 58 79 59 80 60 81 61 82 62 83 63 59 64
REMARK SMILES IDX 60 65 69 66 61 67 62 68 68 69 70 70 63 71 64 72 65 73 66 74
REMARK SMILES IDX 67 75 8 76 9 77 10 78 11 79 12 80 13 81 14 82 15 83 16 84
REMARK SMILES IDX 20 85 17 86 19 87 18 88 21 89 22 90 23 91 24 92 31 93 25 94
REMARK SMILES IDX 30 95 26 96 29 97 27 98 28 99
REMARK H PARENT 91 25 57 36
REMARK Flexibility Score: inf
ROOT
ATOM      1  C   UNL A   1      32.087  31.237  26.870  1.00  0.00     0.188 C 
ENDROOT
BRANCH   1   2
ATOM      2  O   UNL A   1      33.404  31.744  27.019  1.00  0.00    -0.376 OA
BRANCH   2   3
ATOM      3  C   UNL A   1      33.882  32.126  28.306  1.00  0.00     0.202 C 
BRANCH   3   4
ATOM      4  C   UNL A   1      35.275  31.705  28.799  1.00  0.00     0.261 C 
BRANCH   4   5
ATOM      5  O   UNL A   1      35.452  30.317  29.109  1.00  0.00    -0.460 OA
BRANCH   5   6
ATOM      6  C   UNL A   1      36.403  29.769  29.891  1.00  0.00     0.338 C 
ATOM      7  O   UNL A   1      36.178  29.544  31.078  1.00  0.00    -0.246 OA
BRANCH   6   8
ATOM      8  C   UNL A   1      37.728  29.415  29.352  1.00  0.00     0.060 A 
ATOM      9  C   UNL A   1      38.123  29.660  28.037  1.00  0.00     0.016 A 
ATOM     10  C   UNL A   1      38.687  29.040  30.283  1.00  0.00     0.016 A 
ATOM     11  C   UNL A   1      39.431  29.400  27.621  1.00  0.00     0.010 A 
ATOM     12  C   UNL A   1      40.025  28.971  29.900  1.00  0.00     0.010 A 
ATOM     13  C   UNL A   1      40.421  29.094  28.555  1.00  0.00    -0.014 A 
BRANCH  13  14
ATOM     14  C   UNL A   1      41.852  28.850  28.183  1.00  0.00     0.031 A 
ATOM     15  C   UNL A   1      42.237  27.474  27.687  1.00  0.00     0.074 A 
ATOM     16  C   UNL A   1      42.816  29.781  28.350  1.00  0.00     0.049 A 
ATOM     17  N   UNL A   1      43.409  26.902  27.627  1.00  0.00    -0.248 NA
ATOM     18  C   UNL A   1      41.126  26.584  27.304  1.00  0.00     0.031 C 
ATOM     19  C   UNL A   1      42.624  31.141  28.851  1.00  0.00     0.029 A 
ATOM     20  N   UNL A   1      44.172  29.716  28.127  1.00  0.00    -0.354 N 
ATOM     21  C   UNL A   1      43.153  25.569  27.320  1.00  0.00     0.074 A 
ATOM     22  C   UNL A   1      41.719  25.403  27.328  1.00  0.00     0.031 C 
ATOM     23  C   UNL A   1      43.799  31.789  28.875  1.00  0.00     0.029 A 
ATOM     24  C   UNL A   1      44.843  30.880  28.433  1.00  0.00     0.049 A 
ATOM     25  H   UNL A   1      44.621  28.911  27.780  1.00  0.00     0.167 HD
ATOM     26  C   UNL A   1      44.023  24.587  26.984  1.00  0.00     0.037 A 
ATOM     27  C   UNL A   1      46.156  31.177  28.370  1.00  0.00     0.037 A 
ATOM     28  C   UNL A   1      45.426  24.824  26.796  1.00  0.00     0.049 A 
ATOM     29  C   UNL A   1      47.103  30.109  27.896  1.00  0.00     0.074 A 
ATOM     30  C   UNL A   1      46.396  23.958  26.330  1.00  0.00     0.029 A 
ATOM     31  N   UNL A   1      46.046  26.049  27.013  1.00  0.00    -0.354 N 
ATOM     32  N   UNL A   1      46.849  28.857  27.594  1.00  0.00    -0.248 NA
ATOM     33  C   UNL A   1      48.510  30.495  27.733  1.00  0.00     0.031 C 
ATOM     34  C   UNL A   1      47.604  24.662  26.261  1.00  0.00     0.029 A 
ATOM     35  C   UNL A   1      47.380  25.971  26.662  1.00  0.00     0.049 A 
ATOM     36  H   UNL A   1      45.600  26.853  27.364  1.00  0.00     0.167 HD
ATOM     37  C   UNL A   1      48.051  28.320  27.154  1.00  0.00     0.074 A 
ATOM     38  C   UNL A   1      49.036  29.381  27.239  1.00  0.00     0.031 C 
ATOM     39  C   UNL A   1      48.318  27.065  26.714  1.00  0.00     0.037 A 
BRANCH  26  40
ATOM     40  C   UNL A   1      43.450  23.213  26.750  1.00  0.00     0.058 A 
ATOM     41  C   UNL A   1      43.030  22.392  27.812  1.00  0.00     0.135 A 
ATOM     42  C   UNL A   1      43.400  22.670  25.456  1.00  0.00     0.135 A 
ATOM     43  F   UNL A   1      43.059  22.852  29.074  1.00  0.00    -0.206 F 
ATOM     44  C   UNL A   1      42.688  21.059  27.616  1.00  0.00     0.059 A 
ATOM     45  C   UNL A   1      43.016  21.349  25.230  1.00  0.00     0.059 A 
ATOM     46  F   UNL A   1      43.768  23.407  24.396  1.00  0.00    -0.206 F 
ATOM     47  C   UNL A   1      42.705  20.540  26.322  1.00  0.00     0.060 A 
BRANCH  47  48
ATOM     48  S   UNL A   1      42.352  18.785  26.094  1.00  0.00     0.124 S 
ATOM     49  O   UNL A   1      42.617  18.262  27.430  1.00  0.00    -0.237 OA
ATOM     50  O   UNL A   1      40.952  18.794  25.685  1.00  0.00    -0.237 OA
ATOM     51  O   UNL A   1      43.302  18.382  25.060  1.00  0.00    -0.744 OA
ENDBRANCH  47  48
ENDBRANCH  26  40
BRANCH  27  52
ATOM     52  C   UNL A   1      46.633  32.556  28.673  1.00  0.00     0.058 A 
ATOM     53  C   UNL A   1      47.072  32.886  29.965  1.00  0.00     0.135 A 
ATOM     54  C   UNL A   1      46.689  33.560  27.695  1.00  0.00     0.135 A 
ATOM     55  F   UNL A   1      47.036  31.963  30.940  1.00  0.00    -0.206 F 
ATOM     56  C   UNL A   1      47.529  34.161  30.283  1.00  0.00     0.059 A 
ATOM     57  C   UNL A   1      47.166  34.840  27.982  1.00  0.00     0.059 A 
ATOM     58  F   UNL A   1      46.290  33.299  26.441  1.00  0.00    -0.206 F 
ATOM     59  C   UNL A   1      47.574  35.133  29.282  1.00  0.00     0.060 A 
BRANCH  59  60
ATOM     60  S   UNL A   1      48.201  36.775  29.708  1.00  0.00     0.124 S 
ATOM     61  O   UNL A   1      47.953  36.823  31.145  1.00  0.00    -0.237 OA
ATOM     62  O   UNL A   1      49.603  36.681  29.309  1.00  0.00    -0.237 OA
ATOM     63  O   UNL A   1      47.385  37.672  28.898  1.00  0.00    -0.744 OA
ENDBRANCH  59  60
ENDBRANCH  27  52
BRANCH  39  64
ATOM     64  C   UNL A   1      49.703  26.799  26.204  1.00  0.00     0.058 A 
ATOM     65  C   UNL A   1      50.740  26.397  27.056  1.00  0.00     0.135 A 
ATOM     66  C   UNL A   1      49.966  26.876  24.827  1.00  0.00     0.135 A 
ATOM     67  F   UNL A   1      50.535  26.317  28.380  1.00  0.00    -0.206 F 
ATOM     68  C   UNL A   1      52.000  26.087  26.560  1.00  0.00     0.059 A 
ATOM     69  C   UNL A   1      51.211  26.545  24.306  1.00  0.00     0.059 A 
ATOM     70  F   UNL A   1      48.999  27.248  23.972  1.00  0.00    -0.206 F 
ATOM     71  C   UNL A   1      52.223  26.157  25.182  1.00  0.00     0.060 A 
BRANCH  71  72
ATOM     72  S   UNL A   1      53.843  25.686  24.542  1.00  0.00     0.124 S 
ATOM     73  O   UNL A   1      53.791  26.223  23.187  1.00  0.00    -0.237 OA
ATOM     74  O   UNL A   1      54.752  26.367  25.460  1.00  0.00    -0.237 OA
ATOM     75  O   UNL A   1      53.838  24.231  24.644  1.00  0.00    -0.744 OA
ENDBRANCH  71  72
ENDBRANCH  39  64
ENDBRANCH  13  14
ENDBRANCH   6   8
ENDBRANCH   5   6
ENDBRANCH   4   5
ENDBRANCH   3   4
ENDBRANCH   2   3
ENDBRANCH   1   2
BRANCH   1  76
ATOM     76  C   UNL A   1      31.994  29.988  25.979  1.00  0.00     0.188 C 
BRANCH  76  77
ATOM     77  O   UNL A   1      33.171  29.502  25.359  1.00  0.00    -0.376 OA
BRANCH  77  78
ATOM     78  C   UNL A   1      33.006  28.761  24.158  1.00  0.00     0.202 C 
BRANCH  78  79
ATOM     79  C   UNL A   1      33.654  27.365  23.972  1.00  0.00     0.261 C 
BRANCH  79  80
ATOM     80  O   UNL A   1      32.822  26.236  23.608  1.00  0.00    -0.462 OA
BRANCH  80  81
ATOM     81  C   UNL A   1      33.495  25.235  22.970  1.00  0.00     0.328 C 
ATOM     82  O   UNL A   1      33.922  25.359  21.823  1.00  0.00    -0.250 OA
BRANCH  81  83
ATOM     83  C   UNL A   1      33.539  23.867  23.721  1.00  0.00     0.195 C 
ATOM     84  C   UNL A   1      34.546  22.962  22.975  1.00  0.00     0.037 C 
ATOM     85  N   UNL A   1      33.808  23.698  25.185  1.00  0.00    -0.323 N 
ATOM     86  C   UNL A   1      35.980  23.364  23.333  1.00  0.00     0.005 C 
ATOM     87  C   UNL A   1      35.142  24.107  25.597  1.00  0.00     0.121 C 
ATOM     88  C   UNL A   1      36.200  23.300  24.843  1.00  0.00     0.022 C 
BRANCH  85  89
ATOM     89  C   UNL A   1      33.118  22.621  25.815  1.00  0.00     0.274 C 
ATOM     90  O   UNL A   1      32.533  22.851  26.876  1.00  0.00    -0.267 OA
BRANCH  89  91
ATOM     91  C   UNL A   1      33.068  21.242  25.261  1.00  0.00     0.147 A 
ATOM     92  C   UNL A   1      32.162  20.600  24.433  1.00  0.00     0.127 A 
ATOM     93  N   UNL A   1      34.134  20.366  25.486  1.00  0.00    -0.223 NA
ATOM     94  N   UNL A   1      32.724  19.395  24.075  1.00  0.00    -0.306 N 
ATOM     95  C   UNL A   1      33.938  19.309  24.732  1.00  0.00     0.137 A 
ATOM     96  C   UNL A   1      32.270  18.441  23.162  1.00  0.00     0.093 A 
ATOM     97  C   UNL A   1      34.751  18.174  24.447  1.00  0.00     0.048 A 
ATOM     98  C   UNL A   1      33.052  17.387  22.871  1.00  0.00     0.018 A 
ATOM     99  C   UNL A   1      34.335  17.260  23.547  1.00  0.00     0.005 A 
ENDBRANCH  89  91
ENDBRANCH  85  89
ENDBRANCH  81  83
ENDBRANCH  80  81
ENDBRANCH  79  80
ENDBRANCH  78  79
ENDBRANCH  77  78
ENDBRANCH  76  77
ENDBRANCH   1  76
TORSDOF 22
ENDMDL
MODEL 2
REMARK VINA RESULT:     -10.8      5.001      9.419
REMARK SMILES O=C(OCCOCCOCCOC(=O)[C@H]1CCCCN1C(=O)c1cn2ccccc2n1)c1ccc(-c2c3nc(c(-c4c(F)cc(S(=O)(=O)[O-])cc4F)c4ccc([nH]4)c(-c4c(F)cc(S(=O)(=O)[O-])cc4F)c4nc(c(-c5c(F)cc(S(=O)(=O)[O-])cc5F)c5ccc2[nH]5)C=C4)C=C3)cc1
REMARK SMILES IDX 7 1 6 2 5 3 4 4 3 5 2 6 1 7 32 8 33 9 97 10 34 11 96 12
REMARK SMILES IDX 35 13 36 14 37 15 90 16 38 17 95 18 89 19 91 20 39 21 94 22
REMARK SMILES IDX 88 23 87 24 40 26 74 27 53 28 73 29 54 30 57 31 72 32 92 33
REMARK SMILES IDX 55 34 56 35 71 37 93 38 58 39 41 40 42 41 51 42 43 43 44 44
REMARK SMILES IDX 50 45 52 46 45 47 46 48 47 49 48 50 49 51 75 52 76 53 85 54
REMARK SMILES IDX 77 55 78 56 84 57 86 58 79 59 80 60 81 61 82 62 83 63 59 64
REMARK SMILES IDX 60 65 69 66 61 67 62 68 68 69 70 70 63 71 64 72 65 73 66 74
REMARK SMILES IDX 67 75 8 76 9 77 10 78 11 79 12 80 13 81 14 82 15 83 16 84
REMARK SMILES IDX 20 85 17 86 19 87 18 88 21 89 22 90 23 91 24 92 31 93 25 94
REMARK SMILES IDX 30 95 26 96 29 97 27 98 28 99
REMARK H PARENT 91 25 57 36
REMARK Flexibility Score: inf
ROOT
ATOM      1  C   UNL A   1      32.096  28.367  23.484  1.00  0.00     0.188 C 
ENDROOT
BRANCH   1   2
ATOM      2  O   UNL A   1      31.548  29.177  24.512  1.00  0.00    -0.376 OA
BRANCH   2   3
ATOM      3  C   UNL A   1      32.406  29.920  25.374  1.00  0.00     0.202 C 
BRANCH   3   4
ATOM      4  C   UNL A   1      33.080  29.267  26.590  1.00  0.00     0.261 C 
BRANCH   4   5
ATOM      5  O   UNL A   1      33.493  30.147  27.642  1.00  0.00    -0.460 OA
BRANCH   5   6
ATOM      6  C   UNL A   1      34.619  30.887  27.694  1.00  0.00     0.338 C 
ATOM      7  O   UNL A   1      34.598  32.073  27.378  1.00  0.00    -0.246 OA
BRANCH   6   8
ATOM      8  C   UNL A   1      35.898  30.305  28.139  1.00  0.00     0.060 A 
ATOM      9  C   UNL A   1      37.127  30.580  27.540  1.00  0.00     0.016 A 
ATOM     10  C   UNL A   1      35.878  29.642  29.359  1.00  0.00     0.016 A 
ATOM     11  C   UNL A   1      38.315  30.081  28.080  1.00  0.00     0.010 A 
ATOM     12  C   UNL A   1      37.081  29.319  29.984  1.00  0.00     0.010 A 
ATOM     13  C   UNL A   1      38.321  29.479  29.338  1.00  0.00    -0.014 A 
BRANCH  13  14
ATOM     14  C   UNL A   1      39.565  28.964  29.996  1.00  0.00     0.031 A 
ATOM     15  C   UNL A   1      40.017  29.618  31.283  1.00  0.00     0.074 A 
ATOM     16  C   UNL A   1      40.334  28.000  29.445  1.00  0.00     0.049 A 
ATOM     17  N   UNL A   1      41.188  29.613  31.860  1.00  0.00    -0.248 NA
ATOM     18  C   UNL A   1      39.033  30.487  31.954  1.00  0.00     0.031 C 
ATOM     19  C   UNL A   1      40.064  27.291  28.194  1.00  0.00     0.029 A 
ATOM     20  N   UNL A   1      41.523  27.453  29.866  1.00  0.00    -0.354 N 
ATOM     21  C   UNL A   1      41.103  30.561  32.874  1.00  0.00     0.074 A 
ATOM     22  C   UNL A   1      39.813  31.197  32.749  1.00  0.00     0.031 C 
ATOM     23  C   UNL A   1      41.034  26.394  27.960  1.00  0.00     0.029 A 
ATOM     24  C   UNL A   1      42.024  26.488  29.020  1.00  0.00     0.049 A 
ATOM     25  H   UNL A   1      41.976  27.727  30.697  1.00  0.00     0.167 HD
ATOM     26  C   UNL A   1      41.981  30.829  33.870  1.00  0.00     0.037 A 
ATOM     27  C   UNL A   1      43.159  25.765  29.089  1.00  0.00     0.037 A 
ATOM     28  C   UNL A   1      43.169  30.053  34.087  1.00  0.00     0.049 A 
ATOM     29  C   UNL A   1      44.078  25.997  30.256  1.00  0.00     0.074 A 
ATOM     30  C   UNL A   1      44.074  30.127  35.128  1.00  0.00     0.029 A 
ATOM     31  N   UNL A   1      43.580  29.011  33.264  1.00  0.00    -0.354 N 
ATOM     32  N   UNL A   1      43.981  26.885  31.217  1.00  0.00    -0.248 NA
ATOM     33  C   UNL A   1      45.250  25.118  30.362  1.00  0.00     0.031 C 
ATOM     34  C   UNL A   1      45.033  29.124  34.936  1.00  0.00     0.029 A 
ATOM     35  C   UNL A   1      44.710  28.414  33.789  1.00  0.00     0.049 A 
ATOM     36  H   UNL A   1      43.133  28.739  32.430  1.00  0.00     0.167 HD
ATOM     37  C   UNL A   1      45.047  26.638  32.072  1.00  0.00     0.074 A 
ATOM     38  C   UNL A   1      45.782  25.523  31.508  1.00  0.00     0.031 C 
ATOM     39  C   UNL A   1      45.385  27.272  33.223  1.00  0.00     0.037 A 
BRANCH  26  40
ATOM     40  C   UNL A   1      41.635  31.959  34.805  1.00  0.00     0.058 A 
ATOM     41  C   UNL A   1      40.705  31.802  35.848  1.00  0.00     0.135 A 
ATOM     42  C   UNL A   1      42.172  33.241  34.606  1.00  0.00     0.135 A 
ATOM     43  F   UNL A   1      40.151  30.601  36.086  1.00  0.00    -0.206 F 
ATOM     44  C   UNL A   1      40.239  32.887  36.583  1.00  0.00     0.059 A 
ATOM     45  C   UNL A   1      41.754  34.335  35.362  1.00  0.00     0.059 A 
ATOM     46  F   UNL A   1      43.080  33.454  33.640  1.00  0.00    -0.206 F 
ATOM     47  C   UNL A   1      40.756  34.155  36.317  1.00  0.00     0.060 A 
BRANCH  47  48
ATOM     48  S   UNL A   1      40.074  35.567  37.212  1.00  0.00     0.124 S 
ATOM     49  O   UNL A   1      41.235  36.010  37.977  1.00  0.00    -0.237 OA
ATOM     50  O   UNL A   1      39.653  36.453  36.132  1.00  0.00    -0.237 OA
ATOM     51  O   UNL A   1      38.991  34.978  37.995  1.00  0.00    -0.744 OA
ENDBRANCH  47  48
ENDBRANCH  26  40
BRANCH  27  52
ATOM     52  C   UNL A   1      43.437  24.701  28.082  1.00  0.00     0.058 A 
ATOM     53  C   UNL A   1      43.013  23.382  28.310  1.00  0.00     0.135 A 
ATOM     54  C   UNL A   1      44.099  24.968  26.875  1.00  0.00     0.135 A 
ATOM     55  F   UNL A   1      42.378  23.071  29.451  1.00  0.00    -0.206 F 
ATOM     56  C   UNL A   1      43.250  22.365  27.391  1.00  0.00     0.059 A 
ATOM     57  C   UNL A   1      44.328  23.971  25.926  1.00  0.00     0.059 A 
ATOM     58  F   UNL A   1      44.519  26.212  26.600  1.00  0.00    -0.206 F 
ATOM     59  C   UNL A   1      43.908  22.669  26.198  1.00  0.00     0.060 A 
BRANCH  59  60
ATOM     60  S   UNL A   1      44.178  21.339  25.003  1.00  0.00     0.124 S 
ATOM     61  O   UNL A   1      45.479  20.829  25.418  1.00  0.00    -0.237 OA
ATOM     62  O   UNL A   1      43.040  20.461  25.259  1.00  0.00    -0.237 OA
ATOM     63  O   UNL A   1      44.153  22.028  23.717  1.00  0.00    -0.744 OA
ENDBRANCH  59  60
ENDBRANCH  27  52
BRANCH  39  64
ATOM     64  C   UNL A   1      46.545  26.716  33.995  1.00  0.00     0.058 A 
ATOM     65  C   UNL A   1      46.379  25.710  34.956  1.00  0.00     0.135 A 
ATOM     66  C   UNL A   1      47.848  27.150  33.705  1.00  0.00     0.135 A 
ATOM     67  F   UNL A   1      45.150  25.270  35.271  1.00  0.00    -0.206 F 
ATOM     68  C   UNL A   1      47.469  25.156  35.614  1.00  0.00     0.059 A 
ATOM     69  C   UNL A   1      48.955  26.591  34.332  1.00  0.00     0.059 A 
ATOM     70  F   UNL A   1      48.055  28.105  32.784  1.00  0.00    -0.206 F 
ATOM     71  C   UNL A   1      48.754  25.599  35.290  1.00  0.00     0.060 A 
BRANCH  71  72
ATOM     72  S   UNL A   1      50.168  24.824  36.101  1.00  0.00     0.124 S 
ATOM     73  O   UNL A   1      49.924  23.411  35.830  1.00  0.00    -0.237 OA
ATOM     74  O   UNL A   1      51.298  25.420  35.395  1.00  0.00    -0.237 OA
ATOM     75  O   UNL A   1      50.024  25.232  37.494  1.00  0.00    -0.744 OA
ENDBRANCH  71  72
ENDBRANCH  39  64
ENDBRANCH  13  14
ENDBRANCH   6   8
ENDBRANCH   5   6
ENDBRANCH   4   5
ENDBRANCH   3   4
ENDBRANCH   2   3
ENDBRANCH   1   2
BRANCH   1  76
ATOM     76  C   UNL A   1      31.044  27.661  22.614  1.00  0.00     0.188 C 
BRANCH  76  77
ATOM     77  O   UNL A   1      29.675  27.816  22.938  1.00  0.00    -0.376 OA
BRANCH  77  78
ATOM     78  C   UNL A   1      29.040  26.724  23.589  1.00  0.00     0.202 C 
BRANCH  78  79
ATOM     79  C   UNL A   1      29.647  26.074  24.859  1.00  0.00     0.261 C 
BRANCH  79  80
ATOM     80  O   UNL A   1      30.661  25.048  24.718  1.00  0.00    -0.462 OA
BRANCH  80  81
ATOM     81  C   UNL A   1      31.495  24.943  25.792  1.00  0.00     0.328 C 
ATOM     82  O   UNL A   1      31.236  25.466  26.877  1.00  0.00    -0.250 OA
BRANCH  81  83
ATOM     83  C   UNL A   1      32.874  24.269  25.513  1.00  0.00     0.195 C 
ATOM     84  C   UNL A   1      33.213  23.384  26.735  1.00  0.00     0.037 C 
ATOM     85  N   UNL A   1      33.208  23.467  24.293  1.00  0.00    -0.323 N 
ATOM     86  C   UNL A   1      32.408  22.082  26.680  1.00  0.00     0.005 C 
ATOM     87  C   UNL A   1      32.441  22.238  24.159  1.00  0.00     0.121 C 
ATOM     88  C   UNL A   1      32.670  21.336  25.374  1.00  0.00     0.022 C 
BRANCH  85  89
ATOM     89  C   UNL A   1      34.556  23.571  23.839  1.00  0.00     0.274 C 
ATOM     90  O   UNL A   1      34.754  24.040  22.716  1.00  0.00    -0.267 OA
BRANCH  89  91
ATOM     91  C   UNL A   1      35.730  23.146  24.648  1.00  0.00     0.147 A 
ATOM     92  C   UNL A   1      36.431  21.955  24.722  1.00  0.00     0.127 A 
ATOM     93  N   UNL A   1      36.383  24.077  25.461  1.00  0.00    -0.223 NA
ATOM     94  N   UNL A   1      37.554  22.193  25.484  1.00  0.00    -0.306 N 
ATOM     95  C   UNL A   1      37.485  23.511  25.896  1.00  0.00     0.137 A 
ATOM     96  C   UNL A   1      38.638  21.354  25.751  1.00  0.00     0.093 A 
ATOM     97  C   UNL A   1      38.593  24.019  26.634  1.00  0.00     0.048 A 
ATOM     98  C   UNL A   1      39.696  21.844  26.421  1.00  0.00     0.018 A 
ATOM     99  C   UNL A   1      39.658  23.227  26.875  1.00  0.00     0.005 A 
ENDBRANCH  89  91
ENDBRANCH  85  89
ENDBRANCH  81  83
ENDBRANCH  80  81
ENDBRANCH  79  80
ENDBRANCH  78  79
ENDBRANCH  77  78
ENDBRANCH  76  77
ENDBRANCH   1  76
TORSDOF 22
ENDMDL
MODEL 3
REMARK VINA RESULT:     -10.7      1.463      8.581
REMARK SMILES O=C(OCCOCCOCCOC(=O)[C@H]1CCCCN1C(=O)c1cn2ccccc2n1)c1ccc(-c2c3nc(c(-c4c(F)cc(S(=O)(=O)[O-])cc4F)c4ccc([nH]4)c(-c4c(F)cc(S(=O)(=O)[O-])cc4F)c4nc(c(-c5c(F)cc(S(=O)(=O)[O-])cc5F)c5ccc2[nH]5)C=C4)C=C3)cc1
REMARK SMILES IDX 7 1 6 2 5 3 4 4 3 5 2 6 1 7 32 8 33 9 97 10 34 11 96 12
REMARK SMILES IDX 35 13 36 14 37 15 90 16 38 17 95 18 89 19 91 20 39 21 94 22
REMARK SMILES IDX 88 23 87 24 40 26 74 27 53 28 73 29 54 30 57 31 72 32 92 33
REMARK SMILES IDX 55 34 56 35 71 37 93 38 58 39 41 40 42 41 51 42 43 43 44 44
REMARK SMILES IDX 50 45 52 46 45 47 46 48 47 49 48 50 49 51 75 52 76 53 85 54
REMARK SMILES IDX 77 55 78 56 84 57 86 58 79 59 80 60 81 61 82 62 83 63 59 64
REMARK SMILES IDX 60 65 69 66 61 67 62 68 68 69 70 70 63 71 64 72 65 73 66 74
REMARK SMILES IDX 67 75 8 76 9 77 10 78 11 79 12 80 13 81 14 82 15 83 16 84
REMARK SMILES IDX 20 85 17 86 19 87 18 88 21 89 22 90 23 91 24 92 31 93 25 94
REMARK SMILES IDX 30 95 26 96 29 97 27 98 28 99
REMARK H PARENT 91 25 57 36
REMARK Flexibility Score: inf
ROOT
ATOM      1  C   UNL A   1      32.328  29.292  26.361  1.00  0.00     0.188 C 
ENDROOT
BRANCH   1   2
ATOM      2  O   UNL A   1      32.533  30.681  26.567  1.00  0.00    -0.376 OA
BRANCH   2   3
ATOM      3  C   UNL A   1      33.350  31.133  27.644  1.00  0.00     0.202 C 
BRANCH   3   4
ATOM      4  C   UNL A   1      34.785  30.619  27.829  1.00  0.00     0.261 C 
BRANCH   4   5
ATOM      5  O   UNL A   1      35.492  31.096  28.982  1.00  0.00    -0.460 OA
BRANCH   5   6
ATOM      6  C   UNL A   1      36.285  30.384  29.807  1.00  0.00     0.338 C 
ATOM      7  O   UNL A   1      35.950  30.184  30.971  1.00  0.00    -0.246 OA
BRANCH   6   8
ATOM      8  C   UNL A   1      37.564  29.818  29.340  1.00  0.00     0.060 A 
ATOM      9  C   UNL A   1      38.019  29.907  28.025  1.00  0.00     0.016 A 
ATOM     10  C   UNL A   1      38.442  29.393  30.328  1.00  0.00     0.016 A 
ATOM     11  C   UNL A   1      39.290  29.445  27.674  1.00  0.00     0.010 A 
ATOM     12  C   UNL A   1      39.767  29.119  29.997  1.00  0.00     0.010 A 
ATOM     13  C   UNL A   1      40.208  29.085  28.661  1.00  0.00    -0.014 A 
BRANCH  13  14
ATOM     14  C   UNL A   1      41.602  28.626  28.358  1.00  0.00     0.031 A 
ATOM     15  C   UNL A   1      42.713  29.652  28.381  1.00  0.00     0.074 A 
ATOM     16  C   UNL A   1      41.887  27.359  27.989  1.00  0.00     0.049 A 
ATOM     17  N   UNL A   1      43.903  29.613  27.845  1.00  0.00    -0.248 NA
ATOM     18  C   UNL A   1      42.393  30.946  29.010  1.00  0.00     0.031 C 
ATOM     19  C   UNL A   1      40.931  26.257  27.880  1.00  0.00     0.029 A 
ATOM     20  N   UNL A   1      43.078  26.780  27.618  1.00  0.00    -0.354 N 
ATOM     21  C   UNL A   1      44.407  30.903  27.971  1.00  0.00     0.074 A 
ATOM     22  C   UNL A   1      43.349  31.717  28.522  1.00  0.00     0.031 C 
ATOM     23  C   UNL A   1      41.567  25.138  27.498  1.00  0.00     0.029 A 
ATOM     24  C   UNL A   1      42.972  25.446  27.290  1.00  0.00     0.049 A 
ATOM     25  H   UNL A   1      43.929  27.276  27.590  1.00  0.00     0.167 HD
ATOM     26  C   UNL A   1      45.658  31.360  27.727  1.00  0.00     0.037 A 
ATOM     27  C   UNL A   1      43.904  24.572  26.862  1.00  0.00     0.037 A 
ATOM     28  C   UNL A   1      46.743  30.493  27.362  1.00  0.00     0.049 A 
ATOM     29  C   UNL A   1      45.315  25.065  26.693  1.00  0.00     0.074 A 
ATOM     30  C   UNL A   1      48.083  30.797  27.215  1.00  0.00     0.029 A 
ATOM     31  N   UNL A   1      46.610  29.127  27.146  1.00  0.00    -0.354 N 
ATOM     32  N   UNL A   1      45.784  26.283  26.830  1.00  0.00    -0.248 NA
ATOM     33  C   UNL A   1      46.328  24.065  26.333  1.00  0.00     0.031 C 
ATOM     34  C   UNL A   1      48.762  29.611  26.912  1.00  0.00     0.029 A 
ATOM     35  C   UNL A   1      47.848  28.567  26.895  1.00  0.00     0.049 A 
ATOM     36  H   UNL A   1      45.760  28.631  27.168  1.00  0.00     0.167 HD
ATOM     37  C   UNL A   1      47.154  26.188  26.625  1.00  0.00     0.074 A 
ATOM     38  C   UNL A   1      47.436  24.794  26.346  1.00  0.00     0.031 C 
ATOM     39  C   UNL A   1      48.095  27.163  26.671  1.00  0.00     0.037 A 
BRANCH  26  40
ATOM     40  C   UNL A   1      45.899  32.836  27.911  1.00  0.00     0.058 A 
ATOM     41  C   UNL A   1      46.194  33.389  29.170  1.00  0.00     0.135 A 
ATOM     42  C   UNL A   1      45.747  33.724  26.835  1.00  0.00     0.135 A 
ATOM     43  F   UNL A   1      46.345  32.592  30.241  1.00  0.00    -0.206 F 
ATOM     44  C   UNL A   1      46.220  34.764  29.377  1.00  0.00     0.059 A 
ATOM     45  C   UNL A   1      45.817  35.106  27.010  1.00  0.00     0.059 A 
ATOM     46  F   UNL A   1      45.485  33.259  25.602  1.00  0.00    -0.206 F 
ATOM     47  C   UNL A   1      46.009  35.615  28.293  1.00  0.00     0.060 A 
BRANCH  47  48
ATOM     48  S   UNL A   1      45.952  37.394  28.594  1.00  0.00     0.124 S 
ATOM     49  O   UNL A   1      46.520  37.477  29.935  1.00  0.00    -0.237 OA
ATOM     50  O   UNL A   1      46.786  37.923  27.520  1.00  0.00    -0.237 OA
ATOM     51  O   UNL A   1      44.529  37.707  28.492  1.00  0.00    -0.744 OA
ENDBRANCH  47  48
ENDBRANCH  26  40
BRANCH  27  52
ATOM     52  C   UNL A   1      43.555  23.138  26.657  1.00  0.00     0.058 A 
ATOM     53  C   UNL A   1      43.149  22.345  27.743  1.00  0.00     0.135 A 
ATOM     54  C   UNL A   1      43.588  22.533  25.392  1.00  0.00     0.135 A 
ATOM     55  F   UNL A   1      43.103  22.874  28.977  1.00  0.00    -0.206 F 
ATOM     56  C   UNL A   1      42.810  21.005  27.588  1.00  0.00     0.059 A 
ATOM     57  C   UNL A   1      43.229  21.197  25.207  1.00  0.00     0.059 A 
ATOM     58  F   UNL A   1      43.959  23.244  24.317  1.00  0.00    -0.206 F 
ATOM     59  C   UNL A   1      42.851  20.438  26.314  1.00  0.00     0.060 A 
BRANCH  59  60
ATOM     60  S   UNL A   1      42.376  18.703  26.130  1.00  0.00     0.124 S 
ATOM     61  O   UNL A   1      40.972  18.819  25.754  1.00  0.00    -0.237 OA
ATOM     62  O   UNL A   1      43.280  18.248  25.077  1.00  0.00    -0.237 OA
ATOM     63  O   UNL A   1      42.629  18.139  27.451  1.00  0.00    -0.744 OA
ENDBRANCH  59  60
ENDBRANCH  27  52
BRANCH  39  64
ATOM     64  C   UNL A   1      49.525  26.743  26.506  1.00  0.00     0.058 A 
ATOM     65  C   UNL A   1      50.089  26.520  25.243  1.00  0.00     0.135 A 
ATOM     66  C   UNL A   1      50.356  26.638  27.633  1.00  0.00     0.135 A 
ATOM     67  F   UNL A   1      49.330  26.602  24.138  1.00  0.00    -0.206 F 
ATOM     68  C   UNL A   1      51.433  26.198  25.100  1.00  0.00     0.059 A 
ATOM     69  C   UNL A   1      51.708  26.343  27.512  1.00  0.00     0.059 A 
ATOM     70  F   UNL A   1      49.861  26.851  28.862  1.00  0.00    -0.206 F 
ATOM     71  C   UNL A   1      52.236  26.118  26.241  1.00  0.00     0.060 A 
BRANCH  71  72
ATOM     72  S   UNL A   1      53.994  25.767  26.040  1.00  0.00     0.124 S 
ATOM     73  O   UNL A   1      54.415  25.569  27.423  1.00  0.00    -0.237 OA
ATOM     74  O   UNL A   1      53.980  24.571  25.203  1.00  0.00    -0.237 OA
ATOM     75  O   UNL A   1      54.508  26.969  25.391  1.00  0.00    -0.744 OA
ENDBRANCH  71  72
ENDBRANCH  39  64
ENDBRANCH  13  14
ENDBRANCH   6   8
ENDBRANCH   5   6
ENDBRANCH   4   5
ENDBRANCH   3   4
ENDBRANCH   2   3
ENDBRANCH   1   2
BRANCH   1  76
ATOM     76  C   UNL A   1      31.845  28.537  27.609  1.00  0.00     0.188 C 
BRANCH  76  77
ATOM     77  O   UNL A   1      31.028  27.393  27.441  1.00  0.00    -0.376 OA
BRANCH  77  78
ATOM     78  C   UNL A   1      31.170  26.676  26.223  1.00  0.00     0.202 C 
BRANCH  78  79
ATOM     79  C   UNL A   1      30.858  25.159  26.135  1.00  0.00     0.261 C 
BRANCH  79  80
ATOM     80  O   UNL A   1      31.197  24.296  27.248  1.00  0.00    -0.462 OA
BRANCH  80  81
ATOM     81  C   UNL A   1      32.067  23.296  26.927  1.00  0.00     0.328 C 
ATOM     82  O   UNL A   1      32.366  22.406  27.724  1.00  0.00    -0.250 OA
BRANCH  81  83
ATOM     83  C   UNL A   1      32.790  23.446  25.552  1.00  0.00     0.195 C 
ATOM     84  C   UNL A   1      34.293  23.664  25.841  1.00  0.00     0.037 C 
ATOM     85  N   UNL A   1      32.705  22.464  24.424  1.00  0.00    -0.323 N 
ATOM     86  C   UNL A   1      34.958  22.333  26.203  1.00  0.00     0.005 C 
ATOM     87  C   UNL A   1      33.279  21.161  24.724  1.00  0.00     0.121 C 
ATOM     88  C   UNL A   1      34.757  21.306  25.091  1.00  0.00     0.022 C 
BRANCH  85  89
ATOM     89  C   UNL A   1      32.748  23.027  23.115  1.00  0.00     0.274 C 
ATOM     90  O   UNL A   1      33.023  22.281  22.173  1.00  0.00    -0.267 OA
BRANCH  89  91
ATOM     91  C   UNL A   1      32.478  24.462  22.830  1.00  0.00     0.147 A 
ATOM     92  C   UNL A   1      31.305  25.195  22.757  1.00  0.00     0.127 A 
ATOM     93  N   UNL A   1      33.547  25.349  22.673  1.00  0.00    -0.223 NA
ATOM     94  N   UNL A   1      31.664  26.523  22.667  1.00  0.00    -0.306 N 
ATOM     95  C   UNL A   1      33.046  26.562  22.638  1.00  0.00     0.137 A 
ATOM     96  C   UNL A   1      30.857  27.662  22.695  1.00  0.00     0.093 A 
ATOM     97  C   UNL A   1      33.658  27.849  22.634  1.00  0.00     0.048 A 
ATOM     98  C   UNL A   1      31.437  28.874  22.721  1.00  0.00     0.018 A 
ATOM     99  C   UNL A   1      32.890  28.957  22.687  1.00  0.00     0.005 A 
ENDBRANCH  89  91
ENDBRANCH  85  89
ENDBRANCH  81  83
ENDBRANCH  80  81
ENDBRANCH  79  80
ENDBRANCH  78  79
ENDBRANCH  77  78
ENDBRANCH  76  77
ENDBRANCH   1  76
TORSDOF 22
ENDMDL
