MODEL 1
REMARK VINA RESULT:     -10.5      0.000      0.000
REMARK SMILES CCc1cccc(C)c1Nc1ccccc1CC(=O)OCCOCCOCCOC(=O)c1ccc(-c2c3nc(c(-c4c(F)cc(S(=O)(=O)[O-])cc4F)c4ccc([nH]4)c(-c4c(F)cc(S(=O)(=O)[O-])cc4F)c4nc(c(-c5c(F)cc(S(=O)(=O)[O-])cc5F)c5ccc2[nH]5)C=C4)C=C3)cc1
REMARK SMILES IDX 24 1 23 2 22 3 21 4 20 5 18 6 19 7 17 8 16 9 11 10 12 11
REMARK SMILES IDX 13 12 15 13 14 14 10 15 9 17 3 18 4 19 5 20 7 21 6 22 8 23
REMARK SMILES IDX 2 24 1 25 25 26 26 27 27 28 28 29 29 30 30 31 31 32 32 33
REMARK SMILES IDX 33 34 97 35 34 36 96 37 35 38 36 39 37 40 90 41 38 42 95 43
REMARK SMILES IDX 89 44 91 45 39 46 94 47 88 48 87 49 40 51 74 52 53 53 73 54
REMARK SMILES IDX 54 55 57 56 72 57 92 58 55 59 56 60 71 62 93 63 58 64 41 65
REMARK SMILES IDX 42 66 51 67 43 68 44 69 50 70 52 71 45 72 46 73 47 74 48 75
REMARK SMILES IDX 49 76 75 77 76 78 85 79 77 80 78 81 84 82 86 83 79 84 80 85
REMARK SMILES IDX 81 86 82 87 83 88 59 89 60 90 69 91 61 92 62 93 68 94 70 95
REMARK SMILES IDX 63 96 64 97 65 98 66 99 67 100
REMARK H PARENT 10 16 91 50 57 61
REMARK Flexibility Score: inf
ROOT
ATOM      1  C   UNL A   1      35.370  34.098  29.973  1.00  0.00     0.188 C 
ENDROOT
BRANCH   1   2
ATOM      2  O   UNL A   1      35.365  33.343  28.673  1.00  0.00    -0.376 OA
BRANCH   2   3
ATOM      3  C   UNL A   1      35.457  31.862  28.619  1.00  0.00     0.202 C 
BRANCH   3   4
ATOM      4  C   UNL A   1      36.939  31.138  28.398  1.00  0.00     0.261 C 
BRANCH   4   5
ATOM      5  O   UNL A   1      36.941  29.597  28.178  1.00  0.00    -0.463 OA
BRANCH   5   6
ATOM      6  C   UNL A   1      37.900  28.854  28.890  1.00  0.00     0.310 C 
ATOM      7  O   UNL A   1      37.844  28.844  30.115  1.00  0.00    -0.252 OA
BRANCH   6   8
ATOM      8  C   UNL A   1      39.036  27.954  28.058  1.00  0.00     0.160 C 
BRANCH   8   9
ATOM      9  C   UNL A   1      39.859  26.366  28.112  1.00  0.00    -0.013 A 
ATOM     10  C   UNL A   1      39.530  24.763  27.701  1.00  0.00     0.042 A 
ATOM     11  C   UNL A   1      40.839  24.009  27.729  1.00  0.00     0.026 A 
ATOM     12  C   UNL A   1      42.064  24.504  28.219  1.00  0.00     0.002 A 
ATOM     13  C   UNL A   1      41.113  26.658  28.742  1.00  0.00     0.006 A 
ATOM     14  C   UNL A   1      42.170  25.755  28.789  1.00  0.00     0.000 A 
BRANCH  10  15
ATOM     15  N   UNL A   1      37.774  24.013  26.958  1.00  0.00    -0.355 N 
ATOM     16  H   UNL A   1      37.177  24.000  27.740  1.00  0.00     0.167 HD
BRANCH  15  17
ATOM     17  C   UNL A   1      36.841  23.425  25.745  1.00  0.00     0.045 A 
ATOM     18  C   UNL A   1      35.492  23.831  25.522  1.00  0.00    -0.024 A 
ATOM     19  C   UNL A   1      34.924  23.689  24.198  1.00  0.00     0.006 A 
ATOM     20  C   UNL A   1      35.593  23.108  23.144  1.00  0.00     0.001 A 
ATOM     21  C   UNL A   1      37.244  22.520  24.777  1.00  0.00    -0.027 A 
ATOM     22  C   UNL A   1      36.760  22.483  23.454  1.00  0.00     0.005 A 
ATOM     23  C   UNL A   1      38.074  21.389  25.117  1.00  0.00     0.046 C 
BRANCH  18  24
ATOM     24  C   UNL A   1      34.351  23.976  26.507  1.00  0.00     0.034 C 
ATOM     25  C   UNL A   1      33.788  22.833  27.287  1.00  0.00     0.009 C 
ENDBRANCH  18  24
ENDBRANCH  15  17
ENDBRANCH  10  15
ENDBRANCH   8   9
ENDBRANCH   6   8
ENDBRANCH   5   6
ENDBRANCH   4   5
ENDBRANCH   3   4
ENDBRANCH   2   3
ENDBRANCH   1   2
BRANCH   1  26
ATOM     26  C   UNL A   1      34.066  34.448  30.958  1.00  0.00     0.188 C 
BRANCH  26  27
ATOM     27  O   UNL A   1      33.847  33.528  32.045  1.00  0.00    -0.376 OA
BRANCH  27  28
ATOM     28  C   UNL A   1      34.869  33.329  33.051  1.00  0.00     0.202 C 
BRANCH  28  29
ATOM     29  C   UNL A   1      35.079  34.264  34.309  1.00  0.00     0.261 C 
BRANCH  29  30
ATOM     30  O   UNL A   1      36.486  34.656  34.517  1.00  0.00    -0.460 OA
BRANCH  30  31
ATOM     31  C   UNL A   1      37.517  33.736  34.550  1.00  0.00     0.338 C 
ATOM     32  O   UNL A   1      37.565  32.782  35.309  1.00  0.00    -0.246 OA
BRANCH  31  33
ATOM     33  C   UNL A   1      38.440  33.950  33.396  1.00  0.00     0.060 A 
ATOM     34  C   UNL A   1      38.250  33.472  31.622  1.00  0.00     0.016 A 
ATOM     35  C   UNL A   1      39.987  34.631  33.960  1.00  0.00     0.016 A 
ATOM     36  C   UNL A   1      39.686  33.623  30.461  1.00  0.00     0.010 A 
ATOM     37  C   UNL A   1      41.434  34.654  32.808  1.00  0.00     0.010 A 
ATOM     38  C   UNL A   1      41.324  34.193  31.023  1.00  0.00    -0.014 A 
BRANCH  38  39
ATOM     39  C   UNL A   1      42.621  34.164  30.188  1.00  0.00     0.031 A 
ATOM     40  C   UNL A   1      43.745  33.066  29.911  1.00  0.00     0.074 A 
ATOM     41  C   UNL A   1      42.584  35.127  29.237  1.00  0.00     0.049 A 
ATOM     42  N   UNL A   1      44.597  33.150  28.908  1.00  0.00    -0.248 NA
ATOM     43  C   UNL A   1      44.097  31.826  30.665  1.00  0.00     0.031 C 
ATOM     44  C   UNL A   1      42.909  34.944  27.823  1.00  0.00     0.029 A 
ATOM     45  N   UNL A   1      42.176  36.450  29.297  1.00  0.00    -0.354 N 
ATOM     46  C   UNL A   1      45.040  31.866  28.607  1.00  0.00     0.074 A 
ATOM     47  C   UNL A   1      44.898  31.144  29.827  1.00  0.00     0.031 C 
ATOM     48  C   UNL A   1      42.801  36.111  27.181  1.00  0.00     0.029 A 
ATOM     49  C   UNL A   1      42.626  37.145  28.176  1.00  0.00     0.049 A 
ATOM     50  H   UNL A   1      41.645  36.842  30.027  1.00  0.00     0.167 HD
ATOM     51  C   UNL A   1      45.271  31.468  27.314  1.00  0.00     0.037 A 
ATOM     52  C   UNL A   1      43.368  38.288  28.237  1.00  0.00     0.037 A 
ATOM     53  C   UNL A   1      45.452  32.609  26.434  1.00  0.00     0.049 A 
ATOM     54  C   UNL A   1      44.749  38.110  27.614  1.00  0.00     0.074 A 
ATOM     55  C   UNL A   1      44.857  33.118  25.296  1.00  0.00     0.029 A 
ATOM     56  N   UNL A   1      46.351  33.565  26.860  1.00  0.00    -0.354 N 
ATOM     57  N   UNL A   1      45.133  36.991  27.057  1.00  0.00    -0.248 NA
ATOM     58  C   UNL A   1      45.825  39.098  27.566  1.00  0.00     0.031 C 
ATOM     59  C   UNL A   1      45.340  34.458  25.126  1.00  0.00     0.029 A 
ATOM     60  C   UNL A   1      46.278  34.715  26.116  1.00  0.00     0.049 A 
ATOM     61  H   UNL A   1      46.975  33.436  27.611  1.00  0.00     0.167 HD
ATOM     62  C   UNL A   1      46.472  36.997  26.807  1.00  0.00     0.074 A 
ATOM     63  C   UNL A   1      46.848  38.371  27.064  1.00  0.00     0.031 C 
ATOM     64  C   UNL A   1      47.131  35.831  26.522  1.00  0.00     0.037 A 
BRANCH  51  65
ATOM     65  C   UNL A   1      45.231  30.023  26.812  1.00  0.00     0.058 A 
ATOM     66  C   UNL A   1      44.038  29.263  26.836  1.00  0.00     0.135 A 
ATOM     67  C   UNL A   1      46.374  29.294  26.405  1.00  0.00     0.135 A 
ATOM     68  F   UNL A   1      42.884  29.805  27.252  1.00  0.00    -0.206 F 
ATOM     69  C   UNL A   1      43.980  27.910  26.451  1.00  0.00     0.059 A 
ATOM     70  C   UNL A   1      46.330  27.960  25.974  1.00  0.00     0.059 A 
ATOM     71  F   UNL A   1      47.603  29.829  26.453  1.00  0.00    -0.206 F 
ATOM     72  C   UNL A   1      45.129  27.269  26.003  1.00  0.00     0.060 A 
BRANCH  72  73
ATOM     73  S   UNL A   1      45.041  25.543  25.464  1.00  0.00     0.124 S 
ATOM     74  O   UNL A   1      43.702  25.466  24.890  1.00  0.00    -0.237 OA
ATOM     75  O   UNL A   1      46.144  25.453  24.515  1.00  0.00    -0.237 OA
ATOM     76  O   UNL A   1      45.228  24.788  26.702  1.00  0.00    -0.744 OA
ENDBRANCH  72  73
ENDBRANCH  51  65
BRANCH  52  77
ATOM     77  C   UNL A   1      42.897  39.225  29.297  1.00  0.00     0.058 A 
ATOM     78  C   UNL A   1      43.640  39.265  30.496  1.00  0.00     0.135 A 
ATOM     79  C   UNL A   1      42.127  40.360  28.994  1.00  0.00     0.135 A 
ATOM     80  F   UNL A   1      44.412  38.221  30.839  1.00  0.00    -0.206 F 
ATOM     81  C   UNL A   1      43.699  40.407  31.302  1.00  0.00     0.059 A 
ATOM     82  C   UNL A   1      42.190  41.522  29.775  1.00  0.00     0.059 A 
ATOM     83  F   UNL A   1      41.409  40.404  27.862  1.00  0.00    -0.206 F 
ATOM     84  C   UNL A   1      42.996  41.545  30.916  1.00  0.00     0.060 A 
BRANCH  84  85
ATOM     85  S   UNL A   1      43.237  43.100  31.817  1.00  0.00     0.124 S 
ATOM     86  O   UNL A   1      44.643  43.016  32.191  1.00  0.00    -0.237 OA
ATOM     87  O   UNL A   1      42.916  44.117  30.819  1.00  0.00    -0.237 OA
ATOM     88  O   UNL A   1      42.278  42.990  32.913  1.00  0.00    -0.744 OA
ENDBRANCH  84  85
ENDBRANCH  52  77
BRANCH  64  89
ATOM     89  C   UNL A   1      48.622  35.571  26.731  1.00  0.00     0.058 A 
ATOM     90  C   UNL A   1      49.557  35.476  25.687  1.00  0.00     0.135 A 
ATOM     91  C   UNL A   1      49.190  35.610  28.035  1.00  0.00     0.135 A 
ATOM     92  F   UNL A   1      49.188  35.552  24.402  1.00  0.00    -0.206 F 
ATOM     93  C   UNL A   1      50.929  35.341  25.914  1.00  0.00     0.059 A 
ATOM     94  C   UNL A   1      50.561  35.564  28.280  1.00  0.00     0.059 A 
ATOM     95  F   UNL A   1      48.426  35.716  29.134  1.00  0.00    -0.206 F 
ATOM     96  C   UNL A   1      51.422  35.372  27.214  1.00  0.00     0.060 A 
BRANCH  96  97
ATOM     97  S   UNL A   1      53.179  35.117  27.506  1.00  0.00     0.124 S 
ATOM     98  O   UNL A   1      53.171  34.670  28.896  1.00  0.00    -0.237 OA
ATOM     99  O   UNL A   1      53.530  34.100  26.519  1.00  0.00    -0.237 OA
ATOM    100  O   UNL A   1      53.759  36.435  27.270  1.00  0.00    -0.744 OA
ENDBRANCH  96  97
ENDBRANCH  64  89
ENDBRANCH  38  39
ENDBRANCH  31  33
ENDBRANCH  30  31
ENDBRANCH  29  30
ENDBRANCH  28  29
ENDBRANCH  27  28
ENDBRANCH  26  27
ENDBRANCH   1  26
TORSDOF 24
ENDMDL
MODEL 2
REMARK VINA RESULT:     -10.2      2.654      3.866
REMARK SMILES CCc1cccc(C)c1Nc1ccccc1CC(=O)OCCOCCOCCOC(=O)c1ccc(-c2c3nc(c(-c4c(F)cc(S(=O)(=O)[O-])cc4F)c4ccc([nH]4)c(-c4c(F)cc(S(=O)(=O)[O-])cc4F)c4nc(c(-c5c(F)cc(S(=O)(=O)[O-])cc5F)c5ccc2[nH]5)C=C4)C=C3)cc1
REMARK SMILES IDX 24 1 23 2 22 3 21 4 20 5 18 6 19 7 17 8 16 9 11 10 12 11
REMARK SMILES IDX 13 12 15 13 14 14 10 15 9 17 3 18 4 19 5 20 7 21 6 22 8 23
REMARK SMILES IDX 2 24 1 25 25 26 26 27 27 28 28 29 29 30 30 31 31 32 32 33
REMARK SMILES IDX 33 34 97 35 34 36 96 37 35 38 36 39 37 40 90 41 38 42 95 43
REMARK SMILES IDX 89 44 91 45 39 46 94 47 88 48 87 49 40 51 74 52 53 53 73 54
REMARK SMILES IDX 54 55 57 56 72 57 92 58 55 59 56 60 71 62 93 63 58 64 41 65
REMARK SMILES IDX 42 66 51 67 43 68 44 69 50 70 52 71 45 72 46 73 47 74 48 75
REMARK SMILES IDX 49 76 75 77 76 78 85 79 77 80 78 81 84 82 86 83 79 84 80 85
REMARK SMILES IDX 81 86 82 87 83 88 59 89 60 90 69 91 61 92 62 93 68 94 70 95
REMARK SMILES IDX 63 96 64 97 65 98 66 99 67 100
REMARK H PARENT 10 16 91 50 57 61
REMARK Flexibility Score: inf
ROOT
ATOM      1  C   UNL A   1      35.246  33.326  28.714  1.00  0.00     0.188 C 
ENDROOT
BRANCH   1   2
ATOM      2  O   UNL A   1      34.940  32.354  27.608  1.00  0.00    -0.376 OA
BRANCH   2   3
ATOM      3  C   UNL A   1      34.137  31.127  27.834  1.00  0.00     0.202 C 
BRANCH   3   4
ATOM      4  C   UNL A   1      34.809  29.635  27.528  1.00  0.00     0.261 C 
BRANCH   4   5
ATOM      5  O   UNL A   1      34.323  28.895  26.248  1.00  0.00    -0.463 OA
BRANCH   5   6
ATOM      6  C   UNL A   1      33.613  27.696  26.437  1.00  0.00     0.310 C 
ATOM      7  O   UNL A   1      32.607  27.714  27.139  1.00  0.00    -0.252 OA
BRANCH   6   8
ATOM      8  C   UNL A   1      34.111  26.306  25.654  1.00  0.00     0.160 C 
BRANCH   8   9
ATOM      9  C   UNL A   1      33.451  24.920  24.735  1.00  0.00    -0.013 A 
ATOM     10  C   UNL A   1      32.187  24.608  23.661  1.00  0.00     0.042 A 
ATOM     11  C   UNL A   1      32.448  23.259  23.032  1.00  0.00     0.026 A 
ATOM     12  C   UNL A   1      33.441  22.343  23.431  1.00  0.00     0.002 A 
ATOM     13  C   UNL A   1      34.276  23.822  25.144  1.00  0.00     0.006 A 
ATOM     14  C   UNL A   1      34.265  22.584  24.511  1.00  0.00     0.000 A 
BRANCH  10  15
ATOM     15  N   UNL A   1      30.745  25.921  23.035  1.00  0.00    -0.355 N 
ATOM     16  H   UNL A   1      30.284  25.434  22.313  1.00  0.00     0.167 HD
BRANCH  15  17
ATOM     17  C   UNL A   1      29.954  27.356  23.104  1.00  0.00     0.045 A 
ATOM     18  C   UNL A   1      30.599  28.618  22.950  1.00  0.00    -0.024 A 
ATOM     19  C   UNL A   1      29.820  29.758  22.511  1.00  0.00     0.006 A 
ATOM     20  C   UNL A   1      28.459  29.711  22.302  1.00  0.00     0.001 A 
ATOM     21  C   UNL A   1      28.589  27.522  23.267  1.00  0.00    -0.027 A 
ATOM     22  C   UNL A   1      27.834  28.580  22.723  1.00  0.00     0.005 A 
ATOM     23  C   UNL A   1      27.847  26.704  24.196  1.00  0.00     0.046 C 
BRANCH  18  24
ATOM     24  C   UNL A   1      31.870  29.140  23.588  1.00  0.00     0.034 C 
ATOM     25  C   UNL A   1      33.214  29.037  22.945  1.00  0.00     0.009 C 
ENDBRANCH  18  24
ENDBRANCH  15  17
ENDBRANCH  10  15
ENDBRANCH   8   9
ENDBRANCH   6   8
ENDBRANCH   5   6
ENDBRANCH   4   5
ENDBRANCH   3   4
ENDBRANCH   2   3
ENDBRANCH   1   2
BRANCH   1  26
ATOM     26  C   UNL A   1      34.177  34.320  29.528  1.00  0.00     0.188 C 
BRANCH  26  27
ATOM     27  O   UNL A   1      33.672  33.800  30.771  1.00  0.00    -0.376 OA
BRANCH  27  28
ATOM     28  C   UNL A   1      34.541  33.692  31.925  1.00  0.00     0.202 C 
BRANCH  28  29
ATOM     29  C   UNL A   1      34.438  34.608  33.211  1.00  0.00     0.261 C 
BRANCH  29  30
ATOM     30  O   UNL A   1      35.750  34.931  33.804  1.00  0.00    -0.460 OA
BRANCH  30  31
ATOM     31  C   UNL A   1      36.761  33.998  33.924  1.00  0.00     0.338 C 
ATOM     32  O   UNL A   1      36.710  33.013  34.643  1.00  0.00    -0.246 OA
BRANCH  31  33
ATOM     33  C   UNL A   1      37.820  34.248  32.901  1.00  0.00     0.060 A 
ATOM     34  C   UNL A   1      37.738  34.137  31.059  1.00  0.00     0.016 A 
ATOM     35  C   UNL A   1      39.391  34.530  33.694  1.00  0.00     0.016 A 
ATOM     36  C   UNL A   1      39.291  34.235  30.053  1.00  0.00     0.010 A 
ATOM     37  C   UNL A   1      40.933  34.501  32.673  1.00  0.00     0.010 A 
ATOM     38  C   UNL A   1      40.933  34.394  30.829  1.00  0.00    -0.014 A 
BRANCH  38  39
ATOM     39  C   UNL A   1      42.287  34.285  30.097  1.00  0.00     0.031 A 
ATOM     40  C   UNL A   1      43.358  33.117  29.900  1.00  0.00     0.074 A 
ATOM     41  C   UNL A   1      42.387  35.250  29.154  1.00  0.00     0.049 A 
ATOM     42  N   UNL A   1      44.290  33.149  28.968  1.00  0.00    -0.248 NA
ATOM     43  C   UNL A   1      43.571  31.855  30.671  1.00  0.00     0.031 C 
ATOM     44  C   UNL A   1      42.809  35.051  27.768  1.00  0.00     0.029 A 
ATOM     45  N   UNL A   1      42.060  36.596  29.192  1.00  0.00    -0.354 N 
ATOM     46  C   UNL A   1      44.673  31.841  28.692  1.00  0.00     0.074 A 
ATOM     47  C   UNL A   1      44.390  31.126  29.892  1.00  0.00     0.031 C 
ATOM     48  C   UNL A   1      42.826  36.224  27.129  1.00  0.00     0.029 A 
ATOM     49  C   UNL A   1      42.640  37.265  28.116  1.00  0.00     0.049 A 
ATOM     50  H   UNL A   1      41.499  37.020  29.882  1.00  0.00     0.167 HD
ATOM     51  C   UNL A   1      44.979  31.432  27.419  1.00  0.00     0.037 A 
ATOM     52  C   UNL A   1      43.446  38.358  28.243  1.00  0.00     0.037 A 
ATOM     53  C   UNL A   1      45.300  32.562  26.564  1.00  0.00     0.049 A 
ATOM     54  C   UNL A   1      44.857  38.093  27.728  1.00  0.00     0.074 A 
ATOM     55  C   UNL A   1      44.829  33.111  25.387  1.00  0.00     0.029 A 
ATOM     56  N   UNL A   1      46.222  33.457  27.066  1.00  0.00    -0.354 N 
ATOM     57  N   UNL A   1      45.212  36.953  27.194  1.00  0.00    -0.248 NA
ATOM     58  C   UNL A   1      45.995  39.011  27.772  1.00  0.00     0.031 C 
ATOM     59  C   UNL A   1      45.408  34.418  25.266  1.00  0.00     0.029 A 
ATOM     60  C   UNL A   1      46.280  34.612  26.328  1.00  0.00     0.049 A 
ATOM     61  H   UNL A   1      46.775  33.287  27.863  1.00  0.00     0.167 HD
ATOM     62  C   UNL A   1      46.564  36.875  27.049  1.00  0.00     0.074 A 
ATOM     63  C   UNL A   1      47.005  38.221  27.345  1.00  0.00     0.031 C 
ATOM     64  C   UNL A   1      47.168  35.670  26.808  1.00  0.00     0.037 A 
BRANCH  51  65
ATOM     65  C   UNL A   1      44.886  29.995  26.903  1.00  0.00     0.058 A 
ATOM     66  C   UNL A   1      43.657  29.293  26.878  1.00  0.00     0.135 A 
ATOM     67  C   UNL A   1      46.007  29.213  26.533  1.00  0.00     0.135 A 
ATOM     68  F   UNL A   1      42.516  29.889  27.256  1.00  0.00    -0.206 F 
ATOM     69  C   UNL A   1      43.547  27.948  26.480  1.00  0.00     0.059 A 
ATOM     70  C   UNL A   1      45.913  27.885  26.090  1.00  0.00     0.059 A 
ATOM     71  F   UNL A   1      47.258  29.686  26.630  1.00  0.00    -0.206 F 
ATOM     72  C   UNL A   1      44.679  27.254  26.069  1.00  0.00     0.060 A 
BRANCH  72  73
ATOM     73  S   UNL A   1      44.527  25.537  25.514  1.00  0.00     0.124 S 
ATOM     74  O   UNL A   1      44.601  24.798  26.770  1.00  0.00    -0.237 OA
ATOM     75  O   UNL A   1      43.227  25.535  24.853  1.00  0.00    -0.237 OA
ATOM     76  O   UNL A   1      45.672  25.363  24.624  1.00  0.00    -0.744 OA
ENDBRANCH  72  73
ENDBRANCH  51  65
BRANCH  52  77
ATOM     77  C   UNL A   1      42.954  39.319  29.270  1.00  0.00     0.058 A 
ATOM     78  C   UNL A   1      43.635  39.345  30.506  1.00  0.00     0.135 A 
ATOM     79  C   UNL A   1      42.240  40.478  28.919  1.00  0.00     0.135 A 
ATOM     80  F   UNL A   1      44.350  38.278  30.897  1.00  0.00    -0.206 F 
ATOM     81  C   UNL A   1      43.692  40.491  31.306  1.00  0.00     0.059 A 
ATOM     82  C   UNL A   1      42.304  41.644  29.694  1.00  0.00     0.059 A 
ATOM     83  F   UNL A   1      41.585  40.537  27.752  1.00  0.00    -0.206 F 
ATOM     84  C   UNL A   1      43.049  41.649  30.876  1.00  0.00     0.060 A 
BRANCH  84  85
ATOM     85  S   UNL A   1      43.298  43.203  31.777  1.00  0.00     0.124 S 
ATOM     86  O   UNL A   1      44.729  43.165  32.053  1.00  0.00    -0.237 OA
ATOM     87  O   UNL A   1      42.875  44.217  30.815  1.00  0.00    -0.237 OA
ATOM     88  O   UNL A   1      42.421  43.048  32.934  1.00  0.00    -0.744 OA
ENDBRANCH  84  85
ENDBRANCH  52  77
BRANCH  64  89
ATOM     89  C   UNL A   1      48.618  35.314  27.130  1.00  0.00     0.058 A 
ATOM     90  C   UNL A   1      49.582  34.992  26.161  1.00  0.00     0.135 A 
ATOM     91  C   UNL A   1      49.133  35.489  28.446  1.00  0.00     0.135 A 
ATOM     92  F   UNL A   1      49.276  34.915  24.860  1.00  0.00    -0.206 F 
ATOM     93  C   UNL A   1      50.926  34.773  26.478  1.00  0.00     0.059 A 
ATOM     94  C   UNL A   1      50.484  35.360  28.767  1.00  0.00     0.059 A 
ATOM     95  F   UNL A   1      48.338  35.816  29.476  1.00  0.00    -0.206 F 
ATOM     96  C   UNL A   1      51.365  34.945  27.786  1.00  0.00     0.060 A 
BRANCH  96  97
ATOM     97  S   UNL A   1      53.078  34.583  28.204  1.00  0.00     0.124 S 
ATOM     98  O   UNL A   1      53.114  34.979  29.608  1.00  0.00    -0.237 OA
ATOM     99  O   UNL A   1      53.180  33.150  27.950  1.00  0.00    -0.237 OA
ATOM    100  O   UNL A   1      53.838  35.430  27.290  1.00  0.00    -0.744 OA
ENDBRANCH  96  97
ENDBRANCH  64  89
ENDBRANCH  38  39
ENDBRANCH  31  33
ENDBRANCH  30  31
ENDBRANCH  29  30
ENDBRANCH  28  29
ENDBRANCH  27  28
ENDBRANCH  26  27
ENDBRANCH   1  26
TORSDOF 24
ENDMDL
MODEL 3
REMARK VINA RESULT:     -10.0      2.102      3.652
REMARK SMILES CCc1cccc(C)c1Nc1ccccc1CC(=O)OCCOCCOCCOC(=O)c1ccc(-c2c3nc(c(-c4c(F)cc(S(=O)(=O)[O-])cc4F)c4ccc([nH]4)c(-c4c(F)cc(S(=O)(=O)[O-])cc4F)c4nc(c(-c5c(F)cc(S(=O)(=O)[O-])cc5F)c5ccc2[nH]5)C=C4)C=C3)cc1
REMARK SMILES IDX 24 1 23 2 22 3 21 4 20 5 18 6 19 7 17 8 16 9 11 10 12 11
REMARK SMILES IDX 13 12 15 13 14 14 10 15 9 17 3 18 4 19 5 20 7 21 6 22 8 23
REMARK SMILES IDX 2 24 1 25 25 26 26 27 27 28 28 29 29 30 30 31 31 32 32 33
REMARK SMILES IDX 33 34 97 35 34 36 96 37 35 38 36 39 37 40 90 41 38 42 95 43
REMARK SMILES IDX 89 44 91 45 39 46 94 47 88 48 87 49 40 51 74 52 53 53 73 54
REMARK SMILES IDX 54 55 57 56 72 57 92 58 55 59 56 60 71 62 93 63 58 64 41 65
REMARK SMILES IDX 42 66 51 67 43 68 44 69 50 70 52 71 45 72 46 73 47 74 48 75
REMARK SMILES IDX 49 76 75 77 76 78 85 79 77 80 78 81 84 82 86 83 79 84 80 85
REMARK SMILES IDX 81 86 82 87 83 88 59 89 60 90 69 91 61 92 62 93 68 94 70 95
REMARK SMILES IDX 63 96 64 97 65 98 66 99 67 100
REMARK H PARENT 10 16 91 50 57 61
REMARK Flexibility Score: inf
ROOT
ATOM      1  C   UNL A   1      35.698  31.595  30.763  1.00  0.00     0.188 C 
ENDROOT
BRANCH   1   2
ATOM      2  O   UNL A   1      36.860  31.032  29.991  1.00  0.00    -0.376 OA
BRANCH   2   3
ATOM      3  C   UNL A   1      36.751  29.781  29.199  1.00  0.00     0.202 C 
BRANCH   3   4
ATOM      4  C   UNL A   1      36.062  29.824  27.685  1.00  0.00     0.261 C 
BRANCH   4   5
ATOM      5  O   UNL A   1      34.742  29.024  27.490  1.00  0.00    -0.463 OA
BRANCH   5   6
ATOM      6  C   UNL A   1      33.574  29.770  27.253  1.00  0.00     0.310 C 
ATOM      7  O   UNL A   1      33.591  30.975  27.483  1.00  0.00    -0.252 OA
BRANCH   6   8
ATOM      8  C   UNL A   1      32.229  29.021  26.603  1.00  0.00     0.160 C 
BRANCH   8   9
ATOM      9  C   UNL A   1      31.614  28.375  25.052  1.00  0.00    -0.013 A 
ATOM     10  C   UNL A   1      31.737  26.959  24.141  1.00  0.00     0.042 A 
ATOM     11  C   UNL A   1      30.665  27.009  23.078  1.00  0.00     0.026 A 
ATOM     12  C   UNL A   1      29.862  28.124  22.771  1.00  0.00     0.002 A 
ATOM     13  C   UNL A   1      30.866  29.467  24.504  1.00  0.00     0.006 A 
ATOM     14  C   UNL A   1      30.024  29.338  23.405  1.00  0.00     0.000 A 
BRANCH  10  15
ATOM     15  N   UNL A   1      32.870  25.307  24.571  1.00  0.00    -0.355 N 
ATOM     16  H   UNL A   1      33.795  25.644  24.538  1.00  0.00     0.167 HD
BRANCH  15  17
ATOM     17  C   UNL A   1      33.047  23.721  24.944  1.00  0.00     0.045 A 
ATOM     18  C   UNL A   1      33.444  22.730  23.999  1.00  0.00    -0.024 A 
ATOM     19  C   UNL A   1      34.066  21.511  24.475  1.00  0.00     0.006 A 
ATOM     20  C   UNL A   1      34.232  21.216  25.810  1.00  0.00     0.001 A 
ATOM     21  C   UNL A   1      32.886  23.160  26.200  1.00  0.00    -0.027 A 
ATOM     22  C   UNL A   1      33.597  22.043  26.683  1.00  0.00     0.005 A 
ATOM     23  C   UNL A   1      31.806  23.572  27.065  1.00  0.00     0.046 C 
BRANCH  18  24
ATOM     24  C   UNL A   1      32.941  22.478  22.592  1.00  0.00     0.034 C 
ATOM     25  C   UNL A   1      32.003  21.369  22.241  1.00  0.00     0.009 C 
ENDBRANCH  18  24
ENDBRANCH  15  17
ENDBRANCH  10  15
ENDBRANCH   8   9
ENDBRANCH   6   8
ENDBRANCH   5   6
ENDBRANCH   4   5
ENDBRANCH   3   4
ENDBRANCH   2   3
ENDBRANCH   1   2
BRANCH   1  26
ATOM     26  C   UNL A   1      34.741  32.904  30.359  1.00  0.00     0.188 C 
BRANCH  26  27
ATOM     27  O   UNL A   1      34.176  33.623  31.471  1.00  0.00    -0.376 OA
BRANCH  27  28
ATOM     28  C   UNL A   1      34.305  33.107  32.818  1.00  0.00     0.202 C 
BRANCH  28  29
ATOM     29  C   UNL A   1      35.056  33.852  33.993  1.00  0.00     0.261 C 
BRANCH  29  30
ATOM     30  O   UNL A   1      36.359  33.246  34.331  1.00  0.00    -0.460 OA
BRANCH  30  31
ATOM     31  C   UNL A   1      37.439  33.994  34.755  1.00  0.00     0.338 C 
ATOM     32  O   UNL A   1      37.680  34.260  35.921  1.00  0.00    -0.246 OA
BRANCH  31  33
ATOM     33  C   UNL A   1      38.375  34.243  33.618  1.00  0.00     0.060 A 
ATOM     34  C   UNL A   1      38.053  34.251  31.799  1.00  0.00     0.016 A 
ATOM     35  C   UNL A   1      40.049  34.381  34.213  1.00  0.00     0.016 A 
ATOM     36  C   UNL A   1      39.470  34.318  30.606  1.00  0.00     0.010 A 
ATOM     37  C   UNL A   1      41.444  34.322  33.000  1.00  0.00     0.010 A 
ATOM     38  C   UNL A   1      41.204  34.330  31.169  1.00  0.00    -0.014 A 
BRANCH  38  39
ATOM     39  C   UNL A   1      42.444  34.185  30.262  1.00  0.00     0.031 A 
ATOM     40  C   UNL A   1      43.458  32.995  29.941  1.00  0.00     0.074 A 
ATOM     41  C   UNL A   1      42.431  35.135  29.298  1.00  0.00     0.049 A 
ATOM     42  N   UNL A   1      44.255  32.997  28.891  1.00  0.00    -0.248 NA
ATOM     43  C   UNL A   1      43.753  31.741  30.696  1.00  0.00     0.031 C 
ATOM     44  C   UNL A   1      42.657  34.909  27.871  1.00  0.00     0.029 A 
ATOM     45  N   UNL A   1      42.134  36.488  29.358  1.00  0.00    -0.354 N 
ATOM     46  C   UNL A   1      44.575  31.678  28.587  1.00  0.00     0.074 A 
ATOM     47  C   UNL A   1      44.446  30.985  29.825  1.00  0.00     0.031 C 
ATOM     48  C   UNL A   1      42.607  36.072  27.217  1.00  0.00     0.029 A 
ATOM     49  C   UNL A   1      42.573  37.130  28.202  1.00  0.00     0.049 A 
ATOM     50  H   UNL A   1      41.679  36.931  30.111  1.00  0.00     0.167 HD
ATOM     51  C   UNL A   1      44.699  31.246  27.290  1.00  0.00     0.037 A 
ATOM     52  C   UNL A   1      43.407  38.210  28.201  1.00  0.00     0.037 A 
ATOM     53  C   UNL A   1      44.919  32.357  26.382  1.00  0.00     0.049 A 
ATOM     54  C   UNL A   1      44.731  37.912  27.504  1.00  0.00     0.074 A 
ATOM     55  C   UNL A   1      44.302  32.899  25.271  1.00  0.00     0.029 A 
ATOM     56  N   UNL A   1      45.916  33.242  26.739  1.00  0.00    -0.354 N 
ATOM     57  N   UNL A   1      44.991  36.758  26.946  1.00  0.00    -0.248 NA
ATOM     58  C   UNL A   1      45.879  38.808  27.378  1.00  0.00     0.031 C 
ATOM     59  C   UNL A   1      44.881  34.193  25.051  1.00  0.00     0.029 A 
ATOM     60  C   UNL A   1      45.892  34.385  25.982  1.00  0.00     0.049 A 
ATOM     61  H   UNL A   1      46.570  33.073  27.456  1.00  0.00     0.167 HD
ATOM     62  C   UNL A   1      46.310  36.652  26.621  1.00  0.00     0.074 A 
ATOM     63  C   UNL A   1      46.808  37.994  26.832  1.00  0.00     0.031 C 
ATOM     64  C   UNL A   1      46.855  35.433  26.319  1.00  0.00     0.037 A 
BRANCH  51  65
ATOM     65  C   UNL A   1      44.513  29.803  26.816  1.00  0.00     0.058 A 
ATOM     66  C   UNL A   1      43.229  29.265  26.564  1.00  0.00     0.135 A 
ATOM     67  C   UNL A   1      45.566  28.863  26.709  1.00  0.00     0.135 A 
ATOM     68  F   UNL A   1      42.129  30.024  26.679  1.00  0.00    -0.206 F 
ATOM     69  C   UNL A   1      43.016  27.923  26.197  1.00  0.00     0.059 A 
ATOM     70  C   UNL A   1      45.380  27.534  26.302  1.00  0.00     0.059 A 
ATOM     71  F   UNL A   1      46.826  29.178  27.044  1.00  0.00    -0.206 F 
ATOM     72  C   UNL A   1      44.100  27.066  26.050  1.00  0.00     0.060 A 
BRANCH  72  73
ATOM     73  S   UNL A   1      43.826  25.352  25.534  1.00  0.00     0.124 S 
ATOM     74  O   UNL A   1      42.509  25.425  24.909  1.00  0.00    -0.237 OA
ATOM     75  O   UNL A   1      44.945  25.114  24.629  1.00  0.00    -0.237 OA
ATOM     76  O   UNL A   1      43.875  24.605  26.788  1.00  0.00    -0.744 OA
ENDBRANCH  72  73
ENDBRANCH  51  65
BRANCH  52  77
ATOM     77  C   UNL A   1      43.075  39.195  29.269  1.00  0.00     0.058 A 
ATOM     78  C   UNL A   1      43.931  39.240  30.391  1.00  0.00     0.135 A 
ATOM     79  C   UNL A   1      42.322  40.351  29.004  1.00  0.00     0.135 A 
ATOM     80  F   UNL A   1      44.692  38.176  30.694  1.00  0.00    -0.206 F 
ATOM     81  C   UNL A   1      44.109  40.401  31.150  1.00  0.00     0.059 A 
ATOM     82  C   UNL A   1      42.504  41.531  29.737  1.00  0.00     0.059 A 
ATOM     83  F   UNL A   1      41.502  40.391  27.944  1.00  0.00    -0.206 F 
ATOM     84  C   UNL A   1      43.415  41.555  30.796  1.00  0.00     0.060 A 
BRANCH  84  85
ATOM     85  S   UNL A   1      43.799  43.125  31.618  1.00  0.00     0.124 S 
ATOM     86  O   UNL A   1      44.689  43.760  30.654  1.00  0.00    -0.237 OA
ATOM     87  O   UNL A   1      42.490  43.753  31.766  1.00  0.00    -0.237 OA
ATOM     88  O   UNL A   1      44.418  42.691  32.868  1.00  0.00    -0.744 OA
ENDBRANCH  84  85
ENDBRANCH  52  77
BRANCH  64  89
ATOM     89  C   UNL A   1      48.329  35.055  26.448  1.00  0.00     0.058 A 
ATOM     90  C   UNL A   1      48.857  34.296  27.505  1.00  0.00     0.135 A 
ATOM     91  C   UNL A   1      49.234  35.287  25.373  1.00  0.00     0.135 A 
ATOM     92  F   UNL A   1      48.097  33.891  28.530  1.00  0.00    -0.206 F 
ATOM     93  C   UNL A   1      50.190  33.878  27.541  1.00  0.00     0.059 A 
ATOM     94  C   UNL A   1      50.542  34.805  25.350  1.00  0.00     0.059 A 
ATOM     95  F   UNL A   1      48.871  35.981  24.284  1.00  0.00    -0.206 F 
ATOM     96  C   UNL A   1      51.029  34.148  26.466  1.00  0.00     0.060 A 
BRANCH  96  97
ATOM     97  S   UNL A   1      52.764  33.679  26.552  1.00  0.00     0.124 S 
ATOM     98  O   UNL A   1      53.411  34.988  26.529  1.00  0.00    -0.237 OA
ATOM     99  O   UNL A   1      52.845  32.958  27.818  1.00  0.00    -0.237 OA
ATOM    100  O   UNL A   1      52.956  32.860  25.359  1.00  0.00    -0.744 OA
ENDBRANCH  96  97
ENDBRANCH  64  89
ENDBRANCH  38  39
ENDBRANCH  31  33
ENDBRANCH  30  31
ENDBRANCH  29  30
ENDBRANCH  28  29
ENDBRANCH  27  28
ENDBRANCH  26  27
ENDBRANCH   1  26
TORSDOF 24
ENDMDL
