MODEL 1
REMARK VINA RESULT:     -10.9      0.000      0.000
REMARK SMILES CCOc1ccc(-n2ncc(C(=O)OCCOCCOCCOC(=O)c3ccc(-c4c5nc(c(-c6c(F)cc(S(=O)(=O)[O-])cc6F)c6ccc([nH]6)c(-c6c(F)cc(S(=O)(=O)[O-])cc6F)c6nc(c(-c7c(F)cc(S(=O)(=O)[O-])cc7F)c7ccc4[nH]7)C=C6)C=C5)cc3)c2C)nn1
REMARK SMILES IDX 18 1 17 2 16 3 15 4 14 5 12 6 13 7 11 8 8 9 9 10 92 11 10 12
REMARK SMILES IDX 93 13 7 14 4 15 5 16 95 17 6 18 94 19 3 20 2 21 1 22 19 23
REMARK SMILES IDX 20 24 21 25 22 26 23 27 24 28 25 29 26 30 27 31 91 32 28 33
REMARK SMILES IDX 90 34 29 35 30 36 31 37 84 38 32 39 89 40 83 41 85 42 33 43
REMARK SMILES IDX 88 44 82 45 81 46 34 48 68 49 47 50 67 51 48 52 51 53 66 54
REMARK SMILES IDX 86 55 49 56 50 57 65 59 87 60 52 61 35 62 36 63 45 64 37 65
REMARK SMILES IDX 38 66 44 67 46 68 39 69 40 70 41 71 42 72 43 73 69 74 70 75
REMARK SMILES IDX 79 76 71 77 72 78 78 79 80 80 73 81 74 82 75 83 76 84 77 85
REMARK SMILES IDX 53 86 54 87 63 88 55 89 56 90 62 91 64 92 57 93 58 94 59 95
REMARK SMILES IDX 60 96 61 97
REMARK H PARENT 85 47 51 58
REMARK Flexibility Score: inf
ROOT
ATOM      1  C   UNL A   1      40.980  21.536  26.524  1.00  0.00     0.188 C 
ENDROOT
BRANCH   1   2
ATOM      2  O   UNL A   1      39.810  22.177  26.073  1.00  0.00    -0.376 OA
BRANCH   2   3
ATOM      3  C   UNL A   1      38.641  21.420  25.840  1.00  0.00     0.202 C 
BRANCH   3   4
ATOM      4  C   UNL A   1      37.457  21.903  24.953  1.00  0.00     0.261 C 
BRANCH   4   5
ATOM      5  O   UNL A   1      36.360  22.626  25.563  1.00  0.00    -0.460 OA
BRANCH   5   6
ATOM      6  C   UNL A   1      35.100  22.050  25.464  1.00  0.00     0.341 C 
ATOM      7  O   UNL A   1      34.890  20.887  25.547  1.00  0.00    -0.246 OA
BRANCH   6   8
ATOM      8  C   UNL A   1      34.024  23.072  25.457  1.00  0.00     0.101 A 
ATOM      9  N   UNL A   1      32.535  24.601  24.802  1.00  0.00    -0.217 N 
ATOM     10  N   UNL A   1      32.567  24.679  26.161  1.00  0.00    -0.174 NA
ATOM     11  C   UNL A   1      33.373  23.600  24.332  1.00  0.00     0.058 A 
ATOM     12  C   UNL A   1      33.353  23.669  26.538  1.00  0.00     0.151 A 
ATOM     13  C   UNL A   1      33.470  23.268  22.880  1.00  0.00     0.068 C 
BRANCH   9  14
ATOM     14  C   UNL A   1      31.930  25.630  24.029  1.00  0.00     0.176 A 
ATOM     15  C   UNL A   1      30.673  27.704  22.768  1.00  0.00     0.233 A 
ATOM     16  C   UNL A   1      29.915  26.680  23.301  1.00  0.00     0.074 A 
ATOM     17  N   UNL A   1      32.020  27.684  22.846  1.00  0.00    -0.110 NA
ATOM     18  C   UNL A   1      30.547  25.630  23.954  1.00  0.00     0.057 A 
ATOM     19  N   UNL A   1      32.661  26.648  23.515  1.00  0.00    -0.127 NA
BRANCH  15  20
ATOM     20  O   UNL A   1      30.096  28.680  21.996  1.00  0.00    -0.477 OA
BRANCH  20  21
ATOM     21  C   UNL A   1      28.875  29.217  22.522  1.00  0.00     0.228 C 
ATOM     22  C   UNL A   1      29.072  30.498  23.324  1.00  0.00     0.049 C 
ENDBRANCH  20  21
ENDBRANCH  15  20
ENDBRANCH   9  14
ENDBRANCH   6   8
ENDBRANCH   5   6
ENDBRANCH   4   5
ENDBRANCH   3   4
ENDBRANCH   2   3
ENDBRANCH   1   2
BRANCH   1  23
ATOM     23  C   UNL A   1      41.156  19.994  26.512  1.00  0.00     0.188 C 
BRANCH  23  24
ATOM     24  O   UNL A   1      42.394  19.371  26.790  1.00  0.00    -0.376 OA
BRANCH  24  25
ATOM     25  C   UNL A   1      43.039  18.549  25.831  1.00  0.00     0.202 C 
BRANCH  25  26
ATOM     26  C   UNL A   1      44.173  19.023  24.916  1.00  0.00     0.261 C 
BRANCH  26  27
ATOM     27  O   UNL A   1      44.102  20.367  24.482  1.00  0.00    -0.460 OA
BRANCH  27  28
ATOM     28  C   UNL A   1      45.104  21.169  24.917  1.00  0.00     0.338 C 
ATOM     29  O   UNL A   1      46.003  20.886  25.687  1.00  0.00    -0.246 OA
BRANCH  28  30
ATOM     30  C   UNL A   1      44.935  22.470  24.256  1.00  0.00     0.060 A 
ATOM     31  C   UNL A   1      46.015  23.359  24.278  1.00  0.00     0.016 A 
ATOM     32  C   UNL A   1      43.655  22.951  24.474  1.00  0.00     0.016 A 
ATOM     33  C   UNL A   1      45.871  24.447  25.154  1.00  0.00     0.010 A 
ATOM     34  C   UNL A   1      43.607  24.231  24.907  1.00  0.00     0.010 A 
ATOM     35  C   UNL A   1      44.615  24.601  25.793  1.00  0.00    -0.014 A 
BRANCH  35  36
ATOM     36  C   UNL A   1      44.119  25.710  26.699  1.00  0.00     0.031 A 
ATOM     37  C   UNL A   1      45.208  26.863  26.307  1.00  0.00     0.074 A 
ATOM     38  C   UNL A   1      42.945  25.721  27.534  1.00  0.00     0.049 A 
ATOM     39  N   UNL A   1      46.352  27.003  26.919  1.00  0.00    -0.248 NA
ATOM     40  C   UNL A   1      45.391  27.524  24.938  1.00  0.00     0.031 C 
ATOM     41  C   UNL A   1      41.800  24.754  27.923  1.00  0.00     0.029 A 
ATOM     42  N   UNL A   1      42.485  26.742  28.393  1.00  0.00    -0.354 N 
ATOM     43  C   UNL A   1      46.975  28.131  26.369  1.00  0.00     0.074 A 
ATOM     44  C   UNL A   1      46.546  28.200  25.026  1.00  0.00     0.031 C 
ATOM     45  C   UNL A   1      40.731  25.393  28.536  1.00  0.00     0.029 A 
ATOM     46  C   UNL A   1      41.083  26.775  28.790  1.00  0.00     0.049 A 
ATOM     47  H   UNL A   1      43.107  27.430  28.722  1.00  0.00     0.167 HD
ATOM     48  C   UNL A   1      47.442  29.104  27.195  1.00  0.00     0.037 A 
ATOM     49  C   UNL A   1      40.405  27.757  29.534  1.00  0.00     0.037 A 
ATOM     50  C   UNL A   1      47.427  28.567  28.530  1.00  0.00     0.049 A 
ATOM     51  C   UNL A   1      41.515  28.613  30.058  1.00  0.00     0.074 A 
ATOM     52  C   UNL A   1      48.093  27.530  29.147  1.00  0.00     0.029 A 
ATOM     53  N   UNL A   1      46.199  28.683  29.124  1.00  0.00    -0.354 N 
ATOM     54  N   UNL A   1      42.361  28.133  30.939  1.00  0.00    -0.248 NA
ATOM     55  C   UNL A   1      42.043  29.559  29.070  1.00  0.00     0.031 C 
ATOM     56  C   UNL A   1      47.097  26.833  29.893  1.00  0.00     0.029 A 
ATOM     57  C   UNL A   1      45.923  27.582  29.887  1.00  0.00     0.049 A 
ATOM     58  H   UNL A   1      45.595  29.453  29.015  1.00  0.00     0.167 HD
ATOM     59  C   UNL A   1      43.599  28.302  30.337  1.00  0.00     0.074 A 
ATOM     60  C   UNL A   1      43.330  29.190  29.167  1.00  0.00     0.031 C 
ATOM     61  C   UNL A   1      44.641  27.417  30.526  1.00  0.00     0.037 A 
BRANCH  48  62
ATOM     62  C   UNL A   1      47.423  30.596  26.959  1.00  0.00     0.058 A 
ATOM     63  C   UNL A   1      48.619  31.291  27.217  1.00  0.00     0.135 A 
ATOM     64  C   UNL A   1      46.277  31.402  26.763  1.00  0.00     0.135 A 
ATOM     65  F   UNL A   1      49.765  30.619  27.411  1.00  0.00    -0.206 F 
ATOM     66  C   UNL A   1      48.680  32.676  27.311  1.00  0.00     0.059 A 
ATOM     67  C   UNL A   1      46.324  32.803  26.801  1.00  0.00     0.059 A 
ATOM     68  F   UNL A   1      45.062  30.866  26.579  1.00  0.00    -0.206 F 
ATOM     69  C   UNL A   1      47.533  33.428  27.084  1.00  0.00     0.060 A 
BRANCH  69  70
ATOM     70  S   UNL A   1      47.698  35.224  27.095  1.00  0.00     0.124 S 
ATOM     71  O   UNL A   1      46.647  35.623  28.024  1.00  0.00    -0.237 OA
ATOM     72  O   UNL A   1      49.067  35.385  27.580  1.00  0.00    -0.237 OA
ATOM     73  O   UNL A   1      47.487  35.596  25.701  1.00  0.00    -0.744 OA
ENDBRANCH  69  70
ENDBRANCH  48  62
BRANCH  49  74
ATOM     74  C   UNL A   1      38.993  28.365  29.319  1.00  0.00     0.058 A 
ATOM     75  C   UNL A   1      37.934  28.647  30.253  1.00  0.00     0.135 A 
ATOM     76  C   UNL A   1      38.804  28.981  28.076  1.00  0.00     0.135 A 
ATOM     77  F   UNL A   1      37.959  28.147  31.502  1.00  0.00    -0.206 F 
ATOM     78  C   UNL A   1      36.813  29.492  29.943  1.00  0.00     0.059 A 
ATOM     79  C   UNL A   1      37.735  29.825  27.762  1.00  0.00     0.059 A 
ATOM     80  F   UNL A   1      39.739  28.853  27.128  1.00  0.00    -0.206 F 
ATOM     81  C   UNL A   1      36.747  30.105  28.692  1.00  0.00     0.060 A 
BRANCH  81  82
ATOM     82  S   UNL A   1      35.489  31.362  28.273  1.00  0.00     0.124 S 
ATOM     83  O   UNL A   1      34.645  30.664  27.310  1.00  0.00    -0.237 OA
ATOM     84  O   UNL A   1      34.880  31.646  29.568  1.00  0.00    -0.237 OA
ATOM     85  O   UNL A   1      36.283  32.457  27.715  1.00  0.00    -0.744 OA
ENDBRANCH  81  82
ENDBRANCH  49  74
BRANCH  61  86
ATOM     86  C   UNL A   1      44.540  26.254  31.512  1.00  0.00     0.058 A 
ATOM     87  C   UNL A   1      44.453  24.866  31.242  1.00  0.00     0.135 A 
ATOM     88  C   UNL A   1      44.786  26.586  32.847  1.00  0.00     0.135 A 
ATOM     89  F   UNL A   1      44.468  24.403  29.988  1.00  0.00    -0.206 F 
ATOM     90  C   UNL A   1      44.462  23.889  32.254  1.00  0.00     0.059 A 
ATOM     91  C   UNL A   1      44.868  25.636  33.859  1.00  0.00     0.059 A 
ATOM     92  F   UNL A   1      45.052  27.861  33.170  1.00  0.00    -0.206 F 
ATOM     93  C   UNL A   1      44.661  24.292  33.570  1.00  0.00     0.060 A 
BRANCH  93  94
ATOM     94  S   UNL A   1      44.728  23.065  34.898  1.00  0.00     0.124 S 
ATOM     95  O   UNL A   1      46.005  23.367  35.536  1.00  0.00    -0.237 OA
ATOM     96  O   UNL A   1      43.539  23.381  35.684  1.00  0.00    -0.237 OA
ATOM     97  O   UNL A   1      44.675  21.791  34.186  1.00  0.00    -0.744 OA
ENDBRANCH  93  94
ENDBRANCH  61  86
ENDBRANCH  35  36
ENDBRANCH  28  30
ENDBRANCH  27  28
ENDBRANCH  26  27
ENDBRANCH  25  26
ENDBRANCH  24  25
ENDBRANCH  23  24
ENDBRANCH   1  23
TORSDOF 23
ENDMDL
MODEL 2
REMARK VINA RESULT:      -9.3      1.464      2.362
REMARK SMILES CCOc1ccc(-n2ncc(C(=O)OCCOCCOCCOC(=O)c3ccc(-c4c5nc(c(-c6c(F)cc(S(=O)(=O)[O-])cc6F)c6ccc([nH]6)c(-c6c(F)cc(S(=O)(=O)[O-])cc6F)c6nc(c(-c7c(F)cc(S(=O)(=O)[O-])cc7F)c7ccc4[nH]7)C=C6)C=C5)cc3)c2C)nn1
REMARK SMILES IDX 18 1 17 2 16 3 15 4 14 5 12 6 13 7 11 8 8 9 9 10 92 11 10 12
REMARK SMILES IDX 93 13 7 14 4 15 5 16 95 17 6 18 94 19 3 20 2 21 1 22 19 23
REMARK SMILES IDX 20 24 21 25 22 26 23 27 24 28 25 29 26 30 27 31 91 32 28 33
REMARK SMILES IDX 90 34 29 35 30 36 31 37 84 38 32 39 89 40 83 41 85 42 33 43
REMARK SMILES IDX 88 44 82 45 81 46 34 48 68 49 47 50 67 51 48 52 51 53 66 54
REMARK SMILES IDX 86 55 49 56 50 57 65 59 87 60 52 61 35 62 36 63 45 64 37 65
REMARK SMILES IDX 38 66 44 67 46 68 39 69 40 70 41 71 42 72 43 73 69 74 70 75
REMARK SMILES IDX 79 76 71 77 72 78 78 79 80 80 73 81 74 82 75 83 76 84 77 85
REMARK SMILES IDX 53 86 54 87 63 88 55 89 56 90 62 91 64 92 57 93 58 94 59 95
REMARK SMILES IDX 60 96 61 97
REMARK H PARENT 85 47 51 58
REMARK Flexibility Score: inf
ROOT
ATOM      1  C   UNL A   1      37.707  23.493  25.296  1.00  0.00     0.188 C 
ENDROOT
BRANCH   1   2
ATOM      2  O   UNL A   1      37.245  22.379  24.570  1.00  0.00    -0.376 OA
BRANCH   2   3
ATOM      3  C   UNL A   1      36.726  21.259  25.257  1.00  0.00     0.202 C 
BRANCH   3   4
ATOM      4  C   UNL A   1      35.209  21.033  25.526  1.00  0.00     0.261 C 
BRANCH   4   5
ATOM      5  O   UNL A   1      34.248  21.995  25.030  1.00  0.00    -0.460 OA
BRANCH   5   6
ATOM      6  C   UNL A   1      34.079  23.153  25.779  1.00  0.00     0.341 C 
ATOM      7  O   UNL A   1      34.297  23.234  26.940  1.00  0.00    -0.246 OA
BRANCH   6   8
ATOM      8  C   UNL A   1      33.800  24.331  24.920  1.00  0.00     0.101 A 
ATOM      9  N   UNL A   1      32.902  26.191  24.072  1.00  0.00    -0.217 N 
ATOM     10  N   UNL A   1      33.763  25.732  23.121  1.00  0.00    -0.174 NA
ATOM     11  C   UNL A   1      32.929  25.393  25.207  1.00  0.00     0.058 A 
ATOM     12  C   UNL A   1      34.388  24.705  23.699  1.00  0.00     0.151 A 
ATOM     13  C   UNL A   1      32.123  25.718  26.420  1.00  0.00     0.068 C 
BRANCH   9  14
ATOM     14  C   UNL A   1      31.931  27.181  23.756  1.00  0.00     0.176 A 
ATOM     15  C   UNL A   1      29.908  28.966  23.321  1.00  0.00     0.233 A 
ATOM     16  C   UNL A   1      29.774  27.670  22.862  1.00  0.00     0.074 A 
ATOM     17  N   UNL A   1      31.027  29.364  23.962  1.00  0.00    -0.110 NA
ATOM     18  C   UNL A   1      30.793  26.755  23.092  1.00  0.00     0.057 A 
ATOM     19  N   UNL A   1      32.044  28.451  24.213  1.00  0.00    -0.127 NA
BRANCH  15  20
ATOM     20  O   UNL A   1      28.989  29.929  22.990  1.00  0.00    -0.477 OA
BRANCH  20  21
ATOM     21  C   UNL A   1      29.196  30.542  21.711  1.00  0.00     0.228 C 
ATOM     22  C   UNL A   1      28.045  31.441  21.276  1.00  0.00     0.049 C 
ENDBRANCH  20  21
ENDBRANCH  15  20
ENDBRANCH   9  14
ENDBRANCH   6   8
ENDBRANCH   5   6
ENDBRANCH   4   5
ENDBRANCH   3   4
ENDBRANCH   2   3
ENDBRANCH   1   2
BRANCH   1  23
ATOM     23  C   UNL A   1      38.680  23.371  26.499  1.00  0.00     0.188 C 
BRANCH  23  24
ATOM     24  O   UNL A   1      39.967  22.801  26.378  1.00  0.00    -0.376 OA
BRANCH  24  25
ATOM     25  C   UNL A   1      40.192  21.423  26.629  1.00  0.00     0.202 C 
BRANCH  25  26
ATOM     26  C   UNL A   1      41.570  20.815  26.913  1.00  0.00     0.261 C 
BRANCH  26  27
ATOM     27  O   UNL A   1      42.685  21.612  26.565  1.00  0.00    -0.460 OA
BRANCH  27  28
ATOM     28  C   UNL A   1      43.450  21.129  25.556  1.00  0.00     0.338 C 
ATOM     29  O   UNL A   1      43.458  19.999  25.104  1.00  0.00    -0.246 OA
BRANCH  28  30
ATOM     30  C   UNL A   1      44.270  22.243  25.062  1.00  0.00     0.060 A 
ATOM     31  C   UNL A   1      45.525  22.440  25.648  1.00  0.00     0.016 A 
ATOM     32  C   UNL A   1      43.469  23.337  24.789  1.00  0.00     0.016 A 
ATOM     33  C   UNL A   1      45.608  23.537  26.519  1.00  0.00     0.010 A 
ATOM     34  C   UNL A   1      43.908  24.499  25.327  1.00  0.00     0.010 A 
ATOM     35  C   UNL A   1      44.479  24.392  26.592  1.00  0.00    -0.014 A 
BRANCH  35  36
ATOM     36  C   UNL A   1      44.298  25.694  27.347  1.00  0.00     0.031 A 
ATOM     37  C   UNL A   1      45.619  26.487  26.806  1.00  0.00     0.074 A 
ATOM     38  C   UNL A   1      43.190  26.096  28.176  1.00  0.00     0.049 A 
ATOM     39  N   UNL A   1      46.783  26.419  27.392  1.00  0.00    -0.248 NA
ATOM     40  C   UNL A   1      45.910  26.906  25.362  1.00  0.00     0.031 C 
ATOM     41  C   UNL A   1      41.859  25.494  28.690  1.00  0.00     0.029 A 
ATOM     42  N   UNL A   1      43.020  27.298  28.896  1.00  0.00    -0.354 N 
ATOM     43  C   UNL A   1      47.642  27.282  26.698  1.00  0.00     0.074 A 
ATOM     44  C   UNL A   1      47.197  27.285  25.359  1.00  0.00     0.031 C 
ATOM     45  C   UNL A   1      40.998  26.446  29.217  1.00  0.00     0.029 A 
ATOM     46  C   UNL A   1      41.682  27.722  29.289  1.00  0.00     0.049 A 
ATOM     47  H   UNL A   1      43.801  27.849  29.131  1.00  0.00     0.167 HD
ATOM     48  C   UNL A   1      48.357  28.208  27.389  1.00  0.00     0.037 A 
ATOM     49  C   UNL A   1      41.287  28.925  29.900  1.00  0.00     0.037 A 
ATOM     50  C   UNL A   1      48.259  27.863  28.783  1.00  0.00     0.049 A 
ATOM     51  C   UNL A   1      42.588  29.543  30.305  1.00  0.00     0.074 A 
ATOM     52  C   UNL A   1      48.675  26.781  29.528  1.00  0.00     0.029 A 
ATOM     53  N   UNL A   1      47.115  28.349  29.359  1.00  0.00    -0.354 N 
ATOM     54  N   UNL A   1      43.322  28.985  31.239  1.00  0.00    -0.248 NA
ATOM     55  C   UNL A   1      43.295  30.199  29.201  1.00  0.00     0.031 C 
ATOM     56  C   UNL A   1      47.566  26.448  30.360  1.00  0.00     0.029 A 
ATOM     57  C   UNL A   1      46.608  27.454  30.260  1.00  0.00     0.049 A 
ATOM     58  H   UNL A   1      46.713  29.223  29.153  1.00  0.00     0.167 HD
ATOM     59  C   UNL A   1      44.544  28.770  30.618  1.00  0.00     0.074 A 
ATOM     60  C   UNL A   1      44.458  29.543  29.342  1.00  0.00     0.031 C 
ATOM     61  C   UNL A   1      45.346  27.688  30.918  1.00  0.00     0.037 A 
BRANCH  48  62
ATOM     62  C   UNL A   1      48.692  29.618  26.961  1.00  0.00     0.058 A 
ATOM     63  C   UNL A   1      50.057  29.958  26.923  1.00  0.00     0.135 A 
ATOM     64  C   UNL A   1      47.788  30.700  26.850  1.00  0.00     0.135 A 
ATOM     65  F   UNL A   1      50.996  29.004  27.014  1.00  0.00    -0.206 F 
ATOM     66  C   UNL A   1      50.503  31.270  26.819  1.00  0.00     0.059 A 
ATOM     67  C   UNL A   1      48.213  32.027  26.692  1.00  0.00     0.059 A 
ATOM     68  F   UNL A   1      46.462  30.522  26.942  1.00  0.00    -0.206 F 
ATOM     69  C   UNL A   1      49.577  32.299  26.685  1.00  0.00     0.060 A 
BRANCH  69  70
ATOM     70  S   UNL A   1      50.214  33.966  26.427  1.00  0.00     0.124 S 
ATOM     71  O   UNL A   1      51.632  33.719  26.189  1.00  0.00    -0.237 OA
ATOM     72  O   UNL A   1      49.441  34.394  25.264  1.00  0.00    -0.237 OA
ATOM     73  O   UNL A   1      49.892  34.653  27.673  1.00  0.00    -0.744 OA
ENDBRANCH  69  70
ENDBRANCH  48  62
BRANCH  49  74
ATOM     74  C   UNL A   1      40.057  29.828  29.611  1.00  0.00     0.058 A 
ATOM     75  C   UNL A   1      39.110  29.813  28.527  1.00  0.00     0.135 A 
ATOM     76  C   UNL A   1      39.638  30.610  30.693  1.00  0.00     0.135 A 
ATOM     77  F   UNL A   1      39.344  29.100  27.410  1.00  0.00    -0.206 F 
ATOM     78  C   UNL A   1      37.855  30.514  28.567  1.00  0.00     0.059 A 
ATOM     79  C   UNL A   1      38.412  31.279  30.763  1.00  0.00     0.059 A 
ATOM     80  F   UNL A   1      40.394  30.670  31.795  1.00  0.00    -0.206 F 
ATOM     81  C   UNL A   1      37.506  31.220  29.717  1.00  0.00     0.060 A 
BRANCH  81  82
ATOM     82  S   UNL A   1      35.852  31.961  29.957  1.00  0.00     0.124 S 
ATOM     83  O   UNL A   1      35.073  31.366  28.878  1.00  0.00    -0.237 OA
ATOM     84  O   UNL A   1      35.505  31.531  31.307  1.00  0.00    -0.237 OA
ATOM     85  O   UNL A   1      36.104  33.395  29.815  1.00  0.00    -0.744 OA
ENDBRANCH  81  82
ENDBRANCH  49  74
BRANCH  61  86
ATOM     86  C   UNL A   1      45.001  26.719  32.047  1.00  0.00     0.058 A 
ATOM     87  C   UNL A   1      44.790  26.995  33.421  1.00  0.00     0.135 A 
ATOM     88  C   UNL A   1      44.631  25.437  31.635  1.00  0.00     0.135 A 
ATOM     89  F   UNL A   1      44.866  28.243  33.896  1.00  0.00    -0.206 F 
ATOM     90  C   UNL A   1      44.380  26.014  34.343  1.00  0.00     0.059 A 
ATOM     91  C   UNL A   1      44.157  24.468  32.513  1.00  0.00     0.059 A 
ATOM     92  F   UNL A   1      44.634  25.139  30.327  1.00  0.00    -0.206 F 
ATOM     93  C   UNL A   1      44.075  24.742  33.873  1.00  0.00     0.060 A 
BRANCH  93  94
ATOM     94  S   UNL A   1      43.498  23.463  35.015  1.00  0.00     0.124 S 
ATOM     95  O   UNL A   1      44.200  22.278  34.535  1.00  0.00    -0.237 OA
ATOM     96  O   UNL A   1      43.933  23.974  36.312  1.00  0.00    -0.237 OA
ATOM     97  O   UNL A   1      42.051  23.454  34.812  1.00  0.00    -0.744 OA
ENDBRANCH  93  94
ENDBRANCH  61  86
ENDBRANCH  35  36
ENDBRANCH  28  30
ENDBRANCH  27  28
ENDBRANCH  26  27
ENDBRANCH  25  26
ENDBRANCH  24  25
ENDBRANCH  23  24
ENDBRANCH   1  23
TORSDOF 23
ENDMDL
MODEL 3
REMARK VINA RESULT:      -9.2      3.168      4.345
REMARK SMILES CCOc1ccc(-n2ncc(C(=O)OCCOCCOCCOC(=O)c3ccc(-c4c5nc(c(-c6c(F)cc(S(=O)(=O)[O-])cc6F)c6ccc([nH]6)c(-c6c(F)cc(S(=O)(=O)[O-])cc6F)c6nc(c(-c7c(F)cc(S(=O)(=O)[O-])cc7F)c7ccc4[nH]7)C=C6)C=C5)cc3)c2C)nn1
REMARK SMILES IDX 18 1 17 2 16 3 15 4 14 5 12 6 13 7 11 8 8 9 9 10 92 11 10 12
REMARK SMILES IDX 93 13 7 14 4 15 5 16 95 17 6 18 94 19 3 20 2 21 1 22 19 23
REMARK SMILES IDX 20 24 21 25 22 26 23 27 24 28 25 29 26 30 27 31 91 32 28 33
REMARK SMILES IDX 90 34 29 35 30 36 31 37 84 38 32 39 89 40 83 41 85 42 33 43
REMARK SMILES IDX 88 44 82 45 81 46 34 48 68 49 47 50 67 51 48 52 51 53 66 54
REMARK SMILES IDX 86 55 49 56 50 57 65 59 87 60 52 61 35 62 36 63 45 64 37 65
REMARK SMILES IDX 38 66 44 67 46 68 39 69 40 70 41 71 42 72 43 73 69 74 70 75
REMARK SMILES IDX 79 76 71 77 72 78 78 79 80 80 73 81 74 82 75 83 76 84 77 85
REMARK SMILES IDX 53 86 54 87 63 88 55 89 56 90 62 91 64 92 57 93 58 94 59 95
REMARK SMILES IDX 60 96 61 97
REMARK H PARENT 85 47 51 58
REMARK Flexibility Score: inf
ROOT
ATOM      1  C   UNL A   1      37.114  23.373  24.526  1.00  0.00     0.188 C 
ENDROOT
BRANCH   1   2
ATOM      2  O   UNL A   1      36.903  21.981  24.480  1.00  0.00    -0.376 OA
BRANCH   2   3
ATOM      3  C   UNL A   1      36.314  21.325  25.583  1.00  0.00     0.202 C 
BRANCH   3   4
ATOM      4  C   UNL A   1      34.906  21.672  26.150  1.00  0.00     0.261 C 
BRANCH   4   5
ATOM      5  O   UNL A   1      34.070  22.621  25.444  1.00  0.00    -0.460 OA
BRANCH   5   6
ATOM      6  C   UNL A   1      33.446  22.166  24.290  1.00  0.00     0.341 C 
ATOM      7  O   UNL A   1      33.605  21.088  23.826  1.00  0.00    -0.246 OA
BRANCH   6   8
ATOM      8  C   UNL A   1      32.396  23.105  23.822  1.00  0.00     0.101 A 
ATOM      9  N   UNL A   1      31.290  24.958  23.248  1.00  0.00    -0.217 N 
ATOM     10  N   UNL A   1      30.357  23.965  23.271  1.00  0.00    -0.174 NA
ATOM     11  C   UNL A   1      32.557  24.469  23.531  1.00  0.00     0.058 A 
ATOM     12  C   UNL A   1      31.058  22.849  23.478  1.00  0.00     0.151 A 
ATOM     13  C   UNL A   1      33.766  25.344  23.506  1.00  0.00     0.068 C 
BRANCH   9  14
ATOM     14  C   UNL A   1      30.896  26.325  23.224  1.00  0.00     0.176 A 
ATOM     15  C   UNL A   1      30.379  29.008  23.264  1.00  0.00     0.233 A 
ATOM     16  C   UNL A   1      30.497  28.326  24.460  1.00  0.00     0.074 A 
ATOM     17  N   UNL A   1      30.497  28.365  22.083  1.00  0.00    -0.110 NA
ATOM     18  C   UNL A   1      30.773  26.965  24.445  1.00  0.00     0.057 A 
ATOM     19  N   UNL A   1      30.792  27.007  22.059  1.00  0.00    -0.127 NA
BRANCH  15  20
ATOM     20  O   UNL A   1      29.968  30.316  23.237  1.00  0.00    -0.477 OA
BRANCH  20  21
ATOM     21  C   UNL A   1      28.782  30.557  22.470  1.00  0.00     0.228 C 
ATOM     22  C   UNL A   1      28.033  31.816  22.890  1.00  0.00     0.049 C 
ENDBRANCH  20  21
ENDBRANCH  15  20
ENDBRANCH   9  14
ENDBRANCH   6   8
ENDBRANCH   5   6
ENDBRANCH   4   5
ENDBRANCH   3   4
ENDBRANCH   2   3
ENDBRANCH   1   2
BRANCH   1  23
ATOM     23  C   UNL A   1      37.597  24.112  25.802  1.00  0.00     0.188 C 
BRANCH  23  24
ATOM     24  O   UNL A   1      38.965  24.270  26.114  1.00  0.00    -0.376 OA
BRANCH  24  25
ATOM     25  C   UNL A   1      39.605  23.445  27.075  1.00  0.00     0.202 C 
BRANCH  25  26
ATOM     26  C   UNL A   1      40.925  23.799  27.769  1.00  0.00     0.261 C 
BRANCH  26  27
ATOM     27  O   UNL A   1      41.588  24.954  27.293  1.00  0.00    -0.460 OA
BRANCH  27  28
ATOM     28  C   UNL A   1      42.672  24.720  26.513  1.00  0.00     0.338 C 
ATOM     29  O   UNL A   1      43.102  23.643  26.142  1.00  0.00    -0.246 OA
BRANCH  28  30
ATOM     30  C   UNL A   1      43.238  26.026  26.153  1.00  0.00     0.060 A 
ATOM     31  C   UNL A   1      44.339  26.485  26.885  1.00  0.00     0.016 A 
ATOM     32  C   UNL A   1      42.223  26.910  25.827  1.00  0.00     0.016 A 
ATOM     33  C   UNL A   1      44.059  27.516  27.795  1.00  0.00     0.010 A 
ATOM     34  C   UNL A   1      42.305  28.108  26.450  1.00  0.00     0.010 A 
ATOM     35  C   UNL A   1      42.752  28.067  27.767  1.00  0.00    -0.014 A 
BRANCH  35  36
ATOM     36  C   UNL A   1      42.179  29.238  28.540  1.00  0.00     0.031 A 
ATOM     37  C   UNL A   1      43.259  30.383  28.102  1.00  0.00     0.074 A 
ATOM     38  C   UNL A   1      40.960  29.289  29.306  1.00  0.00     0.049 A 
ATOM     39  N   UNL A   1      44.363  30.612  28.759  1.00  0.00    -0.248 NA
ATOM     40  C   UNL A   1      43.502  30.922  26.690  1.00  0.00     0.031 C 
ATOM     41  C   UNL A   1      39.819  28.327  29.720  1.00  0.00     0.029 A 
ATOM     42  N   UNL A   1      40.427  30.370  30.041  1.00  0.00    -0.354 N 
ATOM     43  C   UNL A   1      44.988  31.704  28.142  1.00  0.00     0.074 A 
ATOM     44  C   UNL A   1      44.633  31.638  26.778  1.00  0.00     0.031 C 
ATOM     45  C   UNL A   1      38.702  28.986  30.214  1.00  0.00     0.029 A 
ATOM     46  C   UNL A   1      39.004  30.396  30.358  1.00  0.00     0.049 A 
ATOM     47  H   UNL A   1      41.013  31.103  30.339  1.00  0.00     0.167 HD
ATOM     48  C   UNL A   1      45.382  32.761  28.899  1.00  0.00     0.037 A 
ATOM     49  C   UNL A   1      38.261  31.420  30.971  1.00  0.00     0.037 A 
ATOM     50  C   UNL A   1      45.306  32.347  30.276  1.00  0.00     0.049 A 
ATOM     51  C   UNL A   1      39.318  32.353  31.473  1.00  0.00     0.074 A 
ATOM     52  C   UNL A   1      45.963  31.391  31.020  1.00  0.00     0.029 A 
ATOM     53  N   UNL A   1      44.044  32.479  30.789  1.00  0.00    -0.354 N 
ATOM     54  N   UNL A   1      40.125  31.980  32.438  1.00  0.00    -0.248 NA
ATOM     55  C   UNL A   1      39.877  33.221  30.432  1.00  0.00     0.031 C 
ATOM     56  C   UNL A   1      44.944  30.734  31.772  1.00  0.00     0.029 A 
ATOM     57  C   UNL A   1      43.754  31.444  31.634  1.00  0.00     0.049 A 
ATOM     58  H   UNL A   1      43.428  33.217  30.578  1.00  0.00     0.167 HD
ATOM     59  C   UNL A   1      41.391  32.131  31.891  1.00  0.00     0.074 A 
ATOM     60  C   UNL A   1      41.166  32.902  30.631  1.00  0.00     0.031 C 
ATOM     61  C   UNL A   1      42.442  31.298  32.216  1.00  0.00     0.037 A 
BRANCH  48  62
ATOM     62  C   UNL A   1      45.340  34.225  28.526  1.00  0.00     0.058 A 
ATOM     63  C   UNL A   1      46.549  34.937  28.628  1.00  0.00     0.135 A 
ATOM     64  C   UNL A   1      44.179  35.012  28.342  1.00  0.00     0.135 A 
ATOM     65  F   UNL A   1      47.709  34.283  28.797  1.00  0.00    -0.206 F 
ATOM     66  C   UNL A   1      46.611  36.325  28.587  1.00  0.00     0.059 A 
ATOM     67  C   UNL A   1      44.222  36.410  28.246  1.00  0.00     0.059 A 
ATOM     68  F   UNL A   1      42.956  34.464  28.301  1.00  0.00    -0.206 F 
ATOM     69  C   UNL A   1      45.447  37.056  28.377  1.00  0.00     0.060 A 
BRANCH  69  70
ATOM     70  S   UNL A   1      45.605  38.844  28.208  1.00  0.00     0.124 S 
ATOM     71  O   UNL A   1      44.316  39.314  28.702  1.00  0.00    -0.237 OA
ATOM     72  O   UNL A   1      46.752  39.116  29.070  1.00  0.00    -0.237 OA
ATOM     73  O   UNL A   1      45.843  39.033  26.781  1.00  0.00    -0.744 OA
ENDBRANCH  69  70
ENDBRANCH  48  62
BRANCH  49  74
ATOM     74  C   UNL A   1      36.848  31.964  30.626  1.00  0.00     0.058 A 
ATOM     75  C   UNL A   1      35.768  32.389  31.475  1.00  0.00     0.135 A 
ATOM     76  C   UNL A   1      36.682  32.352  29.291  1.00  0.00     0.135 A 
ATOM     77  F   UNL A   1      35.770  32.114  32.792  1.00  0.00    -0.206 F 
ATOM     78  C   UNL A   1      34.646  33.154  31.000  1.00  0.00     0.059 A 
ATOM     79  C   UNL A   1      35.612  33.115  28.813  1.00  0.00     0.059 A 
ATOM     80  F   UNL A   1      37.638  32.073  28.398  1.00  0.00    -0.206 F 
ATOM     81  C   UNL A   1      34.602  33.539  29.661  1.00  0.00     0.060 A 
BRANCH  81  82
ATOM     82  S   UNL A   1      33.341  34.688  29.005  1.00  0.00     0.124 S 
ATOM     83  O   UNL A   1      32.666  33.883  27.994  1.00  0.00    -0.237 OA
ATOM     84  O   UNL A   1      32.557  35.012  30.192  1.00  0.00    -0.237 OA
ATOM     85  O   UNL A   1      34.140  35.794  28.477  1.00  0.00    -0.744 OA
ENDBRANCH  81  82
ENDBRANCH  49  74
BRANCH  61  86
ATOM     86  C   UNL A   1      42.315  30.227  33.298  1.00  0.00     0.058 A 
ATOM     87  C   UNL A   1      42.014  30.386  34.673  1.00  0.00     0.135 A 
ATOM     88  C   UNL A   1      42.274  28.912  32.828  1.00  0.00     0.135 A 
ATOM     89  F   UNL A   1      41.777  31.594  35.195  1.00  0.00    -0.206 F 
ATOM     90  C   UNL A   1      41.831  29.297  35.546  1.00  0.00     0.059 A 
ATOM     91  C   UNL A   1      42.029  27.821  33.655  1.00  0.00     0.059 A 
ATOM     92  F   UNL A   1      42.378  28.680  31.510  1.00  0.00    -0.206 F 
ATOM     93  C   UNL A   1      41.852  28.009  35.021  1.00  0.00     0.060 A 
BRANCH  93  94
ATOM     94  S   UNL A   1      41.575  26.582  36.097  1.00  0.00     0.124 S 
ATOM     95  O   UNL A   1      40.724  25.731  35.272  1.00  0.00    -0.237 OA
ATOM     96  O   UNL A   1      42.929  26.089  36.328  1.00  0.00    -0.237 OA
ATOM     97  O   UNL A   1      40.922  27.163  37.269  1.00  0.00    -0.744 OA
ENDBRANCH  93  94
ENDBRANCH  61  86
ENDBRANCH  35  36
ENDBRANCH  28  30
ENDBRANCH  27  28
ENDBRANCH  26  27
ENDBRANCH  25  26
ENDBRANCH  24  25
ENDBRANCH  23  24
ENDBRANCH   1  23
TORSDOF 23
ENDMDL
