MODEL 1
REMARK VINA RESULT:     -10.4      0.000      0.000
REMARK SMILES Nc1c(C(=O)NCC(=O)OCCOCCOCCOC(=O)c2ccc(-c3c4nc(c(-c5c(F)cc(S(=O)(=O)[O-])cc5F)c5ccc([nH]5)c(-c5c(F)cc(S(=O)(=O)[O-])cc5F)c5nc(c(-c6c(F)cc(S(=O)(=O)[O-])cc6F)c6ccc3[nH]6)C=C5)C=C4)cc2)cnn1-c1ccccc1
REMARK SMILES IDX 14 1 13 2 12 3 11 4 10 5 8 6 9 7 7 8 6 9 4 10 5 11 3 13 2 14
REMARK SMILES IDX 90 15 88 16 89 17 1 18 91 21 92 22 96 23 93 24 95 25 94 26
REMARK SMILES IDX 15 27 16 28 17 29 18 30 19 31 20 32 21 33 22 34 23 35 87 36
REMARK SMILES IDX 24 37 86 38 25 39 26 40 27 41 80 42 28 43 85 44 79 45 81 46
REMARK SMILES IDX 29 47 84 48 78 49 77 50 30 52 64 53 43 54 63 55 44 56 47 57
REMARK SMILES IDX 62 58 82 59 45 60 46 61 61 63 83 64 48 65 31 66 32 67 41 68
REMARK SMILES IDX 33 69 34 70 40 71 42 72 35 73 36 74 37 75 38 76 39 77 65 78
REMARK SMILES IDX 66 79 75 80 67 81 68 82 74 83 76 84 69 85 70 86 71 87 72 88
REMARK SMILES IDX 73 89 49 90 50 91 59 92 51 93 52 94 58 95 60 96 53 97 54 98
REMARK SMILES IDX 55 99 56 100 57 101
REMARK H PARENT 6 12 1 19 1 20 81 51 47 62
REMARK Flexibility Score: inf
ROOT
ATOM      1  C   UNL A   1      38.388  22.620  26.111  1.00  0.00     0.188 C 
ENDROOT
BRANCH   1   2
ATOM      2  O   UNL A   1      37.230  21.851  25.888  1.00  0.00    -0.376 OA
BRANCH   2   3
ATOM      3  C   UNL A   1      36.042  22.497  25.461  1.00  0.00     0.202 C 
BRANCH   3   4
ATOM      4  C   UNL A   1      36.074  23.763  24.577  1.00  0.00     0.261 C 
BRANCH   4   5
ATOM      5  O   UNL A   1      34.802  24.412  24.393  1.00  0.00    -0.462 OA
BRANCH   5   6
ATOM      6  C   UNL A   1      34.397  25.277  25.364  1.00  0.00     0.325 C 
ATOM      7  O   UNL A   1      35.152  25.879  26.118  1.00  0.00    -0.250 OA
BRANCH   6   8
ATOM      8  C   UNL A   1      32.900  25.612  25.267  1.00  0.00     0.239 C 
BRANCH   8   9
ATOM      9  N   UNL A   1      32.020  24.978  26.233  1.00  0.00    -0.341 N 
ATOM     10  C   UNL A   1      31.490  23.727  26.302  1.00  0.00     0.257 C 
ATOM     11  O   UNL A   1      30.806  23.463  27.294  1.00  0.00    -0.269 OA
ATOM     12  H   UNL A   1      31.757  25.565  26.977  1.00  0.00     0.164 HD
BRANCH  10  13
ATOM     13  C   UNL A   1      31.747  22.743  25.271  1.00  0.00     0.102 A 
ATOM     14  C   UNL A   1      32.431  21.554  25.489  1.00  0.00     0.140 A 
ATOM     15  N   UNL A   1      32.502  20.909  24.261  1.00  0.00    -0.217 N 
ATOM     16  C   UNL A   1      31.435  22.692  23.898  1.00  0.00     0.151 A 
ATOM     17  N   UNL A   1      31.995  21.668  23.262  1.00  0.00    -0.174 NA
BRANCH  14  18
ATOM     18  N   UNL A   1      33.001  21.097  26.633  1.00  0.00    -0.383 N 
ATOM     19  H   UNL A   1      32.436  20.828  27.392  1.00  0.00     0.158 HD
ATOM     20  H   UNL A   1      33.982  21.036  26.703  1.00  0.00     0.158 HD
ENDBRANCH  14  18
BRANCH  15  21
ATOM     21  C   UNL A   1      32.933  19.602  23.959  1.00  0.00     0.067 A 
ATOM     22  C   UNL A   1      32.334  18.932  22.885  1.00  0.00     0.028 A 
ATOM     23  C   UNL A   1      33.858  18.955  24.783  1.00  0.00     0.028 A 
ATOM     24  C   UNL A   1      32.678  17.611  22.621  1.00  0.00     0.002 A 
ATOM     25  C   UNL A   1      34.163  17.617  24.538  1.00  0.00     0.002 A 
ATOM     26  C   UNL A   1      33.579  16.951  23.456  1.00  0.00     0.000 A 
ENDBRANCH  15  21
ENDBRANCH  10  13
ENDBRANCH   8   9
ENDBRANCH   6   8
ENDBRANCH   5   6
ENDBRANCH   4   5
ENDBRANCH   3   4
ENDBRANCH   2   3
ENDBRANCH   1   2
BRANCH   1  27
ATOM     27  C   UNL A   1      39.736  21.940  26.374  1.00  0.00     0.188 C 
BRANCH  27  28
ATOM     28  O   UNL A   1      39.850  20.586  26.756  1.00  0.00    -0.376 OA
BRANCH  28  29
ATOM     29  C   UNL A   1      40.573  19.583  26.047  1.00  0.00     0.202 C 
BRANCH  29  30
ATOM     30  C   UNL A   1      42.091  19.392  26.057  1.00  0.00     0.261 C 
BRANCH  30  31
ATOM     31  O   UNL A   1      42.838  20.569  26.219  1.00  0.00    -0.460 OA
BRANCH  31  32
ATOM     32  C   UNL A   1      43.741  20.765  25.237  1.00  0.00     0.338 C 
ATOM     33  O   UNL A   1      44.104  19.961  24.389  1.00  0.00    -0.246 OA
BRANCH  32  34
ATOM     34  C   UNL A   1      44.180  22.156  25.322  1.00  0.00     0.060 A 
ATOM     35  C   UNL A   1      45.116  22.458  26.309  1.00  0.00     0.016 A 
ATOM     36  C   UNL A   1      43.453  23.136  24.632  1.00  0.00     0.016 A 
ATOM     37  C   UNL A   1      45.063  23.714  26.850  1.00  0.00     0.010 A 
ATOM     38  C   UNL A   1      43.386  24.382  25.185  1.00  0.00     0.010 A 
ATOM     39  C   UNL A   1      44.094  24.596  26.361  1.00  0.00    -0.014 A 
BRANCH  39  40
ATOM     40  C   UNL A   1      43.845  25.804  27.103  1.00  0.00     0.031 A 
ATOM     41  C   UNL A   1      44.907  26.795  26.881  1.00  0.00     0.074 A 
ATOM     42  C   UNL A   1      42.720  25.965  27.827  1.00  0.00     0.049 A 
ATOM     43  N   UNL A   1      45.851  27.117  27.699  1.00  0.00    -0.248 NA
ATOM     44  C   UNL A   1      45.101  27.291  25.508  1.00  0.00     0.031 C 
ATOM     45  C   UNL A   1      41.539  25.098  27.883  1.00  0.00     0.029 A 
ATOM     46  N   UNL A   1      42.362  27.013  28.611  1.00  0.00    -0.354 N 
ATOM     47  C   UNL A   1      46.573  28.093  27.029  1.00  0.00     0.074 A 
ATOM     48  C   UNL A   1      46.248  27.958  25.635  1.00  0.00     0.031 C 
ATOM     49  C   UNL A   1      40.520  25.770  28.468  1.00  0.00     0.029 A 
ATOM     50  C   UNL A   1      41.010  27.052  28.941  1.00  0.00     0.049 A 
ATOM     51  H   UNL A   1      43.006  27.689  28.922  1.00  0.00     0.167 HD
ATOM     52  C   UNL A   1      47.085  29.149  27.714  1.00  0.00     0.037 A 
ATOM     53  C   UNL A   1      40.360  28.115  29.486  1.00  0.00     0.037 A 
ATOM     54  C   UNL A   1      47.186  28.858  29.125  1.00  0.00     0.049 A 
ATOM     55  C   UNL A   1      41.401  28.972  30.121  1.00  0.00     0.074 A 
ATOM     56  C   UNL A   1      47.814  27.873  29.863  1.00  0.00     0.029 A 
ATOM     57  N   UNL A   1      46.238  29.404  29.956  1.00  0.00    -0.354 N 
ATOM     58  N   UNL A   1      42.106  28.600  31.157  1.00  0.00    -0.248 NA
ATOM     59  C   UNL A   1      42.005  30.017  29.306  1.00  0.00     0.031 C 
ATOM     60  C   UNL A   1      46.909  27.563  30.920  1.00  0.00     0.029 A 
ATOM     61  C   UNL A   1      45.815  28.425  30.822  1.00  0.00     0.049 A 
ATOM     62  H   UNL A   1      45.916  30.334  29.935  1.00  0.00     0.167 HD
ATOM     63  C   UNL A   1      43.399  29.027  30.882  1.00  0.00     0.074 A 
ATOM     64  C   UNL A   1      43.259  29.957  29.762  1.00  0.00     0.031 C 
ATOM     65  C   UNL A   1      44.483  28.364  31.386  1.00  0.00     0.037 A 
BRANCH  52  66
ATOM     66  C   UNL A   1      47.076  30.549  27.157  1.00  0.00     0.058 A 
ATOM     67  C   UNL A   1      48.269  31.292  27.150  1.00  0.00     0.135 A 
ATOM     68  C   UNL A   1      45.898  31.280  26.871  1.00  0.00     0.135 A 
ATOM     69  F   UNL A   1      49.439  30.702  27.443  1.00  0.00    -0.206 F 
ATOM     70  C   UNL A   1      48.285  32.666  26.916  1.00  0.00     0.059 A 
ATOM     71  C   UNL A   1      45.898  32.634  26.572  1.00  0.00     0.059 A 
ATOM     72  F   UNL A   1      44.674  30.748  26.964  1.00  0.00    -0.206 F 
ATOM     73  C   UNL A   1      47.093  33.327  26.631  1.00  0.00     0.060 A 
BRANCH  73  74
ATOM     74  S   UNL A   1      47.098  35.108  26.392  1.00  0.00     0.124 S 
ATOM     75  O   UNL A   1      46.696  35.215  24.995  1.00  0.00    -0.237 OA
ATOM     76  O   UNL A   1      46.115  35.545  27.378  1.00  0.00    -0.237 OA
ATOM     77  O   UNL A   1      48.478  35.482  26.685  1.00  0.00    -0.744 OA
ENDBRANCH  73  74
ENDBRANCH  52  66
BRANCH  53  78
ATOM     78  C   UNL A   1      39.005  28.631  29.135  1.00  0.00     0.058 A 
ATOM     79  C   UNL A   1      38.013  28.802  30.119  1.00  0.00     0.135 A 
ATOM     80  C   UNL A   1      38.746  29.240  27.889  1.00  0.00     0.135 A 
ATOM     81  F   UNL A   1      38.179  28.275  31.343  1.00  0.00    -0.206 F 
ATOM     82  C   UNL A   1      36.864  29.574  29.900  1.00  0.00     0.059 A 
ATOM     83  C   UNL A   1      37.607  30.005  27.646  1.00  0.00     0.059 A 
ATOM     84  F   UNL A   1      39.642  29.191  26.893  1.00  0.00    -0.206 F 
ATOM     85  C   UNL A   1      36.681  30.191  28.663  1.00  0.00     0.060 A 
BRANCH  85  86
ATOM     86  S   UNL A   1      35.300  31.336  28.427  1.00  0.00     0.124 S 
ATOM     87  O   UNL A   1      34.977  31.708  29.800  1.00  0.00    -0.237 OA
ATOM     88  O   UNL A   1      35.900  32.383  27.608  1.00  0.00    -0.237 OA
ATOM     89  O   UNL A   1      34.295  30.520  27.749  1.00  0.00    -0.744 OA
ENDBRANCH  85  86
ENDBRANCH  53  78
BRANCH  65  90
ATOM     90  C   UNL A   1      44.249  27.352  32.483  1.00  0.00     0.058 A 
ATOM     91  C   UNL A   1      44.046  27.665  33.840  1.00  0.00     0.135 A 
ATOM     92  C   UNL A   1      44.100  26.007  32.112  1.00  0.00     0.135 A 
ATOM     93  F   UNL A   1      44.060  28.937  34.264  1.00  0.00    -0.206 F 
ATOM     94  C   UNL A   1      43.766  26.678  34.792  1.00  0.00     0.059 A 
ATOM     95  C   UNL A   1      43.788  25.013  33.036  1.00  0.00     0.059 A 
ATOM     96  F   UNL A   1      44.215  25.648  30.824  1.00  0.00    -0.206 F 
ATOM     97  C   UNL A   1      43.642  25.353  34.378  1.00  0.00     0.060 A 
BRANCH  97  98
ATOM     98  S   UNL A   1      43.242  24.078  35.595  1.00  0.00     0.124 S 
ATOM     99  O   UNL A   1      41.783  24.089  35.582  1.00  0.00    -0.237 OA
ATOM    100  O   UNL A   1      43.872  22.889  35.029  1.00  0.00    -0.237 OA
ATOM    101  O   UNL A   1      43.858  24.573  36.824  1.00  0.00    -0.744 OA
ENDBRANCH  97  98
ENDBRANCH  65  90
ENDBRANCH  39  40
ENDBRANCH  32  34
ENDBRANCH  31  32
ENDBRANCH  30  31
ENDBRANCH  29  30
ENDBRANCH  28  29
ENDBRANCH  27  28
ENDBRANCH   1  27
TORSDOF 24
ENDMDL
MODEL 2
REMARK VINA RESULT:     -10.2      4.383      9.542
REMARK SMILES Nc1c(C(=O)NCC(=O)OCCOCCOCCOC(=O)c2ccc(-c3c4nc(c(-c5c(F)cc(S(=O)(=O)[O-])cc5F)c5ccc([nH]5)c(-c5c(F)cc(S(=O)(=O)[O-])cc5F)c5nc(c(-c6c(F)cc(S(=O)(=O)[O-])cc6F)c6ccc3[nH]6)C=C5)C=C4)cc2)cnn1-c1ccccc1
REMARK SMILES IDX 14 1 13 2 12 3 11 4 10 5 8 6 9 7 7 8 6 9 4 10 5 11 3 13 2 14
REMARK SMILES IDX 90 15 88 16 89 17 1 18 91 21 92 22 96 23 93 24 95 25 94 26
REMARK SMILES IDX 15 27 16 28 17 29 18 30 19 31 20 32 21 33 22 34 23 35 87 36
REMARK SMILES IDX 24 37 86 38 25 39 26 40 27 41 80 42 28 43 85 44 79 45 81 46
REMARK SMILES IDX 29 47 84 48 78 49 77 50 30 52 64 53 43 54 63 55 44 56 47 57
REMARK SMILES IDX 62 58 82 59 45 60 46 61 61 63 83 64 48 65 31 66 32 67 41 68
REMARK SMILES IDX 33 69 34 70 40 71 42 72 35 73 36 74 37 75 38 76 39 77 65 78
REMARK SMILES IDX 66 79 75 80 67 81 68 82 74 83 76 84 69 85 70 86 71 87 72 88
REMARK SMILES IDX 73 89 49 90 50 91 59 92 51 93 52 94 58 95 60 96 53 97 54 98
REMARK SMILES IDX 55 99 56 100 57 101
REMARK H PARENT 6 12 1 19 1 20 81 51 47 62
REMARK Flexibility Score: inf
ROOT
ATOM      1  C   UNL A   1      33.964  27.680  25.895  1.00  0.00     0.188 C 
ENDROOT
BRANCH   1   2
ATOM      2  O   UNL A   1      33.153  26.643  25.397  1.00  0.00    -0.376 OA
BRANCH   2   3
ATOM      3  C   UNL A   1      32.315  25.929  26.290  1.00  0.00     0.202 C 
BRANCH   3   4
ATOM      4  C   UNL A   1      31.845  24.488  25.993  1.00  0.00     0.261 C 
BRANCH   4   5
ATOM      5  O   UNL A   1      32.901  23.531  25.790  1.00  0.00    -0.462 OA
BRANCH   5   6
ATOM      6  C   UNL A   1      33.112  23.095  24.517  1.00  0.00     0.325 C 
ATOM      7  O   UNL A   1      33.711  22.066  24.225  1.00  0.00    -0.250 OA
BRANCH   6   8
ATOM      8  C   UNL A   1      32.314  23.899  23.479  1.00  0.00     0.239 C 
BRANCH   8   9
ATOM      9  N   UNL A   1      33.067  24.795  22.620  1.00  0.00    -0.341 N 
ATOM     10  C   UNL A   1      32.820  26.058  22.176  1.00  0.00     0.257 C 
ATOM     11  O   UNL A   1      33.693  26.590  21.487  1.00  0.00    -0.269 OA
ATOM     12  H   UNL A   1      33.918  24.418  22.298  1.00  0.00     0.164 HD
BRANCH  10  13
ATOM     13  C   UNL A   1      31.599  26.752  22.528  1.00  0.00     0.102 A 
ATOM     14  C   UNL A   1      31.433  28.127  22.423  1.00  0.00     0.140 A 
ATOM     15  N   UNL A   1      30.152  28.406  22.884  1.00  0.00    -0.217 N 
ATOM     16  C   UNL A   1      30.358  26.312  23.031  1.00  0.00     0.151 A 
ATOM     17  N   UNL A   1      29.539  27.302  23.371  1.00  0.00    -0.174 NA
BRANCH  14  18
ATOM     18  N   UNL A   1      32.330  29.065  22.027  1.00  0.00    -0.383 N 
ATOM     19  H   UNL A   1      32.105  30.021  22.094  1.00  0.00     0.158 HD
ATOM     20  H   UNL A   1      33.206  28.789  21.671  1.00  0.00     0.158 HD
ENDBRANCH  14  18
BRANCH  15  21
ATOM     21  C   UNL A   1      29.424  29.610  22.831  1.00  0.00     0.067 A 
ATOM     22  C   UNL A   1      28.701  29.904  21.669  1.00  0.00     0.028 A 
ATOM     23  C   UNL A   1      29.514  30.537  23.874  1.00  0.00     0.028 A 
ATOM     24  C   UNL A   1      28.046  31.125  21.556  1.00  0.00     0.002 A 
ATOM     25  C   UNL A   1      28.891  31.777  23.733  1.00  0.00     0.002 A 
ATOM     26  C   UNL A   1      28.155  32.065  22.581  1.00  0.00     0.000 A 
ENDBRANCH  15  21
ENDBRANCH  10  13
ENDBRANCH   8   9
ENDBRANCH   6   8
ENDBRANCH   5   6
ENDBRANCH   4   5
ENDBRANCH   3   4
ENDBRANCH   2   3
ENDBRANCH   1   2
BRANCH   1  27
ATOM     27  C   UNL A   1      33.645  28.340  27.241  1.00  0.00     0.188 C 
BRANCH  27  28
ATOM     28  O   UNL A   1      32.355  28.802  27.582  1.00  0.00    -0.376 OA
BRANCH  28  29
ATOM     29  C   UNL A   1      31.600  29.767  26.854  1.00  0.00     0.202 C 
BRANCH  29  30
ATOM     30  C   UNL A   1      31.952  31.247  26.691  1.00  0.00     0.261 C 
BRANCH  30  31
ATOM     31  O   UNL A   1      33.067  31.679  27.426  1.00  0.00    -0.460 OA
BRANCH  31  32
ATOM     32  C   UNL A   1      32.989  32.972  27.797  1.00  0.00     0.338 C 
ATOM     33  O   UNL A   1      32.072  33.754  27.584  1.00  0.00    -0.246 OA
BRANCH  32  34
ATOM     34  C   UNL A   1      34.192  33.275  28.571  1.00  0.00     0.060 A 
ATOM     35  C   UNL A   1      35.205  33.964  27.908  1.00  0.00     0.016 A 
ATOM     36  C   UNL A   1      34.384  32.628  29.800  1.00  0.00     0.016 A 
ATOM     37  C   UNL A   1      36.491  33.705  28.300  1.00  0.00     0.010 A 
ATOM     38  C   UNL A   1      35.666  32.354  30.177  1.00  0.00     0.010 A 
ATOM     39  C   UNL A   1      36.685  32.789  29.339  1.00  0.00    -0.014 A 
BRANCH  39  40
ATOM     40  C   UNL A   1      38.020  32.302  29.567  1.00  0.00     0.031 A 
ATOM     41  C   UNL A   1      38.138  30.881  29.208  1.00  0.00     0.074 A 
ATOM     42  C   UNL A   1      39.005  33.120  29.983  1.00  0.00     0.049 A 
ATOM     43  N   UNL A   1      38.204  29.880  30.018  1.00  0.00    -0.248 NA
ATOM     44  C   UNL A   1      37.892  30.510  27.805  1.00  0.00     0.031 C 
ATOM     45  C   UNL A   1      38.980  34.580  30.125  1.00  0.00     0.029 A 
ATOM     46  N   UNL A   1      40.291  32.811  30.287  1.00  0.00    -0.354 N 
ATOM     47  C   UNL A   1      38.317  28.772  29.192  1.00  0.00     0.074 A 
ATOM     48  C   UNL A   1      37.851  29.180  27.895  1.00  0.00     0.031 C 
ATOM     49  C   UNL A   1      40.248  35.037  30.257  1.00  0.00     0.029 A 
ATOM     50  C   UNL A   1      41.151  33.903  30.341  1.00  0.00     0.049 A 
ATOM     51  H   UNL A   1      40.590  31.888  30.455  1.00  0.00     0.167 HD
ATOM     52  C   UNL A   1      39.118  27.736  29.553  1.00  0.00     0.037 A 
ATOM     53  C   UNL A   1      42.510  33.840  30.367  1.00  0.00     0.037 A 
ATOM     54  C   UNL A   1      39.381  27.746  30.972  1.00  0.00     0.049 A 
ATOM     55  C   UNL A   1      42.863  32.472  30.842  1.00  0.00     0.074 A 
ATOM     56  C   UNL A   1      38.583  27.729  32.100  1.00  0.00     0.029 A 
ATOM     57  N   UNL A   1      40.609  28.203  31.388  1.00  0.00    -0.354 N 
ATOM     58  N   UNL A   1      42.607  32.040  32.049  1.00  0.00    -0.248 NA
ATOM     59  C   UNL A   1      43.035  31.431  29.838  1.00  0.00     0.031 C 
ATOM     60  C   UNL A   1      39.222  28.607  33.025  1.00  0.00     0.029 A 
ATOM     61  C   UNL A   1      40.412  29.053  32.448  1.00  0.00     0.049 A 
ATOM     62  H   UNL A   1      41.479  27.963  30.994  1.00  0.00     0.167 HD
ATOM     63  C   UNL A   1      42.155  30.739  31.875  1.00  0.00     0.074 A 
ATOM     64  C   UNL A   1      42.510  30.396  30.499  1.00  0.00     0.031 C 
ATOM     65  C   UNL A   1      41.276  30.174  32.757  1.00  0.00     0.037 A 
BRANCH  52  66
ATOM     66  C   UNL A   1      39.979  27.001  28.558  1.00  0.00     0.058 A 
ATOM     67  C   UNL A   1      39.841  25.608  28.428  1.00  0.00     0.135 A 
ATOM     68  C   UNL A   1      41.107  27.567  27.917  1.00  0.00     0.135 A 
ATOM     69  F   UNL A   1      38.825  24.966  29.028  1.00  0.00    -0.206 F 
ATOM     70  C   UNL A   1      40.777  24.831  27.747  1.00  0.00     0.059 A 
ATOM     71  C   UNL A   1      42.014  26.821  27.180  1.00  0.00     0.059 A 
ATOM     72  F   UNL A   1      41.448  28.853  28.052  1.00  0.00    -0.206 F 
ATOM     73  C   UNL A   1      41.861  25.448  27.129  1.00  0.00     0.060 A 
BRANCH  73  74
ATOM     74  S   UNL A   1      43.105  24.446  26.305  1.00  0.00     0.124 S 
ATOM     75  O   UNL A   1      43.161  25.077  24.992  1.00  0.00    -0.237 OA
ATOM     76  O   UNL A   1      44.267  24.646  27.164  1.00  0.00    -0.237 OA
ATOM     77  O   UNL A   1      42.531  23.104  26.340  1.00  0.00    -0.744 OA
ENDBRANCH  73  74
ENDBRANCH  52  66
BRANCH  53  78
ATOM     78  C   UNL A   1      43.475  34.705  29.629  1.00  0.00     0.058 A 
ATOM     79  C   UNL A   1      43.521  34.710  28.221  1.00  0.00     0.135 A 
ATOM     80  C   UNL A   1      44.167  35.754  30.270  1.00  0.00     0.135 A 
ATOM     81  F   UNL A   1      42.876  33.763  27.523  1.00  0.00    -0.206 F 
ATOM     82  C   UNL A   1      44.164  35.722  27.495  1.00  0.00     0.059 A 
ATOM     83  C   UNL A   1      44.821  36.765  29.569  1.00  0.00     0.059 A 
ATOM     84  F   UNL A   1      44.149  35.883  31.605  1.00  0.00    -0.206 F 
ATOM     85  C   UNL A   1      44.794  36.760  28.181  1.00  0.00     0.060 A 
BRANCH  85  86
ATOM     86  S   UNL A   1      45.468  38.164  27.261  1.00  0.00     0.124 S 
ATOM     87  O   UNL A   1      46.427  37.513  26.375  1.00  0.00    -0.237 OA
ATOM     88  O   UNL A   1      44.279  38.714  26.618  1.00  0.00    -0.237 OA
ATOM     89  O   UNL A   1      46.052  39.005  28.303  1.00  0.00    -0.744 OA
ENDBRANCH  85  86
ENDBRANCH  53  78
BRANCH  65  90
ATOM     90  C   UNL A   1      41.043  30.875  34.075  1.00  0.00     0.058 A 
ATOM     91  C   UNL A   1      41.857  30.739  35.216  1.00  0.00     0.135 A 
ATOM     92  C   UNL A   1      40.015  31.826  34.138  1.00  0.00     0.135 A 
ATOM     93  F   UNL A   1      42.929  29.934  35.206  1.00  0.00    -0.206 F 
ATOM     94  C   UNL A   1      41.621  31.474  36.383  1.00  0.00     0.059 A 
ATOM     95  C   UNL A   1      39.782  32.593  35.277  1.00  0.00     0.059 A 
ATOM     96  F   UNL A   1      39.242  32.054  33.064  1.00  0.00    -0.206 F 
ATOM     97  C   UNL A   1      40.577  32.397  36.404  1.00  0.00     0.060 A 
BRANCH  97  98
ATOM     98  S   UNL A   1      40.290  33.377  37.894  1.00  0.00     0.124 S 
ATOM     99  O   UNL A   1      39.662  32.407  38.784  1.00  0.00    -0.237 OA
ATOM    100  O   UNL A   1      41.639  33.797  38.263  1.00  0.00    -0.237 OA
ATOM    101  O   UNL A   1      39.417  34.454  37.432  1.00  0.00    -0.744 OA
ENDBRANCH  97  98
ENDBRANCH  65  90
ENDBRANCH  39  40
ENDBRANCH  32  34
ENDBRANCH  31  32
ENDBRANCH  30  31
ENDBRANCH  29  30
ENDBRANCH  28  29
ENDBRANCH  27  28
ENDBRANCH   1  27
TORSDOF 24
ENDMDL
MODEL 3
REMARK VINA RESULT:      -9.9      2.321      4.102
REMARK SMILES Nc1c(C(=O)NCC(=O)OCCOCCOCCOC(=O)c2ccc(-c3c4nc(c(-c5c(F)cc(S(=O)(=O)[O-])cc5F)c5ccc([nH]5)c(-c5c(F)cc(S(=O)(=O)[O-])cc5F)c5nc(c(-c6c(F)cc(S(=O)(=O)[O-])cc6F)c6ccc3[nH]6)C=C5)C=C4)cc2)cnn1-c1ccccc1
REMARK SMILES IDX 14 1 13 2 12 3 11 4 10 5 8 6 9 7 7 8 6 9 4 10 5 11 3 13 2 14
REMARK SMILES IDX 90 15 88 16 89 17 1 18 91 21 92 22 96 23 93 24 95 25 94 26
REMARK SMILES IDX 15 27 16 28 17 29 18 30 19 31 20 32 21 33 22 34 23 35 87 36
REMARK SMILES IDX 24 37 86 38 25 39 26 40 27 41 80 42 28 43 85 44 79 45 81 46
REMARK SMILES IDX 29 47 84 48 78 49 77 50 30 52 64 53 43 54 63 55 44 56 47 57
REMARK SMILES IDX 62 58 82 59 45 60 46 61 61 63 83 64 48 65 31 66 32 67 41 68
REMARK SMILES IDX 33 69 34 70 40 71 42 72 35 73 36 74 37 75 38 76 39 77 65 78
REMARK SMILES IDX 66 79 75 80 67 81 68 82 74 83 76 84 69 85 70 86 71 87 72 88
REMARK SMILES IDX 73 89 49 90 50 91 59 92 51 93 52 94 58 95 60 96 53 97 54 98
REMARK SMILES IDX 55 99 56 100 57 101
REMARK H PARENT 6 12 1 19 1 20 81 51 47 62
REMARK Flexibility Score: inf
ROOT
ATOM      1  C   UNL A   1      38.390  22.517  25.991  1.00  0.00     0.188 C 
ENDROOT
BRANCH   1   2
ATOM      2  O   UNL A   1      37.254  21.737  25.704  1.00  0.00    -0.376 OA
BRANCH   2   3
ATOM      3  C   UNL A   1      36.125  22.352  25.105  1.00  0.00     0.202 C 
BRANCH   3   4
ATOM      4  C   UNL A   1      36.264  23.552  24.143  1.00  0.00     0.261 C 
BRANCH   4   5
ATOM      5  O   UNL A   1      35.031  24.020  23.568  1.00  0.00    -0.462 OA
BRANCH   5   6
ATOM      6  C   UNL A   1      34.181  24.702  24.385  1.00  0.00     0.325 C 
ATOM      7  O   UNL A   1      34.535  25.490  25.255  1.00  0.00    -0.250 OA
BRANCH   6   8
ATOM      8  C   UNL A   1      32.713  24.570  23.950  1.00  0.00     0.239 C 
BRANCH   8   9
ATOM      9  N   UNL A   1      31.712  24.579  25.002  1.00  0.00    -0.341 N 
ATOM     10  C   UNL A   1      30.891  25.557  25.474  1.00  0.00     0.257 C 
ATOM     11  O   UNL A   1      30.094  25.239  26.358  1.00  0.00    -0.269 OA
ATOM     12  H   UNL A   1      31.608  23.715  25.461  1.00  0.00     0.164 HD
BRANCH  10  13
ATOM     13  C   UNL A   1      30.935  26.900  24.933  1.00  0.00     0.102 A 
ATOM     14  C   UNL A   1      29.909  27.469  24.191  1.00  0.00     0.140 A 
ATOM     15  N   UNL A   1      30.341  28.739  23.829  1.00  0.00    -0.217 N 
ATOM     16  C   UNL A   1      31.909  27.917  24.976  1.00  0.00     0.151 A 
ATOM     17  N   UNL A   1      31.620  28.965  24.210  1.00  0.00    -0.174 NA
BRANCH  14  18
ATOM     18  N   UNL A   1      28.731  26.918  23.804  1.00  0.00    -0.383 N 
ATOM     19  H   UNL A   1      28.358  26.152  24.298  1.00  0.00     0.158 HD
ATOM     20  H   UNL A   1      28.248  27.284  23.027  1.00  0.00     0.158 HD
ENDBRANCH  14  18
BRANCH  15  21
ATOM     21  C   UNL A   1      29.625  29.790  23.224  1.00  0.00     0.067 A 
ATOM     22  C   UNL A   1      29.348  29.710  21.854  1.00  0.00     0.028 A 
ATOM     23  C   UNL A   1      29.297  30.935  23.956  1.00  0.00     0.028 A 
ATOM     24  C   UNL A   1      28.721  30.773  21.215  1.00  0.00     0.002 A 
ATOM     25  C   UNL A   1      28.709  32.014  23.298  1.00  0.00     0.002 A 
ATOM     26  C   UNL A   1      28.417  31.929  21.934  1.00  0.00     0.000 A 
ENDBRANCH  15  21
ENDBRANCH  10  13
ENDBRANCH   8   9
ENDBRANCH   6   8
ENDBRANCH   5   6
ENDBRANCH   4   5
ENDBRANCH   3   4
ENDBRANCH   2   3
ENDBRANCH   1   2
BRANCH   1  27
ATOM     27  C   UNL A   1      39.745  21.852  26.255  1.00  0.00     0.188 C 
BRANCH  27  28
ATOM     28  O   UNL A   1      39.872  20.519  26.702  1.00  0.00    -0.376 OA
BRANCH  28  29
ATOM     29  C   UNL A   1      40.607  19.491  26.044  1.00  0.00     0.202 C 
BRANCH  29  30
ATOM     30  C   UNL A   1      42.124  19.298  26.093  1.00  0.00     0.261 C 
BRANCH  30  31
ATOM     31  O   UNL A   1      42.874  20.484  26.134  1.00  0.00    -0.460 OA
BRANCH  31  32
ATOM     32  C   UNL A   1      43.796  20.562  25.154  1.00  0.00     0.338 C 
ATOM     33  O   UNL A   1      44.097  19.697  24.343  1.00  0.00    -0.246 OA
BRANCH  32  34
ATOM     34  C   UNL A   1      44.351  21.914  25.187  1.00  0.00     0.060 A 
ATOM     35  C   UNL A   1      45.454  22.119  26.012  1.00  0.00     0.016 A 
ATOM     36  C   UNL A   1      43.599  22.965  24.641  1.00  0.00     0.016 A 
ATOM     37  C   UNL A   1      45.588  23.360  26.573  1.00  0.00     0.010 A 
ATOM     38  C   UNL A   1      43.720  24.196  25.216  1.00  0.00     0.010 A 
ATOM     39  C   UNL A   1      44.624  24.325  26.264  1.00  0.00    -0.014 A 
BRANCH  39  40
ATOM     40  C   UNL A   1      44.594  25.526  27.055  1.00  0.00     0.031 A 
ATOM     41  C   UNL A   1      45.806  26.331  26.849  1.00  0.00     0.074 A 
ATOM     42  C   UNL A   1      43.522  25.847  27.805  1.00  0.00     0.049 A 
ATOM     43  N   UNL A   1      46.802  26.455  27.661  1.00  0.00    -0.248 NA
ATOM     44  C   UNL A   1      46.064  26.842  25.492  1.00  0.00     0.031 C 
ATOM     45  C   UNL A   1      42.211  25.192  27.851  1.00  0.00     0.029 A 
ATOM     46  N   UNL A   1      43.357  26.908  28.635  1.00  0.00    -0.354 N 
ATOM     47  C   UNL A   1      47.671  27.321  27.014  1.00  0.00     0.074 A 
ATOM     48  C   UNL A   1      47.310  27.298  25.622  1.00  0.00     0.031 C 
ATOM     49  C   UNL A   1      41.329  26.003  28.480  1.00  0.00     0.029 A 
ATOM     50  C   UNL A   1      42.036  27.163  28.991  1.00  0.00     0.049 A 
ATOM     51  H   UNL A   1      44.110  27.452  28.958  1.00  0.00     0.167 HD
ATOM     52  C   UNL A   1      48.363  28.246  27.728  1.00  0.00     0.037 A 
ATOM     53  C   UNL A   1      41.583  28.298  29.588  1.00  0.00     0.037 A 
ATOM     54  C   UNL A   1      48.431  27.887  29.124  1.00  0.00     0.049 A 
ATOM     55  C   UNL A   1      42.763  28.940  30.234  1.00  0.00     0.074 A 
ATOM     56  C   UNL A   1      48.891  26.781  29.813  1.00  0.00     0.029 A 
ATOM     57  N   UNL A   1      47.600  28.551  29.994  1.00  0.00    -0.354 N 
ATOM     58  N   UNL A   1      43.407  28.413  31.242  1.00  0.00    -0.248 NA
ATOM     59  C   UNL A   1      43.526  29.899  29.447  1.00  0.00     0.031 C 
ATOM     60  C   UNL A   1      47.960  26.587  30.875  1.00  0.00     0.029 A 
ATOM     61  C   UNL A   1      47.028  27.624  30.830  1.00  0.00     0.049 A 
ATOM     62  H   UNL A   1      47.441  29.523  30.013  1.00  0.00     0.167 HD
ATOM     63  C   UNL A   1      44.750  28.625  30.959  1.00  0.00     0.074 A 
ATOM     64  C   UNL A   1      44.757  29.609  29.877  1.00  0.00     0.031 C 
ATOM     65  C   UNL A   1      45.712  27.768  31.417  1.00  0.00     0.037 A 
BRANCH  52  66
ATOM     66  C   UNL A   1      48.585  29.649  27.223  1.00  0.00     0.058 A 
ATOM     67  C   UNL A   1      49.897  30.149  27.143  1.00  0.00     0.135 A 
ATOM     68  C   UNL A   1      47.555  30.606  27.062  1.00  0.00     0.135 A 
ATOM     69  F   UNL A   1      50.948  29.331  27.317  1.00  0.00    -0.206 F 
ATOM     70  C   UNL A   1      50.163  31.505  26.958  1.00  0.00     0.059 A 
ATOM     71  C   UNL A   1      47.797  31.947  26.813  1.00  0.00     0.059 A 
ATOM     72  F   UNL A   1      46.261  30.314  27.238  1.00  0.00    -0.206 F 
ATOM     73  C   UNL A   1      49.105  32.395  26.797  1.00  0.00     0.060 A 
BRANCH  73  74
ATOM     74  S   UNL A   1      49.439  34.152  26.622  1.00  0.00     0.124 S 
ATOM     75  O   UNL A   1      50.821  34.231  27.080  1.00  0.00    -0.237 OA
ATOM     76  O   UNL A   1      49.222  34.358  25.194  1.00  0.00    -0.237 OA
ATOM     77  O   UNL A   1      48.446  34.772  27.495  1.00  0.00    -0.744 OA
ENDBRANCH  73  74
ENDBRANCH  52  66
BRANCH  53  78
ATOM     78  C   UNL A   1      40.332  29.050  29.282  1.00  0.00     0.058 A 
ATOM     79  C   UNL A   1      39.896  29.231  27.954  1.00  0.00     0.135 A 
ATOM     80  C   UNL A   1      39.387  29.352  30.285  1.00  0.00     0.135 A 
ATOM     81  F   UNL A   1      40.718  28.950  26.931  1.00  0.00    -0.206 F 
ATOM     82  C   UNL A   1      38.590  29.632  27.641  1.00  0.00     0.059 A 
ATOM     83  C   UNL A   1      38.086  29.761  29.997  1.00  0.00     0.059 A 
ATOM     84  F   UNL A   1      39.670  29.167  31.582  1.00  0.00    -0.206 F 
ATOM     85  C   UNL A   1      37.683  29.874  28.673  1.00  0.00     0.060 A 
BRANCH  85  86
ATOM     86  S   UNL A   1      35.950  30.213  28.283  1.00  0.00     0.124 S 
ATOM     87  O   UNL A   1      35.631  29.133  27.356  1.00  0.00    -0.237 OA
ATOM     88  O   UNL A   1      35.315  30.136  29.595  1.00  0.00    -0.237 OA
ATOM     89  O   UNL A   1      35.990  31.549  27.693  1.00  0.00    -0.744 OA
ENDBRANCH  85  86
ENDBRANCH  53  78
BRANCH  65  90
ATOM     90  C   UNL A   1      45.322  26.767  32.479  1.00  0.00     0.058 A 
ATOM     91  C   UNL A   1      45.278  27.033  33.861  1.00  0.00     0.135 A 
ATOM     92  C   UNL A   1      44.852  25.515  32.059  1.00  0.00     0.135 A 
ATOM     93  F   UNL A   1      45.604  28.242  34.342  1.00  0.00    -0.206 F 
ATOM     94  C   UNL A   1      44.840  26.077  34.784  1.00  0.00     0.059 A 
ATOM     95  C   UNL A   1      44.381  24.560  32.955  1.00  0.00     0.059 A 
ATOM     96  F   UNL A   1      44.805  25.219  30.750  1.00  0.00    -0.206 F 
ATOM     97  C   UNL A   1      44.397  24.839  34.319  1.00  0.00     0.060 A 
BRANCH  97  98
ATOM     98  S   UNL A   1      43.794  23.613  35.501  1.00  0.00     0.124 S 
ATOM     99  O   UNL A   1      42.352  23.833  35.463  1.00  0.00    -0.237 OA
ATOM    100  O   UNL A   1      44.259  22.357  34.920  1.00  0.00    -0.237 OA
ATOM    101  O   UNL A   1      44.449  23.991  36.750  1.00  0.00    -0.744 OA
ENDBRANCH  97  98
ENDBRANCH  65  90
ENDBRANCH  39  40
ENDBRANCH  32  34
ENDBRANCH  31  32
ENDBRANCH  30  31
ENDBRANCH  29  30
ENDBRANCH  28  29
ENDBRANCH  27  28
ENDBRANCH   1  27
TORSDOF 24
ENDMDL
