MODEL 1
REMARK VINA RESULT:     -10.4      0.000      0.000
REMARK SMILES Cc1ccc(-c2cc([C@@H](C)C(=O)OCCOCCOCCOC(=O)c3ccc(-c4c5nc(c(-c6c(F)cc(S(=O)(=O)[O-])cc6F)c6ccc([nH]6)c(-c6c(F)cc(S(=O)(=O)[O-])cc6F)c6nc(c(-c7c(F)cc(S(=O)(=O)[O-])cc7F)c7ccc4[nH]7)C=C6)C=C5)cc3)ccc2C[C@H]2CCCC2=O)cc1
REMARK SMILES IDX 17 1 16 2 15 3 14 4 13 5 11 6 12 7 9 8 10 9 8 10 6 11 7 12
REMARK SMILES IDX 93 13 92 14 91 15 5 16 1 17 2 18 3 19 102 20 4 21 101 22
REMARK SMILES IDX 94 23 95 24 96 25 99 26 97 27 98 28 100 29 18 30 19 31 20 32
REMARK SMILES IDX 21 33 22 34 23 35 24 36 25 37 26 38 90 39 27 40 89 41 28 42
REMARK SMILES IDX 29 43 30 44 83 45 31 46 88 47 82 48 84 49 32 50 87 51 81 52
REMARK SMILES IDX 80 53 33 55 67 56 46 57 66 58 47 59 50 60 65 61 85 62 48 63
REMARK SMILES IDX 49 64 64 66 86 67 51 68 34 69 35 70 44 71 36 72 37 73 43 74
REMARK SMILES IDX 45 75 38 76 39 77 40 78 41 79 42 80 68 81 69 82 78 83 70 84
REMARK SMILES IDX 71 85 77 86 79 87 72 88 73 89 74 90 75 91 76 92 52 93 53 94
REMARK SMILES IDX 62 95 54 96 55 97 61 98 63 99 56 100 57 101 58 102 59 103
REMARK SMILES IDX 60 104
REMARK H PARENT 84 54 50 65
REMARK Flexibility Score: inf
ROOT
ATOM      1  C   UNL A   1      41.654  27.050  25.562  1.00  0.00     0.188 C 
ENDROOT
BRANCH   1   2
ATOM      2  O   UNL A   1      40.914  27.174  26.797  1.00  0.00    -0.376 OA
BRANCH   2   3
ATOM      3  C   UNL A   1      39.546  26.801  27.053  1.00  0.00     0.202 C 
BRANCH   3   4
ATOM      4  C   UNL A   1      38.822  25.290  27.575  1.00  0.00     0.261 C 
BRANCH   4   5
ATOM      5  O   UNL A   1      38.367  23.804  26.772  1.00  0.00    -0.463 OA
BRANCH   5   6
ATOM      6  C   UNL A   1      37.550  23.332  25.658  1.00  0.00     0.313 C 
ATOM      7  O   UNL A   1      37.500  23.749  24.491  1.00  0.00    -0.252 OA
BRANCH   6   8
ATOM      8  C   UNL A   1      36.533  22.258  25.781  1.00  0.00     0.126 C 
ATOM      9  C   UNL A   1      37.033  20.937  25.168  1.00  0.00     0.025 C 
BRANCH   8  10
ATOM     10  C   UNL A   1      35.174  22.637  25.397  1.00  0.00    -0.033 A 
ATOM     11  C   UNL A   1      33.505  24.376  25.340  1.00  0.00    -0.015 A 
ATOM     12  C   UNL A   1      34.755  23.924  25.723  1.00  0.00     0.013 A 
ATOM     13  C   UNL A   1      32.694  23.503  24.579  1.00  0.00    -0.039 A 
ATOM     14  C   UNL A   1      33.118  22.182  24.326  1.00  0.00     0.004 A 
ATOM     15  C   UNL A   1      34.357  21.748  24.725  1.00  0.00     0.005 A 
BRANCH  11  16
ATOM     16  C   UNL A   1      33.105  25.697  25.827  1.00  0.00    -0.018 A 
ATOM     17  C   UNL A   1      32.025  29.631  27.220  1.00  0.00     0.044 C 
ATOM     18  C   UNL A   1      32.361  28.272  26.691  1.00  0.00    -0.051 A 
ATOM     19  C   UNL A   1      33.561  28.076  25.999  1.00  0.00     0.004 A 
ATOM     20  C   UNL A   1      31.502  27.188  26.889  1.00  0.00     0.004 A 
ATOM     21  C   UNL A   1      33.922  26.803  25.564  1.00  0.00     0.009 A 
ATOM     22  C   UNL A   1      31.870  25.913  26.454  1.00  0.00     0.009 A 
ENDBRANCH  11  16
BRANCH  13  23
ATOM     23  C   UNL A   1      31.383  23.931  23.964  1.00  0.00     0.047 C 
BRANCH  23  24
ATOM     24  C   UNL A   1      31.510  24.854  22.748  1.00  0.00     0.060 C 
ATOM     25  C   UNL A   1      31.224  26.327  23.041  1.00  0.00     0.012 C 
ATOM     26  C   UNL A   1      32.889  24.902  22.114  1.00  0.00     0.136 C 
ATOM     27  C   UNL A   1      32.158  27.106  22.135  1.00  0.00     0.009 C 
ATOM     28  C   UNL A   1      33.438  26.297  22.042  1.00  0.00     0.076 C 
ATOM     29  O   UNL A   1      33.488  23.916  21.699  1.00  0.00    -0.299 OA
ENDBRANCH  23  24
ENDBRANCH  13  23
ENDBRANCH   8  10
ENDBRANCH   6   8
ENDBRANCH   5   6
ENDBRANCH   4   5
ENDBRANCH   3   4
ENDBRANCH   2   3
ENDBRANCH   1   2
BRANCH   1  30
ATOM     30  C   UNL A   1      42.926  27.821  25.256  1.00  0.00     0.188 C 
BRANCH  30  31
ATOM     31  O   UNL A   1      44.009  26.924  25.144  1.00  0.00    -0.376 OA
BRANCH  31  32
ATOM     32  C   UNL A   1      45.223  27.384  25.689  1.00  0.00     0.202 C 
BRANCH  32  33
ATOM     33  C   UNL A   1      46.260  27.907  24.659  1.00  0.00     0.261 C 
BRANCH  33  34
ATOM     34  O   UNL A   1      46.925  26.886  23.857  1.00  0.00    -0.460 OA
BRANCH  34  35
ATOM     35  C   UNL A   1      48.264  26.570  24.059  1.00  0.00     0.338 C 
ATOM     36  O   UNL A   1      49.125  26.873  23.246  1.00  0.00    -0.246 OA
BRANCH  35  37
ATOM     37  C   UNL A   1      48.517  26.140  25.481  1.00  0.00     0.060 A 
ATOM     38  C   UNL A   1      48.160  24.999  26.220  1.00  0.00     0.016 A 
ATOM     39  C   UNL A   1      49.152  27.075  26.202  1.00  0.00     0.016 A 
ATOM     40  C   UNL A   1      48.201  24.959  27.699  1.00  0.00     0.010 A 
ATOM     41  C   UNL A   1      48.912  27.085  27.561  1.00  0.00     0.010 A 
ATOM     42  C   UNL A   1      48.501  26.088  28.470  1.00  0.00    -0.014 A 
BRANCH  42  43
ATOM     43  C   UNL A   1      48.388  26.329  30.143  1.00  0.00     0.031 A 
ATOM     44  C   UNL A   1      49.484  26.094  31.487  1.00  0.00     0.074 A 
ATOM     45  C   UNL A   1      47.174  26.738  30.557  1.00  0.00     0.049 A 
ATOM     46  N   UNL A   1      49.112  25.844  32.732  1.00  0.00    -0.248 NA
ATOM     47  C   UNL A   1      51.008  25.954  31.517  1.00  0.00     0.031 C 
ATOM     48  C   UNL A   1      46.804  27.292  31.850  1.00  0.00     0.029 A 
ATOM     49  N   UNL A   1      45.971  26.682  29.853  1.00  0.00    -0.354 N 
ATOM     50  C   UNL A   1      50.274  25.695  33.520  1.00  0.00     0.074 A 
ATOM     51  C   UNL A   1      51.304  25.358  32.648  1.00  0.00     0.031 C 
ATOM     52  C   UNL A   1      45.466  27.271  31.954  1.00  0.00     0.029 A 
ATOM     53  C   UNL A   1      44.949  26.556  30.800  1.00  0.00     0.049 A 
ATOM     54  H   UNL A   1      45.863  26.723  28.875  1.00  0.00     0.167 HD
ATOM     55  C   UNL A   1      50.401  26.102  34.814  1.00  0.00     0.037 A 
ATOM     56  C   UNL A   1      44.217  25.406  30.793  1.00  0.00     0.037 A 
ATOM     57  C   UNL A   1      49.067  26.200  35.353  1.00  0.00     0.049 A 
ATOM     58  C   UNL A   1      44.492  24.566  32.028  1.00  0.00     0.074 A 
ATOM     59  C   UNL A   1      48.123  27.200  35.458  1.00  0.00     0.029 A 
ATOM     60  N   UNL A   1      48.381  25.007  35.422  1.00  0.00    -0.354 N 
ATOM     61  N   UNL A   1      45.201  24.975  33.050  1.00  0.00    -0.248 NA
ATOM     62  C   UNL A   1      44.025  23.192  32.209  1.00  0.00     0.031 C 
ATOM     63  C   UNL A   1      46.838  26.564  35.369  1.00  0.00     0.029 A 
ATOM     64  C   UNL A   1      47.022  25.192  35.263  1.00  0.00     0.049 A 
ATOM     65  H   UNL A   1      48.806  24.131  35.567  1.00  0.00     0.167 HD
ATOM     66  C   UNL A   1      45.393  23.945  33.923  1.00  0.00     0.074 A 
ATOM     67  C   UNL A   1      44.593  22.861  33.382  1.00  0.00     0.031 C 
ATOM     68  C   UNL A   1      46.221  24.002  35.004  1.00  0.00     0.037 A 
BRANCH  55  69
ATOM     69  C   UNL A   1      51.717  26.520  35.521  1.00  0.00     0.058 A 
ATOM     70  C   UNL A   1      52.575  25.507  36.003  1.00  0.00     0.135 A 
ATOM     71  C   UNL A   1      52.175  27.828  35.864  1.00  0.00     0.135 A 
ATOM     72  F   UNL A   1      52.301  24.214  35.777  1.00  0.00    -0.206 F 
ATOM     73  C   UNL A   1      53.732  25.757  36.766  1.00  0.00     0.059 A 
ATOM     74  C   UNL A   1      53.323  28.100  36.623  1.00  0.00     0.059 A 
ATOM     75  F   UNL A   1      51.561  28.955  35.507  1.00  0.00    -0.206 F 
ATOM     76  C   UNL A   1      54.096  27.059  37.081  1.00  0.00     0.060 A 
BRANCH  76  77
ATOM     77  S   UNL A   1      55.556  27.379  38.092  1.00  0.00     0.124 S 
ATOM     78  O   UNL A   1      56.076  28.606  37.498  1.00  0.00    -0.237 OA
ATOM     79  O   UNL A   1      54.980  27.507  39.426  1.00  0.00    -0.237 OA
ATOM     80  O   UNL A   1      56.387  26.195  37.884  1.00  0.00    -0.744 OA
ENDBRANCH  76  77
ENDBRANCH  55  69
BRANCH  56  81
ATOM     81  C   UNL A   1      43.891  24.987  29.383  1.00  0.00     0.058 A 
ATOM     82  C   UNL A   1      44.736  24.001  28.811  1.00  0.00     0.135 A 
ATOM     83  C   UNL A   1      42.637  25.149  28.778  1.00  0.00     0.135 A 
ATOM     84  F   UNL A   1      45.961  23.794  29.323  1.00  0.00    -0.206 F 
ATOM     85  C   UNL A   1      44.300  23.108  27.835  1.00  0.00     0.059 A 
ATOM     86  C   UNL A   1      42.192  24.283  27.758  1.00  0.00     0.059 A 
ATOM     87  F   UNL A   1      41.767  26.052  29.254  1.00  0.00    -0.206 F 
ATOM     88  C   UNL A   1      43.003  23.218  27.356  1.00  0.00     0.060 A 
BRANCH  88  89
ATOM     89  S   UNL A   1      42.372  21.852  26.340  1.00  0.00     0.124 S 
ATOM     90  O   UNL A   1      43.241  21.910  25.168  1.00  0.00    -0.237 OA
ATOM     91  O   UNL A   1      42.589  20.707  27.224  1.00  0.00    -0.237 OA
ATOM     92  O   UNL A   1      40.983  22.224  26.106  1.00  0.00    -0.744 OA
ENDBRANCH  88  89
ENDBRANCH  56  81
BRANCH  68  93
ATOM     93  C   UNL A   1      46.336  22.839  35.936  1.00  0.00     0.058 A 
ATOM     94  C   UNL A   1      45.757  22.915  37.206  1.00  0.00     0.135 A 
ATOM     95  C   UNL A   1      47.162  21.730  35.667  1.00  0.00     0.135 A 
ATOM     96  F   UNL A   1      44.954  23.943  37.526  1.00  0.00    -0.206 F 
ATOM     97  C   UNL A   1      46.004  21.951  38.176  1.00  0.00     0.059 A 
ATOM     98  C   UNL A   1      47.472  20.787  36.637  1.00  0.00     0.059 A 
ATOM     99  F   UNL A   1      47.708  21.553  34.451  1.00  0.00    -0.206 F 
ATOM    100  C   UNL A   1      46.876  20.900  37.887  1.00  0.00     0.060 A 
BRANCH 100 101
ATOM    101  S   UNL A   1      47.252  19.685  39.159  1.00  0.00     0.124 S 
ATOM    102  O   UNL A   1      47.401  20.505  40.358  1.00  0.00    -0.237 OA
ATOM    103  O   UNL A   1      46.059  18.845  39.113  1.00  0.00    -0.237 OA
ATOM    104  O   UNL A   1      48.481  19.065  38.675  1.00  0.00    -0.744 OA
ENDBRANCH 100 101
ENDBRANCH  68  93
ENDBRANCH  42  43
ENDBRANCH  35  37
ENDBRANCH  34  35
ENDBRANCH  33  34
ENDBRANCH  32  33
ENDBRANCH  31  32
ENDBRANCH  30  31
ENDBRANCH   1  30
TORSDOF 24
ENDMDL
MODEL 2
REMARK VINA RESULT:     -10.2      9.800     15.099
REMARK SMILES Cc1ccc(-c2cc([C@@H](C)C(=O)OCCOCCOCCOC(=O)c3ccc(-c4c5nc(c(-c6c(F)cc(S(=O)(=O)[O-])cc6F)c6ccc([nH]6)c(-c6c(F)cc(S(=O)(=O)[O-])cc6F)c6nc(c(-c7c(F)cc(S(=O)(=O)[O-])cc7F)c7ccc4[nH]7)C=C6)C=C5)cc3)ccc2C[C@H]2CCCC2=O)cc1
REMARK SMILES IDX 17 1 16 2 15 3 14 4 13 5 11 6 12 7 9 8 10 9 8 10 6 11 7 12
REMARK SMILES IDX 93 13 92 14 91 15 5 16 1 17 2 18 3 19 102 20 4 21 101 22
REMARK SMILES IDX 94 23 95 24 96 25 99 26 97 27 98 28 100 29 18 30 19 31 20 32
REMARK SMILES IDX 21 33 22 34 23 35 24 36 25 37 26 38 90 39 27 40 89 41 28 42
REMARK SMILES IDX 29 43 30 44 83 45 31 46 88 47 82 48 84 49 32 50 87 51 81 52
REMARK SMILES IDX 80 53 33 55 67 56 46 57 66 58 47 59 50 60 65 61 85 62 48 63
REMARK SMILES IDX 49 64 64 66 86 67 51 68 34 69 35 70 44 71 36 72 37 73 43 74
REMARK SMILES IDX 45 75 38 76 39 77 40 78 41 79 42 80 68 81 69 82 78 83 70 84
REMARK SMILES IDX 71 85 77 86 79 87 72 88 73 89 74 90 75 91 76 92 52 93 53 94
REMARK SMILES IDX 62 95 54 96 55 97 61 98 63 99 56 100 57 101 58 102 59 103
REMARK SMILES IDX 60 104
REMARK H PARENT 84 54 50 65
REMARK Flexibility Score: inf
ROOT
ATOM      1  C   UNL A   1      33.410  35.901  32.568  1.00  0.00     0.188 C 
ENDROOT
BRANCH   1   2
ATOM      2  O   UNL A   1      34.647  35.245  32.925  1.00  0.00    -0.376 OA
BRANCH   2   3
ATOM      3  C   UNL A   1      34.821  34.019  33.663  1.00  0.00     0.202 C 
BRANCH   3   4
ATOM      4  C   UNL A   1      36.245  33.061  34.024  1.00  0.00     0.261 C 
BRANCH   4   5
ATOM      5  O   UNL A   1      36.993  32.477  35.493  1.00  0.00    -0.463 OA
BRANCH   5   6
ATOM      6  C   UNL A   1      38.040  31.561  35.935  1.00  0.00     0.313 C 
ATOM      7  O   UNL A   1      37.943  30.530  36.617  1.00  0.00    -0.252 OA
BRANCH   6   8
ATOM      8  C   UNL A   1      39.486  31.780  35.678  1.00  0.00     0.126 C 
ATOM      9  C   UNL A   1      40.359  30.894  36.586  1.00  0.00     0.025 C 
BRANCH   8  10
ATOM     10  C   UNL A   1      39.902  33.180  35.605  1.00  0.00    -0.033 A 
ATOM     11  C   UNL A   1      40.568  35.153  36.822  1.00  0.00    -0.015 A 
ATOM     12  C   UNL A   1      40.116  33.846  36.810  1.00  0.00     0.013 A 
ATOM     13  C   UNL A   1      40.839  35.767  35.578  1.00  0.00    -0.039 A 
ATOM     14  C   UNL A   1      40.543  35.092  34.375  1.00  0.00     0.004 A 
ATOM     15  C   UNL A   1      40.084  33.799  34.384  1.00  0.00     0.005 A 
BRANCH  11  16
ATOM     16  C   UNL A   1      40.653  35.808  38.128  1.00  0.00    -0.018 A 
ATOM     17  C   UNL A   1      40.800  37.786  41.955  1.00  0.00     0.044 C 
ATOM     18  C   UNL A   1      40.736  37.049  40.655  1.00  0.00    -0.051 A 
ATOM     19  C   UNL A   1      39.619  37.202  39.827  1.00  0.00     0.004 A 
ATOM     20  C   UNL A   1      41.781  36.217  40.245  1.00  0.00     0.004 A 
ATOM     21  C   UNL A   1      39.577  36.579  38.581  1.00  0.00     0.009 A 
ATOM     22  C   UNL A   1      41.735  35.597  38.994  1.00  0.00     0.009 A 
ENDBRANCH  11  16
BRANCH  13  23
ATOM     23  C   UNL A   1      41.486  37.126  35.459  1.00  0.00     0.047 C 
BRANCH  23  24
ATOM     24  C   UNL A   1      42.977  37.103  35.109  1.00  0.00     0.060 C 
ATOM     25  C   UNL A   1      43.318  37.733  33.758  1.00  0.00     0.012 C 
ATOM     26  C   UNL A   1      43.879  37.859  36.067  1.00  0.00     0.136 C 
ATOM     27  C   UNL A   1      44.674  38.385  33.950  1.00  0.00     0.009 C 
ATOM     28  C   UNL A   1      44.702  38.907  35.374  1.00  0.00     0.076 C 
ATOM     29  O   UNL A   1      43.939  37.640  37.272  1.00  0.00    -0.299 OA
ENDBRANCH  23  24
ENDBRANCH  13  23
ENDBRANCH   8  10
ENDBRANCH   6   8
ENDBRANCH   5   6
ENDBRANCH   4   5
ENDBRANCH   3   4
ENDBRANCH   2   3
ENDBRANCH   1   2
BRANCH   1  30
ATOM     30  C   UNL A   1      33.252  36.816  31.366  1.00  0.00     0.188 C 
BRANCH  30  31
ATOM     31  O   UNL A   1      32.514  36.156  30.361  1.00  0.00    -0.376 OA
BRANCH  31  32
ATOM     32  C   UNL A   1      33.237  35.852  29.192  1.00  0.00     0.202 C 
BRANCH  32  33
ATOM     33  C   UNL A   1      33.617  34.357  29.013  1.00  0.00     0.261 C 
BRANCH  33  34
ATOM     34  O   UNL A   1      34.772  33.903  29.779  1.00  0.00    -0.460 OA
BRANCH  34  35
ATOM     35  C   UNL A   1      35.310  32.636  29.586  1.00  0.00     0.338 C 
ATOM     36  O   UNL A   1      34.617  31.688  29.246  1.00  0.00    -0.246 OA
BRANCH  35  37
ATOM     37  C   UNL A   1      36.815  32.683  29.526  1.00  0.00     0.060 A 
ATOM     38  C   UNL A   1      37.828  31.924  30.138  1.00  0.00     0.016 A 
ATOM     39  C   UNL A   1      37.276  33.709  28.795  1.00  0.00     0.016 A 
ATOM     40  C   UNL A   1      39.233  32.383  30.222  1.00  0.00     0.010 A 
ATOM     41  C   UNL A   1      38.514  34.214  29.137  1.00  0.00     0.010 A 
ATOM     42  C   UNL A   1      39.631  33.653  29.789  1.00  0.00    -0.014 A 
BRANCH  42  43
ATOM     43  C   UNL A   1      41.107  34.462  29.990  1.00  0.00     0.031 A 
ATOM     44  C   UNL A   1      41.968  35.677  29.071  1.00  0.00     0.074 A 
ATOM     45  C   UNL A   1      41.816  34.050  31.058  1.00  0.00     0.049 A 
ATOM     46  N   UNL A   1      43.281  35.834  29.068  1.00  0.00    -0.248 NA
ATOM     47  C   UNL A   1      41.473  36.653  28.002  1.00  0.00     0.031 C 
ATOM     48  C   UNL A   1      42.965  34.693  31.676  1.00  0.00     0.029 A 
ATOM     49  N   UNL A   1      41.641  32.880  31.795  1.00  0.00    -0.354 N 
ATOM     50  C   UNL A   1      43.599  36.896  28.194  1.00  0.00     0.074 A 
ATOM     51  C   UNL A   1      42.529  37.018  27.314  1.00  0.00     0.031 C 
ATOM     52  C   UNL A   1      43.553  33.810  32.498  1.00  0.00     0.029 A 
ATOM     53  C   UNL A   1      42.894  32.529  32.309  1.00  0.00     0.049 A 
ATOM     54  H   UNL A   1      40.796  32.393  31.929  1.00  0.00     0.167 HD
ATOM     55  C   UNL A   1      44.604  37.795  28.385  1.00  0.00     0.037 A 
ATOM     56  C   UNL A   1      43.453  31.362  31.878  1.00  0.00     0.037 A 
ATOM     57  C   UNL A   1      45.549  37.178  29.283  1.00  0.00     0.049 A 
ATOM     58  C   UNL A   1      44.673  31.619  31.011  1.00  0.00     0.074 A 
ATOM     59  C   UNL A   1      45.732  37.154  30.650  1.00  0.00     0.029 A 
ATOM     60  N   UNL A   1      46.170  36.051  28.787  1.00  0.00    -0.354 N 
ATOM     61  N   UNL A   1      45.222  32.796  30.846  1.00  0.00    -0.248 NA
ATOM     62  C   UNL A   1      45.359  30.589  30.232  1.00  0.00     0.031 C 
ATOM     63  C   UNL A   1      46.286  35.868  30.969  1.00  0.00     0.029 A 
ATOM     64  C   UNL A   1      46.478  35.157  29.792  1.00  0.00     0.049 A 
ATOM     65  H   UNL A   1      46.370  35.904  27.835  1.00  0.00     0.167 HD
ATOM     66  C   UNL A   1      46.197  32.725  29.896  1.00  0.00     0.074 A 
ATOM     67  C   UNL A   1      46.286  31.311  29.577  1.00  0.00     0.031 C 
ATOM     68  C   UNL A   1      46.846  33.807  29.381  1.00  0.00     0.037 A 
BRANCH  55  69
ATOM     69  C   UNL A   1      44.648  39.252  27.857  1.00  0.00     0.058 A 
ATOM     70  C   UNL A   1      45.467  39.542  26.744  1.00  0.00     0.135 A 
ATOM     71  C   UNL A   1      44.037  40.423  28.401  1.00  0.00     0.135 A 
ATOM     72  F   UNL A   1      46.123  38.564  26.105  1.00  0.00    -0.206 F 
ATOM     73  C   UNL A   1      45.685  40.842  26.248  1.00  0.00     0.059 A 
ATOM     74  C   UNL A   1      44.240  41.726  27.924  1.00  0.00     0.059 A 
ATOM     75  F   UNL A   1      43.198  40.419  29.436  1.00  0.00    -0.206 F 
ATOM     76  C   UNL A   1      45.074  41.934  26.850  1.00  0.00     0.060 A 
BRANCH  76  77
ATOM     77  S   UNL A   1      45.383  43.604  26.242  1.00  0.00     0.124 S 
ATOM     78  O   UNL A   1      44.312  43.778  25.267  1.00  0.00    -0.237 OA
ATOM     79  O   UNL A   1      45.275  44.397  27.461  1.00  0.00    -0.237 OA
ATOM     80  O   UNL A   1      46.727  43.521  25.672  1.00  0.00    -0.744 OA
ENDBRANCH  76  77
ENDBRANCH  55  69
BRANCH  56  81
ATOM     81  C   UNL A   1      42.419  30.268  31.806  1.00  0.00     0.058 A 
ATOM     82  C   UNL A   1      41.882  29.832  33.044  1.00  0.00     0.135 A 
ATOM     83  C   UNL A   1      41.661  29.968  30.666  1.00  0.00     0.135 A 
ATOM     84  F   UNL A   1      42.555  30.067  34.184  1.00  0.00    -0.206 F 
ATOM     85  C   UNL A   1      40.598  29.308  33.167  1.00  0.00     0.059 A 
ATOM     86  C   UNL A   1      40.376  29.398  30.763  1.00  0.00     0.059 A 
ATOM     87  F   UNL A   1      42.085  30.348  29.452  1.00  0.00    -0.206 F 
ATOM     88  C   UNL A   1      39.825  29.150  32.025  1.00  0.00     0.060 A 
BRANCH  88  89
ATOM     89  S   UNL A   1      38.063  28.779  32.256  1.00  0.00     0.124 S 
ATOM     90  O   UNL A   1      37.582  28.688  30.881  1.00  0.00    -0.237 OA
ATOM     91  O   UNL A   1      38.126  27.512  32.984  1.00  0.00    -0.237 OA
ATOM     92  O   UNL A   1      37.578  29.927  33.013  1.00  0.00    -0.744 OA
ENDBRANCH  88  89
ENDBRANCH  56  81
BRANCH  68  93
ATOM     93  C   UNL A   1      47.937  33.632  28.375  1.00  0.00     0.058 A 
ATOM     94  C   UNL A   1      49.268  33.817  28.762  1.00  0.00     0.135 A 
ATOM     95  C   UNL A   1      47.681  33.469  27.000  1.00  0.00     0.135 A 
ATOM     96  F   UNL A   1      49.581  33.972  30.059  1.00  0.00    -0.206 F 
ATOM     97  C   UNL A   1      50.296  33.864  27.829  1.00  0.00     0.059 A 
ATOM     98  C   UNL A   1      48.682  33.572  26.044  1.00  0.00     0.059 A 
ATOM     99  F   UNL A   1      46.436  33.227  26.552  1.00  0.00    -0.206 F 
ATOM    100  C   UNL A   1      49.990  33.758  26.471  1.00  0.00     0.060 A 
BRANCH 100 101
ATOM    101  S   UNL A   1      51.310  33.883  25.254  1.00  0.00     0.124 S 
ATOM    102  O   UNL A   1      52.502  34.038  26.082  1.00  0.00    -0.237 OA
ATOM    103  O   UNL A   1      51.183  32.605  24.562  1.00  0.00    -0.237 OA
ATOM    104  O   UNL A   1      50.936  35.062  24.479  1.00  0.00    -0.744 OA
ENDBRANCH 100 101
ENDBRANCH  68  93
ENDBRANCH  42  43
ENDBRANCH  35  37
ENDBRANCH  34  35
ENDBRANCH  33  34
ENDBRANCH  32  33
ENDBRANCH  31  32
ENDBRANCH  30  31
ENDBRANCH   1  30
TORSDOF 24
ENDMDL
MODEL 3
REMARK VINA RESULT:     -10.2      7.436     10.370
REMARK SMILES Cc1ccc(-c2cc([C@@H](C)C(=O)OCCOCCOCCOC(=O)c3ccc(-c4c5nc(c(-c6c(F)cc(S(=O)(=O)[O-])cc6F)c6ccc([nH]6)c(-c6c(F)cc(S(=O)(=O)[O-])cc6F)c6nc(c(-c7c(F)cc(S(=O)(=O)[O-])cc7F)c7ccc4[nH]7)C=C6)C=C5)cc3)ccc2C[C@H]2CCCC2=O)cc1
REMARK SMILES IDX 17 1 16 2 15 3 14 4 13 5 11 6 12 7 9 8 10 9 8 10 6 11 7 12
REMARK SMILES IDX 93 13 92 14 91 15 5 16 1 17 2 18 3 19 102 20 4 21 101 22
REMARK SMILES IDX 94 23 95 24 96 25 99 26 97 27 98 28 100 29 18 30 19 31 20 32
REMARK SMILES IDX 21 33 22 34 23 35 24 36 25 37 26 38 90 39 27 40 89 41 28 42
REMARK SMILES IDX 29 43 30 44 83 45 31 46 88 47 82 48 84 49 32 50 87 51 81 52
REMARK SMILES IDX 80 53 33 55 67 56 46 57 66 58 47 59 50 60 65 61 85 62 48 63
REMARK SMILES IDX 49 64 64 66 86 67 51 68 34 69 35 70 44 71 36 72 37 73 43 74
REMARK SMILES IDX 45 75 38 76 39 77 40 78 41 79 42 80 68 81 69 82 78 83 70 84
REMARK SMILES IDX 71 85 77 86 79 87 72 88 73 89 74 90 75 91 76 92 52 93 53 94
REMARK SMILES IDX 62 95 54 96 55 97 61 98 63 99 56 100 57 101 58 102 59 103
REMARK SMILES IDX 60 104
REMARK H PARENT 84 54 50 65
REMARK Flexibility Score: inf
ROOT
ATOM      1  C   UNL A   1      44.154  31.270  26.563  1.00  0.00     0.188 C 
ENDROOT
BRANCH   1   2
ATOM      2  O   UNL A   1      44.064  32.447  25.730  1.00  0.00    -0.376 OA
BRANCH   2   3
ATOM      3  C   UNL A   1      44.201  33.826  26.125  1.00  0.00     0.202 C 
BRANCH   3   4
ATOM      4  C   UNL A   1      43.013  35.060  26.504  1.00  0.00     0.261 C 
BRANCH   4   5
ATOM      5  O   UNL A   1      42.982  36.806  26.410  1.00  0.00    -0.463 OA
BRANCH   5   6
ATOM      6  C   UNL A   1      43.757  37.969  26.833  1.00  0.00     0.313 C 
ATOM      7  O   UNL A   1      44.987  38.122  26.863  1.00  0.00    -0.252 OA
BRANCH   6   8
ATOM      8  C   UNL A   1      43.150  39.200  27.400  1.00  0.00     0.126 C 
ATOM      9  C   UNL A   1      41.934  38.871  28.285  1.00  0.00     0.025 C 
BRANCH   8  10
ATOM     10  C   UNL A   1      42.937  40.287  26.445  1.00  0.00    -0.033 A 
ATOM     11  C   UNL A   1      43.925  42.101  25.201  1.00  0.00    -0.015 A 
ATOM     12  C   UNL A   1      44.033  41.090  26.139  1.00  0.00     0.013 A 
ATOM     13  C   UNL A   1      42.684  42.260  24.544  1.00  0.00    -0.039 A 
ATOM     14  C   UNL A   1      41.574  41.478  24.927  1.00  0.00     0.004 A 
ATOM     15  C   UNL A   1      41.697  40.488  25.869  1.00  0.00     0.005 A 
BRANCH  11  16
ATOM     16  C   UNL A   1      45.092  42.967  25.030  1.00  0.00    -0.018 A 
ATOM     17  C   UNL A   1      48.477  45.600  24.585  1.00  0.00     0.044 C 
ATOM     18  C   UNL A   1      47.333  44.656  24.781  1.00  0.00    -0.051 A 
ATOM     19  C   UNL A   1      46.215  45.065  25.515  1.00  0.00     0.004 A 
ATOM     20  C   UNL A   1      47.354  43.372  24.229  1.00  0.00     0.004 A 
ATOM     21  C   UNL A   1      45.112  44.224  25.645  1.00  0.00     0.009 A 
ATOM     22  C   UNL A   1      46.245  42.534  24.360  1.00  0.00     0.009 A 
ENDBRANCH  11  16
BRANCH  13  23
ATOM     23  C   UNL A   1      42.483  43.214  23.391  1.00  0.00     0.047 C 
BRANCH  23  24
ATOM     24  C   UNL A   1      43.204  42.823  22.097  1.00  0.00     0.060 C 
ATOM     25  C   UNL A   1      42.280  42.320  20.988  1.00  0.00     0.012 C 
ATOM     26  C   UNL A   1      43.963  43.947  21.414  1.00  0.00     0.136 C 
ATOM     27  C   UNL A   1      42.908  42.801  19.693  1.00  0.00     0.009 C 
ATOM     28  C   UNL A   1      43.526  44.153  19.992  1.00  0.00     0.076 C 
ATOM     29  O   UNL A   1      44.840  44.611  21.955  1.00  0.00    -0.299 OA
ENDBRANCH  23  24
ENDBRANCH  13  23
ENDBRANCH   8  10
ENDBRANCH   6   8
ENDBRANCH   5   6
ENDBRANCH   4   5
ENDBRANCH   3   4
ENDBRANCH   2   3
ENDBRANCH   1   2
BRANCH   1  30
ATOM     30  C   UNL A   1      45.452  30.537  26.858  1.00  0.00     0.188 C 
BRANCH  30  31
ATOM     31  O   UNL A   1      45.469  29.308  26.168  1.00  0.00    -0.376 OA
BRANCH  31  32
ATOM     32  C   UNL A   1      46.683  29.002  25.524  1.00  0.00     0.202 C 
BRANCH  32  33
ATOM     33  C   UNL A   1      46.568  28.055  24.299  1.00  0.00     0.261 C 
BRANCH  33  34
ATOM     34  O   UNL A   1      47.805  27.397  23.892  1.00  0.00    -0.460 OA
BRANCH  34  35
ATOM     35  C   UNL A   1      47.937  26.014  23.948  1.00  0.00     0.338 C 
ATOM     36  O   UNL A   1      48.173  25.350  22.949  1.00  0.00    -0.246 OA
BRANCH  35  37
ATOM     37  C   UNL A   1      48.076  25.534  25.369  1.00  0.00     0.060 A 
ATOM     38  C   UNL A   1      47.296  24.694  26.183  1.00  0.00     0.016 A 
ATOM     39  C   UNL A   1      49.122  26.082  26.004  1.00  0.00     0.016 A 
ATOM     40  C   UNL A   1      47.430  24.659  27.657  1.00  0.00     0.010 A 
ATOM     41  C   UNL A   1      49.021  26.219  27.373  1.00  0.00     0.010 A 
ATOM     42  C   UNL A   1      48.272  25.534  28.353  1.00  0.00    -0.014 A 
BRANCH  42  43
ATOM     43  C   UNL A   1      48.413  25.822  30.017  1.00  0.00     0.031 A 
ATOM     44  C   UNL A   1      49.634  25.462  31.218  1.00  0.00     0.074 A 
ATOM     45  C   UNL A   1      47.330  26.404  30.565  1.00  0.00     0.049 A 
ATOM     46  N   UNL A   1      49.398  25.291  32.508  1.00  0.00    -0.248 NA
ATOM     47  C   UNL A   1      51.114  25.111  31.060  1.00  0.00     0.031 C 
ATOM     48  C   UNL A   1      47.212  27.030  31.873  1.00  0.00     0.029 A 
ATOM     49  N   UNL A   1      46.050  26.502  30.022  1.00  0.00    -0.354 N 
ATOM     50  C   UNL A   1      50.622  24.996  33.148  1.00  0.00     0.074 A 
ATOM     51  C   UNL A   1      51.473  24.502  32.165  1.00  0.00     0.031 C 
ATOM     52  C   UNL A   1      45.909  27.197  32.147  1.00  0.00     0.029 A 
ATOM     53  C   UNL A   1      45.153  26.540  31.095  1.00  0.00     0.049 A 
ATOM     54  H   UNL A   1      45.821  26.539  29.066  1.00  0.00     0.167 HD
ATOM     55  C   UNL A   1      50.971  25.407  34.399  1.00  0.00     0.037 A 
ATOM     56  C   UNL A   1      44.276  25.502  31.225  1.00  0.00     0.037 A 
ATOM     57  C   UNL A   1      49.745  25.701  35.098  1.00  0.00     0.049 A 
ATOM     58  C   UNL A   1      44.594  24.658  32.446  1.00  0.00     0.074 A 
ATOM     59  C   UNL A   1      48.968  26.825  35.285  1.00  0.00     0.029 A 
ATOM     60  N   UNL A   1      48.917  24.617  35.299  1.00  0.00    -0.354 N 
ATOM     61  N   UNL A   1      45.480  24.983  33.354  1.00  0.00    -0.248 NA
ATOM     62  C   UNL A   1      43.973  23.366  32.736  1.00  0.00     0.031 C 
ATOM     63  C   UNL A   1      47.607  26.373  35.384  1.00  0.00     0.029 A 
ATOM     64  C   UNL A   1      47.588  24.987  35.308  1.00  0.00     0.049 A 
ATOM     65  H   UNL A   1      49.235  23.694  35.422  1.00  0.00     0.167 HD
ATOM     66  C   UNL A   1      45.643  23.954  34.233  1.00  0.00     0.074 A 
ATOM     67  C   UNL A   1      44.639  22.982  33.840  1.00  0.00     0.031 C 
ATOM     68  C   UNL A   1      46.606  23.916  35.197  1.00  0.00     0.037 A 
BRANCH  55  69
ATOM     69  C   UNL A   1      52.412  25.651  34.917  1.00  0.00     0.058 A 
ATOM     70  C   UNL A   1      52.907  26.974  34.935  1.00  0.00     0.135 A 
ATOM     71  C   UNL A   1      53.399  24.697  35.309  1.00  0.00     0.135 A 
ATOM     72  F   UNL A   1      52.120  28.003  34.594  1.00  0.00    -0.206 F 
ATOM     73  C   UNL A   1      54.234  27.310  35.267  1.00  0.00     0.059 A 
ATOM     74  C   UNL A   1      54.725  25.009  35.643  1.00  0.00     0.059 A 
ATOM     75  F   UNL A   1      53.180  23.387  35.402  1.00  0.00    -0.206 F 
ATOM     76  C   UNL A   1      55.143  26.319  35.612  1.00  0.00     0.060 A 
BRANCH  76  77
ATOM     77  S   UNL A   1      56.853  26.744  35.999  1.00  0.00     0.124 S 
ATOM     78  O   UNL A   1      57.532  25.464  35.830  1.00  0.00    -0.237 OA
ATOM     79  O   UNL A   1      57.148  27.761  34.996  1.00  0.00    -0.237 OA
ATOM     80  O   UNL A   1      56.786  27.229  37.376  1.00  0.00    -0.744 OA
ENDBRANCH  76  77
ENDBRANCH  55  69
BRANCH  56  81
ATOM     81  C   UNL A   1      43.715  25.105  29.884  1.00  0.00     0.058 A 
ATOM     82  C   UNL A   1      44.044  23.804  29.428  1.00  0.00     0.135 A 
ATOM     83  C   UNL A   1      42.598  25.704  29.284  1.00  0.00     0.135 A 
ATOM     84  F   UNL A   1      45.110  23.166  29.942  1.00  0.00    -0.206 F 
ATOM     85  C   UNL A   1      43.219  23.070  28.579  1.00  0.00     0.059 A 
ATOM     86  C   UNL A   1      41.772  24.995  28.389  1.00  0.00     0.059 A 
ATOM     87  F   UNL A   1      42.206  26.931  29.657  1.00  0.00    -0.206 F 
ATOM     88  C   UNL A   1      42.049  23.652  28.111  1.00  0.00     0.060 A 
BRANCH  88  89
ATOM     89  S   UNL A   1      40.851  22.567  27.286  1.00  0.00     0.124 S 
ATOM     90  O   UNL A   1      41.490  22.322  25.997  1.00  0.00    -0.237 OA
ATOM     91  O   UNL A   1      40.819  21.423  28.197  1.00  0.00    -0.237 OA
ATOM     92  O   UNL A   1      39.642  23.380  27.239  1.00  0.00    -0.744 OA
ENDBRANCH  88  89
ENDBRANCH  56  81
BRANCH  68  93
ATOM     93  C   UNL A   1      46.682  22.767  36.150  1.00  0.00     0.058 A 
ATOM     94  C   UNL A   1      47.089  21.512  35.686  1.00  0.00     0.135 A 
ATOM     95  C   UNL A   1      46.185  22.840  37.466  1.00  0.00     0.135 A 
ATOM     96  F   UNL A   1      47.579  21.375  34.443  1.00  0.00    -0.206 F 
ATOM     97  C   UNL A   1      46.986  20.376  36.479  1.00  0.00     0.059 A 
ATOM     98  C   UNL A   1      46.015  21.711  38.255  1.00  0.00     0.059 A 
ATOM     99  F   UNL A   1      45.828  24.018  38.007  1.00  0.00    -0.206 F 
ATOM    100  C   UNL A   1      46.431  20.483  37.755  1.00  0.00     0.060 A 
BRANCH 100 101
ATOM    101  S   UNL A   1      46.234  19.005  38.762  1.00  0.00     0.124 S 
ATOM    102  O   UNL A   1      45.323  18.188  37.965  1.00  0.00    -0.237 OA
ATOM    103  O   UNL A   1      47.610  18.525  38.838  1.00  0.00    -0.237 OA
ATOM    104  O   UNL A   1      45.673  19.522  40.007  1.00  0.00    -0.744 OA
ENDBRANCH 100 101
ENDBRANCH  68  93
ENDBRANCH  42  43
ENDBRANCH  35  37
ENDBRANCH  34  35
ENDBRANCH  33  34
ENDBRANCH  32  33
ENDBRANCH  31  32
ENDBRANCH  30  31
ENDBRANCH   1  30
TORSDOF 24
ENDMDL
