MODEL 1
REMARK VINA RESULT:     -11.2      0.000      0.000
REMARK SMILES Cc1c(Cc2nc(C(C)(C)C)cs2)cccc1C(=O)OCCOCCOCCOC(=O)c1ccc(-c2c3nc(c(-c4c(F)cc(S(=O)(=O)[O-])cc4F)c4ccc([nH]4)c(-c4c(F)cc(S(=O)(=O)[O-])cc4F)c4nc(c(-c5c(F)cc(S(=O)(=O)[O-])cc5F)c5ccc2[nH]5)C=C4)C=C3)cc1
REMARK SMILES IDX 24 1 23 2 22 3 21 4 20 5 18 6 19 7 17 8 1 9 2 10 3 11 14 12
REMARK SMILES IDX 16 13 15 14 4 15 5 16 6 17 13 18 7 19 12 20 8 21 9 22 10 23
REMARK SMILES IDX 11 24 25 25 26 26 27 27 28 28 29 29 30 30 31 31 32 32 33 33
REMARK SMILES IDX 97 34 34 35 96 36 35 37 36 38 37 39 90 40 38 41 95 42 89 43
REMARK SMILES IDX 91 44 39 45 94 46 88 47 87 48 40 50 74 51 53 52 73 53 54 54
REMARK SMILES IDX 57 55 72 56 92 57 55 58 56 59 71 61 93 62 58 63 41 64 42 65
REMARK SMILES IDX 51 66 43 67 44 68 50 69 52 70 45 71 46 72 47 73 48 74 49 75
REMARK SMILES IDX 75 76 76 77 85 78 77 79 78 80 84 81 86 82 79 83 80 84 81 85
REMARK SMILES IDX 82 86 83 87 59 88 60 89 69 90 61 91 62 92 68 93 70 94 63 95
REMARK SMILES IDX 64 96 65 97 66 98 67 99
REMARK H PARENT 91 49 57 60
REMARK Flexibility Score: inf
ROOT
ATOM      1  C   UNL A   1      34.929  30.163  27.622  1.00  0.00     0.188 C 
ENDROOT
BRANCH   1   2
ATOM      2  O   UNL A   1      34.387  29.131  26.757  1.00  0.00    -0.376 OA
BRANCH   2   3
ATOM      3  C   UNL A   1      32.971  28.844  26.552  1.00  0.00     0.202 C 
BRANCH   3   4
ATOM      4  C   UNL A   1      31.982  29.669  25.443  1.00  0.00     0.261 C 
BRANCH   4   5
ATOM      5  O   UNL A   1      30.799  29.054  24.497  1.00  0.00    -0.460 OA
BRANCH   5   6
ATOM      6  C   UNL A   1      30.660  27.799  23.856  1.00  0.00     0.338 C 
ATOM      7  O   UNL A   1      29.639  27.345  23.348  1.00  0.00    -0.246 OA
BRANCH   6   8
ATOM      8  C   UNL A   1      31.644  26.704  23.651  1.00  0.00     0.063 A 
ATOM      9  C   UNL A   1      30.819  25.635  25.735  1.00  0.00     0.045 C 
ATOM     10  C   UNL A   1      31.491  25.536  24.400  1.00  0.00    -0.033 A 
ATOM     11  C   UNL A   1      31.780  24.286  23.775  1.00  0.00    -0.037 A 
ATOM     12  C   UNL A   1      32.348  24.224  22.478  1.00  0.00     0.004 A 
ATOM     13  C   UNL A   1      32.138  26.572  22.309  1.00  0.00     0.016 A 
ATOM     14  C   UNL A   1      32.519  25.366  21.734  1.00  0.00     0.001 A 
BRANCH  11  15
ATOM     15  C   UNL A   1      31.285  22.960  24.332  1.00  0.00     0.103 C 
BRANCH  15  16
ATOM     16  C   UNL A   1      32.403  21.948  24.398  1.00  0.00     0.097 A 
ATOM     17  N   UNL A   1      32.256  20.669  24.116  1.00  0.00    -0.245 NA
ATOM     18  S   UNL A   1      33.964  22.396  24.956  1.00  0.00    -0.127 S 
ATOM     19  C   UNL A   1      33.392  19.953  24.483  1.00  0.00     0.057 A 
ATOM     20  C   UNL A   1      34.437  20.749  24.916  1.00  0.00     0.091 A 
BRANCH  19  21
ATOM     21  C   UNL A   1      33.373  18.436  24.339  1.00  0.00     0.005 C 
ATOM     22  C   UNL A   1      34.809  17.896  24.463  1.00  0.00     0.017 C 
ATOM     23  C   UNL A   1      32.493  17.764  25.414  1.00  0.00     0.017 C 
ATOM     24  C   UNL A   1      32.806  18.027  22.961  1.00  0.00     0.017 C 
ENDBRANCH  19  21
ENDBRANCH  15  16
ENDBRANCH  11  15
ENDBRANCH   6   8
ENDBRANCH   5   6
ENDBRANCH   4   5
ENDBRANCH   3   4
ENDBRANCH   2   3
ENDBRANCH   1   2
BRANCH   1  25
ATOM     25  C   UNL A   1      34.315  31.563  27.808  1.00  0.00     0.188 C 
BRANCH  25  26
ATOM     26  O   UNL A   1      35.236  32.600  27.514  1.00  0.00    -0.376 OA
BRANCH  26  27
ATOM     27  C   UNL A   1      34.924  33.886  28.040  1.00  0.00     0.202 C 
BRANCH  27  28
ATOM     28  C   UNL A   1      34.156  33.893  29.388  1.00  0.00     0.261 C 
BRANCH  28  29
ATOM     29  O   UNL A   1      35.019  33.896  30.560  1.00  0.00    -0.460 OA
BRANCH  29  30
ATOM     30  C   UNL A   1      34.893  32.871  31.482  1.00  0.00     0.338 C 
ATOM     31  O   UNL A   1      33.856  32.704  32.113  1.00  0.00    -0.246 OA
BRANCH  30  32
ATOM     32  C   UNL A   1      36.009  31.868  31.389  1.00  0.00     0.060 A 
ATOM     33  C   UNL A   1      36.116  30.550  31.862  1.00  0.00     0.016 A 
ATOM     34  C   UNL A   1      37.104  32.294  30.727  1.00  0.00     0.016 A 
ATOM     35  C   UNL A   1      37.356  29.747  31.724  1.00  0.00     0.010 A 
ATOM     36  C   UNL A   1      38.276  31.543  30.791  1.00  0.00     0.010 A 
ATOM     37  C   UNL A   1      38.525  30.239  31.149  1.00  0.00    -0.014 A 
BRANCH  37  38
ATOM     38  C   UNL A   1      40.001  29.691  30.950  1.00  0.00     0.031 A 
ATOM     39  C   UNL A   1      40.667  28.295  30.337  1.00  0.00     0.074 A 
ATOM     40  C   UNL A   1      40.917  30.635  31.269  1.00  0.00     0.049 A 
ATOM     41  N   UNL A   1      41.910  27.914  30.591  1.00  0.00    -0.248 NA
ATOM     42  C   UNL A   1      40.103  27.210  29.459  1.00  0.00     0.031 C 
ATOM     43  C   UNL A   1      42.355  30.640  31.033  1.00  0.00     0.029 A 
ATOM     44  N   UNL A   1      40.711  31.719  32.131  1.00  0.00    -0.354 N 
ATOM     45  C   UNL A   1      42.221  26.787  29.817  1.00  0.00     0.074 A 
ATOM     46  C   UNL A   1      41.007  26.255  29.363  1.00  0.00     0.031 C 
ATOM     47  C   UNL A   1      42.929  31.400  31.979  1.00  0.00     0.029 A 
ATOM     48  C   UNL A   1      41.882  31.825  32.892  1.00  0.00     0.049 A 
ATOM     49  H   UNL A   1      39.910  32.290  32.191  1.00  0.00     0.167 HD
ATOM     50  C   UNL A   1      43.473  26.397  29.457  1.00  0.00     0.037 A 
ATOM     51  C   UNL A   1      41.827  31.604  34.234  1.00  0.00     0.037 A 
ATOM     52  C   UNL A   1      44.415  26.963  30.385  1.00  0.00     0.049 A 
ATOM     53  C   UNL A   1      42.685  30.438  34.674  1.00  0.00     0.074 A 
ATOM     54  C   UNL A   1      45.255  28.054  30.357  1.00  0.00     0.029 A 
ATOM     55  N   UNL A   1      44.253  26.612  31.721  1.00  0.00    -0.354 N 
ATOM     56  N   UNL A   1      43.319  29.633  33.860  1.00  0.00    -0.248 NA
ATOM     57  C   UNL A   1      42.912  30.091  36.073  1.00  0.00     0.031 C 
ATOM     58  C   UNL A   1      45.409  28.487  31.711  1.00  0.00     0.029 A 
ATOM     59  C   UNL A   1      44.733  27.608  32.546  1.00  0.00     0.049 A 
ATOM     60  H   UNL A   1      43.851  25.769  32.034  1.00  0.00     0.167 HD
ATOM     61  C   UNL A   1      43.906  28.620  34.572  1.00  0.00     0.074 A 
ATOM     62  C   UNL A   1      43.686  28.998  35.957  1.00  0.00     0.031 C 
ATOM     63  C   UNL A   1      44.481  27.525  33.984  1.00  0.00     0.037 A 
BRANCH  50  64
ATOM     64  C   UNL A   1      43.775  25.524  28.226  1.00  0.00     0.058 A 
ATOM     65  C   UNL A   1      44.268  24.209  28.347  1.00  0.00     0.135 A 
ATOM     66  C   UNL A   1      43.697  25.976  26.878  1.00  0.00     0.135 A 
ATOM     67  F   UNL A   1      44.480  23.673  29.558  1.00  0.00    -0.206 F 
ATOM     68  C   UNL A   1      44.600  23.404  27.235  1.00  0.00     0.059 A 
ATOM     69  C   UNL A   1      43.942  25.172  25.758  1.00  0.00     0.059 A 
ATOM     70  F   UNL A   1      43.455  27.258  26.568  1.00  0.00    -0.206 F 
ATOM     71  C   UNL A   1      44.421  23.890  25.942  1.00  0.00     0.060 A 
BRANCH  71  72
ATOM     72  S   UNL A   1      44.865  22.890  24.500  1.00  0.00     0.124 S 
ATOM     73  O   UNL A   1      45.852  23.739  23.840  1.00  0.00    -0.237 OA
ATOM     74  O   UNL A   1      45.381  21.665  25.101  1.00  0.00    -0.237 OA
ATOM     75  O   UNL A   1      43.598  22.741  23.786  1.00  0.00    -0.744 OA
ENDBRANCH  71  72
ENDBRANCH  50  64
BRANCH  51  76
ATOM     76  C   UNL A   1      40.565  32.145  34.848  1.00  0.00     0.058 A 
ATOM     77  C   UNL A   1      39.560  31.196  35.151  1.00  0.00     0.135 A 
ATOM     78  C   UNL A   1      40.466  33.381  35.500  1.00  0.00     0.135 A 
ATOM     79  F   UNL A   1      39.575  29.995  34.550  1.00  0.00    -0.206 F 
ATOM     80  C   UNL A   1      38.625  31.387  36.166  1.00  0.00     0.059 A 
ATOM     81  C   UNL A   1      39.502  33.612  36.502  1.00  0.00     0.059 A 
ATOM     82  F   UNL A   1      41.387  34.334  35.288  1.00  0.00    -0.206 F 
ATOM     83  C   UNL A   1      38.643  32.577  36.881  1.00  0.00     0.060 A 
BRANCH  83  84
ATOM     84  S   UNL A   1      37.643  32.654  38.393  1.00  0.00     0.124 S 
ATOM     85  O   UNL A   1      37.797  31.307  38.934  1.00  0.00    -0.237 OA
ATOM     86  O   UNL A   1      38.317  33.712  39.145  1.00  0.00    -0.237 OA
ATOM     87  O   UNL A   1      36.310  32.980  37.898  1.00  0.00    -0.744 OA
ENDBRANCH  83  84
ENDBRANCH  51  76
BRANCH  63  88
ATOM     88  C   UNL A   1      44.854  26.260  34.734  1.00  0.00     0.058 A 
ATOM     89  C   UNL A   1      43.928  25.267  35.107  1.00  0.00     0.135 A 
ATOM     90  C   UNL A   1      46.210  25.944  34.984  1.00  0.00     0.135 A 
ATOM     91  F   UNL A   1      42.628  25.370  34.796  1.00  0.00    -0.206 F 
ATOM     92  C   UNL A   1      44.303  24.105  35.782  1.00  0.00     0.059 A 
ATOM     93  C   UNL A   1      46.614  24.756  35.591  1.00  0.00     0.059 A 
ATOM     94  F   UNL A   1      47.198  26.784  34.632  1.00  0.00    -0.206 F 
ATOM     95  C   UNL A   1      45.648  23.862  36.029  1.00  0.00     0.060 A 
BRANCH  95  96
ATOM     96  S   UNL A   1      46.157  22.370  36.904  1.00  0.00     0.124 S 
ATOM     97  O   UNL A   1      45.638  22.629  38.243  1.00  0.00    -0.237 OA
ATOM     98  O   UNL A   1      45.484  21.305  36.166  1.00  0.00    -0.237 OA
ATOM     99  O   UNL A   1      47.610  22.394  36.769  1.00  0.00    -0.744 OA
ENDBRANCH  95  96
ENDBRANCH  63  88
ENDBRANCH  37  38
ENDBRANCH  30  32
ENDBRANCH  29  30
ENDBRANCH  28  29
ENDBRANCH  27  28
ENDBRANCH  26  27
ENDBRANCH  25  26
ENDBRANCH   1  25
TORSDOF 23
ENDMDL
MODEL 2
REMARK VINA RESULT:     -10.5      4.366     11.441
REMARK SMILES Cc1c(Cc2nc(C(C)(C)C)cs2)cccc1C(=O)OCCOCCOCCOC(=O)c1ccc(-c2c3nc(c(-c4c(F)cc(S(=O)(=O)[O-])cc4F)c4ccc([nH]4)c(-c4c(F)cc(S(=O)(=O)[O-])cc4F)c4nc(c(-c5c(F)cc(S(=O)(=O)[O-])cc5F)c5ccc2[nH]5)C=C4)C=C3)cc1
REMARK SMILES IDX 24 1 23 2 22 3 21 4 20 5 18 6 19 7 17 8 1 9 2 10 3 11 14 12
REMARK SMILES IDX 16 13 15 14 4 15 5 16 6 17 13 18 7 19 12 20 8 21 9 22 10 23
REMARK SMILES IDX 11 24 25 25 26 26 27 27 28 28 29 29 30 30 31 31 32 32 33 33
REMARK SMILES IDX 97 34 34 35 96 36 35 37 36 38 37 39 90 40 38 41 95 42 89 43
REMARK SMILES IDX 91 44 39 45 94 46 88 47 87 48 40 50 74 51 53 52 73 53 54 54
REMARK SMILES IDX 57 55 72 56 92 57 55 58 56 59 71 61 93 62 58 63 41 64 42 65
REMARK SMILES IDX 51 66 43 67 44 68 50 69 52 70 45 71 46 72 47 73 48 74 49 75
REMARK SMILES IDX 75 76 76 77 85 78 77 79 78 80 84 81 86 82 79 83 80 84 81 85
REMARK SMILES IDX 82 86 83 87 59 88 60 89 69 90 61 91 62 92 68 93 70 94 63 95
REMARK SMILES IDX 64 96 65 97 66 98 67 99
REMARK H PARENT 91 49 57 60
REMARK Flexibility Score: inf
ROOT
ATOM      1  C   UNL A   1      43.173  19.140  25.834  1.00  0.00     0.188 C 
ENDROOT
BRANCH   1   2
ATOM      2  O   UNL A   1      41.779  19.428  25.557  1.00  0.00    -0.376 OA
BRANCH   2   3
ATOM      3  C   UNL A   1      40.788  19.873  26.531  1.00  0.00     0.202 C 
BRANCH   3   4
ATOM      4  C   UNL A   1      39.580  21.023  26.204  1.00  0.00     0.261 C 
BRANCH   4   5
ATOM      5  O   UNL A   1      38.332  20.904  25.155  1.00  0.00    -0.460 OA
BRANCH   5   6
ATOM      6  C   UNL A   1      36.944  21.144  25.306  1.00  0.00     0.338 C 
ATOM      7  O   UNL A   1      36.040  20.322  25.186  1.00  0.00    -0.246 OA
BRANCH   6   8
ATOM      8  C   UNL A   1      36.208  22.402  25.602  1.00  0.00     0.063 A 
ATOM      9  C   UNL A   1      36.646  23.151  23.275  1.00  0.00     0.045 C 
ATOM     10  C   UNL A   1      35.825  23.206  24.526  1.00  0.00    -0.033 A 
ATOM     11  C   UNL A   1      34.564  23.869  24.590  1.00  0.00    -0.037 A 
ATOM     12  C   UNL A   1      33.773  23.840  25.767  1.00  0.00     0.004 A 
ATOM     13  C   UNL A   1      35.324  22.339  26.731  1.00  0.00     0.016 A 
ATOM     14  C   UNL A   1      34.145  23.065  26.839  1.00  0.00     0.001 A 
BRANCH  11  15
ATOM     15  C   UNL A   1      33.872  24.430  23.357  1.00  0.00     0.103 C 
BRANCH  15  16
ATOM     16  C   UNL A   1      33.426  25.854  23.587  1.00  0.00     0.097 A 
ATOM     17  N   UNL A   1      33.461  26.456  24.760  1.00  0.00    -0.245 NA
ATOM     18  S   UNL A   1      32.734  26.777  22.315  1.00  0.00    -0.127 S 
ATOM     19  C   UNL A   1      32.783  27.670  24.707  1.00  0.00     0.057 A 
ATOM     20  C   UNL A   1      32.363  28.019  23.435  1.00  0.00     0.091 A 
BRANCH  19  21
ATOM     21  C   UNL A   1      32.615  28.467  25.995  1.00  0.00     0.005 C 
ATOM     22  C   UNL A   1      31.564  27.779  26.884  1.00  0.00     0.017 C 
ATOM     23  C   UNL A   1      33.938  28.579  26.782  1.00  0.00     0.017 C 
ATOM     24  C   UNL A   1      32.142  29.905  25.688  1.00  0.00     0.017 C 
ENDBRANCH  19  21
ENDBRANCH  15  16
ENDBRANCH  11  15
ENDBRANCH   6   8
ENDBRANCH   5   6
ENDBRANCH   4   5
ENDBRANCH   3   4
ENDBRANCH   2   3
ENDBRANCH   1   2
BRANCH   1  25
ATOM     25  C   UNL A   1      44.254  18.921  24.758  1.00  0.00     0.188 C 
BRANCH  25  26
ATOM     26  O   UNL A   1      45.163  20.006  24.676  1.00  0.00    -0.376 OA
BRANCH  26  27
ATOM     27  C   UNL A   1      44.600  21.275  24.356  1.00  0.00     0.202 C 
BRANCH  27  28
ATOM     28  C   UNL A   1      44.827  22.396  25.404  1.00  0.00     0.261 C 
BRANCH  28  29
ATOM     29  O   UNL A   1      43.677  23.268  25.593  1.00  0.00    -0.460 OA
BRANCH  29  30
ATOM     30  C   UNL A   1      43.173  23.437  26.872  1.00  0.00     0.338 C 
ATOM     31  O   UNL A   1      43.162  22.516  27.680  1.00  0.00    -0.246 OA
BRANCH  30  32
ATOM     32  C   UNL A   1      42.944  24.882  27.217  1.00  0.00     0.060 A 
ATOM     33  C   UNL A   1      43.145  26.057  26.475  1.00  0.00     0.016 A 
ATOM     34  C   UNL A   1      42.448  25.102  28.451  1.00  0.00     0.016 A 
ATOM     35  C   UNL A   1      42.920  27.411  27.039  1.00  0.00     0.010 A 
ATOM     36  C   UNL A   1      42.428  26.400  28.958  1.00  0.00     0.010 A 
ATOM     37  C   UNL A   1      42.527  27.633  28.356  1.00  0.00    -0.014 A 
BRANCH  37  38
ATOM     38  C   UNL A   1      42.309  28.914  29.268  1.00  0.00     0.031 A 
ATOM     39  C   UNL A   1      41.105  30.051  29.432  1.00  0.00     0.074 A 
ATOM     40  C   UNL A   1      43.298  29.034  30.183  1.00  0.00     0.049 A 
ATOM     41  N   UNL A   1      41.295  31.228  30.011  1.00  0.00    -0.248 NA
ATOM     42  C   UNL A   1      39.663  30.063  29.000  1.00  0.00     0.031 C 
ATOM     43  C   UNL A   1      43.382  29.919  31.338  1.00  0.00     0.029 A 
ATOM     44  N   UNL A   1      44.586  28.497  30.073  1.00  0.00    -0.354 N 
ATOM     45  C   UNL A   1      40.067  31.893  30.130  1.00  0.00     0.074 A 
ATOM     46  C   UNL A   1      39.170  31.258  29.261  1.00  0.00     0.031 C 
ATOM     47  C   UNL A   1      44.679  30.149  31.593  1.00  0.00     0.029 A 
ATOM     48  C   UNL A   1      45.451  29.489  30.555  1.00  0.00     0.049 A 
ATOM     49  H   UNL A   1      44.835  27.609  29.729  1.00  0.00     0.167 HD
ATOM     50  C   UNL A   1      39.779  32.864  31.038  1.00  0.00     0.037 A 
ATOM     51  C   UNL A   1      46.341  30.069  29.703  1.00  0.00     0.037 A 
ATOM     52  C   UNL A   1      41.012  33.462  31.477  1.00  0.00     0.049 A 
ATOM     53  C   UNL A   1      46.124  31.558  29.551  1.00  0.00     0.074 A 
ATOM     54  C   UNL A   1      41.810  33.313  32.590  1.00  0.00     0.029 A 
ATOM     55  N   UNL A   1      41.797  34.052  30.493  1.00  0.00    -0.354 N 
ATOM     56  N   UNL A   1      45.121  32.221  30.068  1.00  0.00    -0.248 NA
ATOM     57  C   UNL A   1      47.032  32.431  28.813  1.00  0.00     0.031 C 
ATOM     58  C   UNL A   1      43.146  33.615  32.179  1.00  0.00     0.029 A 
ATOM     59  C   UNL A   1      43.129  34.022  30.852  1.00  0.00     0.049 A 
ATOM     60  H   UNL A   1      41.451  34.436  29.655  1.00  0.00     0.167 HD
ATOM     61  C   UNL A   1      45.158  33.524  29.648  1.00  0.00     0.074 A 
ATOM     62  C   UNL A   1      46.416  33.620  28.929  1.00  0.00     0.031 C 
ATOM     63  C   UNL A   1      44.141  34.414  29.872  1.00  0.00     0.037 A 
BRANCH  50  64
ATOM     64  C   UNL A   1      38.353  33.199  31.509  1.00  0.00     0.058 A 
ATOM     65  C   UNL A   1      37.815  32.665  32.697  1.00  0.00     0.135 A 
ATOM     66  C   UNL A   1      37.417  33.971  30.762  1.00  0.00     0.135 A 
ATOM     67  F   UNL A   1      38.548  31.844  33.464  1.00  0.00    -0.206 F 
ATOM     68  C   UNL A   1      36.493  32.916  33.126  1.00  0.00     0.059 A 
ATOM     69  C   UNL A   1      36.131  34.302  31.206  1.00  0.00     0.059 A 
ATOM     70  F   UNL A   1      37.671  34.385  29.512  1.00  0.00    -0.206 F 
ATOM     71  C   UNL A   1      35.661  33.747  32.380  1.00  0.00     0.060 A 
BRANCH  71  72
ATOM     72  S   UNL A   1      33.955  34.064  32.894  1.00  0.00     0.124 S 
ATOM     73  O   UNL A   1      33.367  34.593  31.666  1.00  0.00    -0.237 OA
ATOM     74  O   UNL A   1      33.489  32.744  33.303  1.00  0.00    -0.237 OA
ATOM     75  O   UNL A   1      34.099  35.031  33.979  1.00  0.00    -0.744 OA
ENDBRANCH  71  72
ENDBRANCH  50  64
BRANCH  51  76
ATOM     76  C   UNL A   1      46.913  29.084  28.722  1.00  0.00     0.058 A 
ATOM     77  C   UNL A   1      47.866  28.171  29.234  1.00  0.00     0.135 A 
ATOM     78  C   UNL A   1      46.311  28.733  27.506  1.00  0.00     0.135 A 
ATOM     79  F   UNL A   1      48.502  28.448  30.384  1.00  0.00    -0.206 F 
ATOM     80  C   UNL A   1      48.075  26.910  28.679  1.00  0.00     0.059 A 
ATOM     81  C   UNL A   1      46.540  27.478  26.904  1.00  0.00     0.059 A 
ATOM     82  F   UNL A   1      45.382  29.530  26.956  1.00  0.00    -0.206 F 
ATOM     83  C   UNL A   1      47.360  26.547  27.546  1.00  0.00     0.060 A 
BRANCH  83  84
ATOM     84  S   UNL A   1      47.411  24.801  27.054  1.00  0.00     0.124 S 
ATOM     85  O   UNL A   1      48.797  24.442  27.338  1.00  0.00    -0.237 OA
ATOM     86  O   UNL A   1      46.416  24.209  27.946  1.00  0.00    -0.237 OA
ATOM     87  O   UNL A   1      47.052  24.840  25.641  1.00  0.00    -0.744 OA
ENDBRANCH  83  84
ENDBRANCH  51  76
BRANCH  63  88
ATOM     88  C   UNL A   1      44.014  35.750  29.163  1.00  0.00     0.058 A 
ATOM     89  C   UNL A   1      43.707  35.887  27.797  1.00  0.00     0.135 A 
ATOM     90  C   UNL A   1      44.068  36.960  29.894  1.00  0.00     0.135 A 
ATOM     91  F   UNL A   1      43.481  34.818  27.019  1.00  0.00    -0.206 F 
ATOM     92  C   UNL A   1      43.580  37.130  27.175  1.00  0.00     0.059 A 
ATOM     93  C   UNL A   1      43.872  38.210  29.308  1.00  0.00     0.059 A 
ATOM     94  F   UNL A   1      44.303  36.966  31.216  1.00  0.00    -0.206 F 
ATOM     95  C   UNL A   1      43.675  38.288  27.937  1.00  0.00     0.060 A 
BRANCH  95  96
ATOM     96  S   UNL A   1      43.519  39.905  27.158  1.00  0.00     0.124 S 
ATOM     97  O   UNL A   1      44.777  39.993  26.423  1.00  0.00    -0.237 OA
ATOM     98  O   UNL A   1      42.321  39.765  26.335  1.00  0.00    -0.237 OA
ATOM     99  O   UNL A   1      43.384  40.804  28.299  1.00  0.00    -0.744 OA
ENDBRANCH  95  96
ENDBRANCH  63  88
ENDBRANCH  37  38
ENDBRANCH  30  32
ENDBRANCH  29  30
ENDBRANCH  28  29
ENDBRANCH  27  28
ENDBRANCH  26  27
ENDBRANCH  25  26
ENDBRANCH   1  25
TORSDOF 23
ENDMDL
MODEL 3
REMARK VINA RESULT:     -10.5      3.731     10.425
REMARK SMILES Cc1c(Cc2nc(C(C)(C)C)cs2)cccc1C(=O)OCCOCCOCCOC(=O)c1ccc(-c2c3nc(c(-c4c(F)cc(S(=O)(=O)[O-])cc4F)c4ccc([nH]4)c(-c4c(F)cc(S(=O)(=O)[O-])cc4F)c4nc(c(-c5c(F)cc(S(=O)(=O)[O-])cc5F)c5ccc2[nH]5)C=C4)C=C3)cc1
REMARK SMILES IDX 24 1 23 2 22 3 21 4 20 5 18 6 19 7 17 8 1 9 2 10 3 11 14 12
REMARK SMILES IDX 16 13 15 14 4 15 5 16 6 17 13 18 7 19 12 20 8 21 9 22 10 23
REMARK SMILES IDX 11 24 25 25 26 26 27 27 28 28 29 29 30 30 31 31 32 32 33 33
REMARK SMILES IDX 97 34 34 35 96 36 35 37 36 38 37 39 90 40 38 41 95 42 89 43
REMARK SMILES IDX 91 44 39 45 94 46 88 47 87 48 40 50 74 51 53 52 73 53 54 54
REMARK SMILES IDX 57 55 72 56 92 57 55 58 56 59 71 61 93 62 58 63 41 64 42 65
REMARK SMILES IDX 51 66 43 67 44 68 50 69 52 70 45 71 46 72 47 73 48 74 49 75
REMARK SMILES IDX 75 76 76 77 85 78 77 79 78 80 84 81 86 82 79 83 80 84 81 85
REMARK SMILES IDX 82 86 83 87 59 88 60 89 69 90 61 91 62 92 68 93 70 94 63 95
REMARK SMILES IDX 64 96 65 97 66 98 67 99
REMARK H PARENT 91 49 57 60
REMARK Flexibility Score: inf
ROOT
ATOM      1  C   UNL A   1      40.868  20.622  26.522  1.00  0.00     0.188 C 
ENDROOT
BRANCH   1   2
ATOM      2  O   UNL A   1      39.867  21.639  26.787  1.00  0.00    -0.376 OA
BRANCH   2   3
ATOM      3  C   UNL A   1      38.703  21.929  25.956  1.00  0.00     0.202 C 
BRANCH   3   4
ATOM      4  C   UNL A   1      37.923  23.439  25.904  1.00  0.00     0.261 C 
BRANCH   4   5
ATOM      5  O   UNL A   1      36.465  23.797  25.258  1.00  0.00    -0.460 OA
BRANCH   5   6
ATOM      6  C   UNL A   1      35.706  23.176  24.235  1.00  0.00     0.338 C 
ATOM      7  O   UNL A   1      36.061  22.976  23.077  1.00  0.00    -0.246 OA
BRANCH   6   8
ATOM      8  C   UNL A   1      34.318  22.644  24.250  1.00  0.00     0.063 A 
ATOM      9  C   UNL A   1      34.020  23.610  26.518  1.00  0.00     0.045 C 
ATOM     10  C   UNL A   1      33.442  23.124  25.224  1.00  0.00    -0.033 A 
ATOM     11  C   UNL A   1      32.076  23.330  24.867  1.00  0.00    -0.037 A 
ATOM     12  C   UNL A   1      31.574  22.926  23.604  1.00  0.00     0.004 A 
ATOM     13  C   UNL A   1      33.770  22.336  22.958  1.00  0.00     0.016 A 
ATOM     14  C   UNL A   1      32.422  22.438  22.640  1.00  0.00     0.001 A 
BRANCH  11  15
ATOM     15  C   UNL A   1      31.139  24.201  25.690  1.00  0.00     0.103 C 
BRANCH  15  16
ATOM     16  C   UNL A   1      31.102  25.613  25.155  1.00  0.00     0.097 A 
ATOM     17  N   UNL A   1      32.029  26.517  25.401  1.00  0.00    -0.245 NA
ATOM     18  S   UNL A   1      29.759  26.175  24.245  1.00  0.00    -0.127 S 
ATOM     19  C   UNL A   1      31.614  27.773  24.970  1.00  0.00     0.057 A 
ATOM     20  C   UNL A   1      30.417  27.758  24.276  1.00  0.00     0.091 A 
BRANCH  19  21
ATOM     21  C   UNL A   1      32.504  28.975  25.266  1.00  0.00     0.005 C 
ATOM     22  C   UNL A   1      31.624  30.171  25.668  1.00  0.00     0.017 C 
ATOM     23  C   UNL A   1      33.505  28.686  26.405  1.00  0.00     0.017 C 
ATOM     24  C   UNL A   1      33.329  29.362  24.018  1.00  0.00     0.017 C 
ENDBRANCH  19  21
ENDBRANCH  15  16
ENDBRANCH  11  15
ENDBRANCH   6   8
ENDBRANCH   5   6
ENDBRANCH   4   5
ENDBRANCH   3   4
ENDBRANCH   2   3
ENDBRANCH   1   2
BRANCH   1  25
ATOM     25  C   UNL A   1      42.331  20.912  26.137  1.00  0.00     0.188 C 
BRANCH  25  26
ATOM     26  O   UNL A   1      42.434  21.822  25.054  1.00  0.00    -0.376 OA
BRANCH  26  27
ATOM     27  C   UNL A   1      43.451  22.813  25.161  1.00  0.00     0.202 C 
BRANCH  27  28
ATOM     28  C   UNL A   1      43.127  24.013  26.089  1.00  0.00     0.261 C 
BRANCH  28  29
ATOM     29  O   UNL A   1      41.868  24.675  25.779  1.00  0.00    -0.460 OA
BRANCH  29  30
ATOM     30  C   UNL A   1      41.811  26.058  25.836  1.00  0.00     0.338 C 
ATOM     31  O   UNL A   1      41.989  26.745  24.838  1.00  0.00    -0.246 OA
BRANCH  30  32
ATOM     32  C   UNL A   1      41.233  26.560  27.130  1.00  0.00     0.060 A 
ATOM     33  C   UNL A   1      40.297  25.994  28.011  1.00  0.00     0.016 A 
ATOM     34  C   UNL A   1      41.695  27.760  27.533  1.00  0.00     0.016 A 
ATOM     35  C   UNL A   1      39.800  26.702  29.216  1.00  0.00     0.010 A 
ATOM     36  C   UNL A   1      41.055  28.423  28.579  1.00  0.00     0.010 A 
ATOM     37  C   UNL A   1      40.190  27.994  29.558  1.00  0.00    -0.014 A 
BRANCH  37  38
ATOM     38  C   UNL A   1      39.780  29.035  30.684  1.00  0.00     0.031 A 
ATOM     39  C   UNL A   1      38.900  30.447  30.718  1.00  0.00     0.074 A 
ATOM     40  C   UNL A   1      40.163  28.604  31.908  1.00  0.00     0.049 A 
ATOM     41  N   UNL A   1      38.983  31.328  31.705  1.00  0.00    -0.248 NA
ATOM     42  C   UNL A   1      37.915  31.045  29.750  1.00  0.00     0.031 C 
ATOM     43  C   UNL A   1      39.807  29.126  33.221  1.00  0.00     0.029 A 
ATOM     44  N   UNL A   1      41.198  27.699  32.171  1.00  0.00    -0.354 N 
ATOM     45  C   UNL A   1      38.018  32.328  31.520  1.00  0.00     0.074 A 
ATOM     46  C   UNL A   1      37.592  32.247  30.188  1.00  0.00     0.031 C 
ATOM     47  C   UNL A   1      40.807  28.837  34.068  1.00  0.00     0.029 A 
ATOM     48  C   UNL A   1      41.862  28.203  33.297  1.00  0.00     0.049 A 
ATOM     49  H   UNL A   1      41.416  26.880  31.670  1.00  0.00     0.167 HD
ATOM     50  C   UNL A   1      37.494  33.110  32.502  1.00  0.00     0.037 A 
ATOM     51  C   UNL A   1      43.153  28.619  33.179  1.00  0.00     0.037 A 
ATOM     52  C   UNL A   1      38.415  33.138  33.607  1.00  0.00     0.049 A 
ATOM     53  C   UNL A   1      43.328  30.088  33.499  1.00  0.00     0.074 A 
ATOM     54  C   UNL A   1      38.486  32.482  34.816  1.00  0.00     0.029 A 
ATOM     55  N   UNL A   1      39.687  33.629  33.338  1.00  0.00    -0.354 N 
ATOM     56  N   UNL A   1      42.347  30.919  33.740  1.00  0.00    -0.248 NA
ATOM     57  C   UNL A   1      44.631  30.740  33.589  1.00  0.00     0.031 C 
ATOM     58  C   UNL A   1      39.872  32.395  35.153  1.00  0.00     0.029 A 
ATOM     59  C   UNL A   1      40.614  33.068  34.193  1.00  0.00     0.049 A 
ATOM     60  H   UNL A   1      39.899  34.285  32.635  1.00  0.00     0.167 HD
ATOM     61  C   UNL A   1      42.838  32.191  33.879  1.00  0.00     0.074 A 
ATOM     62  C   UNL A   1      44.278  32.010  33.853  1.00  0.00     0.031 C 
ATOM     63  C   UNL A   1      42.038  33.300  33.952  1.00  0.00     0.037 A 
BRANCH  50  64
ATOM     64  C   UNL A   1      36.120  33.797  32.406  1.00  0.00     0.058 A 
ATOM     65  C   UNL A   1      35.705  34.475  31.242  1.00  0.00     0.135 A 
ATOM     66  C   UNL A   1      35.198  33.910  33.486  1.00  0.00     0.135 A 
ATOM     67  F   UNL A   1      36.506  34.533  30.169  1.00  0.00    -0.206 F 
ATOM     68  C   UNL A   1      34.471  35.155  31.145  1.00  0.00     0.059 A 
ATOM     69  C   UNL A   1      33.935  34.507  33.389  1.00  0.00     0.059 A 
ATOM     70  F   UNL A   1      35.505  33.516  34.730  1.00  0.00    -0.206 F 
ATOM     71  C   UNL A   1      33.585  35.155  32.220  1.00  0.00     0.060 A 
BRANCH  71  72
ATOM     72  S   UNL A   1      32.010  36.041  32.131  1.00  0.00     0.124 S 
ATOM     73  O   UNL A   1      32.254  37.174  33.019  1.00  0.00    -0.237 OA
ATOM     74  O   UNL A   1      31.896  36.359  30.712  1.00  0.00    -0.237 OA
ATOM     75  O   UNL A   1      31.041  35.064  32.624  1.00  0.00    -0.744 OA
ENDBRANCH  71  72
ENDBRANCH  50  64
BRANCH  51  76
ATOM     76  C   UNL A   1      43.951  27.743  32.253  1.00  0.00     0.058 A 
ATOM     77  C   UNL A   1      44.337  26.481  32.763  1.00  0.00     0.135 A 
ATOM     78  C   UNL A   1      43.985  27.885  30.859  1.00  0.00     0.135 A 
ATOM     79  F   UNL A   1      44.350  26.274  34.090  1.00  0.00    -0.206 F 
ATOM     80  C   UNL A   1      44.564  25.376  31.945  1.00  0.00     0.059 A 
ATOM     81  C   UNL A   1      44.253  26.790  30.012  1.00  0.00     0.059 A 
ATOM     82  F   UNL A   1      43.617  29.042  30.288  1.00  0.00    -0.206 F 
ATOM     83  C   UNL A   1      44.458  25.525  30.569  1.00  0.00     0.060 A 
BRANCH  83  84
ATOM     84  S   UNL A   1      44.433  24.012  29.568  1.00  0.00     0.124 S 
ATOM     85  O   UNL A   1      43.109  24.069  28.956  1.00  0.00    -0.237 OA
ATOM     86  O   UNL A   1      45.555  24.237  28.656  1.00  0.00    -0.237 OA
ATOM     87  O   UNL A   1      44.622  22.954  30.554  1.00  0.00    -0.744 OA
ENDBRANCH  83  84
ENDBRANCH  51  76
BRANCH  63  88
ATOM     88  C   UNL A   1      42.545  34.721  33.793  1.00  0.00     0.058 A 
ATOM     89  C   UNL A   1      42.964  35.272  32.568  1.00  0.00     0.135 A 
ATOM     90  C   UNL A   1      42.493  35.629  34.877  1.00  0.00     0.135 A 
ATOM     91  F   UNL A   1      42.919  34.564  31.430  1.00  0.00    -0.206 F 
ATOM     92  C   UNL A   1      43.410  36.589  32.449  1.00  0.00     0.059 A 
ATOM     93  C   UNL A   1      42.865  36.968  34.764  1.00  0.00     0.059 A 
ATOM     94  F   UNL A   1      42.064  35.243  36.090  1.00  0.00    -0.206 F 
ATOM     95  C   UNL A   1      43.367  37.428  33.555  1.00  0.00     0.060 A 
BRANCH  95  96
ATOM     96  S   UNL A   1      43.941  39.131  33.428  1.00  0.00     0.124 S 
ATOM     97  O   UNL A   1      43.987  39.526  34.832  1.00  0.00    -0.237 OA
ATOM     98  O   UNL A   1      45.239  38.997  32.772  1.00  0.00    -0.237 OA
ATOM     99  O   UNL A   1      42.903  39.765  32.622  1.00  0.00    -0.744 OA
ENDBRANCH  95  96
ENDBRANCH  63  88
ENDBRANCH  37  38
ENDBRANCH  30  32
ENDBRANCH  29  30
ENDBRANCH  28  29
ENDBRANCH  27  28
ENDBRANCH  26  27
ENDBRANCH  25  26
ENDBRANCH   1  25
TORSDOF 23
ENDMDL
