MODEL 1
REMARK VINA RESULT:     -10.0      0.000      0.000
REMARK SMILES O=C(C[N@H+]1CCCC[C@H]1C(=O)OCCOCCOCCOC(=O)c1ccc(-c2c3nc(c(-c4c(F)cc(S(=O)(=O)[O-])cc4F)c4ccc([nH]4)c(-c4c(F)cc(S(=O)(=O)[O-])cc4F)c4nc(c(-c5c(F)cc(S(=O)(=O)[O-])cc5F)c5ccc2[nH]5)C=C4)C=C3)cc1)NC1CCCCC1
REMARK SMILES IDX 16 1 15 2 14 3 13 4 12 5 10 6 11 7 9 8 4 9 5 10 6 12 8 13
REMARK SMILES IDX 7 14 3 15 2 16 1 17 90 18 91 20 92 21 96 22 93 23 95 24
REMARK SMILES IDX 94 25 17 26 18 27 19 28 20 29 21 30 22 31 23 32 24 33 25 34
REMARK SMILES IDX 89 35 26 36 88 37 27 38 28 39 29 40 82 41 30 42 87 43 81 44
REMARK SMILES IDX 83 45 31 46 86 47 80 48 79 49 32 51 66 52 45 53 65 54 46 55
REMARK SMILES IDX 49 56 64 57 84 58 47 59 48 60 63 62 85 63 50 64 33 65 34 66
REMARK SMILES IDX 43 67 35 68 36 69 42 70 44 71 37 72 38 73 39 74 40 75 41 76
REMARK SMILES IDX 67 77 68 78 77 79 69 80 70 81 76 82 78 83 71 84 72 85 73 86
REMARK SMILES IDX 74 87 75 88 51 89 52 90 61 91 53 92 54 93 60 94 62 95 55 96
REMARK SMILES IDX 56 97 57 98 58 99 59 100
REMARK H PARENT 4 11 90 19 83 50 49 61
REMARK Flexibility Score: inf
ROOT
ATOM      1  C   UNL A   1      32.748  29.160  24.104  1.00  0.00     0.188 C 
ENDROOT
BRANCH   1   2
ATOM      2  O   UNL A   1      31.339  29.285  24.084  1.00  0.00    -0.376 OA
BRANCH   2   3
ATOM      3  C   UNL A   1      30.708  29.193  22.818  1.00  0.00     0.202 C 
BRANCH   3   4
ATOM      4  C   UNL A   1      30.304  27.790  22.373  1.00  0.00     0.261 C 
BRANCH   4   5
ATOM      5  O   UNL A   1      30.206  26.808  23.413  1.00  0.00    -0.459 OA
BRANCH   5   6
ATOM      6  C   UNL A   1      31.068  25.751  23.395  1.00  0.00     0.365 C 
ATOM      7  O   UNL A   1      31.911  25.573  22.528  1.00  0.00    -0.245 OA
BRANCH   6   8
ATOM      8  C   UNL A   1      30.820  24.877  24.657  1.00  0.00     0.295 C 
ATOM      9  N   UNL A   1      32.062  24.339  25.252  1.00  0.00    -0.315 N 
ATOM     10  C   UNL A   1      32.887  25.412  25.846  1.00  0.00     0.263 C 
ATOM     11  H   UNL A   1      31.715  23.721  25.985  1.00  0.00     0.349 HD
ATOM     12  C   UNL A   1      32.130  26.295  26.851  1.00  0.00     0.062 C 
ATOM     13  C   UNL A   1      30.010  25.591  25.751  1.00  0.00     0.078 C 
ATOM     14  C   UNL A   1      30.765  26.756  26.362  1.00  0.00     0.013 C 
BRANCH   9  15
ATOM     15  C   UNL A   1      32.883  23.427  24.408  1.00  0.00     0.364 C 
BRANCH  15  16
ATOM     16  C   UNL A   1      33.969  22.613  25.132  1.00  0.00     0.275 C 
ATOM     17  O   UNL A   1      33.667  21.856  26.053  1.00  0.00    -0.268 OA
ATOM     18  N   UNL A   1      35.266  22.822  24.695  1.00  0.00    -0.348 N 
ATOM     19  H   UNL A   1      35.382  23.201  23.794  1.00  0.00     0.163 HD
BRANCH  18  20
ATOM     20  C   UNL A   1      36.487  22.525  25.466  1.00  0.00     0.082 C 
ATOM     21  C   UNL A   1      37.473  21.544  24.812  1.00  0.00     0.025 C 
ATOM     22  C   UNL A   1      37.208  23.834  25.836  1.00  0.00     0.025 C 
ATOM     23  C   UNL A   1      38.697  21.296  25.691  1.00  0.00     0.002 C 
ATOM     24  C   UNL A   1      38.478  23.601  26.657  1.00  0.00     0.002 C 
ATOM     25  C   UNL A   1      39.419  22.599  25.997  1.00  0.00     0.000 C 
ENDBRANCH  18  20
ENDBRANCH  15  16
ENDBRANCH   9  15
ENDBRANCH   6   8
ENDBRANCH   5   6
ENDBRANCH   4   5
ENDBRANCH   3   4
ENDBRANCH   2   3
ENDBRANCH   1   2
BRANCH   1  26
ATOM     26  C   UNL A   1      33.361  29.412  25.503  1.00  0.00     0.188 C 
BRANCH  26  27
ATOM     27  O   UNL A   1      32.924  30.513  26.289  1.00  0.00    -0.376 OA
BRANCH  27  28
ATOM     28  C   UNL A   1      33.395  30.632  27.621  1.00  0.00     0.202 C 
BRANCH  28  29
ATOM     29  C   UNL A   1      34.305  31.821  27.963  1.00  0.00     0.261 C 
BRANCH  29  30
ATOM     30  O   UNL A   1      35.719  31.557  27.894  1.00  0.00    -0.460 OA
BRANCH  30  31
ATOM     31  C   UNL A   1      36.355  31.379  29.081  1.00  0.00     0.338 C 
ATOM     32  O   UNL A   1      35.930  31.683  30.185  1.00  0.00    -0.246 OA
BRANCH  31  33
ATOM     33  C   UNL A   1      37.582  30.559  28.899  1.00  0.00     0.060 A 
ATOM     34  C   UNL A   1      38.452  30.415  29.991  1.00  0.00     0.016 A 
ATOM     35  C   UNL A   1      37.897  29.963  27.677  1.00  0.00     0.016 A 
ATOM     36  C   UNL A   1      39.653  29.711  29.855  1.00  0.00     0.010 A 
ATOM     37  C   UNL A   1      39.115  29.280  27.535  1.00  0.00     0.010 A 
ATOM     38  C   UNL A   1      40.015  29.177  28.612  1.00  0.00    -0.014 A 
BRANCH  38  39
ATOM     39  C   UNL A   1      41.410  28.708  28.380  1.00  0.00     0.031 A 
ATOM     40  C   UNL A   1      42.519  29.728  28.419  1.00  0.00     0.074 A 
ATOM     41  C   UNL A   1      41.704  27.414  28.151  1.00  0.00     0.049 A 
ATOM     42  N   UNL A   1      43.796  29.581  28.174  1.00  0.00    -0.248 NA
ATOM     43  C   UNL A   1      42.132  31.101  28.788  1.00  0.00     0.031 C 
ATOM     44  C   UNL A   1      40.743  26.314  28.143  1.00  0.00     0.029 A 
ATOM     45  N   UNL A   1      42.907  26.812  27.867  1.00  0.00    -0.354 N 
ATOM     46  C   UNL A   1      44.363  30.838  28.353  1.00  0.00     0.074 A 
ATOM     47  C   UNL A   1      43.289  31.740  28.704  1.00  0.00     0.031 C 
ATOM     48  C   UNL A   1      41.391  25.172  27.842  1.00  0.00     0.029 A 
ATOM     49  C   UNL A   1      42.806  25.465  27.606  1.00  0.00     0.049 A 
ATOM     50  H   UNL A   1      43.762  27.299  27.852  1.00  0.00     0.167 HD
ATOM     51  C   UNL A   1      45.661  31.209  28.240  1.00  0.00     0.037 A 
ATOM     52  C   UNL A   1      43.738  24.579  27.196  1.00  0.00     0.037 A 
ATOM     53  C   UNL A   1      46.732  30.319  27.878  1.00  0.00     0.049 A 
ATOM     54  C   UNL A   1      45.164  25.036  26.984  1.00  0.00     0.074 A 
ATOM     55  C   UNL A   1      48.079  30.607  27.737  1.00  0.00     0.029 A 
ATOM     56  N   UNL A   1      46.581  28.971  27.591  1.00  0.00    -0.354 N 
ATOM     57  N   UNL A   1      45.689  26.224  27.168  1.00  0.00    -0.248 NA
ATOM     58  C   UNL A   1      46.125  24.029  26.505  1.00  0.00     0.031 C 
ATOM     59  C   UNL A   1      48.734  29.447  27.314  1.00  0.00     0.029 A 
ATOM     60  C   UNL A   1      47.806  28.420  27.248  1.00  0.00     0.049 A 
ATOM     61  H   UNL A   1      45.729  28.478  27.623  1.00  0.00     0.167 HD
ATOM     62  C   UNL A   1      47.043  26.097  26.864  1.00  0.00     0.074 A 
ATOM     63  C   UNL A   1      47.258  24.716  26.489  1.00  0.00     0.031 C 
ATOM     64  C   UNL A   1      48.018  27.039  26.894  1.00  0.00     0.037 A 
BRANCH  51  65
ATOM     65  C   UNL A   1      45.992  32.655  28.481  1.00  0.00     0.058 A 
ATOM     66  C   UNL A   1      45.836  33.626  27.479  1.00  0.00     0.135 A 
ATOM     67  C   UNL A   1      46.435  33.082  29.744  1.00  0.00     0.135 A 
ATOM     68  F   UNL A   1      45.435  33.268  26.249  1.00  0.00    -0.206 F 
ATOM     69  C   UNL A   1      46.128  34.966  27.714  1.00  0.00     0.059 A 
ATOM     70  C   UNL A   1      46.707  34.420  30.009  1.00  0.00     0.059 A 
ATOM     71  F   UNL A   1      46.606  32.194  30.736  1.00  0.00    -0.206 F 
ATOM     72  C   UNL A   1      46.562  35.352  28.984  1.00  0.00     0.060 A 
BRANCH  72  73
ATOM     73  S   UNL A   1      46.926  37.097  29.275  1.00  0.00     0.124 S 
ATOM     74  O   UNL A   1      47.479  37.057  30.625  1.00  0.00    -0.237 OA
ATOM     75  O   UNL A   1      47.876  37.398  28.209  1.00  0.00    -0.237 OA
ATOM     76  O   UNL A   1      45.623  37.742  29.150  1.00  0.00    -0.744 OA
ENDBRANCH  72  73
ENDBRANCH  51  65
BRANCH  52  77
ATOM     77  C   UNL A   1      43.362  23.162  26.923  1.00  0.00     0.058 A 
ATOM     78  C   UNL A   1      43.077  22.272  27.969  1.00  0.00     0.135 A 
ATOM     79  C   UNL A   1      43.323  22.661  25.613  1.00  0.00     0.135 A 
ATOM     80  F   UNL A   1      43.121  22.696  29.242  1.00  0.00    -0.206 F 
ATOM     81  C   UNL A   1      42.788  20.932  27.729  1.00  0.00     0.059 A 
ATOM     82  C   UNL A   1      43.007  21.332  25.346  1.00  0.00     0.059 A 
ATOM     83  F   UNL A   1      43.585  23.470  24.575  1.00  0.00    -0.206 F 
ATOM     84  C   UNL A   1      42.754  20.471  26.412  1.00  0.00     0.060 A 
BRANCH  84  85
ATOM     85  S   UNL A   1      42.347  18.738  26.110  1.00  0.00     0.124 S 
ATOM     86  O   UNL A   1      40.927  18.820  25.787  1.00  0.00    -0.237 OA
ATOM     87  O   UNL A   1      43.236  18.403  25.002  1.00  0.00    -0.237 OA
ATOM     88  O   UNL A   1      42.668  18.091  27.379  1.00  0.00    -0.744 OA
ENDBRANCH  84  85
ENDBRANCH  52  77
BRANCH  64  89
ATOM     89  C   UNL A   1      49.424  26.611  26.565  1.00  0.00     0.058 A 
ATOM     90  C   UNL A   1      50.274  26.044  27.528  1.00  0.00     0.135 A 
ATOM     91  C   UNL A   1      49.906  26.709  25.247  1.00  0.00     0.135 A 
ATOM     92  F   UNL A   1      49.869  25.928  28.802  1.00  0.00    -0.206 F 
ATOM     93  C   UNL A   1      51.556  25.608  27.202  1.00  0.00     0.059 A 
ATOM     94  C   UNL A   1      51.172  26.254  24.893  1.00  0.00     0.059 A 
ATOM     95  F   UNL A   1      49.132  27.232  24.283  1.00  0.00    -0.206 F 
ATOM     96  C   UNL A   1      51.995  25.715  25.880  1.00  0.00     0.060 A 
BRANCH  96  97
ATOM     97  S   UNL A   1      53.645  25.111  25.463  1.00  0.00     0.124 S 
ATOM     98  O   UNL A   1      54.422  25.552  26.617  1.00  0.00    -0.237 OA
ATOM     99  O   UNL A   1      53.433  23.671  25.354  1.00  0.00    -0.237 OA
ATOM    100  O   UNL A   1      53.949  25.789  24.206  1.00  0.00    -0.744 OA
ENDBRANCH  96  97
ENDBRANCH  64  89
ENDBRANCH  38  39
ENDBRANCH  31  33
ENDBRANCH  30  31
ENDBRANCH  29  30
ENDBRANCH  28  29
ENDBRANCH  27  28
ENDBRANCH  26  27
ENDBRANCH   1  26
TORSDOF 23
ENDMDL
MODEL 2
REMARK VINA RESULT:      -9.8      6.419     11.905
REMARK SMILES O=C(C[N@H+]1CCCC[C@H]1C(=O)OCCOCCOCCOC(=O)c1ccc(-c2c3nc(c(-c4c(F)cc(S(=O)(=O)[O-])cc4F)c4ccc([nH]4)c(-c4c(F)cc(S(=O)(=O)[O-])cc4F)c4nc(c(-c5c(F)cc(S(=O)(=O)[O-])cc5F)c5ccc2[nH]5)C=C4)C=C3)cc1)NC1CCCCC1
REMARK SMILES IDX 16 1 15 2 14 3 13 4 12 5 10 6 11 7 9 8 4 9 5 10 6 12 8 13
REMARK SMILES IDX 7 14 3 15 2 16 1 17 90 18 91 20 92 21 96 22 93 23 95 24
REMARK SMILES IDX 94 25 17 26 18 27 19 28 20 29 21 30 22 31 23 32 24 33 25 34
REMARK SMILES IDX 89 35 26 36 88 37 27 38 28 39 29 40 82 41 30 42 87 43 81 44
REMARK SMILES IDX 83 45 31 46 86 47 80 48 79 49 32 51 66 52 45 53 65 54 46 55
REMARK SMILES IDX 49 56 64 57 84 58 47 59 48 60 63 62 85 63 50 64 33 65 34 66
REMARK SMILES IDX 43 67 35 68 36 69 42 70 44 71 37 72 38 73 39 74 40 75 41 76
REMARK SMILES IDX 67 77 68 78 77 79 69 80 70 81 76 82 78 83 71 84 72 85 73 86
REMARK SMILES IDX 74 87 75 88 51 89 52 90 61 91 53 92 54 93 60 94 62 95 55 96
REMARK SMILES IDX 56 97 57 98 58 99 59 100
REMARK H PARENT 4 11 90 19 83 50 49 61
REMARK Flexibility Score: inf
ROOT
ATOM      1  C   UNL A   1      40.024  20.581  26.039  1.00  0.00     0.188 C 
ENDROOT
BRANCH   1   2
ATOM      2  O   UNL A   1      39.050  21.586  26.252  1.00  0.00    -0.376 OA
BRANCH   2   3
ATOM      3  C   UNL A   1      37.930  21.582  25.383  1.00  0.00     0.202 C 
BRANCH   3   4
ATOM      4  C   UNL A   1      37.286  22.940  25.118  1.00  0.00     0.261 C 
BRANCH   4   5
ATOM      5  O   UNL A   1      36.004  22.909  24.475  1.00  0.00    -0.459 OA
BRANCH   5   6
ATOM      6  C   UNL A   1      35.099  23.883  24.777  1.00  0.00     0.365 C 
ATOM      7  O   UNL A   1      35.232  24.677  25.697  1.00  0.00    -0.245 OA
BRANCH   6   8
ATOM      8  C   UNL A   1      33.936  23.829  23.746  1.00  0.00     0.295 C 
ATOM      9  N   UNL A   1      32.610  23.622  24.367  1.00  0.00    -0.315 N 
ATOM     10  C   UNL A   1      32.192  24.800  25.157  1.00  0.00     0.263 C 
ATOM     11  H   UNL A   1      31.996  23.509  23.560  1.00  0.00     0.349 HD
ATOM     12  C   UNL A   1      32.236  26.122  24.373  1.00  0.00     0.062 C 
ATOM     13  C   UNL A   1      33.871  25.058  22.825  1.00  0.00     0.078 C 
ATOM     14  C   UNL A   1      33.518  26.326  23.579  1.00  0.00     0.013 C 
BRANCH   9  15
ATOM     15  C   UNL A   1      32.402  22.358  25.125  1.00  0.00     0.364 C 
BRANCH  15  16
ATOM     16  C   UNL A   1      32.594  21.048  24.341  1.00  0.00     0.275 C 
ATOM     17  O   UNL A   1      32.100  20.915  23.224  1.00  0.00    -0.268 OA
ATOM     18  N   UNL A   1      33.314  20.061  24.993  1.00  0.00    -0.348 N 
ATOM     19  H   UNL A   1      33.903  20.344  25.728  1.00  0.00     0.163 HD
BRANCH  18  20
ATOM     20  C   UNL A   1      33.273  18.621  24.675  1.00  0.00     0.082 C 
ATOM     21  C   UNL A   1      34.616  17.978  24.293  1.00  0.00     0.025 C 
ATOM     22  C   UNL A   1      32.625  17.845  25.835  1.00  0.00     0.025 C 
ATOM     23  C   UNL A   1      34.466  16.492  23.975  1.00  0.00     0.002 C 
ATOM     24  C   UNL A   1      32.530  16.341  25.564  1.00  0.00     0.002 C 
ATOM     25  C   UNL A   1      33.872  15.741  25.156  1.00  0.00     0.000 C 
ENDBRANCH  18  20
ENDBRANCH  15  16
ENDBRANCH   9  15
ENDBRANCH   6   8
ENDBRANCH   5   6
ENDBRANCH   4   5
ENDBRANCH   3   4
ENDBRANCH   2   3
ENDBRANCH   1   2
BRANCH   1  26
ATOM     26  C   UNL A   1      41.465  21.057  26.341  1.00  0.00     0.188 C 
BRANCH  26  27
ATOM     27  O   UNL A   1      42.130  21.941  25.447  1.00  0.00    -0.376 OA
BRANCH  27  28
ATOM     28  C   UNL A   1      43.322  22.578  25.875  1.00  0.00     0.202 C 
BRANCH  28  29
ATOM     29  C   UNL A   1      43.217  23.995  26.457  1.00  0.00     0.261 C 
BRANCH  29  30
ATOM     30  O   UNL A   1      42.423  24.921  25.689  1.00  0.00    -0.460 OA
BRANCH  30  31
ATOM     31  C   UNL A   1      41.201  25.227  26.196  1.00  0.00     0.338 C 
ATOM     32  O   UNL A   1      40.135  24.724  25.876  1.00  0.00    -0.246 OA
BRANCH  31  33
ATOM     33  C   UNL A   1      41.334  26.130  27.369  1.00  0.00     0.060 A 
ATOM     34  C   UNL A   1      40.536  25.878  28.496  1.00  0.00     0.016 A 
ATOM     35  C   UNL A   1      42.201  27.224  27.365  1.00  0.00     0.016 A 
ATOM     36  C   UNL A   1      40.573  26.736  29.600  1.00  0.00     0.010 A 
ATOM     37  C   UNL A   1      42.218  28.099  28.462  1.00  0.00     0.010 A 
ATOM     38  C   UNL A   1      41.381  27.879  29.573  1.00  0.00    -0.014 A 
BRANCH  38  39
ATOM     39  C   UNL A   1      41.194  28.948  30.593  1.00  0.00     0.031 A 
ATOM     40  C   UNL A   1      42.125  28.973  31.778  1.00  0.00     0.074 A 
ATOM     41  C   UNL A   1      40.235  29.887  30.481  1.00  0.00     0.049 A 
ATOM     42  N   UNL A   1      42.116  29.751  32.829  1.00  0.00    -0.248 NA
ATOM     43  C   UNL A   1      43.217  27.984  31.771  1.00  0.00     0.031 C 
ATOM     44  C   UNL A   1      39.303  30.021  29.363  1.00  0.00     0.029 A 
ATOM     45  N   UNL A   1      39.883  30.905  31.336  1.00  0.00    -0.354 N 
ATOM     46  C   UNL A   1      43.192  29.345  33.610  1.00  0.00     0.074 A 
ATOM     47  C   UNL A   1      43.819  28.237  32.924  1.00  0.00     0.031 C 
ATOM     48  C   UNL A   1      38.468  31.047  29.614  1.00  0.00     0.029 A 
ATOM     49  C   UNL A   1      38.784  31.622  30.922  1.00  0.00     0.049 A 
ATOM     50  H   UNL A   1      40.371  31.102  32.167  1.00  0.00     0.167 HD
ATOM     51  C   UNL A   1      43.625  29.849  34.791  1.00  0.00     0.037 A 
ATOM     52  C   UNL A   1      38.096  32.606  31.539  1.00  0.00     0.037 A 
ATOM     53  C   UNL A   1      42.998  30.942  35.485  1.00  0.00     0.049 A 
ATOM     54  C   UNL A   1      38.541  33.090  32.901  1.00  0.00     0.074 A 
ATOM     55  C   UNL A   1      43.366  31.520  36.689  1.00  0.00     0.029 A 
ATOM     56  N   UNL A   1      41.870  31.618  35.048  1.00  0.00    -0.354 N 
ATOM     57  N   UNL A   1      39.567  32.707  33.622  1.00  0.00    -0.248 NA
ATOM     58  C   UNL A   1      37.730  34.143  33.534  1.00  0.00     0.031 C 
ATOM     59  C   UNL A   1      42.431  32.510  37.004  1.00  0.00     0.029 A 
ATOM     60  C   UNL A   1      41.514  32.590  35.970  1.00  0.00     0.049 A 
ATOM     61  H   UNL A   1      41.391  31.434  34.207  1.00  0.00     0.167 HD
ATOM     62  C   UNL A   1      39.544  33.493  34.772  1.00  0.00     0.074 A 
ATOM     63  C   UNL A   1      38.407  34.379  34.649  1.00  0.00     0.031 C 
ATOM     64  C   UNL A   1      40.390  33.483  35.833  1.00  0.00     0.037 A 
BRANCH  51  65
ATOM     65  C   UNL A   1      44.822  29.199  35.426  1.00  0.00     0.058 A 
ATOM     66  C   UNL A   1      44.696  28.091  36.278  1.00  0.00     0.135 A 
ATOM     67  C   UNL A   1      46.117  29.667  35.146  1.00  0.00     0.135 A 
ATOM     68  F   UNL A   1      43.481  27.617  36.595  1.00  0.00    -0.206 F 
ATOM     69  C   UNL A   1      45.809  27.483  36.849  1.00  0.00     0.059 A 
ATOM     70  C   UNL A   1      47.246  29.058  35.684  1.00  0.00     0.059 A 
ATOM     71  F   UNL A   1      46.293  30.726  34.340  1.00  0.00    -0.206 F 
ATOM     72  C   UNL A   1      47.081  27.974  36.544  1.00  0.00     0.060 A 
BRANCH  72  73
ATOM     73  S   UNL A   1      48.516  27.166  37.285  1.00  0.00     0.124 S 
ATOM     74  O   UNL A   1      49.106  28.263  38.045  1.00  0.00    -0.237 OA
ATOM     75  O   UNL A   1      47.902  26.106  38.077  1.00  0.00    -0.237 OA
ATOM     76  O   UNL A   1      49.288  26.717  36.130  1.00  0.00    -0.744 OA
ENDBRANCH  72  73
ENDBRANCH  51  65
BRANCH  52  77
ATOM     77  C   UNL A   1      36.886  33.196  30.898  1.00  0.00     0.058 A 
ATOM     78  C   UNL A   1      36.998  34.142  29.868  1.00  0.00     0.135 A 
ATOM     79  C   UNL A   1      35.595  32.856  31.333  1.00  0.00     0.135 A 
ATOM     80  F   UNL A   1      38.210  34.517  29.429  1.00  0.00    -0.206 F 
ATOM     81  C   UNL A   1      35.876  34.746  29.306  1.00  0.00     0.059 A 
ATOM     82  C   UNL A   1      34.458  33.425  30.766  1.00  0.00     0.059 A 
ATOM     83  F   UNL A   1      35.432  31.956  32.313  1.00  0.00    -0.206 F 
ATOM     84  C   UNL A   1      34.610  34.380  29.762  1.00  0.00     0.060 A 
BRANCH  84  85
ATOM     85  S   UNL A   1      33.160  35.146  29.005  1.00  0.00     0.124 S 
ATOM     86  O   UNL A   1      33.741  36.334  28.390  1.00  0.00    -0.237 OA
ATOM     87  O   UNL A   1      32.709  34.106  28.086  1.00  0.00    -0.237 OA
ATOM     88  O   UNL A   1      32.278  35.393  30.142  1.00  0.00    -0.744 OA
ENDBRANCH  84  85
ENDBRANCH  52  77
BRANCH  64  89
ATOM     89  C   UNL A   1      40.162  34.490  36.929  1.00  0.00     0.058 A 
ATOM     90  C   UNL A   1      40.829  35.725  36.954  1.00  0.00     0.135 A 
ATOM     91  C   UNL A   1      39.210  34.243  37.933  1.00  0.00     0.135 A 
ATOM     92  F   UNL A   1      41.750  36.015  36.022  1.00  0.00    -0.206 F 
ATOM     93  C   UNL A   1      40.575  36.670  37.947  1.00  0.00     0.059 A 
ATOM     94  C   UNL A   1      38.919  35.183  38.917  1.00  0.00     0.059 A 
ATOM     95  F   UNL A   1      38.533  33.083  37.950  1.00  0.00    -0.206 F 
ATOM     96  C   UNL A   1      39.616  36.390  38.923  1.00  0.00     0.060 A 
BRANCH  96  97
ATOM     97  S   UNL A   1      39.269  37.638  40.181  1.00  0.00     0.124 S 
ATOM     98  O   UNL A   1      38.890  36.811  41.321  1.00  0.00    -0.237 OA
ATOM     99  O   UNL A   1      40.550  38.329  40.297  1.00  0.00    -0.237 OA
ATOM    100  O   UNL A   1      38.191  38.427  39.591  1.00  0.00    -0.744 OA
ENDBRANCH  96  97
ENDBRANCH  64  89
ENDBRANCH  38  39
ENDBRANCH  31  33
ENDBRANCH  30  31
ENDBRANCH  29  30
ENDBRANCH  28  29
ENDBRANCH  27  28
ENDBRANCH  26  27
ENDBRANCH   1  26
TORSDOF 23
ENDMDL
MODEL 3
REMARK VINA RESULT:      -9.6      6.238     11.967
REMARK SMILES O=C(C[N@H+]1CCCC[C@H]1C(=O)OCCOCCOCCOC(=O)c1ccc(-c2c3nc(c(-c4c(F)cc(S(=O)(=O)[O-])cc4F)c4ccc([nH]4)c(-c4c(F)cc(S(=O)(=O)[O-])cc4F)c4nc(c(-c5c(F)cc(S(=O)(=O)[O-])cc5F)c5ccc2[nH]5)C=C4)C=C3)cc1)NC1CCCCC1
REMARK SMILES IDX 16 1 15 2 14 3 13 4 12 5 10 6 11 7 9 8 4 9 5 10 6 12 8 13
REMARK SMILES IDX 7 14 3 15 2 16 1 17 90 18 91 20 92 21 96 22 93 23 95 24
REMARK SMILES IDX 94 25 17 26 18 27 19 28 20 29 21 30 22 31 23 32 24 33 25 34
REMARK SMILES IDX 89 35 26 36 88 37 27 38 28 39 29 40 82 41 30 42 87 43 81 44
REMARK SMILES IDX 83 45 31 46 86 47 80 48 79 49 32 51 66 52 45 53 65 54 46 55
REMARK SMILES IDX 49 56 64 57 84 58 47 59 48 60 63 62 85 63 50 64 33 65 34 66
REMARK SMILES IDX 43 67 35 68 36 69 42 70 44 71 37 72 38 73 39 74 40 75 41 76
REMARK SMILES IDX 67 77 68 78 77 79 69 80 70 81 76 82 78 83 71 84 72 85 73 86
REMARK SMILES IDX 74 87 75 88 51 89 52 90 61 91 53 92 54 93 60 94 62 95 55 96
REMARK SMILES IDX 56 97 57 98 58 99 59 100
REMARK H PARENT 4 11 90 19 83 50 49 61
REMARK Flexibility Score: inf
ROOT
ATOM      1  C   UNL A   1      37.038  20.832  25.036  1.00  0.00     0.188 C 
ENDROOT
BRANCH   1   2
ATOM      2  O   UNL A   1      36.084  21.776  24.587  1.00  0.00    -0.376 OA
BRANCH   2   3
ATOM      3  C   UNL A   1      34.722  21.393  24.667  1.00  0.00     0.202 C 
BRANCH   3   4
ATOM      4  C   UNL A   1      33.771  22.100  23.704  1.00  0.00     0.261 C 
BRANCH   4   5
ATOM      5  O   UNL A   1      32.657  22.773  24.306  1.00  0.00    -0.459 OA
BRANCH   5   6
ATOM      6  C   UNL A   1      32.542  24.121  24.140  1.00  0.00     0.365 C 
ATOM      7  O   UNL A   1      32.449  24.669  23.052  1.00  0.00    -0.245 OA
BRANCH   6   8
ATOM      8  C   UNL A   1      32.506  24.800  25.539  1.00  0.00     0.295 C 
ATOM      9  N   UNL A   1      31.164  25.289  25.919  1.00  0.00    -0.315 N 
ATOM     10  C   UNL A   1      30.226  24.171  26.158  1.00  0.00     0.263 C 
ATOM     11  H   UNL A   1      31.341  25.786  26.793  1.00  0.00     0.349 HD
ATOM     12  C   UNL A   1      30.742  23.130  27.165  1.00  0.00     0.062 C 
ATOM     13  C   UNL A   1      33.054  23.912  26.668  1.00  0.00     0.078 C 
ATOM     14  C   UNL A   1      32.180  22.698  26.924  1.00  0.00     0.013 C 
BRANCH   9  15
ATOM     15  C   UNL A   1      30.551  26.338  25.058  1.00  0.00     0.364 C 
BRANCH  15  16
ATOM     16  C   UNL A   1      31.200  27.732  25.107  1.00  0.00     0.275 C 
ATOM     17  O   UNL A   1      31.160  28.471  24.126  1.00  0.00    -0.268 OA
ATOM     18  N   UNL A   1      31.834  28.056  26.295  1.00  0.00    -0.348 N 
ATOM     19  H   UNL A   1      31.573  27.550  27.097  1.00  0.00     0.163 HD
BRANCH  18  20
ATOM     20  C   UNL A   1      32.869  29.094  26.456  1.00  0.00     0.082 C 
ATOM     21  C   UNL A   1      32.382  30.450  26.993  1.00  0.00     0.025 C 
ATOM     22  C   UNL A   1      34.018  28.561  27.329  1.00  0.00     0.025 C 
ATOM     23  C   UNL A   1      33.523  31.457  27.116  1.00  0.00     0.002 C 
ATOM     24  C   UNL A   1      35.141  29.584  27.523  1.00  0.00     0.002 C 
ATOM     25  C   UNL A   1      34.620  30.926  28.024  1.00  0.00     0.000 C 
ENDBRANCH  18  20
ENDBRANCH  15  16
ENDBRANCH   9  15
ENDBRANCH   6   8
ENDBRANCH   5   6
ENDBRANCH   4   5
ENDBRANCH   3   4
ENDBRANCH   2   3
ENDBRANCH   1   2
BRANCH   1  26
ATOM     26  C   UNL A   1      38.374  21.479  25.474  1.00  0.00     0.188 C 
BRANCH  26  27
ATOM     27  O   UNL A   1      39.504  20.666  25.762  1.00  0.00    -0.376 OA
BRANCH  27  28
ATOM     28  C   UNL A   1      40.389  21.067  26.795  1.00  0.00     0.202 C 
BRANCH  28  29
ATOM     29  C   UNL A   1      41.382  22.200  26.497  1.00  0.00     0.261 C 
BRANCH  29  30
ATOM     30  O   UNL A   1      40.834  23.532  26.550  1.00  0.00    -0.460 OA
BRANCH  30  31
ATOM     31  C   UNL A   1      41.728  24.551  26.476  1.00  0.00     0.338 C 
ATOM     32  O   UNL A   1      42.658  24.646  25.690  1.00  0.00    -0.246 OA
BRANCH  31  33
ATOM     33  C   UNL A   1      41.313  25.674  27.357  1.00  0.00     0.060 A 
ATOM     34  C   UNL A   1      42.061  26.862  27.317  1.00  0.00     0.016 A 
ATOM     35  C   UNL A   1      40.230  25.567  28.231  1.00  0.00     0.016 A 
ATOM     36  C   UNL A   1      41.754  27.925  28.172  1.00  0.00     0.010 A 
ATOM     37  C   UNL A   1      39.940  26.624  29.108  1.00  0.00     0.010 A 
ATOM     38  C   UNL A   1      40.720  27.796  29.107  1.00  0.00    -0.014 A 
BRANCH  38  39
ATOM     39  C   UNL A   1      40.591  28.781  30.217  1.00  0.00     0.031 A 
ATOM     40  C   UNL A   1      41.495  28.628  31.413  1.00  0.00     0.074 A 
ATOM     41  C   UNL A   1      39.709  29.797  30.176  1.00  0.00     0.049 A 
ATOM     42  N   UNL A   1      41.522  29.307  32.531  1.00  0.00    -0.248 NA
ATOM     43  C   UNL A   1      42.509  27.562  31.334  1.00  0.00     0.031 C 
ATOM     44  C   UNL A   1      38.815  30.102  29.061  1.00  0.00     0.029 A 
ATOM     45  N   UNL A   1      39.416  30.759  31.115  1.00  0.00    -0.354 N 
ATOM     46  C   UNL A   1      42.547  28.752  33.288  1.00  0.00     0.074 A 
ATOM     47  C   UNL A   1      43.103  27.664  32.514  1.00  0.00     0.031 C 
ATOM     48  C   UNL A   1      38.054  31.162  29.391  1.00  0.00     0.029 A 
ATOM     49  C   UNL A   1      38.383  31.593  30.751  1.00  0.00     0.049 A 
ATOM     50  H   UNL A   1      39.898  30.843  31.968  1.00  0.00     0.167 HD
ATOM     51  C   UNL A   1      42.990  29.114  34.516  1.00  0.00     0.037 A 
ATOM     52  C   UNL A   1      37.759  32.568  31.444  1.00  0.00     0.037 A 
ATOM     53  C   UNL A   1      42.433  30.185  35.297  1.00  0.00     0.049 A 
ATOM     54  C   UNL A   1      38.208  32.893  32.851  1.00  0.00     0.074 A 
ATOM     55  C   UNL A   1      42.816  30.623  36.554  1.00  0.00     0.029 A 
ATOM     56  N   UNL A   1      41.369  30.983  34.905  1.00  0.00    -0.354 N 
ATOM     57  N   UNL A   1      39.186  32.368  33.549  1.00  0.00    -0.248 NA
ATOM     58  C   UNL A   1      37.465  33.945  33.564  1.00  0.00     0.031 C 
ATOM     59  C   UNL A   1      41.952  31.650  36.943  1.00  0.00     0.029 A 
ATOM     60  C   UNL A   1      41.066  31.893  35.906  1.00  0.00     0.049 A 
ATOM     61  H   UNL A   1      40.896  30.912  34.045  1.00  0.00     0.167 HD
ATOM     62  C   UNL A   1      39.197  33.049  34.765  1.00  0.00     0.074 A 
ATOM     63  C   UNL A   1      38.133  34.027  34.706  1.00  0.00     0.031 C 
ATOM     64  C   UNL A   1      40.017  32.879  35.833  1.00  0.00     0.037 A 
BRANCH  51  65
ATOM     65  C   UNL A   1      44.121  28.319  35.107  1.00  0.00     0.058 A 
ATOM     66  C   UNL A   1      45.460  28.704  34.943  1.00  0.00     0.135 A 
ATOM     67  C   UNL A   1      43.858  27.177  35.882  1.00  0.00     0.135 A 
ATOM     68  F   UNL A   1      45.768  29.776  34.194  1.00  0.00    -0.206 F 
ATOM     69  C   UNL A   1      46.501  27.975  35.506  1.00  0.00     0.059 A 
ATOM     70  C   UNL A   1      44.881  26.447  36.478  1.00  0.00     0.059 A 
ATOM     71  F   UNL A   1      42.595  26.762  36.068  1.00  0.00    -0.206 F 
ATOM     72  C   UNL A   1      46.201  26.848  36.274  1.00  0.00     0.060 A 
BRANCH  72  73
ATOM     73  S   UNL A   1      47.563  25.917  37.008  1.00  0.00     0.124 S 
ATOM     74  O   UNL A   1      48.500  25.843  35.891  1.00  0.00    -0.237 OA
ATOM     75  O   UNL A   1      47.966  26.777  38.116  1.00  0.00    -0.237 OA
ATOM     76  O   UNL A   1      46.944  24.653  37.393  1.00  0.00    -0.744 OA
ENDBRANCH  72  73
ENDBRANCH  51  65
BRANCH  52  77
ATOM     77  C   UNL A   1      36.611  33.304  30.840  1.00  0.00     0.058 A 
ATOM     78  C   UNL A   1      35.297  33.086  31.279  1.00  0.00     0.135 A 
ATOM     79  C   UNL A   1      36.803  34.208  29.784  1.00  0.00     0.135 A 
ATOM     80  F   UNL A   1      35.056  32.216  32.272  1.00  0.00    -0.206 F 
ATOM     81  C   UNL A   1      34.211  33.720  30.680  1.00  0.00     0.059 A 
ATOM     82  C   UNL A   1      35.737  34.877  29.188  1.00  0.00     0.059 A 
ATOM     83  F   UNL A   1      38.039  34.456  29.327  1.00  0.00    -0.206 F 
ATOM     84  C   UNL A   1      34.442  34.615  29.635  1.00  0.00     0.060 A 
BRANCH  84  85
ATOM     85  S   UNL A   1      33.031  35.455  28.885  1.00  0.00     0.124 S 
ATOM     86  O   UNL A   1      33.687  36.505  28.115  1.00  0.00    -0.237 OA
ATOM     87  O   UNL A   1      32.414  34.384  28.108  1.00  0.00    -0.237 OA
ATOM     88  O   UNL A   1      32.259  35.908  30.038  1.00  0.00    -0.744 OA
ENDBRANCH  84  85
ENDBRANCH  52  77
BRANCH  64  89
ATOM     89  C   UNL A   1      39.841  33.799  37.013  1.00  0.00     0.058 A 
ATOM     90  C   UNL A   1      40.385  35.093  37.034  1.00  0.00     0.135 A 
ATOM     91  C   UNL A   1      39.058  33.403  38.111  1.00  0.00     0.135 A 
ATOM     92  F   UNL A   1      41.143  35.524  36.013  1.00  0.00    -0.206 F 
ATOM     93  C   UNL A   1      40.176  35.953  38.110  1.00  0.00     0.059 A 
ATOM     94  C   UNL A   1      38.813  34.256  39.184  1.00  0.00     0.059 A 
ATOM     95  F   UNL A   1      38.503  32.181  38.139  1.00  0.00    -0.206 F 
ATOM     96  C   UNL A   1      39.386  35.526  39.179  1.00  0.00     0.060 A 
BRANCH  96  97
ATOM     97  S   UNL A   1      39.092  36.665  40.550  1.00  0.00     0.124 S 
ATOM     98  O   UNL A   1      38.796  37.907  39.843  1.00  0.00    -0.237 OA
ATOM     99  O   UNL A   1      37.965  36.042  41.238  1.00  0.00    -0.237 OA
ATOM    100  O   UNL A   1      40.353  36.646  41.285  1.00  0.00    -0.744 OA
ENDBRANCH  96  97
ENDBRANCH  64  89
ENDBRANCH  38  39
ENDBRANCH  31  33
ENDBRANCH  30  31
ENDBRANCH  29  30
ENDBRANCH  28  29
ENDBRANCH  27  28
ENDBRANCH  26  27
ENDBRANCH   1  26
TORSDOF 23
ENDMDL
