MODEL 1
REMARK VINA RESULT:     -10.3      0.000      0.000
REMARK SMILES O=C(OCCOCCOCCOC(=O)c1ccc(F)cc1-c1ccc(F)c(Cl)c1)c1ccc(-c2c3nc(c(-c4c(F)cc(S(=O)(=O)[O-])cc4F)c4ccc([nH]4)c(-c4c(F)cc(S(=O)(=O)[O-])cc4F)c4nc(c(-c5c(F)cc(S(=O)(=O)[O-])cc5F)c5ccc2[nH]5)C=C4)C=C3)cc1
REMARK SMILES IDX 7 1 6 2 5 3 4 4 3 5 2 6 1 7 30 8 31 9 95 10 32 11 94 12
REMARK SMILES IDX 33 13 34 14 35 15 88 16 36 17 93 18 87 19 89 20 37 21 92 22
REMARK SMILES IDX 86 23 85 24 38 26 72 27 51 28 71 29 52 30 55 31 70 32 90 33
REMARK SMILES IDX 53 34 54 35 69 37 91 38 56 39 39 40 40 41 49 42 41 43 42 44
REMARK SMILES IDX 48 45 50 46 43 47 44 48 45 49 46 50 47 51 73 52 74 53 83 54
REMARK SMILES IDX 75 55 76 56 82 57 84 58 77 59 78 60 79 61 80 62 81 63 57 64
REMARK SMILES IDX 58 65 67 66 59 67 60 68 66 69 68 70 61 71 62 72 63 73 64 74
REMARK SMILES IDX 65 75 8 76 9 77 10 78 11 79 12 80 13 81 14 82 15 83 16 84
REMARK SMILES IDX 21 85 17 86 20 87 18 88 19 89 22 90 23 91 29 92 24 93 27 94
REMARK SMILES IDX 25 95 28 96 26 97
REMARK H PARENT 89 25 55 36
REMARK Flexibility Score: inf
ROOT
ATOM      1  C   UNL A   1      35.470  21.179  25.648  1.00  0.00     0.188 C 
ENDROOT
BRANCH   1   2
ATOM      2  O   UNL A   1      36.711  21.751  26.055  1.00  0.00    -0.376 OA
BRANCH   2   3
ATOM      3  C   UNL A   1      36.779  23.170  26.096  1.00  0.00     0.202 C 
BRANCH   3   4
ATOM      4  C   UNL A   1      38.016  23.730  25.392  1.00  0.00     0.261 C 
BRANCH   4   5
ATOM      5  O   UNL A   1      39.091  23.930  26.326  1.00  0.00    -0.460 OA
BRANCH   5   6
ATOM      6  C   UNL A   1      39.822  25.047  26.548  1.00  0.00     0.338 C 
ATOM      7  O   UNL A   1      40.663  25.357  25.704  1.00  0.00    -0.246 OA
BRANCH   6   8
ATOM      8  C   UNL A   1      39.799  25.836  27.829  1.00  0.00     0.060 A 
ATOM      9  C   UNL A   1      38.931  25.654  28.906  1.00  0.00     0.016 A 
ATOM     10  C   UNL A   1      40.775  26.848  27.953  1.00  0.00     0.016 A 
ATOM     11  C   UNL A   1      38.993  26.471  30.036  1.00  0.00     0.010 A 
ATOM     12  C   UNL A   1      40.865  27.653  29.096  1.00  0.00     0.010 A 
ATOM     13  C   UNL A   1      39.940  27.491  30.129  1.00  0.00    -0.014 A 
BRANCH  13  14
ATOM     14  C   UNL A   1      39.794  28.478  31.220  1.00  0.00     0.031 A 
ATOM     15  C   UNL A   1      40.757  28.403  32.373  1.00  0.00     0.074 A 
ATOM     16  C   UNL A   1      38.947  29.515  31.097  1.00  0.00     0.049 A 
ATOM     17  N   UNL A   1      40.925  29.240  33.362  1.00  0.00    -0.248 NA
ATOM     18  C   UNL A   1      41.677  27.252  32.395  1.00  0.00     0.031 C 
ATOM     19  C   UNL A   1      38.044  29.736  29.967  1.00  0.00     0.029 A 
ATOM     20  N   UNL A   1      38.743  30.603  31.907  1.00  0.00    -0.354 N 
ATOM     21  C   UNL A   1      41.989  28.738  34.098  1.00  0.00     0.074 A 
ATOM     22  C   UNL A   1      42.397  27.498  33.477  1.00  0.00     0.031 C 
ATOM     23  C   UNL A   1      37.401  30.903  30.147  1.00  0.00     0.029 A 
ATOM     24  C   UNL A   1      37.816  31.492  31.415  1.00  0.00     0.049 A 
ATOM     25  H   UNL A   1      39.214  30.735  32.761  1.00  0.00     0.167 HD
ATOM     26  C   UNL A   1      42.593  29.277  35.180  1.00  0.00     0.037 A 
ATOM     27  C   UNL A   1      37.353  32.648  31.932  1.00  0.00     0.037 A 
ATOM     28  C   UNL A   1      42.171  30.496  35.809  1.00  0.00     0.049 A 
ATOM     29  C   UNL A   1      37.936  33.145  33.227  1.00  0.00     0.074 A 
ATOM     30  C   UNL A   1      42.674  31.097  36.948  1.00  0.00     0.029 A 
ATOM     31  N   UNL A   1      41.137  31.299  35.351  1.00  0.00    -0.354 N 
ATOM     32  N   UNL A   1      38.931  32.647  33.924  1.00  0.00    -0.248 NA
ATOM     33  C   UNL A   1      37.340  34.357  33.806  1.00  0.00     0.031 C 
ATOM     34  C   UNL A   1      41.917  32.246  37.202  1.00  0.00     0.029 A 
ATOM     35  C   UNL A   1      40.968  32.379  36.199  1.00  0.00     0.049 A 
ATOM     36  H   UNL A   1      40.601  31.126  34.543  1.00  0.00     0.167 HD
ATOM     37  C   UNL A   1      39.090  33.494  35.014  1.00  0.00     0.074 A 
ATOM     38  C   UNL A   1      38.100  34.543  34.878  1.00  0.00     0.031 C 
ATOM     39  C   UNL A   1      39.975  33.410  36.037  1.00  0.00     0.037 A 
BRANCH  26  40
ATOM     40  C   UNL A   1      43.762  28.533  35.754  1.00  0.00     0.058 A 
ATOM     41  C   UNL A   1      43.568  27.529  36.713  1.00  0.00     0.135 A 
ATOM     42  C   UNL A   1      45.076  28.823  35.356  1.00  0.00     0.135 A 
ATOM     43  F   UNL A   1      42.329  27.201  37.109  1.00  0.00    -0.206 F 
ATOM     44  C   UNL A   1      44.641  26.842  37.267  1.00  0.00     0.059 A 
ATOM     45  C   UNL A   1      46.165  28.137  35.885  1.00  0.00     0.059 A 
ATOM     46  F   UNL A   1      45.307  29.751  34.413  1.00  0.00    -0.206 F 
ATOM     47  C   UNL A   1      45.937  27.154  36.848  1.00  0.00     0.060 A 
BRANCH  47  48
ATOM     48  S   UNL A   1      47.316  26.222  37.548  1.00  0.00     0.124 S 
ATOM     49  O   UNL A   1      46.665  24.982  37.951  1.00  0.00    -0.237 OA
ATOM     50  O   UNL A   1      48.227  26.125  36.411  1.00  0.00    -0.237 OA
ATOM     51  O   UNL A   1      47.780  27.076  38.638  1.00  0.00    -0.744 OA
ENDBRANCH  47  48
ENDBRANCH  26  40
BRANCH  27  52
ATOM     52  C   UNL A   1      36.272  33.401  31.242  1.00  0.00     0.058 A 
ATOM     53  C   UNL A   1      36.537  34.117  30.062  1.00  0.00     0.135 A 
ATOM     54  C   UNL A   1      34.958  33.413  31.730  1.00  0.00     0.135 A 
ATOM     55  F   UNL A   1      37.777  34.142  29.553  1.00  0.00    -0.206 F 
ATOM     56  C   UNL A   1      35.543  34.829  29.402  1.00  0.00     0.059 A 
ATOM     57  C   UNL A   1      33.939  34.101  31.074  1.00  0.00     0.059 A 
ATOM     58  F   UNL A   1      34.652  32.733  32.845  1.00  0.00    -0.206 F 
ATOM     59  C   UNL A   1      34.246  34.817  29.918  1.00  0.00     0.060 A 
BRANCH  59  60
ATOM     60  S   UNL A   1      32.970  35.749  29.043  1.00  0.00     0.124 S 
ATOM     61  O   UNL A   1      32.143  36.209  30.154  1.00  0.00    -0.237 OA
ATOM     62  O   UNL A   1      33.751  36.777  28.363  1.00  0.00    -0.237 OA
ATOM     63  O   UNL A   1      32.359  34.750  28.174  1.00  0.00    -0.744 OA
ENDBRANCH  59  60
ENDBRANCH  27  52
BRANCH  39  64
ATOM     64  C   UNL A   1      39.921  34.479  37.088  1.00  0.00     0.058 A 
ATOM     65  C   UNL A   1      39.079  34.341  38.202  1.00  0.00     0.135 A 
ATOM     66  C   UNL A   1      40.637  35.676  36.944  1.00  0.00     0.135 A 
ATOM     67  F   UNL A   1      38.371  33.215  38.381  1.00  0.00    -0.206 F 
ATOM     68  C   UNL A   1      38.932  35.366  39.128  1.00  0.00     0.059 A 
ATOM     69  C   UNL A   1      40.522  36.707  37.871  1.00  0.00     0.059 A 
ATOM     70  F   UNL A   1      41.464  35.847  35.900  1.00  0.00    -0.206 F 
ATOM     71  C   UNL A   1      39.651  36.549  38.950  1.00  0.00     0.060 A 
BRANCH  71  72
ATOM     72  S   UNL A   1      39.449  37.872  40.159  1.00  0.00     0.124 S 
ATOM     73  O   UNL A   1      38.303  38.595  39.620  1.00  0.00    -0.237 OA
ATOM     74  O   UNL A   1      39.209  37.131  41.394  1.00  0.00    -0.237 OA
ATOM     75  O   UNL A   1      40.725  38.580  40.100  1.00  0.00    -0.744 OA
ENDBRANCH  71  72
ENDBRANCH  39  64
ENDBRANCH  13  14
ENDBRANCH   6   8
ENDBRANCH   5   6
ENDBRANCH   4   5
ENDBRANCH   3   4
ENDBRANCH   2   3
ENDBRANCH   1   2
BRANCH   1  76
ATOM     76  C   UNL A   1      34.268  21.381  26.578  1.00  0.00     0.188 C 
BRANCH  76  77
ATOM     77  O   UNL A   1      33.188  22.217  26.187  1.00  0.00    -0.376 OA
BRANCH  77  78
ATOM     78  C   UNL A   1      32.252  22.669  27.154  1.00  0.00     0.202 C 
BRANCH  78  79
ATOM     79  C   UNL A   1      31.189  23.656  26.676  1.00  0.00     0.261 C 
BRANCH  79  80
ATOM     80  O   UNL A   1      31.376  25.007  27.127  1.00  0.00    -0.460 OA
BRANCH  80  81
ATOM     81  C   UNL A   1      30.903  25.971  26.300  1.00  0.00     0.338 C 
ATOM     82  O   UNL A   1      29.915  25.917  25.592  1.00  0.00    -0.246 OA
BRANCH  81  83
ATOM     83  C   UNL A   1      31.839  27.115  26.311  1.00  0.00     0.068 A 
ATOM     84  C   UNL A   1      31.649  28.078  27.321  1.00  0.00     0.019 A 
ATOM     85  C   UNL A   1      32.937  27.198  25.429  1.00  0.00    -0.001 A 
ATOM     86  C   UNL A   1      32.561  29.120  27.477  1.00  0.00     0.040 A 
ATOM     87  C   UNL A   1      33.828  28.275  25.599  1.00  0.00     0.048 A 
ATOM     88  C   UNL A   1      33.643  29.209  26.614  1.00  0.00     0.123 A 
ATOM     89  F   UNL A   1      34.528  30.202  26.759  1.00  0.00    -0.207 F 
BRANCH  85  90
ATOM     90  C   UNL A   1      33.206  26.247  24.340  1.00  0.00    -0.016 A 
ATOM     91  C   UNL A   1      33.917  25.061  24.598  1.00  0.00     0.012 A 
ATOM     92  C   UNL A   1      32.686  26.447  23.051  1.00  0.00     0.032 A 
ATOM     93  C   UNL A   1      34.111  24.104  23.599  1.00  0.00     0.041 A 
ATOM     94  C   UNL A   1      32.873  25.486  22.053  1.00  0.00     0.077 A 
ATOM     95  C   UNL A   1      33.583  24.320  22.332  1.00  0.00     0.141 A 
ATOM     96  Cl  UNL A   1      32.198  25.743  20.490  1.00  0.00    -0.081 Cl
ATOM     97  F   UNL A   1      33.759  23.381  21.390  1.00  0.00    -0.205 F 
ENDBRANCH  85  90
ENDBRANCH  81  83
ENDBRANCH  80  81
ENDBRANCH  79  80
ENDBRANCH  78  79
ENDBRANCH  77  78
ENDBRANCH  76  77
ENDBRANCH   1  76
TORSDOF 21
ENDMDL
MODEL 2
REMARK VINA RESULT:     -10.3      2.279      8.525
REMARK SMILES O=C(OCCOCCOCCOC(=O)c1ccc(F)cc1-c1ccc(F)c(Cl)c1)c1ccc(-c2c3nc(c(-c4c(F)cc(S(=O)(=O)[O-])cc4F)c4ccc([nH]4)c(-c4c(F)cc(S(=O)(=O)[O-])cc4F)c4nc(c(-c5c(F)cc(S(=O)(=O)[O-])cc5F)c5ccc2[nH]5)C=C4)C=C3)cc1
REMARK SMILES IDX 7 1 6 2 5 3 4 4 3 5 2 6 1 7 30 8 31 9 95 10 32 11 94 12
REMARK SMILES IDX 33 13 34 14 35 15 88 16 36 17 93 18 87 19 89 20 37 21 92 22
REMARK SMILES IDX 86 23 85 24 38 26 72 27 51 28 71 29 52 30 55 31 70 32 90 33
REMARK SMILES IDX 53 34 54 35 69 37 91 38 56 39 39 40 40 41 49 42 41 43 42 44
REMARK SMILES IDX 48 45 50 46 43 47 44 48 45 49 46 50 47 51 73 52 74 53 83 54
REMARK SMILES IDX 75 55 76 56 82 57 84 58 77 59 78 60 79 61 80 62 81 63 57 64
REMARK SMILES IDX 58 65 67 66 59 67 60 68 66 69 68 70 61 71 62 72 63 73 64 74
REMARK SMILES IDX 65 75 8 76 9 77 10 78 11 79 12 80 13 81 14 82 15 83 16 84
REMARK SMILES IDX 21 85 17 86 20 87 18 88 19 89 22 90 23 91 29 92 24 93 27 94
REMARK SMILES IDX 25 95 28 96 26 97
REMARK H PARENT 89 25 55 36
REMARK Flexibility Score: inf
ROOT
ATOM      1  C   UNL A   1      34.036  20.487  24.647  1.00  0.00     0.188 C 
ENDROOT
BRANCH   1   2
ATOM      2  O   UNL A   1      35.233  20.772  25.366  1.00  0.00    -0.376 OA
BRANCH   2   3
ATOM      3  C   UNL A   1      36.256  21.461  24.661  1.00  0.00     0.202 C 
BRANCH   3   4
ATOM      4  C   UNL A   1      37.627  21.343  25.326  1.00  0.00     0.261 C 
BRANCH   4   5
ATOM      5  O   UNL A   1      38.108  22.634  25.743  1.00  0.00    -0.460 OA
BRANCH   5   6
ATOM      6  C   UNL A   1      39.355  22.987  26.131  1.00  0.00     0.338 C 
ATOM      7  O   UNL A   1      40.238  22.132  26.062  1.00  0.00    -0.246 OA
BRANCH   6   8
ATOM      8  C   UNL A   1      39.700  24.290  26.799  1.00  0.00     0.060 A 
ATOM      9  C   UNL A   1      40.576  25.266  26.322  1.00  0.00     0.016 A 
ATOM     10  C   UNL A   1      39.049  24.553  28.024  1.00  0.00     0.016 A 
ATOM     11  C   UNL A   1      40.835  26.429  27.049  1.00  0.00     0.010 A 
ATOM     12  C   UNL A   1      39.279  25.731  28.746  1.00  0.00     0.010 A 
ATOM     13  C   UNL A   1      40.210  26.658  28.276  1.00  0.00    -0.014 A 
BRANCH  13  14
ATOM     14  C   UNL A   1      40.711  27.768  29.114  1.00  0.00     0.031 A 
ATOM     15  C   UNL A   1      39.845  28.989  29.260  1.00  0.00     0.074 A 
ATOM     16  C   UNL A   1      41.817  27.616  29.864  1.00  0.00     0.049 A 
ATOM     17  N   UNL A   1      39.995  30.016  30.052  1.00  0.00    -0.248 NA
ATOM     18  C   UNL A   1      38.629  29.042  28.429  1.00  0.00     0.031 C 
ATOM     19  C   UNL A   1      42.672  26.428  29.874  1.00  0.00     0.029 A 
ATOM     20  N   UNL A   1      42.386  28.445  30.797  1.00  0.00    -0.354 N 
ATOM     21  C   UNL A   1      38.880  30.815  29.842  1.00  0.00     0.074 A 
ATOM     22  C   UNL A   1      38.085  30.185  28.813  1.00  0.00     0.031 C 
ATOM     23  C   UNL A   1      43.641  26.598  30.789  1.00  0.00     0.029 A 
ATOM     24  C   UNL A   1      43.501  27.915  31.402  1.00  0.00     0.049 A 
ATOM     25  H   UNL A   1      42.029  29.338  31.012  1.00  0.00     0.167 HD
ATOM     26  C   UNL A   1      38.532  31.959  30.473  1.00  0.00     0.037 A 
ATOM     27  C   UNL A   1      44.316  28.433  32.341  1.00  0.00     0.037 A 
ATOM     28  C   UNL A   1      39.336  32.596  31.478  1.00  0.00     0.049 A 
ATOM     29  C   UNL A   1      43.991  29.787  32.913  1.00  0.00     0.074 A 
ATOM     30  C   UNL A   1      39.107  33.790  32.135  1.00  0.00     0.029 A 
ATOM     31  N   UNL A   1      40.530  32.087  31.968  1.00  0.00    -0.354 N 
ATOM     32  N   UNL A   1      42.940  30.541  32.690  1.00  0.00    -0.248 NA
ATOM     33  C   UNL A   1      44.954  30.360  33.863  1.00  0.00     0.031 C 
ATOM     34  C   UNL A   1      40.184  34.024  32.996  1.00  0.00     0.029 A 
ATOM     35  C   UNL A   1      41.064  32.957  32.902  1.00  0.00     0.049 A 
ATOM     36  H   UNL A   1      40.937  31.234  31.691  1.00  0.00     0.167 HD
ATOM     37  C   UNL A   1      43.108  31.669  33.483  1.00  0.00     0.074 A 
ATOM     38  C   UNL A   1      44.353  31.493  34.202  1.00  0.00     0.031 C 
ATOM     39  C   UNL A   1      42.306  32.754  33.605  1.00  0.00     0.037 A 
BRANCH  26  40
ATOM     40  C   UNL A   1      37.235  32.595  30.073  1.00  0.00     0.058 A 
ATOM     41  C   UNL A   1      37.218  33.697  29.205  1.00  0.00     0.135 A 
ATOM     42  C   UNL A   1      36.008  32.115  30.557  1.00  0.00     0.135 A 
ATOM     43  F   UNL A   1      38.363  34.178  28.700  1.00  0.00    -0.206 F 
ATOM     44  C   UNL A   1      36.025  34.309  28.838  1.00  0.00     0.059 A 
ATOM     45  C   UNL A   1      34.801  32.702  30.189  1.00  0.00     0.059 A 
ATOM     46  F   UNL A   1      35.974  31.040  31.360  1.00  0.00    -0.206 F 
ATOM     47  C   UNL A   1      34.822  33.805  29.337  1.00  0.00     0.060 A 
BRANCH  47  48
ATOM     48  S   UNL A   1      33.280  34.587  28.815  1.00  0.00     0.124 S 
ATOM     49  O   UNL A   1      32.601  34.788  30.090  1.00  0.00    -0.237 OA
ATOM     50  O   UNL A   1      33.759  35.794  28.150  1.00  0.00    -0.237 OA
ATOM     51  O   UNL A   1      32.680  33.592  27.931  1.00  0.00    -0.744 OA
ENDBRANCH  47  48
ENDBRANCH  26  40
BRANCH  27  52
ATOM     52  C   UNL A   1      45.525  27.688  32.783  1.00  0.00     0.058 A 
ATOM     53  C   UNL A   1      45.478  26.845  33.905  1.00  0.00     0.135 A 
ATOM     54  C   UNL A   1      46.742  27.787  32.093  1.00  0.00     0.135 A 
ATOM     55  F   UNL A   1      44.341  26.717  34.604  1.00  0.00    -0.206 F 
ATOM     56  C   UNL A   1      46.596  26.141  34.336  1.00  0.00     0.059 A 
ATOM     57  C   UNL A   1      47.870  27.074  32.492  1.00  0.00     0.059 A 
ATOM     58  F   UNL A   1      46.834  28.568  31.006  1.00  0.00    -0.206 F 
ATOM     59  C   UNL A   1      47.789  26.264  33.625  1.00  0.00     0.060 A 
BRANCH  59  60
ATOM     60  S   UNL A   1      49.228  25.339  34.203  1.00  0.00     0.124 S 
ATOM     61  O   UNL A   1      48.973  24.025  33.623  1.00  0.00    -0.237 OA
ATOM     62  O   UNL A   1      50.333  26.090  33.615  1.00  0.00    -0.237 OA
ATOM     63  O   UNL A   1      49.120  25.420  35.655  1.00  0.00    -0.744 OA
ENDBRANCH  59  60
ENDBRANCH  27  52
BRANCH  39  64
ATOM     64  C   UNL A   1      42.740  33.834  34.550  1.00  0.00     0.058 A 
ATOM     65  C   UNL A   1      42.364  33.791  35.902  1.00  0.00     0.135 A 
ATOM     66  C   UNL A   1      43.453  34.953  34.097  1.00  0.00     0.135 A 
ATOM     67  F   UNL A   1      41.679  32.742  36.382  1.00  0.00    -0.206 F 
ATOM     68  C   UNL A   1      42.663  34.836  36.768  1.00  0.00     0.059 A 
ATOM     69  C   UNL A   1      43.781  36.000  34.951  1.00  0.00     0.059 A 
ATOM     70  F   UNL A   1      43.843  35.031  32.814  1.00  0.00    -0.206 F 
ATOM     71  C   UNL A   1      43.364  35.940  36.282  1.00  0.00     0.060 A 
BRANCH  71  72
ATOM     72  S   UNL A   1      43.743  37.289  37.418  1.00  0.00     0.124 S 
ATOM     73  O   UNL A   1      42.482  37.435  38.137  1.00  0.00    -0.237 OA
ATOM     74  O   UNL A   1      44.855  36.742  38.190  1.00  0.00    -0.237 OA
ATOM     75  O   UNL A   1      44.091  38.392  36.527  1.00  0.00    -0.744 OA
ENDBRANCH  71  72
ENDBRANCH  39  64
ENDBRANCH  13  14
ENDBRANCH   6   8
ENDBRANCH   5   6
ENDBRANCH   4   5
ENDBRANCH   3   4
ENDBRANCH   2   3
ENDBRANCH   1   2
BRANCH   1  76
ATOM     76  C   UNL A   1      32.722  20.512  25.438  1.00  0.00     0.188 C 
BRANCH  76  77
ATOM     77  O   UNL A   1      31.834  21.615  25.322  1.00  0.00    -0.376 OA
BRANCH  77  78
ATOM     78  C   UNL A   1      31.819  22.623  26.321  1.00  0.00     0.202 C 
BRANCH  78  79
ATOM     79  C   UNL A   1      30.595  23.537  26.359  1.00  0.00     0.261 C 
BRANCH  79  80
ATOM     80  O   UNL A   1      30.845  24.856  26.871  1.00  0.00    -0.460 OA
BRANCH  80  81
ATOM     81  C   UNL A   1      30.695  25.867  25.981  1.00  0.00     0.338 C 
ATOM     82  O   UNL A   1      29.839  25.976  25.124  1.00  0.00    -0.246 OA
BRANCH  81  83
ATOM     83  C   UNL A   1      31.812  26.822  26.146  1.00  0.00     0.068 A 
ATOM     84  C   UNL A   1      31.732  27.707  27.238  1.00  0.00     0.019 A 
ATOM     85  C   UNL A   1      32.957  26.790  25.323  1.00  0.00    -0.001 A 
ATOM     86  C   UNL A   1      32.799  28.551  27.536  1.00  0.00     0.040 A 
ATOM     87  C   UNL A   1      34.010  27.671  25.637  1.00  0.00     0.048 A 
ATOM     88  C   UNL A   1      33.929  28.526  26.732  1.00  0.00     0.123 A 
ATOM     89  F   UNL A   1      34.962  29.329  27.012  1.00  0.00    -0.207 F 
BRANCH  85  90
ATOM     90  C   UNL A   1      33.121  25.910  24.156  1.00  0.00    -0.016 A 
ATOM     91  C   UNL A   1      33.694  24.633  24.308  1.00  0.00     0.012 A 
ATOM     92  C   UNL A   1      32.632  26.274  22.892  1.00  0.00     0.032 A 
ATOM     93  C   UNL A   1      33.782  23.749  23.231  1.00  0.00     0.041 A 
ATOM     94  C   UNL A   1      32.713  25.386  21.815  1.00  0.00     0.077 A 
ATOM     95  C   UNL A   1      33.286  24.129  21.991  1.00  0.00     0.141 A 
ATOM     96  Cl  UNL A   1      32.076  25.848  20.283  1.00  0.00    -0.081 Cl
ATOM     97  F   UNL A   1      33.358  23.259  20.972  1.00  0.00    -0.205 F 
ENDBRANCH  85  90
ENDBRANCH  81  83
ENDBRANCH  80  81
ENDBRANCH  79  80
ENDBRANCH  78  79
ENDBRANCH  77  78
ENDBRANCH  76  77
ENDBRANCH   1  76
TORSDOF 21
ENDMDL
MODEL 3
REMARK VINA RESULT:     -10.1      6.482     11.689
REMARK SMILES O=C(OCCOCCOCCOC(=O)c1ccc(F)cc1-c1ccc(F)c(Cl)c1)c1ccc(-c2c3nc(c(-c4c(F)cc(S(=O)(=O)[O-])cc4F)c4ccc([nH]4)c(-c4c(F)cc(S(=O)(=O)[O-])cc4F)c4nc(c(-c5c(F)cc(S(=O)(=O)[O-])cc5F)c5ccc2[nH]5)C=C4)C=C3)cc1
REMARK SMILES IDX 7 1 6 2 5 3 4 4 3 5 2 6 1 7 30 8 31 9 95 10 32 11 94 12
REMARK SMILES IDX 33 13 34 14 35 15 88 16 36 17 93 18 87 19 89 20 37 21 92 22
REMARK SMILES IDX 86 23 85 24 38 26 72 27 51 28 71 29 52 30 55 31 70 32 90 33
REMARK SMILES IDX 53 34 54 35 69 37 91 38 56 39 39 40 40 41 49 42 41 43 42 44
REMARK SMILES IDX 48 45 50 46 43 47 44 48 45 49 46 50 47 51 73 52 74 53 83 54
REMARK SMILES IDX 75 55 76 56 82 57 84 58 77 59 78 60 79 61 80 62 81 63 57 64
REMARK SMILES IDX 58 65 67 66 59 67 60 68 66 69 68 70 61 71 62 72 63 73 64 74
REMARK SMILES IDX 65 75 8 76 9 77 10 78 11 79 12 80 13 81 14 82 15 83 16 84
REMARK SMILES IDX 21 85 17 86 20 87 18 88 19 89 22 90 23 91 29 92 24 93 27 94
REMARK SMILES IDX 25 95 28 96 26 97
REMARK H PARENT 89 25 55 36
REMARK Flexibility Score: inf
ROOT
ATOM      1  C   UNL A   1      35.088  33.157  27.782  1.00  0.00     0.188 C 
ENDROOT
BRANCH   1   2
ATOM      2  O   UNL A   1      35.436  33.996  28.881  1.00  0.00    -0.376 OA
BRANCH   2   3
ATOM      3  C   UNL A   1      34.534  34.022  29.978  1.00  0.00     0.202 C 
BRANCH   3   4
ATOM      4  C   UNL A   1      35.123  33.420  31.253  1.00  0.00     0.261 C 
BRANCH   4   5
ATOM      5  O   UNL A   1      35.482  32.042  31.053  1.00  0.00    -0.460 OA
BRANCH   5   6
ATOM      6  C   UNL A   1      36.391  31.298  31.724  1.00  0.00     0.338 C 
ATOM      7  O   UNL A   1      36.289  31.239  32.949  1.00  0.00    -0.246 OA
BRANCH   6   8
ATOM      8  C   UNL A   1      37.613  30.681  31.100  1.00  0.00     0.060 A 
ATOM      9  C   UNL A   1      38.618  29.971  31.758  1.00  0.00     0.016 A 
ATOM     10  C   UNL A   1      37.734  30.820  29.700  1.00  0.00     0.016 A 
ATOM     11  C   UNL A   1      39.721  29.465  31.069  1.00  0.00     0.010 A 
ATOM     12  C   UNL A   1      38.822  30.289  28.995  1.00  0.00     0.010 A 
ATOM     13  C   UNL A   1      39.845  29.642  29.690  1.00  0.00    -0.014 A 
BRANCH  13  14
ATOM     14  C   UNL A   1      41.143  29.316  29.061  1.00  0.00     0.031 A 
ATOM     15  C   UNL A   1      42.220  30.364  29.080  1.00  0.00     0.074 A 
ATOM     16  C   UNL A   1      41.408  28.063  28.648  1.00  0.00     0.049 A 
ATOM     17  N   UNL A   1      43.475  30.263  28.733  1.00  0.00    -0.248 NA
ATOM     18  C   UNL A   1      41.843  31.693  29.594  1.00  0.00     0.031 C 
ATOM     19  C   UNL A   1      40.464  26.946  28.683  1.00  0.00     0.029 A 
ATOM     20  N   UNL A   1      42.565  27.509  28.164  1.00  0.00    -0.354 N 
ATOM     21  C   UNL A   1      44.042  31.496  29.019  1.00  0.00     0.074 A 
ATOM     22  C   UNL A   1      42.989  32.350  29.520  1.00  0.00     0.031 C 
ATOM     23  C   UNL A   1      41.090  25.834  28.262  1.00  0.00     0.029 A 
ATOM     24  C   UNL A   1      42.463  26.164  27.893  1.00  0.00     0.049 A 
ATOM     25  H   UNL A   1      43.392  28.025  28.021  1.00  0.00     0.167 HD
ATOM     26  C   UNL A   1      45.334  31.878  28.903  1.00  0.00     0.037 A 
ATOM     27  C   UNL A   1      43.372  25.300  27.401  1.00  0.00     0.037 A 
ATOM     28  C   UNL A   1      46.374  31.035  28.383  1.00  0.00     0.049 A 
ATOM     29  C   UNL A   1      44.768  25.794  27.130  1.00  0.00     0.074 A 
ATOM     30  C   UNL A   1      47.703  31.344  28.164  1.00  0.00     0.029 A 
ATOM     31  N   UNL A   1      46.195  29.715  27.996  1.00  0.00    -0.354 N 
ATOM     32  N   UNL A   1      45.285  26.973  27.389  1.00  0.00    -0.248 NA
ATOM     33  C   UNL A   1      45.702  24.848  26.506  1.00  0.00     0.031 C 
ATOM     34  C   UNL A   1      48.323  30.221  27.607  1.00  0.00     0.029 A 
ATOM     35  C   UNL A   1      47.386  29.202  27.514  1.00  0.00     0.049 A 
ATOM     36  H   UNL A   1      45.347  29.218  28.054  1.00  0.00     0.167 HD
ATOM     37  C   UNL A   1      46.609  26.904  26.974  1.00  0.00     0.074 A 
ATOM     38  C   UNL A   1      46.818  25.566  26.460  1.00  0.00     0.031 C 
ATOM     39  C   UNL A   1      47.566  27.863  27.011  1.00  0.00     0.037 A 
BRANCH  26  40
ATOM     40  C   UNL A   1      45.679  33.272  29.333  1.00  0.00     0.058 A 
ATOM     41  C   UNL A   1      46.082  33.534  30.650  1.00  0.00     0.135 A 
ATOM     42  C   UNL A   1      45.602  34.350  28.437  1.00  0.00     0.135 A 
ATOM     43  F   UNL A   1      46.191  32.533  31.536  1.00  0.00    -0.206 F 
ATOM     44  C   UNL A   1      46.389  34.823  31.069  1.00  0.00     0.059 A 
ATOM     45  C   UNL A   1      45.921  35.646  28.830  1.00  0.00     0.059 A 
ATOM     46  F   UNL A   1      45.257  34.141  27.157  1.00  0.00    -0.206 F 
ATOM     47  C   UNL A   1      46.304  35.873  30.152  1.00  0.00     0.060 A 
BRANCH  47  48
ATOM     48  S   UNL A   1      46.747  37.535  30.703  1.00  0.00     0.124 S 
ATOM     49  O   UNL A   1      46.454  37.465  32.130  1.00  0.00    -0.237 OA
ATOM     50  O   UNL A   1      48.160  37.609  30.345  1.00  0.00    -0.237 OA
ATOM     51  O   UNL A   1      45.866  38.396  29.919  1.00  0.00    -0.744 OA
ENDBRANCH  47  48
ENDBRANCH  26  40
BRANCH  27  52
ATOM     52  C   UNL A   1      42.992  23.891  27.113  1.00  0.00     0.058 A 
ATOM     53  C   UNL A   1      42.897  22.947  28.148  1.00  0.00     0.135 A 
ATOM     54  C   UNL A   1      42.702  23.460  25.810  1.00  0.00     0.135 A 
ATOM     55  F   UNL A   1      43.167  23.304  29.413  1.00  0.00    -0.206 F 
ATOM     56  C   UNL A   1      42.546  21.625  27.902  1.00  0.00     0.059 A 
ATOM     57  C   UNL A   1      42.326  22.146  25.540  1.00  0.00     0.059 A 
ATOM     58  F   UNL A   1      42.765  24.328  24.789  1.00  0.00    -0.206 F 
ATOM     59  C   UNL A   1      42.264  21.233  26.593  1.00  0.00     0.060 A 
BRANCH  59  60
ATOM     60  S   UNL A   1      41.809  19.512  26.295  1.00  0.00     0.124 S 
ATOM     61  O   UNL A   1      40.362  19.623  26.140  1.00  0.00    -0.237 OA
ATOM     62  O   UNL A   1      42.557  19.201  25.082  1.00  0.00    -0.237 OA
ATOM     63  O   UNL A   1      42.263  18.829  27.502  1.00  0.00    -0.744 OA
ENDBRANCH  59  60
ENDBRANCH  27  52
BRANCH  39  64
ATOM     64  C   UNL A   1      48.926  27.504  26.491  1.00  0.00     0.058 A 
ATOM     65  C   UNL A   1      49.176  27.475  25.111  1.00  0.00     0.135 A 
ATOM     66  C   UNL A   1      49.954  27.106  27.359  1.00  0.00     0.135 A 
ATOM     67  F   UNL A   1      48.222  27.844  24.241  1.00  0.00    -0.206 F 
ATOM     68  C   UNL A   1      50.395  27.039  24.606  1.00  0.00     0.059 A 
ATOM     69  C   UNL A   1      51.189  26.687  26.876  1.00  0.00     0.059 A 
ATOM     70  F   UNL A   1      49.763  27.130  28.687  1.00  0.00    -0.206 F 
ATOM     71  C   UNL A   1      51.393  26.639  25.496  1.00  0.00     0.060 A 
BRANCH  71  72
ATOM     72  S   UNL A   1      52.970  26.074  24.827  1.00  0.00     0.124 S 
ATOM     73  O   UNL A   1      52.768  26.261  23.394  1.00  0.00    -0.237 OA
ATOM     74  O   UNL A   1      53.919  26.986  25.459  1.00  0.00    -0.237 OA
ATOM     75  O   UNL A   1      53.049  24.688  25.277  1.00  0.00    -0.744 OA
ENDBRANCH  71  72
ENDBRANCH  39  64
ENDBRANCH  13  14
ENDBRANCH   6   8
ENDBRANCH   5   6
ENDBRANCH   4   5
ENDBRANCH   3   4
ENDBRANCH   2   3
ENDBRANCH   1   2
BRANCH   1  76
ATOM     76  C   UNL A   1      33.755  32.404  27.872  1.00  0.00     0.188 C 
BRANCH  76  77
ATOM     77  O   UNL A   1      33.736  30.990  28.010  1.00  0.00    -0.376 OA
BRANCH  77  78
ATOM     78  C   UNL A   1      33.655  30.164  26.858  1.00  0.00     0.202 C 
BRANCH  78  79
ATOM     79  C   UNL A   1      33.637  28.655  27.092  1.00  0.00     0.261 C 
BRANCH  79  80
ATOM     80  O   UNL A   1      32.570  27.956  26.433  1.00  0.00    -0.460 OA
BRANCH  80  81
ATOM     81  C   UNL A   1      32.678  27.860  25.085  1.00  0.00     0.338 C 
ATOM     82  O   UNL A   1      33.695  27.713  24.434  1.00  0.00    -0.246 OA
BRANCH  81  83
ATOM     83  C   UNL A   1      31.342  28.051  24.481  1.00  0.00     0.068 A 
ATOM     84  C   UNL A   1      31.014  29.358  24.071  1.00  0.00     0.019 A 
ATOM     85  C   UNL A   1      30.469  26.973  24.226  1.00  0.00    -0.001 A 
ATOM     86  C   UNL A   1      29.827  29.600  23.382  1.00  0.00     0.040 A 
ATOM     87  C   UNL A   1      29.267  27.254  23.548  1.00  0.00     0.048 A 
ATOM     88  C   UNL A   1      28.964  28.545  23.127  1.00  0.00     0.123 A 
ATOM     89  F   UNL A   1      27.825  28.765  22.461  1.00  0.00    -0.207 F 
BRANCH  85  90
ATOM     90  C   UNL A   1      30.722  25.581  24.630  1.00  0.00    -0.016 A 
ATOM     91  C   UNL A   1      30.338  25.135  25.908  1.00  0.00     0.012 A 
ATOM     92  C   UNL A   1      31.259  24.646  23.731  1.00  0.00     0.032 A 
ATOM     93  C   UNL A   1      30.492  23.798  26.282  1.00  0.00     0.041 A 
ATOM     94  C   UNL A   1      31.405  23.306  24.102  1.00  0.00     0.077 A 
ATOM     95  C   UNL A   1      31.020  22.889  25.374  1.00  0.00     0.141 A 
ATOM     96  Cl  UNL A   1      32.039  22.175  22.968  1.00  0.00    -0.081 Cl
ATOM     97  F   UNL A   1      31.140  21.605  25.741  1.00  0.00    -0.205 F 
ENDBRANCH  85  90
ENDBRANCH  81  83
ENDBRANCH  80  81
ENDBRANCH  79  80
ENDBRANCH  78  79
ENDBRANCH  77  78
ENDBRANCH  76  77
ENDBRANCH   1  76
TORSDOF 21
ENDMDL
