MODEL 1
REMARK VINA RESULT:      -9.8      0.000      0.000
REMARK SMILES CC[C@@H](NC(=O)c1ccc(CNC(=O)[C@H]2CCCO2)cc1)C(=O)OCCOCCOCCOC(=O)c1ccc(-c2c3nc(c(-c4c(F)cc(S(=O)(=O)[O-])cc4F)c4ccc([nH]4)c(-c4c(F)cc(S(=O)(=O)[O-])cc4F)c4nc(c(-c5c(F)cc(S(=O)(=O)[O-])cc5F)c5ccc2[nH]5)C=C4)C=C3)cc1
REMARK SMILES IDX 28 1 27 2 26 3 25 4 24 5 22 6 23 7 3 8 2 9 1 10 4 11 5 12
REMARK SMILES IDX 6 14 7 15 8 16 21 17 9 18 20 19 10 20 11 21 12 22 13 23
REMARK SMILES IDX 14 25 15 26 16 27 19 28 17 29 18 30 29 31 30 32 31 33 32 34
REMARK SMILES IDX 33 35 34 36 35 37 36 38 37 39 101 40 38 41 100 42 39 43
REMARK SMILES IDX 40 44 41 45 94 46 42 47 99 48 93 49 95 50 43 51 98 52 92 53
REMARK SMILES IDX 91 54 44 56 78 57 57 58 77 59 58 60 61 61 76 62 96 63 59 64
REMARK SMILES IDX 60 65 75 67 97 68 62 69 45 70 46 71 55 72 47 73 48 74 54 75
REMARK SMILES IDX 56 76 49 77 50 78 51 79 52 80 53 81 79 82 80 83 89 84 81 85
REMARK SMILES IDX 82 86 88 87 90 88 83 89 84 90 85 91 86 92 87 93 63 94 64 95
REMARK SMILES IDX 73 96 65 97 66 98 72 99 74 100 67 101 68 102 69 103 70 104
REMARK SMILES IDX 71 105
REMARK H PARENT 4 13 12 24 95 55 61 66
REMARK Flexibility Score: inf
ROOT
ATOM      1  C   UNL A   1      35.703  23.436  25.791  1.00  0.00     0.188 C 
ENDROOT
BRANCH   1   2
ATOM      2  O   UNL A   1      34.920  22.443  26.425  1.00  0.00    -0.376 OA
BRANCH   2   3
ATOM      3  C   UNL A   1      34.054  22.938  27.434  1.00  0.00     0.202 C 
BRANCH   3   4
ATOM      4  C   UNL A   1      32.681  23.445  26.973  1.00  0.00     0.261 C 
BRANCH   4   5
ATOM      5  O   UNL A   1      32.509  24.584  26.100  1.00  0.00    -0.462 OA
BRANCH   5   6
ATOM      6  C   UNL A   1      31.553  25.523  26.279  1.00  0.00     0.328 C 
ATOM      7  O   UNL A   1      30.448  25.324  26.765  1.00  0.00    -0.250 OA
BRANCH   6   8
ATOM      8  C   UNL A   1      31.993  26.900  25.746  1.00  0.00     0.192 C 
BRANCH   8   9
ATOM      9  C   UNL A   1      33.538  26.973  25.615  1.00  0.00     0.033 C 
ATOM     10  C   UNL A   1      34.042  28.081  24.698  1.00  0.00     0.007 C 
ENDBRANCH   8   9
BRANCH   8  11
ATOM     11  N   UNL A   1      31.362  27.359  24.492  1.00  0.00    -0.339 N 
ATOM     12  C   UNL A   1      31.017  26.749  23.310  1.00  0.00     0.251 C 
ATOM     13  H   UNL A   1      31.141  28.318  24.506  1.00  0.00     0.164 HD
ATOM     14  O   UNL A   1      30.484  27.419  22.428  1.00  0.00    -0.269 OA
BRANCH  12  15
ATOM     15  C   UNL A   1      31.366  25.347  23.013  1.00  0.00     0.039 A 
ATOM     16  C   UNL A   1      32.657  25.068  22.557  1.00  0.00     0.014 A 
ATOM     17  C   UNL A   1      30.454  24.310  23.193  1.00  0.00     0.014 A 
ATOM     18  C   UNL A   1      33.078  23.740  22.430  1.00  0.00     0.006 A 
ATOM     19  C   UNL A   1      30.894  22.980  23.112  1.00  0.00     0.006 A 
ATOM     20  C   UNL A   1      32.228  22.685  22.797  1.00  0.00    -0.029 A 
BRANCH  20  21
ATOM     21  C   UNL A   1      32.771  21.285  22.973  1.00  0.00     0.151 C 
BRANCH  21  22
ATOM     22  N   UNL A   1      33.025  20.977  24.356  1.00  0.00    -0.350 N 
ATOM     23  C   UNL A   1      32.980  19.784  25.008  1.00  0.00     0.249 C 
ATOM     24  H   UNL A   1      33.268  21.750  24.916  1.00  0.00     0.163 HD
ATOM     25  O   UNL A   1      33.242  19.792  26.215  1.00  0.00    -0.272 OA
BRANCH  23  26
ATOM     26  C   UNL A   1      32.706  18.462  24.241  1.00  0.00     0.207 C 
ATOM     27  C   UNL A   1      34.012  17.739  23.907  1.00  0.00     0.044 C 
ATOM     28  O   UNL A   1      31.902  17.501  24.944  1.00  0.00    -0.368 OA
ATOM     29  C   UNL A   1      34.130  16.762  25.051  1.00  0.00     0.032 C 
ATOM     30  C   UNL A   1      32.692  16.335  25.211  1.00  0.00     0.161 C 
ENDBRANCH  23  26
ENDBRANCH  21  22
ENDBRANCH  20  21
ENDBRANCH  12  15
ENDBRANCH   8  11
ENDBRANCH   6   8
ENDBRANCH   5   6
ENDBRANCH   4   5
ENDBRANCH   3   4
ENDBRANCH   2   3
ENDBRANCH   1   2
BRANCH   1  31
ATOM     31  C   UNL A   1      36.492  22.907  24.590  1.00  0.00     0.188 C 
BRANCH  31  32
ATOM     32  O   UNL A   1      37.447  21.873  24.741  1.00  0.00    -0.376 OA
BRANCH  32  33
ATOM     33  C   UNL A   1      38.362  21.937  25.824  1.00  0.00     0.202 C 
BRANCH  33  34
ATOM     34  C   UNL A   1      39.703  21.170  25.805  1.00  0.00     0.261 C 
BRANCH  34  35
ATOM     35  O   UNL A   1      40.745  21.626  26.682  1.00  0.00    -0.460 OA
BRANCH  35  36
ATOM     36  C   UNL A   1      41.612  22.537  26.169  1.00  0.00     0.338 C 
ATOM     37  O   UNL A   1      42.266  22.420  25.145  1.00  0.00    -0.246 OA
BRANCH  36  38
ATOM     38  C   UNL A   1      41.444  23.822  26.902  1.00  0.00     0.060 A 
ATOM     39  C   UNL A   1      42.406  24.833  26.715  1.00  0.00     0.016 A 
ATOM     40  C   UNL A   1      40.342  24.058  27.723  1.00  0.00     0.016 A 
ATOM     41  C   UNL A   1      42.275  26.068  27.346  1.00  0.00     0.010 A 
ATOM     42  C   UNL A   1      40.243  25.276  28.406  1.00  0.00     0.010 A 
ATOM     43  C   UNL A   1      41.225  26.273  28.245  1.00  0.00    -0.014 A 
BRANCH  43  44
ATOM     44  C   UNL A   1      41.318  27.388  29.221  1.00  0.00     0.031 A 
ATOM     45  C   UNL A   1      42.441  27.335  30.223  1.00  0.00     0.074 A 
ATOM     46  C   UNL A   1      40.465  28.428  29.215  1.00  0.00     0.049 A 
ATOM     47  N   UNL A   1      42.692  28.119  31.237  1.00  0.00    -0.248 NA
ATOM     48  C   UNL A   1      43.413  26.240  30.054  1.00  0.00     0.031 C 
ATOM     49  C   UNL A   1      39.380  28.632  28.258  1.00  0.00     0.029 A 
ATOM     50  N   UNL A   1      40.374  29.504  30.064  1.00  0.00    -0.354 N 
ATOM     51  C   UNL A   1      43.837  27.605  31.835  1.00  0.00     0.074 A 
ATOM     52  C   UNL A   1      44.217  26.428  31.088  1.00  0.00     0.031 C 
ATOM     53  C   UNL A   1      38.713  29.752  28.591  1.00  0.00     0.029 A 
ATOM     54  C   UNL A   1      39.299  30.322  29.805  1.00  0.00     0.049 A 
ATOM     55  H   UNL A   1      41.018  29.675  30.789  1.00  0.00     0.167 HD
ATOM     56  C   UNL A   1      44.514  28.073  32.908  1.00  0.00     0.037 A 
ATOM     57  C   UNL A   1      38.827  31.384  30.491  1.00  0.00     0.037 A 
ATOM     58  C   UNL A   1      44.129  29.243  33.652  1.00  0.00     0.049 A 
ATOM     59  C   UNL A   1      39.548  31.842  31.736  1.00  0.00     0.074 A 
ATOM     60  C   UNL A   1      44.749  29.802  34.755  1.00  0.00     0.029 A 
ATOM     61  N   UNL A   1      43.021  30.028  33.373  1.00  0.00    -0.354 N 
ATOM     62  N   UNL A   1      40.630  31.351  32.294  1.00  0.00    -0.248 NA
ATOM     63  C   UNL A   1      38.984  33.000  32.446  1.00  0.00     0.031 C 
ATOM     64  C   UNL A   1      43.984  30.893  35.177  1.00  0.00     0.029 A 
ATOM     65  C   UNL A   1      42.924  31.054  34.299  1.00  0.00     0.049 A 
ATOM     66  H   UNL A   1      42.395  29.879  32.628  1.00  0.00     0.167 HD
ATOM     67  C   UNL A   1      40.893  32.158  33.398  1.00  0.00     0.074 A 
ATOM     68  C   UNL A   1      39.863  33.175  33.424  1.00  0.00     0.031 C 
ATOM     69  C   UNL A   1      41.898  32.068  34.306  1.00  0.00     0.037 A 
BRANCH  56  70
ATOM     70  C   UNL A   1      45.721  27.298  33.360  1.00  0.00     0.058 A 
ATOM     71  C   UNL A   1      47.012  27.596  32.895  1.00  0.00     0.135 A 
ATOM     72  C   UNL A   1      45.585  26.253  34.289  1.00  0.00     0.135 A 
ATOM     73  F   UNL A   1      47.196  28.568  31.988  1.00  0.00    -0.206 F 
ATOM     74  C   UNL A   1      48.121  26.870  33.317  1.00  0.00     0.059 A 
ATOM     75  C   UNL A   1      46.684  25.535  34.747  1.00  0.00     0.059 A 
ATOM     76  F   UNL A   1      44.372  25.920  34.759  1.00  0.00    -0.206 F 
ATOM     77  C   UNL A   1      47.947  25.843  34.245  1.00  0.00     0.060 A 
BRANCH  77  78
ATOM     78  S   UNL A   1      49.398  24.918  34.788  1.00  0.00     0.124 S 
ATOM     79  O   UNL A   1      49.072  24.658  36.187  1.00  0.00    -0.237 OA
ATOM     80  O   UNL A   1      49.372  23.755  33.906  1.00  0.00    -0.237 OA
ATOM     81  O   UNL A   1      50.499  25.848  34.563  1.00  0.00    -0.744 OA
ENDBRANCH  77  78
ENDBRANCH  56  70
BRANCH  57  82
ATOM     82  C   UNL A   1      37.589  32.076  30.036  1.00  0.00     0.058 A 
ATOM     83  C   UNL A   1      37.649  33.246  29.264  1.00  0.00     0.135 A 
ATOM     84  C   UNL A   1      36.317  31.587  30.377  1.00  0.00     0.135 A 
ATOM     85  F   UNL A   1      38.839  33.765  28.926  1.00  0.00    -0.206 F 
ATOM     86  C   UNL A   1      36.496  33.913  28.857  1.00  0.00     0.059 A 
ATOM     87  C   UNL A   1      35.151  32.219  29.958  1.00  0.00     0.059 A 
ATOM     88  F   UNL A   1      36.202  30.469  31.112  1.00  0.00    -0.206 F 
ATOM     89  C   UNL A   1      35.251  33.388  29.205  1.00  0.00     0.060 A 
BRANCH  89  90
ATOM     90  S   UNL A   1      33.762  34.231  28.626  1.00  0.00     0.124 S 
ATOM     91  O   UNL A   1      34.328  35.336  27.861  1.00  0.00    -0.237 OA
ATOM     92  O   UNL A   1      33.104  33.185  27.848  1.00  0.00    -0.237 OA
ATOM     93  O   UNL A   1      33.084  34.601  29.865  1.00  0.00    -0.744 OA
ENDBRANCH  89  90
ENDBRANCH  57  82
BRANCH  69  94
ATOM     94  C   UNL A   1      41.970  33.120  35.381  1.00  0.00     0.058 A 
ATOM     95  C   UNL A   1      41.271  32.997  36.591  1.00  0.00     0.135 A 
ATOM     96  C   UNL A   1      42.805  34.240  35.220  1.00  0.00     0.135 A 
ATOM     97  F   UNL A   1      40.456  31.950  36.798  1.00  0.00    -0.206 F 
ATOM     98  C   UNL A   1      41.377  33.957  37.594  1.00  0.00     0.059 A 
ATOM     99  C   UNL A   1      42.951  35.195  36.221  1.00  0.00     0.059 A 
ATOM    100  F   UNL A   1      43.509  34.402  34.088  1.00  0.00    -0.206 F 
ATOM    101  C   UNL A   1      42.222  35.051  37.400  1.00  0.00     0.060 A 
BRANCH 101 102
ATOM    102  S   UNL A   1      42.377  36.270  38.723  1.00  0.00     0.124 S 
ATOM    103  O   UNL A   1      43.241  35.571  39.668  1.00  0.00    -0.237 OA
ATOM    104  O   UNL A   1      42.982  37.406  38.031  1.00  0.00    -0.237 OA
ATOM    105  O   UNL A   1      41.001  36.474  39.163  1.00  0.00    -0.744 OA
ENDBRANCH 101 102
ENDBRANCH  69  94
ENDBRANCH  43  44
ENDBRANCH  36  38
ENDBRANCH  35  36
ENDBRANCH  34  35
ENDBRANCH  33  34
ENDBRANCH  32  33
ENDBRANCH  31  32
ENDBRANCH   1  31
TORSDOF 26
ENDMDL
MODEL 2
REMARK VINA RESULT:      -9.3      5.336      8.740
REMARK SMILES CC[C@@H](NC(=O)c1ccc(CNC(=O)[C@H]2CCCO2)cc1)C(=O)OCCOCCOCCOC(=O)c1ccc(-c2c3nc(c(-c4c(F)cc(S(=O)(=O)[O-])cc4F)c4ccc([nH]4)c(-c4c(F)cc(S(=O)(=O)[O-])cc4F)c4nc(c(-c5c(F)cc(S(=O)(=O)[O-])cc5F)c5ccc2[nH]5)C=C4)C=C3)cc1
REMARK SMILES IDX 28 1 27 2 26 3 25 4 24 5 22 6 23 7 3 8 2 9 1 10 4 11 5 12
REMARK SMILES IDX 6 14 7 15 8 16 21 17 9 18 20 19 10 20 11 21 12 22 13 23
REMARK SMILES IDX 14 25 15 26 16 27 19 28 17 29 18 30 29 31 30 32 31 33 32 34
REMARK SMILES IDX 33 35 34 36 35 37 36 38 37 39 101 40 38 41 100 42 39 43
REMARK SMILES IDX 40 44 41 45 94 46 42 47 99 48 93 49 95 50 43 51 98 52 92 53
REMARK SMILES IDX 91 54 44 56 78 57 57 58 77 59 58 60 61 61 76 62 96 63 59 64
REMARK SMILES IDX 60 65 75 67 97 68 62 69 45 70 46 71 55 72 47 73 48 74 54 75
REMARK SMILES IDX 56 76 49 77 50 78 51 79 52 80 53 81 79 82 80 83 89 84 81 85
REMARK SMILES IDX 82 86 88 87 90 88 83 89 84 90 85 91 86 92 87 93 63 94 64 95
REMARK SMILES IDX 73 96 65 97 66 98 72 99 74 100 67 101 68 102 69 103 70 104
REMARK SMILES IDX 71 105
REMARK H PARENT 4 13 12 24 95 55 61 66
REMARK Flexibility Score: inf
ROOT
ATOM      1  C   UNL A   1      35.902  23.752  25.324  1.00  0.00     0.188 C 
ENDROOT
BRANCH   1   2
ATOM      2  O   UNL A   1      34.842  22.863  25.623  1.00  0.00    -0.376 OA
BRANCH   2   3
ATOM      3  C   UNL A   1      34.277  23.041  26.913  1.00  0.00     0.202 C 
BRANCH   3   4
ATOM      4  C   UNL A   1      32.914  23.743  26.976  1.00  0.00     0.261 C 
BRANCH   4   5
ATOM      5  O   UNL A   1      32.445  24.657  25.960  1.00  0.00    -0.462 OA
BRANCH   5   6
ATOM      6  C   UNL A   1      31.528  25.624  26.192  1.00  0.00     0.328 C 
ATOM      7  O   UNL A   1      30.417  25.445  26.672  1.00  0.00    -0.250 OA
BRANCH   6   8
ATOM      8  C   UNL A   1      32.023  27.007  25.729  1.00  0.00     0.192 C 
BRANCH   8   9
ATOM      9  C   UNL A   1      33.574  27.061  25.707  1.00  0.00     0.033 C 
ATOM     10  C   UNL A   1      34.177  28.209  26.508  1.00  0.00     0.007 C 
ENDBRANCH   8   9
BRANCH   8  11
ATOM     11  N   UNL A   1      31.487  27.511  24.447  1.00  0.00    -0.339 N 
ATOM     12  C   UNL A   1      31.136  26.923  23.256  1.00  0.00     0.251 C 
ATOM     13  H   UNL A   1      31.352  28.485  24.447  1.00  0.00     0.164 HD
ATOM     14  O   UNL A   1      30.701  27.630  22.350  1.00  0.00    -0.269 OA
BRANCH  12  15
ATOM     15  C   UNL A   1      31.369  25.493  22.981  1.00  0.00     0.039 A 
ATOM     16  C   UNL A   1      32.610  25.111  22.464  1.00  0.00     0.014 A 
ATOM     17  C   UNL A   1      30.398  24.528  23.240  1.00  0.00     0.014 A 
ATOM     18  C   UNL A   1      32.929  23.754  22.353  1.00  0.00     0.006 A 
ATOM     19  C   UNL A   1      30.739  23.169  23.175  1.00  0.00     0.006 A 
ATOM     20  C   UNL A   1      32.030  22.771  22.796  1.00  0.00    -0.029 A 
BRANCH  20  21
ATOM     21  C   UNL A   1      32.482  21.341  22.982  1.00  0.00     0.151 C 
BRANCH  21  22
ATOM     22  N   UNL A   1      32.835  21.064  24.350  1.00  0.00    -0.350 N 
ATOM     23  C   UNL A   1      32.814  19.889  25.037  1.00  0.00     0.249 C 
ATOM     24  H   UNL A   1      33.138  21.844  24.868  1.00  0.00     0.163 HD
ATOM     25  O   UNL A   1      33.168  19.922  26.220  1.00  0.00    -0.272 OA
BRANCH  23  26
ATOM     26  C   UNL A   1      32.451  18.555  24.331  1.00  0.00     0.207 C 
ATOM     27  C   UNL A   1      33.664  17.969  23.606  1.00  0.00     0.044 C 
ATOM     28  O   UNL A   1      31.979  17.511  25.198  1.00  0.00    -0.368 OA
ATOM     29  C   UNL A   1      34.199  16.996  24.629  1.00  0.00     0.032 C 
ATOM     30  C   UNL A   1      32.915  16.427  25.181  1.00  0.00     0.161 C 
ENDBRANCH  23  26
ENDBRANCH  21  22
ENDBRANCH  20  21
ENDBRANCH  12  15
ENDBRANCH   8  11
ENDBRANCH   6   8
ENDBRANCH   5   6
ENDBRANCH   4   5
ENDBRANCH   3   4
ENDBRANCH   2   3
ENDBRANCH   1   2
BRANCH   1  31
ATOM     31  C   UNL A   1      36.939  23.155  24.370  1.00  0.00     0.188 C 
BRANCH  31  32
ATOM     32  O   UNL A   1      37.423  21.836  24.549  1.00  0.00    -0.376 OA
BRANCH  32  33
ATOM     33  C   UNL A   1      38.274  21.561  25.650  1.00  0.00     0.202 C 
BRANCH  33  34
ATOM     34  C   UNL A   1      39.170  20.303  25.695  1.00  0.00     0.261 C 
BRANCH  34  35
ATOM     35  O   UNL A   1      40.293  20.314  26.590  1.00  0.00    -0.460 OA
BRANCH  35  36
ATOM     36  C   UNL A   1      41.488  19.936  26.066  1.00  0.00     0.338 C 
ATOM     37  O   UNL A   1      41.710  18.923  25.423  1.00  0.00    -0.246 OA
BRANCH  36  38
ATOM     38  C   UNL A   1      42.435  21.081  26.162  1.00  0.00     0.060 A 
ATOM     39  C   UNL A   1      43.816  20.812  26.157  1.00  0.00     0.016 A 
ATOM     40  C   UNL A   1      41.986  22.401  26.210  1.00  0.00     0.016 A 
ATOM     41  C   UNL A   1      44.746  21.849  26.205  1.00  0.00     0.010 A 
ATOM     42  C   UNL A   1      42.918  23.440  26.320  1.00  0.00     0.010 A 
ATOM     43  C   UNL A   1      44.299  23.165  26.351  1.00  0.00    -0.014 A 
BRANCH  43  44
ATOM     44  C   UNL A   1      45.251  24.201  26.826  1.00  0.00     0.031 A 
ATOM     45  C   UNL A   1      45.082  24.697  28.239  1.00  0.00     0.074 A 
ATOM     46  C   UNL A   1      46.249  24.675  26.058  1.00  0.00     0.049 A 
ATOM     47  N   UNL A   1      45.706  25.658  28.866  1.00  0.00    -0.248 NA
ATOM     48  C   UNL A   1      44.061  24.011  29.051  1.00  0.00     0.031 C 
ATOM     49  C   UNL A   1      46.562  24.230  24.702  1.00  0.00     0.029 A 
ATOM     50  N   UNL A   1      47.175  25.656  26.315  1.00  0.00    -0.354 N 
ATOM     51  C   UNL A   1      45.145  25.702  30.138  1.00  0.00     0.074 A 
ATOM     52  C   UNL A   1      44.113  24.691  30.184  1.00  0.00     0.031 C 
ATOM     53  C   UNL A   1      47.593  24.959  24.234  1.00  0.00     0.029 A 
ATOM     54  C   UNL A   1      47.986  25.944  25.242  1.00  0.00     0.049 A 
ATOM     55  H   UNL A   1      47.253  26.110  27.185  1.00  0.00     0.167 HD
ATOM     56  C   UNL A   1      45.463  26.509  31.175  1.00  0.00     0.037 A 
ATOM     57  C   UNL A   1      48.910  26.914  25.084  1.00  0.00     0.037 A 
ATOM     58  C   UNL A   1      46.489  27.517  31.122  1.00  0.00     0.049 A 
ATOM     59  C   UNL A   1      49.193  27.862  26.225  1.00  0.00     0.074 A 
ATOM     60  C   UNL A   1      46.889  28.388  32.120  1.00  0.00     0.029 A 
ATOM     61  N   UNL A   1      47.268  27.795  30.010  1.00  0.00    -0.354 N 
ATOM     62  N   UNL A   1      48.658  27.896  27.424  1.00  0.00    -0.248 NA
ATOM     63  C   UNL A   1      50.206  28.903  25.994  1.00  0.00     0.031 C 
ATOM     64  C   UNL A   1      47.874  29.229  31.593  1.00  0.00     0.029 A 
ATOM     65  C   UNL A   1      48.132  28.840  30.288  1.00  0.00     0.049 A 
ATOM     66  H   UNL A   1      47.215  27.319  29.149  1.00  0.00     0.167 HD
ATOM     67  C   UNL A   1      49.292  28.938  28.097  1.00  0.00     0.074 A 
ATOM     68  C   UNL A   1      50.256  29.503  27.176  1.00  0.00     0.031 C 
ATOM     69  C   UNL A   1      49.096  29.385  29.364  1.00  0.00     0.037 A 
BRANCH  56  70
ATOM     70  C   UNL A   1      44.669  26.356  32.443  1.00  0.00     0.058 A 
ATOM     71  C   UNL A   1      45.046  25.453  33.450  1.00  0.00     0.135 A 
ATOM     72  C   UNL A   1      43.525  27.140  32.662  1.00  0.00     0.135 A 
ATOM     73  F   UNL A   1      46.117  24.660  33.282  1.00  0.00    -0.206 F 
ATOM     74  C   UNL A   1      44.303  25.315  34.618  1.00  0.00     0.059 A 
ATOM     75  C   UNL A   1      42.785  27.041  33.835  1.00  0.00     0.059 A 
ATOM     76  F   UNL A   1      43.115  28.013  31.728  1.00  0.00    -0.206 F 
ATOM     77  C   UNL A   1      43.175  26.117  34.802  1.00  0.00     0.060 A 
BRANCH  77  78
ATOM     78  S   UNL A   1      42.228  25.932  36.327  1.00  0.00     0.124 S 
ATOM     79  O   UNL A   1      41.390  27.128  36.296  1.00  0.00    -0.237 OA
ATOM     80  O   UNL A   1      41.534  24.667  36.109  1.00  0.00    -0.237 OA
ATOM     81  O   UNL A   1      43.253  25.912  37.365  1.00  0.00    -0.744 OA
ENDBRANCH  77  78
ENDBRANCH  56  70
BRANCH  57  82
ATOM     82  C   UNL A   1      49.621  27.064  23.783  1.00  0.00     0.058 A 
ATOM     83  C   UNL A   1      50.959  26.668  23.634  1.00  0.00     0.135 A 
ATOM     84  C   UNL A   1      48.979  27.619  22.665  1.00  0.00     0.135 A 
ATOM     85  F   UNL A   1      51.624  26.149  24.676  1.00  0.00    -0.206 F 
ATOM     86  C   UNL A   1      51.638  26.828  22.429  1.00  0.00     0.059 A 
ATOM     87  C   UNL A   1      49.627  27.762  21.441  1.00  0.00     0.059 A 
ATOM     88  F   UNL A   1      47.698  28.011  22.751  1.00  0.00    -0.206 F 
ATOM     89  C   UNL A   1      50.961  27.372  21.336  1.00  0.00     0.060 A 
BRANCH  89  90
ATOM     90  S   UNL A   1      51.835  27.525  19.763  1.00  0.00     0.124 S 
ATOM     91  O   UNL A   1      50.774  27.236  18.807  1.00  0.00    -0.237 OA
ATOM     92  O   UNL A   1      52.299  28.909  19.807  1.00  0.00    -0.237 OA
ATOM     93  O   UNL A   1      52.886  26.517  19.865  1.00  0.00    -0.744 OA
ENDBRANCH  89  90
ENDBRANCH  57  82
BRANCH  69  94
ATOM     94  C   UNL A   1      49.970  30.510  29.854  1.00  0.00     0.058 A 
ATOM     95  C   UNL A   1      49.587  31.855  29.737  1.00  0.00     0.135 A 
ATOM     96  C   UNL A   1      51.181  30.229  30.511  1.00  0.00     0.135 A 
ATOM     97  F   UNL A   1      48.442  32.180  29.116  1.00  0.00    -0.206 F 
ATOM     98  C   UNL A   1      50.385  32.884  30.231  1.00  0.00     0.059 A 
ATOM     99  C   UNL A   1      51.978  31.240  31.040  1.00  0.00     0.059 A 
ATOM    100  F   UNL A   1      51.590  28.960  30.664  1.00  0.00    -0.206 F 
ATOM    101  C   UNL A   1      51.578  32.565  30.884  1.00  0.00     0.060 A 
BRANCH 101 102
ATOM    102  S   UNL A   1      52.585  33.908  31.550  1.00  0.00     0.124 S 
ATOM    103  O   UNL A   1      52.050  34.033  32.902  1.00  0.00    -0.237 OA
ATOM    104  O   UNL A   1      53.936  33.363  31.450  1.00  0.00    -0.237 OA
ATOM    105  O   UNL A   1      52.299  35.025  30.656  1.00  0.00    -0.744 OA
ENDBRANCH 101 102
ENDBRANCH  69  94
ENDBRANCH  43  44
ENDBRANCH  36  38
ENDBRANCH  35  36
ENDBRANCH  34  35
ENDBRANCH  33  34
ENDBRANCH  32  33
ENDBRANCH  31  32
ENDBRANCH   1  31
TORSDOF 26
ENDMDL
MODEL 3
REMARK VINA RESULT:      -9.3      5.112     10.076
REMARK SMILES CC[C@@H](NC(=O)c1ccc(CNC(=O)[C@H]2CCCO2)cc1)C(=O)OCCOCCOCCOC(=O)c1ccc(-c2c3nc(c(-c4c(F)cc(S(=O)(=O)[O-])cc4F)c4ccc([nH]4)c(-c4c(F)cc(S(=O)(=O)[O-])cc4F)c4nc(c(-c5c(F)cc(S(=O)(=O)[O-])cc5F)c5ccc2[nH]5)C=C4)C=C3)cc1
REMARK SMILES IDX 28 1 27 2 26 3 25 4 24 5 22 6 23 7 3 8 2 9 1 10 4 11 5 12
REMARK SMILES IDX 6 14 7 15 8 16 21 17 9 18 20 19 10 20 11 21 12 22 13 23
REMARK SMILES IDX 14 25 15 26 16 27 19 28 17 29 18 30 29 31 30 32 31 33 32 34
REMARK SMILES IDX 33 35 34 36 35 37 36 38 37 39 101 40 38 41 100 42 39 43
REMARK SMILES IDX 40 44 41 45 94 46 42 47 99 48 93 49 95 50 43 51 98 52 92 53
REMARK SMILES IDX 91 54 44 56 78 57 57 58 77 59 58 60 61 61 76 62 96 63 59 64
REMARK SMILES IDX 60 65 75 67 97 68 62 69 45 70 46 71 55 72 47 73 48 74 54 75
REMARK SMILES IDX 56 76 49 77 50 78 51 79 52 80 53 81 79 82 80 83 89 84 81 85
REMARK SMILES IDX 82 86 88 87 90 88 83 89 84 90 85 91 86 92 87 93 63 94 64 95
REMARK SMILES IDX 73 96 65 97 66 98 72 99 74 100 67 101 68 102 69 103 70 104
REMARK SMILES IDX 71 105
REMARK H PARENT 4 13 12 24 95 55 61 66
REMARK Flexibility Score: inf
ROOT
ATOM      1  C   UNL A   1      36.262  23.592  26.095  1.00  0.00     0.188 C 
ENDROOT
BRANCH   1   2
ATOM      2  O   UNL A   1      34.999  23.001  25.855  1.00  0.00    -0.376 OA
BRANCH   2   3
ATOM      3  C   UNL A   1      34.536  22.166  26.904  1.00  0.00     0.202 C 
BRANCH   3   4
ATOM      4  C   UNL A   1      33.180  22.530  27.525  1.00  0.00     0.261 C 
BRANCH   4   5
ATOM      5  O   UNL A   1      31.920  22.339  26.843  1.00  0.00    -0.462 OA
BRANCH   5   6
ATOM      6  C   UNL A   1      31.049  23.343  26.591  1.00  0.00     0.328 C 
ATOM      7  O   UNL A   1      30.103  23.654  27.302  1.00  0.00    -0.250 OA
BRANCH   6   8
ATOM      8  C   UNL A   1      31.351  24.042  25.252  1.00  0.00     0.192 C 
BRANCH   8   9
ATOM      9  C   UNL A   1      31.887  23.028  24.208  1.00  0.00     0.033 C 
ATOM     10  C   UNL A   1      31.943  23.561  22.781  1.00  0.00     0.007 C 
ENDBRANCH   8   9
BRANCH   8  11
ATOM     11  N   UNL A   1      30.259  24.842  24.659  1.00  0.00    -0.339 N 
ATOM     12  C   UNL A   1      29.990  26.187  24.574  1.00  0.00     0.251 C 
ATOM     13  H   UNL A   1      29.571  24.287  24.228  1.00  0.00     0.164 HD
ATOM     14  O   UNL A   1      28.972  26.554  23.993  1.00  0.00    -0.269 OA
BRANCH  12  15
ATOM     15  C   UNL A   1      30.815  27.202  25.256  1.00  0.00     0.039 A 
ATOM     16  C   UNL A   1      31.247  28.308  24.520  1.00  0.00     0.014 A 
ATOM     17  C   UNL A   1      31.152  27.089  26.603  1.00  0.00     0.014 A 
ATOM     18  C   UNL A   1      31.882  29.371  25.170  1.00  0.00     0.006 A 
ATOM     19  C   UNL A   1      31.745  28.177  27.261  1.00  0.00     0.006 A 
ATOM     20  C   UNL A   1      32.053  29.355  26.563  1.00  0.00    -0.029 A 
BRANCH  20  21
ATOM     21  C   UNL A   1      32.434  30.615  27.308  1.00  0.00     0.151 C 
BRANCH  21  22
ATOM     22  N   UNL A   1      33.860  30.730  27.473  1.00  0.00    -0.350 N 
ATOM     23  C   UNL A   1      34.636  31.838  27.617  1.00  0.00     0.249 C 
ATOM     24  H   UNL A   1      34.348  29.875  27.482  1.00  0.00     0.163 HD
ATOM     25  O   UNL A   1      35.852  31.661  27.741  1.00  0.00    -0.272 OA
BRANCH  23  26
ATOM     26  C   UNL A   1      34.002  33.251  27.718  1.00  0.00     0.207 C 
ATOM     27  C   UNL A   1      33.432  33.500  29.116  1.00  0.00     0.044 C 
ATOM     28  O   UNL A   1      34.900  34.345  27.467  1.00  0.00    -0.368 OA
ATOM     29  C   UNL A   1      34.568  34.232  29.790  1.00  0.00     0.032 C 
ATOM     30  C   UNL A   1      35.046  35.116  28.665  1.00  0.00     0.161 C 
ENDBRANCH  23  26
ENDBRANCH  21  22
ENDBRANCH  20  21
ENDBRANCH  12  15
ENDBRANCH   8  11
ENDBRANCH   6   8
ENDBRANCH   5   6
ENDBRANCH   4   5
ENDBRANCH   3   4
ENDBRANCH   2   3
ENDBRANCH   1   2
BRANCH   1  31
ATOM     31  C   UNL A   1      37.357  23.080  25.155  1.00  0.00     0.188 C 
BRANCH  31  32
ATOM     32  O   UNL A   1      37.789  21.733  25.202  1.00  0.00    -0.376 OA
BRANCH  32  33
ATOM     33  C   UNL A   1      39.012  21.427  25.852  1.00  0.00     0.202 C 
BRANCH  33  34
ATOM     34  C   UNL A   1      39.694  20.049  25.701  1.00  0.00     0.261 C 
BRANCH  34  35
ATOM     35  O   UNL A   1      40.836  19.775  26.527  1.00  0.00    -0.460 OA
BRANCH  35  36
ATOM     36  C   UNL A   1      42.050  20.092  26.007  1.00  0.00     0.338 C 
ATOM     37  O   UNL A   1      42.649  19.482  25.136  1.00  0.00    -0.246 OA
BRANCH  36  38
ATOM     38  C   UNL A   1      42.425  21.457  26.468  1.00  0.00     0.060 A 
ATOM     39  C   UNL A   1      42.486  22.494  25.518  1.00  0.00     0.016 A 
ATOM     40  C   UNL A   1      42.667  21.735  27.813  1.00  0.00     0.016 A 
ATOM     41  C   UNL A   1      42.794  23.798  25.903  1.00  0.00     0.010 A 
ATOM     42  C   UNL A   1      43.036  23.032  28.191  1.00  0.00     0.010 A 
ATOM     43  C   UNL A   1      43.132  24.060  27.233  1.00  0.00    -0.014 A 
BRANCH  43  44
ATOM     44  C   UNL A   1      43.859  25.312  27.559  1.00  0.00     0.031 A 
ATOM     45  C   UNL A   1      43.080  26.404  28.245  1.00  0.00     0.074 A 
ATOM     46  C   UNL A   1      45.166  25.482  27.288  1.00  0.00     0.049 A 
ATOM     47  N   UNL A   1      43.441  27.622  28.549  1.00  0.00    -0.248 NA
ATOM     48  C   UNL A   1      41.699  26.069  28.637  1.00  0.00     0.031 C 
ATOM     49  C   UNL A   1      46.048  24.482  26.691  1.00  0.00     0.029 A 
ATOM     50  N   UNL A   1      45.973  26.579  27.471  1.00  0.00    -0.354 N 
ATOM     51  C   UNL A   1      42.330  28.202  29.153  1.00  0.00     0.074 A 
ATOM     52  C   UNL A   1      41.276  27.213  29.147  1.00  0.00     0.031 C 
ATOM     53  C   UNL A   1      47.270  25.022  26.530  1.00  0.00     0.029 A 
ATOM     54  C   UNL A   1      47.246  26.415  26.977  1.00  0.00     0.049 A 
ATOM     55  H   UNL A   1      45.670  27.403  27.915  1.00  0.00     0.167 HD
ATOM     56  C   UNL A   1      42.201  29.446  29.669  1.00  0.00     0.037 A 
ATOM     57  C   UNL A   1      48.259  27.300  26.867  1.00  0.00     0.037 A 
ATOM     58  C   UNL A   1      43.253  30.428  29.667  1.00  0.00     0.049 A 
ATOM     59  C   UNL A   1      48.069  28.710  27.372  1.00  0.00     0.074 A 
ATOM     60  C   UNL A   1      43.223  31.718  30.166  1.00  0.00     0.029 A 
ATOM     61  N   UNL A   1      44.517  30.232  29.134  1.00  0.00    -0.354 N 
ATOM     62  N   UNL A   1      47.016  29.251  27.942  1.00  0.00    -0.248 NA
ATOM     63  C   UNL A   1      49.204  29.633  27.221  1.00  0.00     0.031 C 
ATOM     64  C   UNL A   1      44.453  32.321  29.886  1.00  0.00     0.029 A 
ATOM     65  C   UNL A   1      45.271  31.386  29.270  1.00  0.00     0.049 A 
ATOM     66  H   UNL A   1      44.833  29.397  28.720  1.00  0.00     0.167 HD
ATOM     67  C   UNL A   1      47.374  30.562  28.245  1.00  0.00     0.074 A 
ATOM     68  C   UNL A   1      48.743  30.732  27.804  1.00  0.00     0.031 C 
ATOM     69  C   UNL A   1      46.638  31.537  28.837  1.00  0.00     0.037 A 
BRANCH  56  70
ATOM     70  C   UNL A   1      40.865  29.823  30.246  1.00  0.00     0.058 A 
ATOM     71  C   UNL A   1      39.758  30.108  29.430  1.00  0.00     0.135 A 
ATOM     72  C   UNL A   1      40.684  29.879  31.638  1.00  0.00     0.135 A 
ATOM     73  F   UNL A   1      39.881  30.093  28.094  1.00  0.00    -0.206 F 
ATOM     74  C   UNL A   1      38.526  30.459  29.973  1.00  0.00     0.059 A 
ATOM     75  C   UNL A   1      39.454  30.199  32.203  1.00  0.00     0.059 A 
ATOM     76  F   UNL A   1      41.712  29.625  32.464  1.00  0.00    -0.206 F 
ATOM     77  C   UNL A   1      38.384  30.499  31.361  1.00  0.00     0.060 A 
BRANCH  77  78
ATOM     78  S   UNL A   1      36.777  30.949  32.049  1.00  0.00     0.124 S 
ATOM     79  O   UNL A   1      36.023  31.272  30.841  1.00  0.00    -0.237 OA
ATOM     80  O   UNL A   1      36.380  29.724  32.735  1.00  0.00    -0.237 OA
ATOM     81  O   UNL A   1      37.083  32.081  32.918  1.00  0.00    -0.744 OA
ENDBRANCH  77  78
ENDBRANCH  56  70
BRANCH  57  82
ATOM     82  C   UNL A   1      49.541  26.893  26.227  1.00  0.00     0.058 A 
ATOM     83  C   UNL A   1      49.776  27.112  24.861  1.00  0.00     0.135 A 
ATOM     84  C   UNL A   1      50.554  26.262  26.967  1.00  0.00     0.135 A 
ATOM     85  F   UNL A   1      48.834  27.694  24.104  1.00  0.00    -0.206 F 
ATOM     86  C   UNL A   1      50.961  26.711  24.250  1.00  0.00     0.059 A 
ATOM     87  C   UNL A   1      51.758  25.879  26.386  1.00  0.00     0.059 A 
ATOM     88  F   UNL A   1      50.383  26.031  28.279  1.00  0.00    -0.206 F 
ATOM     89  C   UNL A   1      51.949  26.099  25.023  1.00  0.00     0.060 A 
BRANCH  89  90
ATOM     90  S   UNL A   1      53.504  25.633  24.231  1.00  0.00     0.124 S 
ATOM     91  O   UNL A   1      53.748  24.318  24.812  1.00  0.00    -0.237 OA
ATOM     92  O   UNL A   1      53.142  25.651  22.817  1.00  0.00    -0.237 OA
ATOM     93  O   UNL A   1      54.422  26.689  24.649  1.00  0.00    -0.744 OA
ENDBRANCH  89  90
ENDBRANCH  57  82
BRANCH  69  94
ATOM     94  C   UNL A   1      47.305  32.863  29.091  1.00  0.00     0.058 A 
ATOM     95  C   UNL A   1      48.106  33.089  30.221  1.00  0.00     0.135 A 
ATOM     96  C   UNL A   1      47.192  33.903  28.151  1.00  0.00     0.135 A 
ATOM     97  F   UNL A   1      48.246  32.132  31.152  1.00  0.00    -0.206 F 
ATOM     98  C   UNL A   1      48.750  34.307  30.425  1.00  0.00     0.059 A 
ATOM     99  C   UNL A   1      47.853  35.116  28.318  1.00  0.00     0.059 A 
ATOM    100  F   UNL A   1      46.451  33.737  27.044  1.00  0.00    -0.206 F 
ATOM    101  C   UNL A   1      48.619  35.313  29.465  1.00  0.00     0.060 A 
BRANCH 101 102
ATOM    102  S   UNL A   1      49.489  36.874  29.725  1.00  0.00     0.124 S 
ATOM    103  O   UNL A   1      49.519  37.422  28.373  1.00  0.00    -0.237 OA
ATOM    104  O   UNL A   1      48.615  37.565  30.669  1.00  0.00    -0.237 OA
ATOM    105  O   UNL A   1      50.780  36.460  30.263  1.00  0.00    -0.744 OA
ENDBRANCH 101 102
ENDBRANCH  69  94
ENDBRANCH  43  44
ENDBRANCH  36  38
ENDBRANCH  35  36
ENDBRANCH  34  35
ENDBRANCH  33  34
ENDBRANCH  32  33
ENDBRANCH  31  32
ENDBRANCH   1  31
TORSDOF 26
ENDMDL
