MODEL 1
REMARK VINA RESULT:      -7.7      0.000      0.000
REMARK SMILES O=C(OCCOCCOCCOC(=O)c1nnn(-c2cccc(OC(F)(F)F)c2)c1-c1ccncc1)c1ccc(-c2c3nc(c(-c4c(F)cc(S(=O)(=O)[O-])cc4F)c4ccc([nH]4)c(-c4c(F)cc(S(=O)(=O)[O-])cc4F)c4nc(c(-c5c(F)cc(S(=O)(=O)[O-])cc5F)c5ccc2[nH]5)C=C4)C=C3)cc1
REMARK SMILES IDX 7 1 6 2 5 3 4 4 3 5 2 6 1 7 37 8 38 9 102 10 39 11 101 12
REMARK SMILES IDX 40 13 41 14 42 15 95 16 43 17 100 18 94 19 96 20 44 21 99 22
REMARK SMILES IDX 93 23 92 24 45 26 79 27 58 28 78 29 59 30 62 31 77 32 97 33
REMARK SMILES IDX 60 34 61 35 76 37 98 38 63 39 46 40 47 41 56 42 48 43 49 44
REMARK SMILES IDX 55 45 57 46 50 47 51 48 52 49 53 50 54 51 80 52 81 53 90 54
REMARK SMILES IDX 82 55 83 56 89 57 91 58 84 59 85 60 86 61 87 62 88 63 64 64
REMARK SMILES IDX 65 65 74 66 66 67 67 68 73 69 75 70 68 71 69 72 70 73 71 74
REMARK SMILES IDX 72 75 8 76 9 77 10 78 11 79 12 80 13 81 14 82 15 83 16 84
REMARK SMILES IDX 30 85 17 86 18 87 31 88 32 89 36 90 33 91 35 92 34 93 19 94
REMARK SMILES IDX 20 95 29 96 21 97 23 98 22 99 24 100 25 101 26 102 27 103
REMARK SMILES IDX 28 104
REMARK H PARENT 96 25 62 36
REMARK Flexibility Score: inf
ROOT
ATOM      1  C   UNL A   1      47.066  26.168  30.612  1.00  0.00     0.188 C 
ENDROOT
BRANCH   1   2
ATOM      2  O   UNL A   1      46.025  25.365  31.128  1.00  0.00    -0.376 OA
BRANCH   2   3
ATOM      3  C   UNL A   1      45.333  25.755  32.295  1.00  0.00     0.202 C 
BRANCH   3   4
ATOM      4  C   UNL A   1      45.269  24.819  33.508  1.00  0.00     0.261 C 
BRANCH   4   5
ATOM      5  O   UNL A   1      44.568  25.305  34.655  1.00  0.00    -0.460 OA
BRANCH   5   6
ATOM      6  C   UNL A   1      43.256  25.305  34.959  1.00  0.00     0.338 C 
ATOM      7  O   UNL A   1      42.719  24.234  35.233  1.00  0.00    -0.246 OA
BRANCH   6   8
ATOM      8  C   UNL A   1      42.378  26.498  34.825  1.00  0.00     0.060 A 
ATOM      9  C   UNL A   1      41.743  26.919  33.658  1.00  0.00     0.016 A 
ATOM     10  C   UNL A   1      42.259  27.280  35.992  1.00  0.00     0.016 A 
ATOM     11  C   UNL A   1      41.218  28.197  33.591  1.00  0.00     0.010 A 
ATOM     12  C   UNL A   1      41.710  28.544  35.939  1.00  0.00     0.010 A 
ATOM     13  C   UNL A   1      41.307  29.030  34.706  1.00  0.00    -0.014 A 
BRANCH  13  14
ATOM     14  C   UNL A   1      41.007  30.436  34.515  1.00  0.00     0.031 A 
ATOM     15  C   UNL A   1      42.205  31.300  34.370  1.00  0.00     0.074 A 
ATOM     16  C   UNL A   1      39.729  30.864  34.463  1.00  0.00     0.049 A 
ATOM     17  N   UNL A   1      42.637  32.208  35.183  1.00  0.00    -0.248 NA
ATOM     18  C   UNL A   1      43.141  30.983  33.279  1.00  0.00     0.031 C 
ATOM     19  C   UNL A   1      38.504  30.057  34.387  1.00  0.00     0.029 A 
ATOM     20  N   UNL A   1      39.253  32.133  34.375  1.00  0.00    -0.354 N 
ATOM     21  C   UNL A   1      43.766  32.750  34.575  1.00  0.00     0.074 A 
ATOM     22  C   UNL A   1      44.134  31.837  33.527  1.00  0.00     0.031 C 
ATOM     23  C   UNL A   1      37.469  30.843  34.015  1.00  0.00     0.029 A 
ATOM     24  C   UNL A   1      37.922  32.220  33.974  1.00  0.00     0.049 A 
ATOM     25  H   UNL A   1      39.803  32.924  34.577  1.00  0.00     0.167 HD
ATOM     26  C   UNL A   1      44.146  34.036  34.815  1.00  0.00     0.037 A 
ATOM     27  C   UNL A   1      37.291  33.347  33.553  1.00  0.00     0.037 A 
ATOM     28  C   UNL A   1      43.584  34.517  36.052  1.00  0.00     0.049 A 
ATOM     29  C   UNL A   1      38.074  34.496  34.090  1.00  0.00     0.074 A 
ATOM     30  C   UNL A   1      43.683  34.126  37.375  1.00  0.00     0.029 A 
ATOM     31  N   UNL A   1      42.476  35.328  35.987  1.00  0.00    -0.354 N 
ATOM     32  N   UNL A   1      38.182  34.757  35.367  1.00  0.00    -0.248 NA
ATOM     33  C   UNL A   1      39.138  35.033  33.254  1.00  0.00     0.031 C 
ATOM     34  C   UNL A   1      42.376  34.309  37.912  1.00  0.00     0.029 A 
ATOM     35  C   UNL A   1      41.577  34.870  36.914  1.00  0.00     0.049 A 
ATOM     36  H   UNL A   1      42.352  36.096  35.383  1.00  0.00     0.167 HD
ATOM     37  C   UNL A   1      39.510  35.120  35.549  1.00  0.00     0.074 A 
ATOM     38  C   UNL A   1      40.035  35.324  34.199  1.00  0.00     0.031 C 
ATOM     39  C   UNL A   1      40.141  34.941  36.748  1.00  0.00     0.037 A 
BRANCH  26  40
ATOM     40  C   UNL A   1      44.675  34.971  33.747  1.00  0.00     0.058 A 
ATOM     41  C   UNL A   1      45.880  35.666  33.981  1.00  0.00     0.135 A 
ATOM     42  C   UNL A   1      43.910  35.441  32.655  1.00  0.00     0.135 A 
ATOM     43  F   UNL A   1      46.699  35.300  34.980  1.00  0.00    -0.206 F 
ATOM     44  C   UNL A   1      46.238  36.806  33.259  1.00  0.00     0.059 A 
ATOM     45  C   UNL A   1      44.274  36.544  31.893  1.00  0.00     0.059 A 
ATOM     46  F   UNL A   1      42.726  34.919  32.320  1.00  0.00    -0.206 F 
ATOM     47  C   UNL A   1      45.413  37.250  32.232  1.00  0.00     0.060 A 
BRANCH  47  48
ATOM     48  S   UNL A   1      45.801  38.788  31.382  1.00  0.00     0.124 S 
ATOM     49  O   UNL A   1      45.383  38.480  30.021  1.00  0.00    -0.237 OA
ATOM     50  O   UNL A   1      44.974  39.747  32.107  1.00  0.00    -0.237 OA
ATOM     51  O   UNL A   1      47.240  38.930  31.587  1.00  0.00    -0.744 OA
ENDBRANCH  47  48
ENDBRANCH  26  40
BRANCH  27  52
ATOM     52  C   UNL A   1      36.370  33.458  32.386  1.00  0.00     0.058 A 
ATOM     53  C   UNL A   1      35.062  33.957  32.525  1.00  0.00     0.135 A 
ATOM     54  C   UNL A   1      36.842  33.325  31.064  1.00  0.00     0.135 A 
ATOM     55  F   UNL A   1      34.539  34.142  33.746  1.00  0.00    -0.206 F 
ATOM     56  C   UNL A   1      34.284  34.335  31.419  1.00  0.00     0.059 A 
ATOM     57  C   UNL A   1      36.084  33.685  29.950  1.00  0.00     0.059 A 
ATOM     58  F   UNL A   1      38.096  32.924  30.812  1.00  0.00    -0.206 F 
ATOM     59  C   UNL A   1      34.813  34.210  30.135  1.00  0.00     0.060 A 
BRANCH  59  60
ATOM     60  S   UNL A   1      33.883  34.840  28.716  1.00  0.00     0.124 S 
ATOM     61  O   UNL A   1      32.529  34.393  29.020  1.00  0.00    -0.237 OA
ATOM     62  O   UNL A   1      34.116  36.277  28.806  1.00  0.00    -0.237 OA
ATOM     63  O   UNL A   1      34.515  34.181  27.575  1.00  0.00    -0.744 OA
ENDBRANCH  59  60
ENDBRANCH  27  52
BRANCH  39  64
ATOM     64  C   UNL A   1      39.312  34.572  37.952  1.00  0.00     0.058 A 
ATOM     65  C   UNL A   1      38.865  33.270  38.241  1.00  0.00     0.135 A 
ATOM     66  C   UNL A   1      39.131  35.545  38.947  1.00  0.00     0.135 A 
ATOM     67  F   UNL A   1      39.092  32.260  37.389  1.00  0.00    -0.206 F 
ATOM     68  C   UNL A   1      38.245  32.956  39.454  1.00  0.00     0.059 A 
ATOM     69  C   UNL A   1      38.542  35.248  40.173  1.00  0.00     0.059 A 
ATOM     70  F   UNL A   1      39.594  36.792  38.758  1.00  0.00    -0.206 F 
ATOM     71  C   UNL A   1      38.093  33.953  40.418  1.00  0.00     0.060 A 
BRANCH  71  72
ATOM     72  S   UNL A   1      37.382  33.531  42.024  1.00  0.00     0.124 S 
ATOM     73  O   UNL A   1      36.259  32.678  41.649  1.00  0.00    -0.237 OA
ATOM     74  O   UNL A   1      38.492  32.859  42.696  1.00  0.00    -0.237 OA
ATOM     75  O   UNL A   1      37.019  34.828  42.589  1.00  0.00    -0.744 OA
ENDBRANCH  71  72
ENDBRANCH  39  64
ENDBRANCH  13  14
ENDBRANCH   6   8
ENDBRANCH   5   6
ENDBRANCH   4   5
ENDBRANCH   3   4
ENDBRANCH   2   3
ENDBRANCH   1   2
BRANCH   1  76
ATOM     76  C   UNL A   1      47.675  25.647  29.283  1.00  0.00     0.188 C 
BRANCH  76  77
ATOM     77  O   UNL A   1      47.154  25.996  27.997  1.00  0.00    -0.376 OA
BRANCH  77  78
ATOM     78  C   UNL A   1      45.778  26.277  27.828  1.00  0.00     0.202 C 
BRANCH  78  79
ATOM     79  C   UNL A   1      45.344  26.375  26.363  1.00  0.00     0.261 C 
BRANCH  79  80
ATOM     80  O   UNL A   1      44.007  25.927  26.111  1.00  0.00    -0.458 OA
BRANCH  80  81
ATOM     81  C   UNL A   1      43.090  26.884  25.786  1.00  0.00     0.361 C 
ATOM     82  O   UNL A   1      43.281  27.822  25.018  1.00  0.00    -0.244 OA
BRANCH  81  83
ATOM     83  C   UNL A   1      41.880  26.739  26.570  1.00  0.00     0.198 A 
ATOM     84  N   UNL A   1      40.855  25.860  26.325  1.00  0.00    -0.122 NA
ATOM     85  C   UNL A   1      41.629  27.419  27.742  1.00  0.00     0.109 A 
ATOM     86  N   UNL A   1      39.972  25.968  27.316  1.00  0.00    -0.061 NA
ATOM     87  N   UNL A   1      40.351  27.014  28.084  1.00  0.00    -0.212 N 
BRANCH  85  88
ATOM     88  C   UNL A   1      42.489  28.339  28.473  1.00  0.00     0.006 A 
ATOM     89  C   UNL A   1      43.158  27.902  29.617  1.00  0.00     0.030 A 
ATOM     90  C   UNL A   1      42.571  29.681  28.105  1.00  0.00     0.030 A 
ATOM     91  C   UNL A   1      43.868  28.828  30.355  1.00  0.00     0.111 A 
ATOM     92  C   UNL A   1      43.310  30.530  28.911  1.00  0.00     0.111 A 
ATOM     93  N   UNL A   1      43.957  30.135  30.028  1.00  0.00    -0.265 NA
ENDBRANCH  85  88
BRANCH  87  94
ATOM     94  C   UNL A   1      39.450  27.707  28.916  1.00  0.00     0.071 A 
ATOM     95  C   UNL A   1      39.314  27.398  30.265  1.00  0.00     0.029 A 
ATOM     96  C   UNL A   1      38.713  28.748  28.333  1.00  0.00     0.075 A 
ATOM     97  C   UNL A   1      38.503  28.221  31.051  1.00  0.00     0.006 A 
ATOM     98  C   UNL A   1      37.880  29.546  29.105  1.00  0.00     0.131 A 
ATOM     99  C   UNL A   1      37.802  29.293  30.476  1.00  0.00     0.047 A 
BRANCH  98 100
ATOM    100  O   UNL A   1      37.123  30.581  28.635  1.00  0.00    -0.406 OA
BRANCH 100 101
ATOM    101  C   UNL A   1      35.804  30.275  28.199  1.00  0.00     0.573 C 
ATOM    102  F   UNL A   1      35.660  30.499  26.874  1.00  0.00    -0.132 F 
ATOM    103  F   UNL A   1      35.483  28.991  28.469  1.00  0.00    -0.132 F 
ATOM    104  F   UNL A   1      34.928  31.072  28.850  1.00  0.00    -0.132 F 
ENDBRANCH 100 101
ENDBRANCH  98 100
ENDBRANCH  87  94
ENDBRANCH  81  83
ENDBRANCH  80  81
ENDBRANCH  79  80
ENDBRANCH  78  79
ENDBRANCH  77  78
ENDBRANCH  76  77
ENDBRANCH   1  76
TORSDOF 24
ENDMDL
MODEL 2
REMARK VINA RESULT:      -7.6      3.974      9.345
REMARK SMILES O=C(OCCOCCOCCOC(=O)c1nnn(-c2cccc(OC(F)(F)F)c2)c1-c1ccncc1)c1ccc(-c2c3nc(c(-c4c(F)cc(S(=O)(=O)[O-])cc4F)c4ccc([nH]4)c(-c4c(F)cc(S(=O)(=O)[O-])cc4F)c4nc(c(-c5c(F)cc(S(=O)(=O)[O-])cc5F)c5ccc2[nH]5)C=C4)C=C3)cc1
REMARK SMILES IDX 7 1 6 2 5 3 4 4 3 5 2 6 1 7 37 8 38 9 102 10 39 11 101 12
REMARK SMILES IDX 40 13 41 14 42 15 95 16 43 17 100 18 94 19 96 20 44 21 99 22
REMARK SMILES IDX 93 23 92 24 45 26 79 27 58 28 78 29 59 30 62 31 77 32 97 33
REMARK SMILES IDX 60 34 61 35 76 37 98 38 63 39 46 40 47 41 56 42 48 43 49 44
REMARK SMILES IDX 55 45 57 46 50 47 51 48 52 49 53 50 54 51 80 52 81 53 90 54
REMARK SMILES IDX 82 55 83 56 89 57 91 58 84 59 85 60 86 61 87 62 88 63 64 64
REMARK SMILES IDX 65 65 74 66 66 67 67 68 73 69 75 70 68 71 69 72 70 73 71 74
REMARK SMILES IDX 72 75 8 76 9 77 10 78 11 79 12 80 13 81 14 82 15 83 16 84
REMARK SMILES IDX 30 85 17 86 18 87 31 88 32 89 36 90 33 91 35 92 34 93 19 94
REMARK SMILES IDX 20 95 29 96 21 97 23 98 22 99 24 100 25 101 26 102 27 103
REMARK SMILES IDX 28 104
REMARK H PARENT 96 25 62 36
REMARK Flexibility Score: inf
ROOT
ATOM      1  C   UNL A   1      50.499  34.929  28.910  1.00  0.00     0.188 C 
ENDROOT
BRANCH   1   2
ATOM      2  O   UNL A   1      49.431  35.672  28.361  1.00  0.00    -0.376 OA
BRANCH   2   3
ATOM      3  C   UNL A   1      49.458  36.069  27.006  1.00  0.00     0.202 C 
BRANCH   3   4
ATOM      4  C   UNL A   1      48.349  36.964  26.439  1.00  0.00     0.261 C 
BRANCH   4   5
ATOM      5  O   UNL A   1      47.184  36.302  25.943  1.00  0.00    -0.460 OA
BRANCH   5   6
ATOM      6  C   UNL A   1      46.688  35.074  26.189  1.00  0.00     0.338 C 
ATOM      7  O   UNL A   1      46.922  34.176  25.383  1.00  0.00    -0.246 OA
BRANCH   6   8
ATOM      8  C   UNL A   1      45.738  34.773  27.293  1.00  0.00     0.060 A 
ATOM      9  C   UNL A   1      46.007  34.888  28.657  1.00  0.00     0.016 A 
ATOM     10  C   UNL A   1      44.490  34.264  26.879  1.00  0.00     0.016 A 
ATOM     11  C   UNL A   1      45.160  34.287  29.570  1.00  0.00     0.010 A 
ATOM     12  C   UNL A   1      43.627  33.690  27.789  1.00  0.00     0.010 A 
ATOM     13  C   UNL A   1      44.035  33.603  29.110  1.00  0.00    -0.014 A 
BRANCH  13  14
ATOM     14  C   UNL A   1      43.334  32.756  30.057  1.00  0.00     0.031 A 
ATOM     15  C   UNL A   1      43.774  31.338  30.048  1.00  0.00     0.074 A 
ATOM     16  C   UNL A   1      42.385  33.271  30.865  1.00  0.00     0.049 A 
ATOM     17  N   UNL A   1      43.106  30.298  29.671  1.00  0.00    -0.248 NA
ATOM     18  C   UNL A   1      45.197  31.069  30.313  1.00  0.00     0.031 C 
ATOM     19  C   UNL A   1      42.044  34.683  31.081  1.00  0.00     0.029 A 
ATOM     20  N   UNL A   1      41.572  32.632  31.746  1.00  0.00    -0.354 N 
ATOM     21  C   UNL A   1      43.947  29.211  29.893  1.00  0.00     0.074 A 
ATOM     22  C   UNL A   1      45.263  29.756  30.092  1.00  0.00     0.031 C 
ATOM     23  C   UNL A   1      41.288  34.799  32.195  1.00  0.00     0.029 A 
ATOM     24  C   UNL A   1      40.969  33.471  32.681  1.00  0.00     0.049 A 
ATOM     25  H   UNL A   1      41.422  31.660  31.726  1.00  0.00     0.167 HD
ATOM     26  C   UNL A   1      43.443  27.972  30.154  1.00  0.00     0.037 A 
ATOM     27  C   UNL A   1      40.339  33.071  33.816  1.00  0.00     0.037 A 
ATOM     28  C   UNL A   1      42.083  27.861  29.689  1.00  0.00     0.049 A 
ATOM     29  C   UNL A   1      39.955  31.646  33.609  1.00  0.00     0.074 A 
ATOM     30  C   UNL A   1      41.471  27.968  28.455  1.00  0.00     0.029 A 
ATOM     31  N   UNL A   1      41.074  27.977  30.615  1.00  0.00    -0.354 N 
ATOM     32  N   UNL A   1      39.082  31.261  32.714  1.00  0.00    -0.248 NA
ATOM     33  C   UNL A   1      40.905  30.627  34.030  1.00  0.00     0.031 C 
ATOM     34  C   UNL A   1      40.237  28.632  28.711  1.00  0.00     0.029 A 
ATOM     35  C   UNL A   1      40.130  28.822  30.090  1.00  0.00     0.049 A 
ATOM     36  H   UNL A   1      41.037  27.535  31.495  1.00  0.00     0.167 HD
ATOM     37  C   UNL A   1      39.619  30.106  32.161  1.00  0.00     0.074 A 
ATOM     38  C   UNL A   1      40.718  29.735  33.052  1.00  0.00     0.031 C 
ATOM     39  C   UNL A   1      39.319  29.719  30.884  1.00  0.00     0.037 A 
BRANCH  26  40
ATOM     40  C   UNL A   1      44.032  27.023  31.176  1.00  0.00     0.058 A 
ATOM     41  C   UNL A   1      44.293  25.688  30.801  1.00  0.00     0.135 A 
ATOM     42  C   UNL A   1      44.063  27.275  32.567  1.00  0.00     0.135 A 
ATOM     43  F   UNL A   1      44.308  25.331  29.507  1.00  0.00    -0.206 F 
ATOM     44  C   UNL A   1      44.459  24.666  31.738  1.00  0.00     0.059 A 
ATOM     45  C   UNL A   1      44.275  26.281  33.514  1.00  0.00     0.059 A 
ATOM     46  F   UNL A   1      43.800  28.476  33.093  1.00  0.00    -0.206 F 
ATOM     47  C   UNL A   1      44.424  24.972  33.094  1.00  0.00     0.060 A 
BRANCH  47  48
ATOM     48  S   UNL A   1      44.509  23.645  34.306  1.00  0.00     0.124 S 
ATOM     49  O   UNL A   1      45.142  22.585  33.531  1.00  0.00    -0.237 OA
ATOM     50  O   UNL A   1      45.324  24.250  35.355  1.00  0.00    -0.237 OA
ATOM     51  O   UNL A   1      43.109  23.424  34.659  1.00  0.00    -0.744 OA
ENDBRANCH  47  48
ENDBRANCH  26  40
BRANCH  27  52
ATOM     52  C   UNL A   1      40.469  33.696  35.163  1.00  0.00     0.058 A 
ATOM     53  C   UNL A   1      41.688  33.689  35.865  1.00  0.00     0.135 A 
ATOM     54  C   UNL A   1      39.468  34.546  35.677  1.00  0.00     0.135 A 
ATOM     55  F   UNL A   1      42.708  32.932  35.434  1.00  0.00    -0.206 F 
ATOM     56  C   UNL A   1      41.912  34.504  36.986  1.00  0.00     0.059 A 
ATOM     57  C   UNL A   1      39.663  35.357  36.795  1.00  0.00     0.059 A 
ATOM     58  F   UNL A   1      38.289  34.686  35.053  1.00  0.00    -0.206 F 
ATOM     59  C   UNL A   1      40.895  35.348  37.432  1.00  0.00     0.060 A 
BRANCH  59  60
ATOM     60  S   UNL A   1      41.223  36.515  38.776  1.00  0.00     0.124 S 
ATOM     61  O   UNL A   1      39.953  37.226  38.875  1.00  0.00    -0.237 OA
ATOM     62  O   UNL A   1      41.545  35.626  39.887  1.00  0.00    -0.237 OA
ATOM     63  O   UNL A   1      42.342  37.308  38.272  1.00  0.00    -0.744 OA
ENDBRANCH  59  60
ENDBRANCH  27  52
BRANCH  39  64
ATOM     64  C   UNL A   1      38.201  30.425  30.160  1.00  0.00     0.058 A 
ATOM     65  C   UNL A   1      36.859  30.003  30.167  1.00  0.00     0.135 A 
ATOM     66  C   UNL A   1      38.472  31.683  29.602  1.00  0.00     0.135 A 
ATOM     67  F   UNL A   1      36.500  28.863  30.774  1.00  0.00    -0.206 F 
ATOM     68  C   UNL A   1      35.838  30.785  29.620  1.00  0.00     0.059 A 
ATOM     69  C   UNL A   1      37.467  32.491  29.077  1.00  0.00     0.059 A 
ATOM     70  F   UNL A   1      39.723  32.171  29.623  1.00  0.00    -0.206 F 
ATOM     71  C   UNL A   1      36.152  32.033  29.082  1.00  0.00     0.060 A 
BRANCH  71  72
ATOM     72  S   UNL A   1      34.825  33.091  28.463  1.00  0.00     0.124 S 
ATOM     73  O   UNL A   1      35.503  33.864  27.429  1.00  0.00    -0.237 OA
ATOM     74  O   UNL A   1      33.841  32.120  27.987  1.00  0.00    -0.237 OA
ATOM     75  O   UNL A   1      34.414  33.850  29.641  1.00  0.00    -0.744 OA
ENDBRANCH  71  72
ENDBRANCH  39  64
ENDBRANCH  13  14
ENDBRANCH   6   8
ENDBRANCH   5   6
ENDBRANCH   4   5
ENDBRANCH   3   4
ENDBRANCH   2   3
ENDBRANCH   1   2
BRANCH   1  76
ATOM     76  C   UNL A   1      50.066  33.627  29.635  1.00  0.00     0.188 C 
BRANCH  76  77
ATOM     77  O   UNL A   1      48.757  33.062  29.508  1.00  0.00    -0.376 OA
BRANCH  77  78
ATOM     78  C   UNL A   1      48.585  31.738  29.041  1.00  0.00     0.202 C 
BRANCH  78  79
ATOM     79  C   UNL A   1      47.888  31.650  27.680  1.00  0.00     0.261 C 
BRANCH  79  80
ATOM     80  O   UNL A   1      47.333  30.364  27.383  1.00  0.00    -0.458 OA
BRANCH  80  81
ATOM     81  C   UNL A   1      48.079  29.541  26.591  1.00  0.00     0.361 C 
ATOM     82  O   UNL A   1      49.299  29.584  26.468  1.00  0.00    -0.244 OA
BRANCH  81  83
ATOM     83  C   UNL A   1      47.235  28.676  25.791  1.00  0.00     0.198 A 
ATOM     84  N   UNL A   1      46.604  29.015  24.621  1.00  0.00    -0.122 NA
ATOM     85  C   UNL A   1      47.016  27.342  26.060  1.00  0.00     0.109 A 
ATOM     86  N   UNL A   1      46.001  27.926  24.147  1.00  0.00    -0.061 NA
ATOM     87  N   UNL A   1      46.110  26.961  25.087  1.00  0.00    -0.212 N 
BRANCH  85  88
ATOM     88  C   UNL A   1      47.594  26.508  27.104  1.00  0.00     0.006 A 
ATOM     89  C   UNL A   1      47.078  26.562  28.399  1.00  0.00     0.030 A 
ATOM     90  C   UNL A   1      48.726  25.734  26.851  1.00  0.00     0.030 A 
ATOM     91  C   UNL A   1      47.723  25.852  29.391  1.00  0.00     0.111 A 
ATOM     92  C   UNL A   1      49.299  25.058  27.915  1.00  0.00     0.111 A 
ATOM     93  N   UNL A   1      48.825  25.101  29.178  1.00  0.00    -0.265 NA
ENDBRANCH  85  88
BRANCH  87  94
ATOM     94  C   UNL A   1      45.228  25.864  25.151  1.00  0.00     0.071 A 
ATOM     95  C   UNL A   1      45.677  24.554  25.022  1.00  0.00     0.029 A 
ATOM     96  C   UNL A   1      43.873  26.146  25.381  1.00  0.00     0.075 A 
ATOM     97  C   UNL A   1      44.763  23.520  25.235  1.00  0.00     0.006 A 
ATOM     98  C   UNL A   1      42.956  25.120  25.559  1.00  0.00     0.131 A 
ATOM     99  C   UNL A   1      43.416  23.803  25.513  1.00  0.00     0.047 A 
BRANCH  98 100
ATOM    100  O   UNL A   1      41.620  25.289  25.789  1.00  0.00    -0.406 OA
BRANCH 100 101
ATOM    101  C   UNL A   1      41.085  24.699  26.968  1.00  0.00     0.573 C 
ATOM    102  F   UNL A   1      41.972  24.745  27.987  1.00  0.00    -0.132 F 
ATOM    103  F   UNL A   1      39.941  25.309  27.347  1.00  0.00    -0.132 F 
ATOM    104  F   UNL A   1      40.805  23.400  26.724  1.00  0.00    -0.132 F 
ENDBRANCH 100 101
ENDBRANCH  98 100
ENDBRANCH  87  94
ENDBRANCH  81  83
ENDBRANCH  80  81
ENDBRANCH  79  80
ENDBRANCH  78  79
ENDBRANCH  77  78
ENDBRANCH  76  77
ENDBRANCH   1  76
TORSDOF 24
ENDMDL
MODEL 3
REMARK VINA RESULT:      -7.4      5.360     12.360
REMARK SMILES O=C(OCCOCCOCCOC(=O)c1nnn(-c2cccc(OC(F)(F)F)c2)c1-c1ccncc1)c1ccc(-c2c3nc(c(-c4c(F)cc(S(=O)(=O)[O-])cc4F)c4ccc([nH]4)c(-c4c(F)cc(S(=O)(=O)[O-])cc4F)c4nc(c(-c5c(F)cc(S(=O)(=O)[O-])cc5F)c5ccc2[nH]5)C=C4)C=C3)cc1
REMARK SMILES IDX 7 1 6 2 5 3 4 4 3 5 2 6 1 7 37 8 38 9 102 10 39 11 101 12
REMARK SMILES IDX 40 13 41 14 42 15 95 16 43 17 100 18 94 19 96 20 44 21 99 22
REMARK SMILES IDX 93 23 92 24 45 26 79 27 58 28 78 29 59 30 62 31 77 32 97 33
REMARK SMILES IDX 60 34 61 35 76 37 98 38 63 39 46 40 47 41 56 42 48 43 49 44
REMARK SMILES IDX 55 45 57 46 50 47 51 48 52 49 53 50 54 51 80 52 81 53 90 54
REMARK SMILES IDX 82 55 83 56 89 57 91 58 84 59 85 60 86 61 87 62 88 63 64 64
REMARK SMILES IDX 65 65 74 66 66 67 67 68 73 69 75 70 68 71 69 72 70 73 71 74
REMARK SMILES IDX 72 75 8 76 9 77 10 78 11 79 12 80 13 81 14 82 15 83 16 84
REMARK SMILES IDX 30 85 17 86 18 87 31 88 32 89 36 90 33 91 35 92 34 93 19 94
REMARK SMILES IDX 20 95 29 96 21 97 23 98 22 99 24 100 25 101 26 102 27 103
REMARK SMILES IDX 28 104
REMARK H PARENT 96 25 62 36
REMARK Flexibility Score: inf
ROOT
ATOM      1  C   UNL A   1      47.632  23.786  36.127  1.00  0.00     0.188 C 
ENDROOT
BRANCH   1   2
ATOM      2  O   UNL A   1      48.216  22.591  36.603  1.00  0.00    -0.376 OA
BRANCH   2   3
ATOM      3  C   UNL A   1      49.294  21.997  35.911  1.00  0.00     0.202 C 
BRANCH   3   4
ATOM      4  C   UNL A   1      50.667  22.680  35.881  1.00  0.00     0.261 C 
BRANCH   4   5
ATOM      5  O   UNL A   1      50.909  23.581  34.798  1.00  0.00    -0.460 OA
BRANCH   5   6
ATOM      6  C   UNL A   1      50.745  23.435  33.469  1.00  0.00     0.338 C 
ATOM      7  O   UNL A   1      51.260  22.463  32.918  1.00  0.00    -0.246 OA
BRANCH   6   8
ATOM      8  C   UNL A   1      50.115  24.461  32.597  1.00  0.00     0.060 A 
ATOM      9  C   UNL A   1      48.820  24.962  32.727  1.00  0.00     0.016 A 
ATOM     10  C   UNL A   1      50.911  24.888  31.514  1.00  0.00     0.016 A 
ATOM     11  C   UNL A   1      48.255  25.668  31.681  1.00  0.00     0.010 A 
ATOM     12  C   UNL A   1      50.361  25.619  30.481  1.00  0.00     0.010 A 
ATOM     13  C   UNL A   1      49.003  25.894  30.526  1.00  0.00    -0.014 A 
BRANCH  13  14
ATOM     14  C   UNL A   1      48.298  26.382  29.357  1.00  0.00     0.031 A 
ATOM     15  C   UNL A   1      47.225  27.361  29.658  1.00  0.00     0.074 A 
ATOM     16  C   UNL A   1      48.642  25.959  28.123  1.00  0.00     0.049 A 
ATOM     17  N   UNL A   1      45.948  27.215  29.518  1.00  0.00    -0.248 NA
ATOM     18  C   UNL A   1      47.608  28.585  30.379  1.00  0.00     0.031 C 
ATOM     19  C   UNL A   1      49.813  25.164  27.729  1.00  0.00     0.029 A 
ATOM     20  N   UNL A   1      48.055  26.233  26.929  1.00  0.00    -0.354 N 
ATOM     21  C   UNL A   1      45.386  28.429  29.901  1.00  0.00     0.074 A 
ATOM     22  C   UNL A   1      46.419  29.146  30.599  1.00  0.00     0.031 C 
ATOM     23  C   UNL A   1      49.978  25.239  26.390  1.00  0.00     0.029 A 
ATOM     24  C   UNL A   1      48.852  25.954  25.821  1.00  0.00     0.049 A 
ATOM     25  H   UNL A   1      47.144  26.598  26.853  1.00  0.00     0.167 HD
ATOM     26  C   UNL A   1      44.198  28.850  29.384  1.00  0.00     0.037 A 
ATOM     27  C   UNL A   1      48.622  26.376  24.551  1.00  0.00     0.037 A 
ATOM     28  C   UNL A   1      43.444  27.740  28.857  1.00  0.00     0.049 A 
ATOM     29  C   UNL A   1      47.170  26.702  24.469  1.00  0.00     0.074 A 
ATOM     30  C   UNL A   1      42.920  26.583  29.400  1.00  0.00     0.029 A 
ATOM     31  N   UNL A   1      43.455  27.541  27.497  1.00  0.00    -0.354 N 
ATOM     32  N   UNL A   1      46.225  25.804  24.587  1.00  0.00    -0.248 NA
ATOM     33  C   UNL A   1      46.770  28.069  24.770  1.00  0.00     0.031 C 
ATOM     34  C   UNL A   1      43.115  25.585  28.401  1.00  0.00     0.029 A 
ATOM     35  C   UNL A   1      43.672  26.204  27.280  1.00  0.00     0.049 A 
ATOM     36  H   UNL A   1      43.331  28.231  26.806  1.00  0.00     0.167 HD
ATOM     37  C   UNL A   1      45.247  26.413  25.364  1.00  0.00     0.074 A 
ATOM     38  C   UNL A   1      45.617  27.827  25.400  1.00  0.00     0.031 C 
ATOM     39  C   UNL A   1      44.397  25.679  26.144  1.00  0.00     0.037 A 
BRANCH  26  40
ATOM     40  C   UNL A   1      43.911  30.285  28.992  1.00  0.00     0.058 A 
ATOM     41  C   UNL A   1      44.669  30.877  27.960  1.00  0.00     0.135 A 
ATOM     42  C   UNL A   1      43.152  31.184  29.776  1.00  0.00     0.135 A 
ATOM     43  F   UNL A   1      45.415  30.123  27.138  1.00  0.00    -0.206 F 
ATOM     44  C   UNL A   1      44.753  32.261  27.794  1.00  0.00     0.059 A 
ATOM     45  C   UNL A   1      43.184  32.561  29.595  1.00  0.00     0.059 A 
ATOM     46  F   UNL A   1      42.410  30.793  30.816  1.00  0.00    -0.206 F 
ATOM     47  C   UNL A   1      44.024  33.095  28.635  1.00  0.00     0.060 A 
BRANCH  47  48
ATOM     48  S   UNL A   1      44.226  34.878  28.511  1.00  0.00     0.124 S 
ATOM     49  O   UNL A   1      44.599  35.223  29.877  1.00  0.00    -0.237 OA
ATOM     50  O   UNL A   1      45.281  34.991  27.508  1.00  0.00    -0.237 OA
ATOM     51  O   UNL A   1      42.908  35.335  28.079  1.00  0.00    -0.744 OA
ENDBRANCH  47  48
ENDBRANCH  26  40
BRANCH  27  52
ATOM     52  C   UNL A   1      49.638  26.921  23.605  1.00  0.00     0.058 A 
ATOM     53  C   UNL A   1      49.557  26.687  22.221  1.00  0.00     0.135 A 
ATOM     54  C   UNL A   1      50.562  27.907  24.011  1.00  0.00     0.135 A 
ATOM     55  F   UNL A   1      48.686  25.788  21.740  1.00  0.00    -0.206 F 
ATOM     56  C   UNL A   1      50.321  27.412  21.294  1.00  0.00     0.059 A 
ATOM     57  C   UNL A   1      51.339  28.633  23.109  1.00  0.00     0.059 A 
ATOM     58  F   UNL A   1      50.677  28.262  25.299  1.00  0.00    -0.206 F 
ATOM     59  C   UNL A   1      51.199  28.397  21.749  1.00  0.00     0.060 A 
BRANCH  59  60
ATOM     60  S   UNL A   1      52.070  29.444  20.557  1.00  0.00     0.124 S 
ATOM     61  O   UNL A   1      53.248  29.850  21.317  1.00  0.00    -0.237 OA
ATOM     62  O   UNL A   1      52.310  28.522  19.453  1.00  0.00    -0.237 OA
ATOM     63  O   UNL A   1      51.112  30.510  20.278  1.00  0.00    -0.744 OA
ENDBRANCH  59  60
ENDBRANCH  27  52
BRANCH  39  64
ATOM     64  C   UNL A   1      44.365  24.182  25.966  1.00  0.00     0.058 A 
ATOM     65  C   UNL A   1      43.369  23.487  25.255  1.00  0.00     0.135 A 
ATOM     66  C   UNL A   1      45.492  23.449  26.368  1.00  0.00     0.135 A 
ATOM     67  F   UNL A   1      42.311  24.133  24.746  1.00  0.00    -0.206 F 
ATOM     68  C   UNL A   1      43.479  22.121  24.980  1.00  0.00     0.059 A 
ATOM     69  C   UNL A   1      45.635  22.095  26.080  1.00  0.00     0.059 A 
ATOM     70  F   UNL A   1      46.507  24.068  26.994  1.00  0.00    -0.206 F 
ATOM     71  C   UNL A   1      44.620  21.434  25.392  1.00  0.00     0.060 A 
BRANCH  71  72
ATOM     72  S   UNL A   1      44.812  19.692  24.953  1.00  0.00     0.124 S 
ATOM     73  O   UNL A   1      44.901  19.749  23.498  1.00  0.00    -0.237 OA
ATOM     74  O   UNL A   1      46.042  19.323  25.650  1.00  0.00    -0.237 OA
ATOM     75  O   UNL A   1      43.600  19.070  25.480  1.00  0.00    -0.744 OA
ENDBRANCH  71  72
ENDBRANCH  39  64
ENDBRANCH  13  14
ENDBRANCH   6   8
ENDBRANCH   5   6
ENDBRANCH   4   5
ENDBRANCH   3   4
ENDBRANCH   2   3
ENDBRANCH   1   2
BRANCH   1  76
ATOM     76  C   UNL A   1      46.308  24.176  36.836  1.00  0.00     0.188 C 
BRANCH  76  77
ATOM     77  O   UNL A   1      45.687  25.455  36.679  1.00  0.00    -0.376 OA
BRANCH  77  78
ATOM     78  C   UNL A   1      46.310  26.472  35.919  1.00  0.00     0.202 C 
BRANCH  78  79
ATOM     79  C   UNL A   1      46.082  27.882  36.471  1.00  0.00     0.261 C 
BRANCH  79  80
ATOM     80  O   UNL A   1      45.219  28.698  35.670  1.00  0.00    -0.458 OA
BRANCH  80  81
ATOM     81  C   UNL A   1      43.989  28.982  36.188  1.00  0.00     0.361 C 
ATOM     82  O   UNL A   1      43.672  28.878  37.369  1.00  0.00    -0.244 OA
BRANCH  81  83
ATOM     83  C   UNL A   1      43.040  29.301  35.140  1.00  0.00     0.198 A 
ATOM     84  N   UNL A   1      42.517  30.540  34.869  1.00  0.00    -0.122 NA
ATOM     85  C   UNL A   1      42.589  28.398  34.202  1.00  0.00     0.109 A 
ATOM     86  N   UNL A   1      41.757  30.438  33.780  1.00  0.00    -0.061 NA
ATOM     87  N   UNL A   1      41.667  29.126  33.470  1.00  0.00    -0.212 N 
BRANCH  85  88
ATOM     88  C   UNL A   1      42.980  27.011  33.999  1.00  0.00     0.006 A 
ATOM     89  C   UNL A   1      42.511  26.025  34.868  1.00  0.00     0.030 A 
ATOM     90  C   UNL A   1      43.900  26.668  33.009  1.00  0.00     0.030 A 
ATOM     91  C   UNL A   1      42.995  24.740  34.723  1.00  0.00     0.111 A 
ATOM     92  C   UNL A   1      44.323  25.351  32.946  1.00  0.00     0.111 A 
ATOM     93  N   UNL A   1      43.893  24.381  33.781  1.00  0.00    -0.265 NA
ENDBRANCH  85  88
BRANCH  87  94
ATOM     94  C   UNL A   1      40.611  28.601  32.700  1.00  0.00     0.071 A 
ATOM     95  C   UNL A   1      39.413  28.194  33.279  1.00  0.00     0.029 A 
ATOM     96  C   UNL A   1      40.805  28.532  31.312  1.00  0.00     0.075 A 
ATOM     97  C   UNL A   1      38.367  27.816  32.434  1.00  0.00     0.006 A 
ATOM     98  C   UNL A   1      39.778  28.124  30.472  1.00  0.00     0.131 A 
ATOM     99  C   UNL A   1      38.546  27.793  31.041  1.00  0.00     0.047 A 
BRANCH  98 100
ATOM    100  O   UNL A   1      39.865  28.024  29.113  1.00  0.00    -0.406 OA
BRANCH 100 101
ATOM    101  C   UNL A   1      39.724  29.226  28.364  1.00  0.00     0.573 C 
ATOM    102  F   UNL A   1      38.577  29.228  27.650  1.00  0.00    -0.132 F 
ATOM    103  F   UNL A   1      39.748  30.311  29.169  1.00  0.00    -0.132 F 
ATOM    104  F   UNL A   1      40.753  29.327  27.494  1.00  0.00    -0.132 F 
ENDBRANCH 100 101
ENDBRANCH  98 100
ENDBRANCH  87  94
ENDBRANCH  81  83
ENDBRANCH  80  81
ENDBRANCH  79  80
ENDBRANCH  78  79
ENDBRANCH  77  78
ENDBRANCH  76  77
ENDBRANCH   1  76
TORSDOF 24
ENDMDL
