MODEL 1
REMARK VINA RESULT:     -10.6      0.000      0.000
REMARK SMILES C[C@@H](C(=O)OCCOCCOCCOC(=O)c1ccc(-c2c3nc(c(-c4c(F)cc(S(=O)(=O)[O-])cc4F)c4ccc([nH]4)c(-c4c(F)cc(S(=O)(=O)[O-])cc4F)c4nc(c(-c5c(F)cc(S(=O)(=O)[O-])cc5F)c5ccc2[nH]5)C=C4)C=C3)cc1)c1ccc(C[C@H]2CCCC2=O)cc1F
REMARK SMILES IDX 9 1 8 2 7 3 6 4 5 5 3 6 4 7 2 8 1 9 83 10 84 11 95 12 85 13
REMARK SMILES IDX 94 14 96 15 86 16 87 17 88 18 89 19 92 20 90 21 91 22 93 23
REMARK SMILES IDX 10 24 11 25 12 26 13 27 14 28 15 29 16 30 17 31 18 32 82 33
REMARK SMILES IDX 19 34 81 35 20 36 21 37 22 38 75 39 23 40 80 41 74 42 76 43
REMARK SMILES IDX 24 44 79 45 73 46 72 47 25 49 59 50 38 51 58 52 39 53 42 54
REMARK SMILES IDX 57 55 77 56 40 57 41 58 56 60 78 61 43 62 26 63 27 64 36 65
REMARK SMILES IDX 28 66 29 67 35 68 37 69 30 70 31 71 32 72 33 73 34 74 60 75
REMARK SMILES IDX 61 76 70 77 62 78 63 79 69 80 71 81 64 82 65 83 66 84 67 85
REMARK SMILES IDX 68 86 44 87 45 88 54 89 46 90 47 91 53 92 55 93 48 94 49 95
REMARK SMILES IDX 50 96 51 97 52 98
REMARK H PARENT 76 48 42 59
REMARK Flexibility Score: inf
ROOT
ATOM      1  C   UNL A   1      38.178  21.454  25.382  1.00  0.00     0.188 C 
ENDROOT
BRANCH   1   2
ATOM      2  O   UNL A   1      36.840  21.925  25.387  1.00  0.00    -0.376 OA
BRANCH   2   3
ATOM      3  C   UNL A   1      36.556  23.169  24.756  1.00  0.00     0.202 C 
BRANCH   3   4
ATOM      4  C   UNL A   1      36.132  23.234  23.278  1.00  0.00     0.261 C 
BRANCH   4   5
ATOM      5  O   UNL A   1      34.857  23.862  23.063  1.00  0.00    -0.463 OA
BRANCH   5   6
ATOM      6  C   UNL A   1      34.255  24.393  24.162  1.00  0.00     0.313 C 
ATOM      7  O   UNL A   1      34.672  25.379  24.760  1.00  0.00    -0.252 OA
BRANCH   6   8
ATOM      8  C   UNL A   1      33.010  23.615  24.596  1.00  0.00     0.129 C 
ATOM      9  C   UNL A   1      32.475  24.096  25.957  1.00  0.00     0.025 C 
BRANCH   8  10
ATOM     10  C   UNL A   1      33.024  22.091  24.415  1.00  0.00     0.002 A 
ATOM     11  C   UNL A   1      33.371  21.262  25.498  1.00  0.00     0.008 A 
ATOM     12  C   UNL A   1      32.530  21.442  23.278  1.00  0.00     0.127 A 
ATOM     13  C   UNL A   1      33.155  19.872  25.469  1.00  0.00     0.004 A 
ATOM     14  C   UNL A   1      32.330  20.051  23.235  1.00  0.00     0.043 A 
ATOM     15  F   UNL A   1      32.190  22.147  22.191  1.00  0.00    -0.207 F 
ATOM     16  C   UNL A   1      32.604  19.243  24.350  1.00  0.00    -0.044 A 
BRANCH  16  17
ATOM     17  C   UNL A   1      32.116  17.801  24.394  1.00  0.00     0.047 C 
BRANCH  17  18
ATOM     18  C   UNL A   1      33.009  16.617  23.987  1.00  0.00     0.060 C 
ATOM     19  C   UNL A   1      34.379  17.012  23.452  1.00  0.00     0.012 C 
ATOM     20  C   UNL A   1      33.377  15.673  25.111  1.00  0.00     0.136 C 
ATOM     21  C   UNL A   1      35.301  16.905  24.646  1.00  0.00     0.009 C 
ATOM     22  C   UNL A   1      34.854  15.671  25.400  1.00  0.00     0.076 C 
ATOM     23  O   UNL A   1      32.569  14.994  25.734  1.00  0.00    -0.299 OA
ENDBRANCH  17  18
ENDBRANCH  16  17
ENDBRANCH   8  10
ENDBRANCH   6   8
ENDBRANCH   5   6
ENDBRANCH   4   5
ENDBRANCH   3   4
ENDBRANCH   2   3
ENDBRANCH   1   2
BRANCH   1  24
ATOM     24  C   UNL A   1      39.216  22.136  26.293  1.00  0.00     0.188 C 
BRANCH  24  25
ATOM     25  O   UNL A   1      40.082  21.320  27.046  1.00  0.00    -0.376 OA
BRANCH  25  26
ATOM     26  C   UNL A   1      41.468  21.286  26.741  1.00  0.00     0.202 C 
BRANCH  26  27
ATOM     27  C   UNL A   1      42.289  22.398  26.047  1.00  0.00     0.261 C 
BRANCH  27  28
ATOM     28  O   UNL A   1      42.748  23.506  26.834  1.00  0.00    -0.460 OA
BRANCH  28  29
ATOM     29  C   UNL A   1      42.554  24.732  26.288  1.00  0.00     0.338 C 
ATOM     30  O   UNL A   1      42.634  25.031  25.102  1.00  0.00    -0.246 OA
BRANCH  29  31
ATOM     31  C   UNL A   1      41.985  25.638  27.304  1.00  0.00     0.060 A 
ATOM     32  C   UNL A   1      42.525  26.918  27.393  1.00  0.00     0.016 A 
ATOM     33  C   UNL A   1      40.982  25.247  28.193  1.00  0.00     0.016 A 
ATOM     34  C   UNL A   1      42.031  27.813  28.336  1.00  0.00     0.010 A 
ATOM     35  C   UNL A   1      40.534  26.144  29.186  1.00  0.00     0.010 A 
ATOM     36  C   UNL A   1      41.061  27.442  29.274  1.00  0.00    -0.014 A 
BRANCH  36  37
ATOM     37  C   UNL A   1      40.777  28.370  30.413  1.00  0.00     0.031 A 
ATOM     38  C   UNL A   1      41.772  28.456  31.549  1.00  0.00     0.074 A 
ATOM     39  C   UNL A   1      39.762  29.259  30.395  1.00  0.00     0.049 A 
ATOM     40  N   UNL A   1      41.755  29.218  32.614  1.00  0.00    -0.248 NA
ATOM     41  C   UNL A   1      42.960  27.596  31.444  1.00  0.00     0.031 C 
ATOM     42  C   UNL A   1      38.822  29.446  29.292  1.00  0.00     0.029 A 
ATOM     43  N   UNL A   1      39.400  30.227  31.309  1.00  0.00    -0.354 N 
ATOM     44  C   UNL A   1      42.897  28.888  33.336  1.00  0.00     0.074 A 
ATOM     45  C   UNL A   1      43.610  27.896  32.558  1.00  0.00     0.031 C 
ATOM     46  C   UNL A   1      38.030  30.500  29.569  1.00  0.00     0.029 A 
ATOM     47  C   UNL A   1      38.364  31.035  30.893  1.00  0.00     0.049 A 
ATOM     48  H   UNL A   1      39.843  30.332  32.183  1.00  0.00     0.167 HD
ATOM     49  C   UNL A   1      43.302  29.336  34.551  1.00  0.00     0.037 A 
ATOM     50  C   UNL A   1      37.761  32.086  31.497  1.00  0.00     0.037 A 
ATOM     51  C   UNL A   1      42.618  30.326  35.343  1.00  0.00     0.049 A 
ATOM     52  C   UNL A   1      38.180  32.511  32.890  1.00  0.00     0.074 A 
ATOM     53  C   UNL A   1      42.937  30.772  36.616  1.00  0.00     0.029 A 
ATOM     54  N   UNL A   1      41.487  31.022  34.954  1.00  0.00    -0.354 N 
ATOM     55  N   UNL A   1      39.211  32.125  33.602  1.00  0.00    -0.248 NA
ATOM     56  C   UNL A   1      37.326  33.501  33.572  1.00  0.00     0.031 C 
ATOM     57  C   UNL A   1      41.962  31.690  37.021  1.00  0.00     0.029 A 
ATOM     58  C   UNL A   1      41.076  31.867  35.974  1.00  0.00     0.049 A 
ATOM     59  H   UNL A   1      41.039  30.930  34.081  1.00  0.00     0.167 HD
ATOM     60  C   UNL A   1      39.127  32.825  34.807  1.00  0.00     0.074 A 
ATOM     61  C   UNL A   1      37.974  33.690  34.714  1.00  0.00     0.031 C 
ATOM     62  C   UNL A   1      39.929  32.739  35.899  1.00  0.00     0.037 A 
BRANCH  49  63
ATOM     63  C   UNL A   1      44.497  28.663  35.167  1.00  0.00     0.058 A 
ATOM     64  C   UNL A   1      44.402  27.477  35.907  1.00  0.00     0.135 A 
ATOM     65  C   UNL A   1      45.774  29.217  34.969  1.00  0.00     0.135 A 
ATOM     66  F   UNL A   1      43.202  26.921  36.143  1.00  0.00    -0.206 F 
ATOM     67  C   UNL A   1      45.532  26.873  36.451  1.00  0.00     0.059 A 
ATOM     68  C   UNL A   1      46.918  28.616  35.478  1.00  0.00     0.059 A 
ATOM     69  F   UNL A   1      45.915  30.353  34.267  1.00  0.00    -0.206 F 
ATOM     70  C   UNL A   1      46.785  27.452  36.232  1.00  0.00     0.060 A 
BRANCH  70  71
ATOM     71  S   UNL A   1      48.241  26.666  36.951  1.00  0.00     0.124 S 
ATOM     72  O   UNL A   1      47.634  25.780  37.939  1.00  0.00    -0.237 OA
ATOM     73  O   UNL A   1      48.843  26.010  35.796  1.00  0.00    -0.237 OA
ATOM     74  O   UNL A   1      48.999  27.789  37.498  1.00  0.00    -0.744 OA
ENDBRANCH  70  71
ENDBRANCH  49  63
BRANCH  50  75
ATOM     75  C   UNL A   1      36.653  32.827  30.819  1.00  0.00     0.058 A 
ATOM     76  C   UNL A   1      36.923  33.787  29.829  1.00  0.00     0.135 A 
ATOM     77  C   UNL A   1      35.312  32.648  31.195  1.00  0.00     0.135 A 
ATOM     78  F   UNL A   1      38.189  34.017  29.445  1.00  0.00    -0.206 F 
ATOM     79  C   UNL A   1      35.913  34.555  29.255  1.00  0.00     0.059 A 
ATOM     80  C   UNL A   1      34.281  33.374  30.607  1.00  0.00     0.059 A 
ATOM     81  F   UNL A   1      34.993  31.753  32.143  1.00  0.00    -0.206 F 
ATOM     82  C   UNL A   1      34.592  34.339  29.652  1.00  0.00     0.060 A 
BRANCH  82  83
ATOM     83  S   UNL A   1      33.278  35.310  28.881  1.00  0.00     0.124 S 
ATOM     84  O   UNL A   1      32.681  34.330  27.980  1.00  0.00    -0.237 OA
ATOM     85  O   UNL A   1      32.468  35.697  30.031  1.00  0.00    -0.237 OA
ATOM     86  O   UNL A   1      34.004  36.400  28.238  1.00  0.00    -0.744 OA
ENDBRANCH  82  83
ENDBRANCH  50  75
BRANCH  62  87
ATOM     87  C   UNL A   1      39.607  33.595  37.103  1.00  0.00     0.058 A 
ATOM     88  C   UNL A   1      38.744  33.148  38.118  1.00  0.00     0.135 A 
ATOM     89  C   UNL A   1      40.229  34.842  37.290  1.00  0.00     0.135 A 
ATOM     90  F   UNL A   1      38.122  31.965  38.002  1.00  0.00    -0.206 F 
ATOM     91  C   UNL A   1      38.492  33.912  39.257  1.00  0.00     0.059 A 
ATOM     92  C   UNL A   1      40.015  35.610  38.434  1.00  0.00     0.059 A 
ATOM     93  F   UNL A   1      41.077  35.320  36.364  1.00  0.00    -0.206 F 
ATOM     94  C   UNL A   1      39.136  35.141  39.409  1.00  0.00     0.060 A 
BRANCH  94  95
ATOM     95  S   UNL A   1      38.831  36.099  40.910  1.00  0.00     0.124 S 
ATOM     96  O   UNL A   1      38.547  37.423  40.364  1.00  0.00    -0.237 OA
ATOM     97  O   UNL A   1      37.694  35.400  41.501  1.00  0.00    -0.237 OA
ATOM     98  O   UNL A   1      40.084  35.983  41.650  1.00  0.00    -0.744 OA
ENDBRANCH  94  95
ENDBRANCH  62  87
ENDBRANCH  36  37
ENDBRANCH  29  31
ENDBRANCH  28  29
ENDBRANCH  27  28
ENDBRANCH  26  27
ENDBRANCH  25  26
ENDBRANCH  24  25
ENDBRANCH   1  24
TORSDOF 23
ENDMDL
MODEL 2
REMARK VINA RESULT:     -10.1      2.635      8.566
REMARK SMILES C[C@@H](C(=O)OCCOCCOCCOC(=O)c1ccc(-c2c3nc(c(-c4c(F)cc(S(=O)(=O)[O-])cc4F)c4ccc([nH]4)c(-c4c(F)cc(S(=O)(=O)[O-])cc4F)c4nc(c(-c5c(F)cc(S(=O)(=O)[O-])cc5F)c5ccc2[nH]5)C=C4)C=C3)cc1)c1ccc(C[C@H]2CCCC2=O)cc1F
REMARK SMILES IDX 9 1 8 2 7 3 6 4 5 5 3 6 4 7 2 8 1 9 83 10 84 11 95 12 85 13
REMARK SMILES IDX 94 14 96 15 86 16 87 17 88 18 89 19 92 20 90 21 91 22 93 23
REMARK SMILES IDX 10 24 11 25 12 26 13 27 14 28 15 29 16 30 17 31 18 32 82 33
REMARK SMILES IDX 19 34 81 35 20 36 21 37 22 38 75 39 23 40 80 41 74 42 76 43
REMARK SMILES IDX 24 44 79 45 73 46 72 47 25 49 59 50 38 51 58 52 39 53 42 54
REMARK SMILES IDX 57 55 77 56 40 57 41 58 56 60 78 61 43 62 26 63 27 64 36 65
REMARK SMILES IDX 28 66 29 67 35 68 37 69 30 70 31 71 32 72 33 73 34 74 60 75
REMARK SMILES IDX 61 76 70 77 62 78 63 79 69 80 71 81 64 82 65 83 66 84 67 85
REMARK SMILES IDX 68 86 44 87 45 88 54 89 46 90 47 91 53 92 55 93 48 94 49 95
REMARK SMILES IDX 50 96 51 97 52 98
REMARK H PARENT 76 48 42 59
REMARK Flexibility Score: inf
ROOT
ATOM      1  C   UNL A   1      31.644  28.735  25.747  1.00  0.00     0.188 C 
ENDROOT
BRANCH   1   2
ATOM      2  O   UNL A   1      31.329  29.723  24.779  1.00  0.00    -0.376 OA
BRANCH   2   3
ATOM      3  C   UNL A   1      30.278  29.459  23.857  1.00  0.00     0.202 C 
BRANCH   3   4
ATOM      4  C   UNL A   1      30.571  29.173  22.374  1.00  0.00     0.261 C 
BRANCH   4   5
ATOM      5  O   UNL A   1      30.543  27.777  22.032  1.00  0.00    -0.463 OA
BRANCH   5   6
ATOM      6  C   UNL A   1      31.596  27.030  22.462  1.00  0.00     0.313 C 
ATOM      7  O   UNL A   1      32.764  27.399  22.406  1.00  0.00    -0.252 OA
BRANCH   6   8
ATOM      8  C   UNL A   1      31.174  25.661  23.003  1.00  0.00     0.129 C 
ATOM      9  C   UNL A   1      30.019  25.772  24.015  1.00  0.00     0.025 C 
BRANCH   8  10
ATOM     10  C   UNL A   1      32.285  24.681  23.404  1.00  0.00     0.002 A 
ATOM     11  C   UNL A   1      32.486  24.368  24.761  1.00  0.00     0.008 A 
ATOM     12  C   UNL A   1      33.012  23.917  22.484  1.00  0.00     0.127 A 
ATOM     13  C   UNL A   1      33.303  23.297  25.164  1.00  0.00     0.004 A 
ATOM     14  C   UNL A   1      33.846  22.857  22.881  1.00  0.00     0.043 A 
ATOM     15  F   UNL A   1      32.899  24.153  21.170  1.00  0.00    -0.207 F 
ATOM     16  C   UNL A   1      33.977  22.503  24.233  1.00  0.00    -0.044 A 
BRANCH  16  17
ATOM     17  C   UNL A   1      34.642  21.191  24.623  1.00  0.00     0.047 C 
BRANCH  17  18
ATOM     18  C   UNL A   1      33.834  19.946  25.027  1.00  0.00     0.060 C 
ATOM     19  C   UNL A   1      32.371  19.977  24.603  1.00  0.00     0.012 C 
ATOM     20  C   UNL A   1      34.305  18.646  24.413  1.00  0.00     0.136 C 
ATOM     21  C   UNL A   1      32.334  19.206  23.302  1.00  0.00     0.009 C 
ATOM     22  C   UNL A   1      33.283  18.043  23.487  1.00  0.00     0.076 C 
ATOM     23  O   UNL A   1      35.401  18.140  24.626  1.00  0.00    -0.299 OA
ENDBRANCH  17  18
ENDBRANCH  16  17
ENDBRANCH   8  10
ENDBRANCH   6   8
ENDBRANCH   5   6
ENDBRANCH   4   5
ENDBRANCH   3   4
ENDBRANCH   2   3
ENDBRANCH   1   2
BRANCH   1  24
ATOM     24  C   UNL A   1      32.841  28.964  26.690  1.00  0.00     0.188 C 
BRANCH  24  25
ATOM     25  O   UNL A   1      33.577  30.157  26.556  1.00  0.00    -0.376 OA
BRANCH  25  26
ATOM     26  C   UNL A   1      33.614  31.092  27.623  1.00  0.00     0.202 C 
BRANCH  26  27
ATOM     27  C   UNL A   1      33.840  32.618  27.506  1.00  0.00     0.261 C 
BRANCH  27  28
ATOM     28  O   UNL A   1      32.870  33.503  28.083  1.00  0.00    -0.460 OA
BRANCH  28  29
ATOM     29  C   UNL A   1      33.374  34.575  28.743  1.00  0.00     0.338 C 
ATOM     30  O   UNL A   1      32.958  35.728  28.702  1.00  0.00    -0.246 OA
BRANCH  29  31
ATOM     31  C   UNL A   1      34.370  34.120  29.732  1.00  0.00     0.060 A 
ATOM     32  C   UNL A   1      35.714  34.304  29.417  1.00  0.00     0.016 A 
ATOM     33  C   UNL A   1      34.020  33.479  30.922  1.00  0.00     0.016 A 
ATOM     34  C   UNL A   1      36.696  33.889  30.310  1.00  0.00     0.010 A 
ATOM     35  C   UNL A   1      35.028  33.008  31.790  1.00  0.00     0.010 A 
ATOM     36  C   UNL A   1      36.385  33.202  31.488  1.00  0.00    -0.014 A 
BRANCH  36  37
ATOM     37  C   UNL A   1      37.498  32.561  32.256  1.00  0.00     0.031 A 
ATOM     38  C   UNL A   1      38.290  31.451  31.604  1.00  0.00     0.074 A 
ATOM     39  C   UNL A   1      37.940  33.041  33.438  1.00  0.00     0.049 A 
ATOM     40  N   UNL A   1      39.320  30.783  32.061  1.00  0.00    -0.248 NA
ATOM     41  C   UNL A   1      37.889  31.077  30.239  1.00  0.00     0.031 C 
ATOM     42  C   UNL A   1      37.417  34.222  34.119  1.00  0.00     0.029 A 
ATOM     43  N   UNL A   1      38.986  32.630  34.240  1.00  0.00    -0.354 N 
ATOM     44  C   UNL A   1      39.653  29.869  31.066  1.00  0.00     0.074 A 
ATOM     45  C   UNL A   1      38.749  30.109  29.961  1.00  0.00     0.031 C 
ATOM     46  C   UNL A   1      38.179  34.474  35.202  1.00  0.00     0.029 A 
ATOM     47  C   UNL A   1      39.213  33.442  35.329  1.00  0.00     0.049 A 
ATOM     48  H   UNL A   1      39.523  31.826  34.049  1.00  0.00     0.167 HD
ATOM     49  C   UNL A   1      40.597  28.895  31.080  1.00  0.00     0.037 A 
ATOM     50  C   UNL A   1      40.145  33.373  36.308  1.00  0.00     0.037 A 
ATOM     51  C   UNL A   1      41.514  28.639  32.161  1.00  0.00     0.049 A 
ATOM     52  C   UNL A   1      41.134  32.226  36.342  1.00  0.00     0.074 A 
ATOM     53  C   UNL A   1      42.448  27.620  32.267  1.00  0.00     0.029 A 
ATOM     54  N   UNL A   1      41.620  29.393  33.316  1.00  0.00    -0.354 N 
ATOM     55  N   UNL A   1      41.379  31.311  35.435  1.00  0.00    -0.248 NA
ATOM     56  C   UNL A   1      41.958  32.089  37.557  1.00  0.00     0.031 C 
ATOM     57  C   UNL A   1      43.073  27.721  33.514  1.00  0.00     0.029 A 
ATOM     58  C   UNL A   1      42.578  28.843  34.155  1.00  0.00     0.049 A 
ATOM     59  H   UNL A   1      41.093  30.202  33.514  1.00  0.00     0.167 HD
ATOM     60  C   UNL A   1      42.380  30.498  35.971  1.00  0.00     0.074 A 
ATOM     61  C   UNL A   1      42.729  31.052  37.258  1.00  0.00     0.031 C 
ATOM     62  C   UNL A   1      42.942  29.381  35.443  1.00  0.00     0.037 A 
BRANCH  49  63
ATOM     63  C   UNL A   1      40.610  27.937  29.922  1.00  0.00     0.058 A 
ATOM     64  C   UNL A   1      39.619  26.962  29.732  1.00  0.00     0.135 A 
ATOM     65  C   UNL A   1      41.631  28.035  28.961  1.00  0.00     0.135 A 
ATOM     66  F   UNL A   1      38.635  26.815  30.633  1.00  0.00    -0.206 F 
ATOM     67  C   UNL A   1      39.655  26.101  28.640  1.00  0.00     0.059 A 
ATOM     68  C   UNL A   1      41.670  27.204  27.848  1.00  0.00     0.059 A 
ATOM     69  F   UNL A   1      42.602  28.952  29.099  1.00  0.00    -0.206 F 
ATOM     70  C   UNL A   1      40.686  26.229  27.704  1.00  0.00     0.060 A 
BRANCH  70  71
ATOM     71  S   UNL A   1      40.727  25.100  26.298  1.00  0.00     0.124 S 
ATOM     72  O   UNL A   1      41.708  24.116  26.746  1.00  0.00    -0.237 OA
ATOM     73  O   UNL A   1      39.346  24.633  26.234  1.00  0.00    -0.237 OA
ATOM     74  O   UNL A   1      41.152  25.950  25.190  1.00  0.00    -0.744 OA
ENDBRANCH  70  71
ENDBRANCH  49  63
BRANCH  50  75
ATOM     75  C   UNL A   1      40.200  34.406  37.388  1.00  0.00     0.058 A 
ATOM     76  C   UNL A   1      39.310  34.367  38.474  1.00  0.00     0.135 A 
ATOM     77  C   UNL A   1      41.090  35.490  37.322  1.00  0.00     0.135 A 
ATOM     78  F   UNL A   1      38.421  33.364  38.577  1.00  0.00    -0.206 F 
ATOM     79  C   UNL A   1      39.281  35.371  39.439  1.00  0.00     0.059 A 
ATOM     80  C   UNL A   1      41.108  36.485  38.295  1.00  0.00     0.059 A 
ATOM     81  F   UNL A   1      41.957  35.588  36.303  1.00  0.00    -0.206 F 
ATOM     82  C   UNL A   1      40.189  36.427  39.340  1.00  0.00     0.060 A 
BRANCH  82  83
ATOM     83  S   UNL A   1      40.177  37.712  40.610  1.00  0.00     0.124 S 
ATOM     84  O   UNL A   1      38.748  37.963  40.759  1.00  0.00    -0.237 OA
ATOM     85  O   UNL A   1      40.829  37.041  41.730  1.00  0.00    -0.237 OA
ATOM     86  O   UNL A   1      40.949  38.790  39.999  1.00  0.00    -0.744 OA
ENDBRANCH  82  83
ENDBRANCH  50  75
BRANCH  62  87
ATOM     87  C   UNL A   1      44.001  28.657  36.242  1.00  0.00     0.058 A 
ATOM     88  C   UNL A   1      43.708  27.497  36.979  1.00  0.00     0.135 A 
ATOM     89  C   UNL A   1      45.343  29.076  36.210  1.00  0.00     0.135 A 
ATOM     90  F   UNL A   1      42.447  27.043  37.047  1.00  0.00    -0.206 F 
ATOM     91  C   UNL A   1      44.695  26.795  37.669  1.00  0.00     0.059 A 
ATOM     92  C   UNL A   1      46.352  28.374  36.869  1.00  0.00     0.059 A 
ATOM     93  F   UNL A   1      45.693  30.169  35.512  1.00  0.00    -0.206 F 
ATOM     94  C   UNL A   1      46.017  27.239  37.604  1.00  0.00     0.060 A 
BRANCH  94  95
ATOM     95  S   UNL A   1      47.291  26.294  38.471  1.00  0.00     0.124 S 
ATOM     96  O   UNL A   1      46.983  26.593  39.866  1.00  0.00    -0.237 OA
ATOM     97  O   UNL A   1      47.015  24.928  38.039  1.00  0.00    -0.237 OA
ATOM     98  O   UNL A   1      48.539  26.864  37.969  1.00  0.00    -0.744 OA
ENDBRANCH  94  95
ENDBRANCH  62  87
ENDBRANCH  36  37
ENDBRANCH  29  31
ENDBRANCH  28  29
ENDBRANCH  27  28
ENDBRANCH  26  27
ENDBRANCH  25  26
ENDBRANCH  24  25
ENDBRANCH   1  24
TORSDOF 23
ENDMDL
MODEL 3
REMARK VINA RESULT:     -10.0      1.827      8.910
REMARK SMILES C[C@@H](C(=O)OCCOCCOCCOC(=O)c1ccc(-c2c3nc(c(-c4c(F)cc(S(=O)(=O)[O-])cc4F)c4ccc([nH]4)c(-c4c(F)cc(S(=O)(=O)[O-])cc4F)c4nc(c(-c5c(F)cc(S(=O)(=O)[O-])cc5F)c5ccc2[nH]5)C=C4)C=C3)cc1)c1ccc(C[C@H]2CCCC2=O)cc1F
REMARK SMILES IDX 9 1 8 2 7 3 6 4 5 5 3 6 4 7 2 8 1 9 83 10 84 11 95 12 85 13
REMARK SMILES IDX 94 14 96 15 86 16 87 17 88 18 89 19 92 20 90 21 91 22 93 23
REMARK SMILES IDX 10 24 11 25 12 26 13 27 14 28 15 29 16 30 17 31 18 32 82 33
REMARK SMILES IDX 19 34 81 35 20 36 21 37 22 38 75 39 23 40 80 41 74 42 76 43
REMARK SMILES IDX 24 44 79 45 73 46 72 47 25 49 59 50 38 51 58 52 39 53 42 54
REMARK SMILES IDX 57 55 77 56 40 57 41 58 56 60 78 61 43 62 26 63 27 64 36 65
REMARK SMILES IDX 28 66 29 67 35 68 37 69 30 70 31 71 32 72 33 73 34 74 60 75
REMARK SMILES IDX 61 76 70 77 62 78 63 79 69 80 71 81 64 82 65 83 66 84 67 85
REMARK SMILES IDX 68 86 44 87 45 88 54 89 46 90 47 91 53 92 55 93 48 94 49 95
REMARK SMILES IDX 50 96 51 97 52 98
REMARK H PARENT 76 48 42 59
REMARK Flexibility Score: inf
ROOT
ATOM      1  C   UNL A   1      38.465  21.445  25.542  1.00  0.00     0.188 C 
ENDROOT
BRANCH   1   2
ATOM      2  O   UNL A   1      37.137  21.850  25.831  1.00  0.00    -0.376 OA
BRANCH   2   3
ATOM      3  C   UNL A   1      36.123  21.591  24.866  1.00  0.00     0.202 C 
BRANCH   3   4
ATOM      4  C   UNL A   1      35.186  20.378  24.999  1.00  0.00     0.261 C 
BRANCH   4   5
ATOM      5  O   UNL A   1      33.989  20.644  25.747  1.00  0.00    -0.463 OA
BRANCH   5   6
ATOM      6  C   UNL A   1      32.843  20.086  25.267  1.00  0.00     0.313 C 
ATOM      7  O   UNL A   1      32.510  18.924  25.475  1.00  0.00    -0.252 OA
BRANCH   6   8
ATOM      8  C   UNL A   1      32.020  21.055  24.414  1.00  0.00     0.129 C 
ATOM      9  C   UNL A   1      32.258  20.841  22.908  1.00  0.00     0.025 C 
BRANCH   8  10
ATOM     10  C   UNL A   1      31.969  22.525  24.853  1.00  0.00     0.002 A 
ATOM     11  C   UNL A   1      32.768  23.479  24.196  1.00  0.00     0.008 A 
ATOM     12  C   UNL A   1      31.029  23.029  25.760  1.00  0.00     0.127 A 
ATOM     13  C   UNL A   1      32.575  24.860  24.377  1.00  0.00     0.004 A 
ATOM     14  C   UNL A   1      30.845  24.409  25.959  1.00  0.00     0.043 A 
ATOM     15  F   UNL A   1      30.236  22.196  26.445  1.00  0.00    -0.207 F 
ATOM     16  C   UNL A   1      31.593  25.353  25.240  1.00  0.00    -0.044 A 
BRANCH  16  17
ATOM     17  C   UNL A   1      31.190  26.821  25.248  1.00  0.00     0.047 C 
BRANCH  17  18
ATOM     18  C   UNL A   1      32.217  27.956  25.399  1.00  0.00     0.060 C 
ATOM     19  C   UNL A   1      32.056  29.092  24.398  1.00  0.00     0.012 C 
ATOM     20  C   UNL A   1      32.167  28.697  26.718  1.00  0.00     0.136 C 
ATOM     21  C   UNL A   1      31.245  30.137  25.133  1.00  0.00     0.009 C 
ATOM     22  C   UNL A   1      31.769  30.139  26.552  1.00  0.00     0.076 C 
ATOM     23  O   UNL A   1      32.406  28.186  27.806  1.00  0.00    -0.299 OA
ENDBRANCH  17  18
ENDBRANCH  16  17
ENDBRANCH   8  10
ENDBRANCH   6   8
ENDBRANCH   5   6
ENDBRANCH   4   5
ENDBRANCH   3   4
ENDBRANCH   2   3
ENDBRANCH   1   2
BRANCH   1  24
ATOM     24  C   UNL A   1      39.628  22.060  26.344  1.00  0.00     0.188 C 
BRANCH  24  25
ATOM     25  O   UNL A   1      40.890  21.441  26.270  1.00  0.00    -0.376 OA
BRANCH  25  26
ATOM     26  C   UNL A   1      41.979  22.120  25.662  1.00  0.00     0.202 C 
BRANCH  26  27
ATOM     27  C   UNL A   1      42.247  23.643  25.687  1.00  0.00     0.261 C 
BRANCH  27  28
ATOM     28  O   UNL A   1      43.106  24.173  26.706  1.00  0.00    -0.460 OA
BRANCH  28  29
ATOM     29  C   UNL A   1      43.497  25.459  26.532  1.00  0.00     0.338 C 
ATOM     30  O   UNL A   1      44.032  25.939  25.537  1.00  0.00    -0.246 OA
BRANCH  29  31
ATOM     31  C   UNL A   1      42.968  26.288  27.631  1.00  0.00     0.060 A 
ATOM     32  C   UNL A   1      43.346  27.628  27.662  1.00  0.00     0.016 A 
ATOM     33  C   UNL A   1      42.163  25.773  28.649  1.00  0.00     0.016 A 
ATOM     34  C   UNL A   1      42.882  28.454  28.679  1.00  0.00     0.010 A 
ATOM     35  C   UNL A   1      41.750  26.609  29.709  1.00  0.00     0.010 A 
ATOM     36  C   UNL A   1      42.113  27.964  29.740  1.00  0.00    -0.014 A 
BRANCH  36  37
ATOM     37  C   UNL A   1      41.878  28.852  30.922  1.00  0.00     0.031 A 
ATOM     38  C   UNL A   1      40.650  29.733  30.940  1.00  0.00     0.074 A 
ATOM     39  C   UNL A   1      42.619  28.779  32.047  1.00  0.00     0.049 A 
ATOM     40  N   UNL A   1      40.223  30.547  31.874  1.00  0.00    -0.248 NA
ATOM     41  C   UNL A   1      39.769  29.651  29.765  1.00  0.00     0.031 C 
ATOM     42  C   UNL A   1      43.722  27.848  32.274  1.00  0.00     0.029 A 
ATOM     43  N   UNL A   1      42.503  29.456  33.245  1.00  0.00    -0.354 N 
ATOM     44  C   UNL A   1      39.057  31.119  31.376  1.00  0.00     0.074 A 
ATOM     45  C   UNL A   1      38.817  30.516  30.081  1.00  0.00     0.031 C 
ATOM     46  C   UNL A   1      44.142  27.973  33.549  1.00  0.00     0.029 A 
ATOM     47  C   UNL A   1      43.378  29.030  34.220  1.00  0.00     0.049 A 
ATOM     48  H   UNL A   1      41.850  30.180  33.390  1.00  0.00     0.167 HD
ATOM     49  C   UNL A   1      38.275  32.083  31.922  1.00  0.00     0.037 A 
ATOM     50  C   UNL A   1      43.543  29.433  35.501  1.00  0.00     0.037 A 
ATOM     51  C   UNL A   1      38.484  32.694  33.209  1.00  0.00     0.049 A 
ATOM     52  C   UNL A   1      42.711  30.570  36.058  1.00  0.00     0.074 A 
ATOM     53  C   UNL A   1      37.769  33.730  33.791  1.00  0.00     0.029 A 
ATOM     54  N   UNL A   1      39.470  32.340  34.113  1.00  0.00    -0.354 N 
ATOM     55  N   UNL A   1      41.664  31.166  35.539  1.00  0.00    -0.248 NA
ATOM     56  C   UNL A   1      43.106  31.107  37.373  1.00  0.00     0.031 C 
ATOM     57  C   UNL A   1      38.363  34.044  35.018  1.00  0.00     0.029 A 
ATOM     58  C   UNL A   1      39.405  33.158  35.231  1.00  0.00     0.049 A 
ATOM     59  H   UNL A   1      40.123  31.614  33.982  1.00  0.00     0.167 HD
ATOM     60  C   UNL A   1      41.282  32.141  36.463  1.00  0.00     0.074 A 
ATOM     61  C   UNL A   1      42.177  32.027  37.592  1.00  0.00     0.031 C 
ATOM     62  C   UNL A   1      40.287  33.060  36.368  1.00  0.00     0.037 A 
BRANCH  49  63
ATOM     63  C   UNL A   1      37.168  32.635  31.067  1.00  0.00     0.058 A 
ATOM     64  C   UNL A   1      37.389  33.586  30.061  1.00  0.00     0.135 A 
ATOM     65  C   UNL A   1      35.858  32.159  31.249  1.00  0.00     0.135 A 
ATOM     66  F   UNL A   1      38.618  34.088  29.863  1.00  0.00    -0.206 F 
ATOM     67  C   UNL A   1      36.342  34.064  29.278  1.00  0.00     0.059 A 
ATOM     68  C   UNL A   1      34.804  32.601  30.460  1.00  0.00     0.059 A 
ATOM     69  F   UNL A   1      35.597  31.248  32.200  1.00  0.00    -0.206 F 
ATOM     70  C   UNL A   1      35.053  33.566  29.487  1.00  0.00     0.060 A 
BRANCH  70  71
ATOM     71  S   UNL A   1      33.703  34.202  28.474  1.00  0.00     0.124 S 
ATOM     72  O   UNL A   1      33.254  32.990  27.795  1.00  0.00    -0.237 OA
ATOM     73  O   UNL A   1      32.790  34.743  29.475  1.00  0.00    -0.237 OA
ATOM     74  O   UNL A   1      34.354  35.193  27.621  1.00  0.00    -0.744 OA
ENDBRANCH  70  71
ENDBRANCH  49  63
BRANCH  50  75
ATOM     75  C   UNL A   1      44.566  28.789  36.382  1.00  0.00     0.058 A 
ATOM     76  C   UNL A   1      45.880  29.283  36.448  1.00  0.00     0.135 A 
ATOM     77  C   UNL A   1      44.276  27.628  37.115  1.00  0.00     0.135 A 
ATOM     78  F   UNL A   1      46.220  30.379  35.750  1.00  0.00    -0.206 F 
ATOM     79  C   UNL A   1      46.870  28.641  37.187  1.00  0.00     0.059 A 
ATOM     80  C   UNL A   1      45.238  26.991  37.893  1.00  0.00     0.059 A 
ATOM     81  F   UNL A   1      43.042  27.102  37.083  1.00  0.00    -0.206 F 
ATOM     82  C   UNL A   1      46.537  27.494  37.909  1.00  0.00     0.060 A 
BRANCH  82  83
ATOM     83  S   UNL A   1      47.813  26.681  38.896  1.00  0.00     0.124 S 
ATOM     84  O   UNL A   1      47.465  27.121  40.242  1.00  0.00    -0.237 OA
ATOM     85  O   UNL A   1      47.577  25.271  38.603  1.00  0.00    -0.237 OA
ATOM     86  O   UNL A   1      49.052  27.228  38.352  1.00  0.00    -0.744 OA
ENDBRANCH  82  83
ENDBRANCH  50  75
BRANCH  62  87
ATOM     87  C   UNL A   1      40.090  34.034  37.507  1.00  0.00     0.058 A 
ATOM     88  C   UNL A   1      40.632  35.330  37.474  1.00  0.00     0.135 A 
ATOM     89  C   UNL A   1      39.283  33.703  38.611  1.00  0.00     0.135 A 
ATOM     90  F   UNL A   1      41.409  35.709  36.447  1.00  0.00    -0.206 F 
ATOM     91  C   UNL A   1      40.404  36.249  38.497  1.00  0.00     0.059 A 
ATOM     92  C   UNL A   1      39.017  34.615  39.631  1.00  0.00     0.059 A 
ATOM     93  F   UNL A   1      38.723  32.485  38.696  1.00  0.00    -0.206 F 
ATOM     94  C   UNL A   1      39.589  35.884  39.571  1.00  0.00     0.060 A 
BRANCH  94  95
ATOM     95  S   UNL A   1      39.268  37.101  40.867  1.00  0.00     0.124 S 
ATOM     96  O   UNL A   1      40.590  37.692  41.051  1.00  0.00    -0.237 OA
ATOM     97  O   UNL A   1      38.269  37.964  40.245  1.00  0.00    -0.237 OA
ATOM     98  O   UNL A   1      38.783  36.292  41.982  1.00  0.00    -0.744 OA
ENDBRANCH  94  95
ENDBRANCH  62  87
ENDBRANCH  36  37
ENDBRANCH  29  31
ENDBRANCH  28  29
ENDBRANCH  27  28
ENDBRANCH  26  27
ENDBRANCH  25  26
ENDBRANCH  24  25
ENDBRANCH   1  24
TORSDOF 23
ENDMDL
