MODEL 1
REMARK VINA RESULT:     -10.2      0.000      0.000
REMARK SMILES Cc1nc(=O)[nH]c(C)c1CC(=O)Nc1sccc1C(=O)OCCOCCOCCOC(=O)c1ccc(-c2c3nc(c(-c4c(F)cc(S(=O)(=O)[O-])cc4F)c4ccc([nH]4)c(-c4c(F)cc(S(=O)(=O)[O-])cc4F)c4nc(c(-c5c(F)cc(S(=O)(=O)[O-])cc5F)c5ccc2[nH]5)C=C4)C=C3)cc1
REMARK SMILES IDX 25 1 24 2 23 3 22 4 21 5 19 6 20 7 18 8 14 9 15 10 16 11
REMARK SMILES IDX 17 12 13 13 11 14 12 15 10 17 9 18 1 19 2 20 3 21 4 22 7 23
REMARK SMILES IDX 5 24 6 25 8 26 26 28 27 29 28 30 29 31 30 32 31 33 32 34
REMARK SMILES IDX 33 35 34 36 98 37 35 38 97 39 36 40 37 41 38 42 91 43 39 44
REMARK SMILES IDX 96 45 90 46 92 47 40 48 95 49 89 50 88 51 41 53 75 54 54 55
REMARK SMILES IDX 74 56 55 57 58 58 73 59 93 60 56 61 57 62 72 64 94 65 59 66
REMARK SMILES IDX 42 67 43 68 52 69 44 70 45 71 51 72 53 73 46 74 47 75 48 76
REMARK SMILES IDX 49 77 50 78 76 79 77 80 86 81 78 82 79 83 85 84 87 85 80 86
REMARK SMILES IDX 81 87 82 88 83 89 84 90 60 91 61 92 70 93 62 94 63 95 69 96
REMARK SMILES IDX 71 97 64 98 65 99 66 100 67 101 68 102
REMARK H PARENT 13 16 6 27 92 52 58 63
REMARK Flexibility Score: inf
ROOT
ATOM      1  C   UNL A   1      33.896  31.640  27.969  1.00  0.00     0.188 C 
ENDROOT
BRANCH   1   2
ATOM      2  O   UNL A   1      33.359  30.909  26.887  1.00  0.00    -0.376 OA
BRANCH   2   3
ATOM      3  C   UNL A   1      33.410  29.508  27.058  1.00  0.00     0.202 C 
BRANCH   3   4
ATOM      4  C   UNL A   1      32.070  28.772  26.992  1.00  0.00     0.261 C 
BRANCH   4   5
ATOM      5  O   UNL A   1      31.939  27.327  26.976  1.00  0.00    -0.460 OA
BRANCH   5   6
ATOM      6  C   UNL A   1      31.103  26.630  26.154  1.00  0.00     0.341 C 
ATOM      7  O   UNL A   1      30.070  26.113  26.503  1.00  0.00    -0.246 OA
BRANCH   6   8
ATOM      8  C   UNL A   1      31.525  26.674  24.742  1.00  0.00     0.094 A 
ATOM      9  C   UNL A   1      32.810  26.534  24.262  1.00  0.00     0.110 A 
ATOM     10  S   UNL A   1      32.987  27.011  22.641  1.00  0.00    -0.126 S 
ATOM     11  C   UNL A   1      31.294  27.121  22.441  1.00  0.00     0.068 A 
ATOM     12  C   UNL A   1      30.631  26.946  23.639  1.00  0.00     0.029 A 
BRANCH   9  13
ATOM     13  N   UNL A   1      33.981  26.127  24.843  1.00  0.00    -0.317 N 
ATOM     14  C   UNL A   1      34.398  24.829  24.976  1.00  0.00     0.229 C 
ATOM     15  O   UNL A   1      35.340  24.578  25.733  1.00  0.00    -0.274 OA
ATOM     16  H   UNL A   1      34.575  26.828  25.196  1.00  0.00     0.170 HD
BRANCH  14  17
ATOM     17  C   UNL A   1      33.845  23.751  24.022  1.00  0.00     0.139 C 
BRANCH  17  18
ATOM     18  C   UNL A   1      33.473  22.407  24.578  1.00  0.00     0.002 A 
ATOM     19  C   UNL A   1      35.949  21.543  24.369  1.00  0.00     0.067 C 
ATOM     20  C   UNL A   1      34.488  21.294  24.695  1.00  0.00     0.049 A 
ATOM     21  N   UNL A   1      34.215  20.081  25.051  1.00  0.00    -0.198 NA
ATOM     22  C   UNL A   1      32.924  19.742  25.328  1.00  0.00     0.345 A 
ATOM     23  C   UNL A   1      32.250  22.062  25.027  1.00  0.00     0.022 A 
ATOM     24  O   UNL A   1      32.547  18.595  25.552  1.00  0.00    -0.246 OA
ATOM     25  N   UNL A   1      32.003  20.757  25.369  1.00  0.00    -0.310 N 
ATOM     26  C   UNL A   1      31.077  22.999  25.119  1.00  0.00     0.065 C 
ATOM     27  H   UNL A   1      31.092  20.532  25.668  1.00  0.00     0.171 HD
ENDBRANCH  17  18
ENDBRANCH  14  17
ENDBRANCH   9  13
ENDBRANCH   6   8
ENDBRANCH   5   6
ENDBRANCH   4   5
ENDBRANCH   3   4
ENDBRANCH   2   3
ENDBRANCH   1   2
BRANCH   1  28
ATOM     28  C   UNL A   1      35.215  32.364  27.627  1.00  0.00     0.188 C 
BRANCH  28  29
ATOM     29  O   UNL A   1      35.605  33.502  28.377  1.00  0.00    -0.376 OA
BRANCH  29  30
ATOM     30  C   UNL A   1      34.897  33.790  29.574  1.00  0.00     0.202 C 
BRANCH  30  31
ATOM     31  C   UNL A   1      35.570  33.635  30.958  1.00  0.00     0.261 C 
BRANCH  31  32
ATOM     32  O   UNL A   1      36.834  32.943  31.012  1.00  0.00    -0.460 OA
BRANCH  32  33
ATOM     33  C   UNL A   1      36.824  31.681  31.526  1.00  0.00     0.338 C 
ATOM     34  O   UNL A   1      35.963  31.208  32.249  1.00  0.00    -0.246 OA
BRANCH  33  35
ATOM     35  C   UNL A   1      37.865  30.846  30.851  1.00  0.00     0.060 A 
ATOM     36  C   UNL A   1      38.650  29.982  31.639  1.00  0.00     0.016 A 
ATOM     37  C   UNL A   1      38.050  30.870  29.469  1.00  0.00     0.016 A 
ATOM     38  C   UNL A   1      39.642  29.183  31.065  1.00  0.00     0.010 A 
ATOM     39  C   UNL A   1      39.080  30.108  28.897  1.00  0.00     0.010 A 
ATOM     40  C   UNL A   1      39.915  29.302  29.699  1.00  0.00    -0.014 A 
BRANCH  40  41
ATOM     41  C   UNL A   1      41.248  28.882  29.188  1.00  0.00     0.031 A 
ATOM     42  C   UNL A   1      42.320  29.944  29.129  1.00  0.00     0.074 A 
ATOM     43  C   UNL A   1      41.534  27.621  28.816  1.00  0.00     0.049 A 
ATOM     44  N   UNL A   1      43.530  29.887  28.641  1.00  0.00    -0.248 NA
ATOM     45  C   UNL A   1      41.965  31.256  29.699  1.00  0.00     0.031 C 
ATOM     46  C   UNL A   1      40.623  26.482  28.891  1.00  0.00     0.029 A 
ATOM     47  N   UNL A   1      42.687  27.095  28.281  1.00  0.00    -0.354 N 
ATOM     48  C   UNL A   1      44.067  31.158  28.817  1.00  0.00     0.074 A 
ATOM     49  C   UNL A   1      43.047  31.970  29.439  1.00  0.00     0.031 C 
ATOM     50  C   UNL A   1      41.244  25.393  28.398  1.00  0.00     0.029 A 
ATOM     51  C   UNL A   1      42.582  25.766  27.936  1.00  0.00     0.049 A 
ATOM     52  H   UNL A   1      43.510  27.619  28.156  1.00  0.00     0.167 HD
ATOM     53  C   UNL A   1      45.300  31.612  28.492  1.00  0.00     0.037 A 
ATOM     54  C   UNL A   1      43.454  24.959  27.295  1.00  0.00     0.037 A 
ATOM     55  C   UNL A   1      46.317  30.801  27.879  1.00  0.00     0.049 A 
ATOM     56  C   UNL A   1      44.797  25.507  26.866  1.00  0.00     0.074 A 
ATOM     57  C   UNL A   1      47.605  31.160  27.527  1.00  0.00     0.029 A 
ATOM     58  N   UNL A   1      46.157  29.472  27.516  1.00  0.00    -0.354 N 
ATOM     59  N   UNL A   1      45.299  26.707  27.045  1.00  0.00    -0.248 NA
ATOM     60  C   UNL A   1      45.692  24.590  26.143  1.00  0.00     0.031 C 
ATOM     61  C   UNL A   1      48.205  30.068  26.895  1.00  0.00     0.029 A 
ATOM     62  C   UNL A   1      47.315  29.005  26.917  1.00  0.00     0.049 A 
ATOM     63  H   UNL A   1      45.343  28.940  27.663  1.00  0.00     0.167 HD
ATOM     64  C   UNL A   1      46.578  26.676  26.492  1.00  0.00     0.074 A 
ATOM     65  C   UNL A   1      46.775  25.337  25.979  1.00  0.00     0.031 C 
ATOM     66  C   UNL A   1      47.505  27.664  26.420  1.00  0.00     0.037 A 
BRANCH  53  67
ATOM     67  C   UNL A   1      45.600  33.063  28.753  1.00  0.00     0.058 A 
ATOM     68  C   UNL A   1      45.302  34.067  27.817  1.00  0.00     0.135 A 
ATOM     69  C   UNL A   1      46.173  33.456  29.973  1.00  0.00     0.135 A 
ATOM     70  F   UNL A   1      44.776  33.747  26.623  1.00  0.00    -0.206 F 
ATOM     71  C   UNL A   1      45.587  35.405  28.071  1.00  0.00     0.059 A 
ATOM     72  C   UNL A   1      46.436  34.791  30.262  1.00  0.00     0.059 A 
ATOM     73  F   UNL A   1      46.486  32.537  30.900  1.00  0.00    -0.206 F 
ATOM     74  C   UNL A   1      46.152  35.758  29.300  1.00  0.00     0.060 A 
BRANCH  74  75
ATOM     75  S   UNL A   1      46.502  37.499  29.619  1.00  0.00     0.124 S 
ATOM     76  O   UNL A   1      46.407  38.067  28.278  1.00  0.00    -0.237 OA
ATOM     77  O   UNL A   1      45.431  37.867  30.540  1.00  0.00    -0.237 OA
ATOM     78  O   UNL A   1      47.842  37.477  30.198  1.00  0.00    -0.744 OA
ENDBRANCH  74  75
ENDBRANCH  53  67
BRANCH  54  79
ATOM     79  C   UNL A   1      43.091  23.544  26.998  1.00  0.00     0.058 A 
ATOM     80  C   UNL A   1      43.071  22.573  28.011  1.00  0.00     0.135 A 
ATOM     81  C   UNL A   1      42.778  23.128  25.694  1.00  0.00     0.135 A 
ATOM     82  F   UNL A   1      43.384  22.912  29.271  1.00  0.00    -0.206 F 
ATOM     83  C   UNL A   1      42.767  21.240  27.742  1.00  0.00     0.059 A 
ATOM     84  C   UNL A   1      42.441  21.807  25.405  1.00  0.00     0.059 A 
ATOM     85  F   UNL A   1      42.786  24.012  24.686  1.00  0.00    -0.206 F 
ATOM     86  C   UNL A   1      42.447  20.869  26.436  1.00  0.00     0.060 A 
BRANCH  86  87
ATOM     87  S   UNL A   1      42.010  19.146  26.112  1.00  0.00     0.124 S 
ATOM     88  O   UNL A   1      40.595  19.259  25.776  1.00  0.00    -0.237 OA
ATOM     89  O   UNL A   1      42.902  18.808  25.007  1.00  0.00    -0.237 OA
ATOM     90  O   UNL A   1      42.306  18.478  27.375  1.00  0.00    -0.744 OA
ENDBRANCH  86  87
ENDBRANCH  54  79
BRANCH  66  91
ATOM     91  C   UNL A   1      48.844  27.333  25.813  1.00  0.00     0.058 A 
ATOM     92  C   UNL A   1      49.088  27.450  24.436  1.00  0.00     0.135 A 
ATOM     93  C   UNL A   1      49.920  26.956  26.636  1.00  0.00     0.135 A 
ATOM     94  F   UNL A   1      48.098  27.804  23.602  1.00  0.00    -0.206 F 
ATOM     95  C   UNL A   1      50.341  27.181  23.893  1.00  0.00     0.059 A 
ATOM     96  C   UNL A   1      51.189  26.714  26.119  1.00  0.00     0.059 A 
ATOM     97  F   UNL A   1      49.749  26.843  27.962  1.00  0.00    -0.206 F 
ATOM     98  C   UNL A   1      51.387  26.817  24.743  1.00  0.00     0.060 A 
BRANCH  98  99
ATOM     99  S   UNL A   1      53.017  26.505  24.030  1.00  0.00     0.124 S 
ATOM    100  O   UNL A   1      53.797  27.604  24.588  1.00  0.00    -0.237 OA
ATOM    101  O   UNL A   1      53.333  25.177  24.547  1.00  0.00    -0.237 OA
ATOM    102  O   UNL A   1      52.779  26.570  22.592  1.00  0.00    -0.744 OA
ENDBRANCH  98  99
ENDBRANCH  66  91
ENDBRANCH  40  41
ENDBRANCH  33  35
ENDBRANCH  32  33
ENDBRANCH  31  32
ENDBRANCH  30  31
ENDBRANCH  29  30
ENDBRANCH  28  29
ENDBRANCH   1  28
TORSDOF 23
ENDMDL
MODEL 2
REMARK VINA RESULT:     -10.1      1.857      2.790
REMARK SMILES Cc1nc(=O)[nH]c(C)c1CC(=O)Nc1sccc1C(=O)OCCOCCOCCOC(=O)c1ccc(-c2c3nc(c(-c4c(F)cc(S(=O)(=O)[O-])cc4F)c4ccc([nH]4)c(-c4c(F)cc(S(=O)(=O)[O-])cc4F)c4nc(c(-c5c(F)cc(S(=O)(=O)[O-])cc5F)c5ccc2[nH]5)C=C4)C=C3)cc1
REMARK SMILES IDX 25 1 24 2 23 3 22 4 21 5 19 6 20 7 18 8 14 9 15 10 16 11
REMARK SMILES IDX 17 12 13 13 11 14 12 15 10 17 9 18 1 19 2 20 3 21 4 22 7 23
REMARK SMILES IDX 5 24 6 25 8 26 26 28 27 29 28 30 29 31 30 32 31 33 32 34
REMARK SMILES IDX 33 35 34 36 98 37 35 38 97 39 36 40 37 41 38 42 91 43 39 44
REMARK SMILES IDX 96 45 90 46 92 47 40 48 95 49 89 50 88 51 41 53 75 54 54 55
REMARK SMILES IDX 74 56 55 57 58 58 73 59 93 60 56 61 57 62 72 64 94 65 59 66
REMARK SMILES IDX 42 67 43 68 52 69 44 70 45 71 51 72 53 73 46 74 47 75 48 76
REMARK SMILES IDX 49 77 50 78 76 79 77 80 86 81 78 82 79 83 85 84 87 85 80 86
REMARK SMILES IDX 81 87 82 88 83 89 84 90 60 91 61 92 70 93 62 94 63 95 69 96
REMARK SMILES IDX 71 97 64 98 65 99 66 100 67 101 68 102
REMARK H PARENT 13 16 6 27 92 52 58 63
REMARK Flexibility Score: inf
ROOT
ATOM      1  C   UNL A   1      33.675  33.079  28.101  1.00  0.00     0.188 C 
ENDROOT
BRANCH   1   2
ATOM      2  O   UNL A   1      34.100  31.953  27.362  1.00  0.00    -0.376 OA
BRANCH   2   3
ATOM      3  C   UNL A   1      33.333  30.791  27.592  1.00  0.00     0.202 C 
BRANCH   3   4
ATOM      4  C   UNL A   1      32.558  30.246  26.390  1.00  0.00     0.261 C 
BRANCH   4   5
ATOM      5  O   UNL A   1      31.537  29.219  26.481  1.00  0.00    -0.460 OA
BRANCH   5   6
ATOM      6  C   UNL A   1      31.744  27.892  26.246  1.00  0.00     0.341 C 
ATOM      7  O   UNL A   1      31.874  27.054  27.106  1.00  0.00    -0.246 OA
BRANCH   6   8
ATOM      8  C   UNL A   1      31.667  27.547  24.815  1.00  0.00     0.094 A 
ATOM      9  C   UNL A   1      32.612  26.863  24.080  1.00  0.00     0.110 A 
ATOM     10  S   UNL A   1      32.380  26.972  22.401  1.00  0.00    -0.126 S 
ATOM     11  C   UNL A   1      30.836  27.671  22.614  1.00  0.00     0.068 A 
ATOM     12  C   UNL A   1      30.587  27.952  23.943  1.00  0.00     0.029 A 
BRANCH   9  13
ATOM     13  N   UNL A   1      33.726  26.149  24.433  1.00  0.00    -0.317 N 
ATOM     14  C   UNL A   1      33.734  25.000  25.179  1.00  0.00     0.229 C 
ATOM     15  O   UNL A   1      34.805  24.593  25.638  1.00  0.00    -0.274 OA
ATOM     16  H   UNL A   1      34.595  26.490  24.124  1.00  0.00     0.170 HD
BRANCH  14  17
ATOM     17  C   UNL A   1      32.467  24.124  25.241  1.00  0.00     0.139 C 
BRANCH  17  18
ATOM     18  C   UNL A   1      32.613  22.631  25.276  1.00  0.00     0.002 A 
ATOM     19  C   UNL A   1      32.480  22.472  22.654  1.00  0.00     0.067 C 
ATOM     20  C   UNL A   1      32.559  21.803  24.014  1.00  0.00     0.049 A 
ATOM     21  N   UNL A   1      32.559  20.510  23.978  1.00  0.00    -0.198 NA
ATOM     22  C   UNL A   1      32.587  19.811  25.149  1.00  0.00     0.345 A 
ATOM     23  C   UNL A   1      32.814  21.895  26.388  1.00  0.00     0.022 A 
ATOM     24  O   UNL A   1      32.465  18.592  25.224  1.00  0.00    -0.246 OA
ATOM     25  N   UNL A   1      32.779  20.526  26.303  1.00  0.00    -0.310 N 
ATOM     26  C   UNL A   1      33.004  22.464  27.767  1.00  0.00     0.065 C 
ATOM     27  H   UNL A   1      32.902  20.017  27.138  1.00  0.00     0.171 HD
ENDBRANCH  17  18
ENDBRANCH  14  17
ENDBRANCH   9  13
ENDBRANCH   6   8
ENDBRANCH   5   6
ENDBRANCH   4   5
ENDBRANCH   3   4
ENDBRANCH   2   3
ENDBRANCH   1   2
BRANCH   1  28
ATOM     28  C   UNL A   1      34.373  34.389  27.682  1.00  0.00     0.188 C 
BRANCH  28  29
ATOM     29  O   UNL A   1      34.396  35.489  28.576  1.00  0.00    -0.376 OA
BRANCH  29  30
ATOM     30  C   UNL A   1      33.445  35.514  29.630  1.00  0.00     0.202 C 
BRANCH  30  31
ATOM     31  C   UNL A   1      33.802  34.994  31.042  1.00  0.00     0.261 C 
BRANCH  31  32
ATOM     32  O   UNL A   1      35.037  34.263  31.192  1.00  0.00    -0.460 OA
BRANCH  32  33
ATOM     33  C   UNL A   1      34.947  33.001  31.699  1.00  0.00     0.338 C 
ATOM     34  O   UNL A   1      33.982  32.525  32.272  1.00  0.00    -0.246 OA
BRANCH  33  35
ATOM     35  C   UNL A   1      36.087  32.170  31.203  1.00  0.00     0.060 A 
ATOM     36  C   UNL A   1      36.738  31.310  32.110  1.00  0.00     0.016 A 
ATOM     37  C   UNL A   1      36.494  32.193  29.869  1.00  0.00     0.016 A 
ATOM     38  C   UNL A   1      37.813  30.515  31.707  1.00  0.00     0.010 A 
ATOM     39  C   UNL A   1      37.607  31.434  29.474  1.00  0.00     0.010 A 
ATOM     40  C   UNL A   1      38.303  30.634  30.402  1.00  0.00    -0.014 A 
BRANCH  40  41
ATOM     41  C   UNL A   1      39.703  30.218  30.115  1.00  0.00     0.031 A 
ATOM     42  C   UNL A   1      40.776  31.263  30.311  1.00  0.00     0.074 A 
ATOM     43  C   UNL A   1      40.042  28.975  29.729  1.00  0.00     0.049 A 
ATOM     44  N   UNL A   1      42.054  31.211  30.045  1.00  0.00    -0.248 NA
ATOM     45  C   UNL A   1      40.335  32.548  30.882  1.00  0.00     0.031 C 
ATOM     46  C   UNL A   1      39.123  27.850  29.575  1.00  0.00     0.029 A 
ATOM     47  N   UNL A   1      41.268  28.458  29.381  1.00  0.00    -0.354 N 
ATOM     48  C   UNL A   1      42.561  32.461  30.387  1.00  0.00     0.074 A 
ATOM     49  C   UNL A   1      41.452  33.256  30.861  1.00  0.00     0.031 C 
ATOM     50  C   UNL A   1      39.815  26.779  29.139  1.00  0.00     0.029 A 
ATOM     51  C   UNL A   1      41.217  27.153  28.947  1.00  0.00     0.049 A 
ATOM     52  H   UNL A   1      42.105  28.974  29.436  1.00  0.00     0.167 HD
ATOM     53  C   UNL A   1      43.835  32.910  30.314  1.00  0.00     0.037 A 
ATOM     54  C   UNL A   1      42.185  26.367  28.427  1.00  0.00     0.037 A 
ATOM     55  C   UNL A   1      44.939  32.116  29.848  1.00  0.00     0.049 A 
ATOM     56  C   UNL A   1      43.587  26.914  28.278  1.00  0.00     0.074 A 
ATOM     57  C   UNL A   1      46.272  32.471  29.755  1.00  0.00     0.029 A 
ATOM     58  N   UNL A   1      44.838  30.812  29.387  1.00  0.00    -0.354 N 
ATOM     59  N   UNL A   1      44.057  28.093  28.613  1.00  0.00    -0.248 NA
ATOM     60  C   UNL A   1      44.590  26.022  27.676  1.00  0.00     0.031 C 
ATOM     61  C   UNL A   1      46.968  31.405  29.179  1.00  0.00     0.029 A 
ATOM     62  C   UNL A   1      46.081  30.358  28.979  1.00  0.00     0.049 A 
ATOM     63  H   UNL A   1      44.006  30.287  29.356  1.00  0.00     0.167 HD
ATOM     64  C   UNL A   1      45.415  28.070  28.297  1.00  0.00     0.074 A 
ATOM     65  C   UNL A   1      45.691  26.758  27.752  1.00  0.00     0.031 C 
ATOM     66  C   UNL A   1      46.347  29.044  28.449  1.00  0.00     0.037 A 
BRANCH  53  67
ATOM     67  C   UNL A   1      44.094  34.339  30.707  1.00  0.00     0.058 A 
ATOM     68  C   UNL A   1      44.429  34.704  32.021  1.00  0.00     0.135 A 
ATOM     69  C   UNL A   1      44.029  35.358  29.743  1.00  0.00     0.135 A 
ATOM     70  F   UNL A   1      44.481  33.775  32.990  1.00  0.00    -0.206 F 
ATOM     71  C   UNL A   1      44.664  36.030  32.371  1.00  0.00     0.059 A 
ATOM     72  C   UNL A   1      44.293  36.686  30.062  1.00  0.00     0.059 A 
ATOM     73  F   UNL A   1      43.706  35.067  28.473  1.00  0.00    -0.206 F 
ATOM     74  C   UNL A   1      44.597  37.015  31.382  1.00  0.00     0.060 A 
BRANCH  74  75
ATOM     75  S   UNL A   1      44.917  38.728  31.848  1.00  0.00     0.124 S 
ATOM     76  O   UNL A   1      44.942  39.385  30.545  1.00  0.00    -0.237 OA
ATOM     77  O   UNL A   1      43.768  39.040  32.692  1.00  0.00    -0.237 OA
ATOM     78  O   UNL A   1      46.201  38.659  32.540  1.00  0.00    -0.744 OA
ENDBRANCH  74  75
ENDBRANCH  53  67
BRANCH  54  79
ATOM     79  C   UNL A   1      41.870  24.977  27.990  1.00  0.00     0.058 A 
ATOM     80  C   UNL A   1      41.144  24.733  26.813  1.00  0.00     0.135 A 
ATOM     81  C   UNL A   1      42.268  23.864  28.748  1.00  0.00     0.135 A 
ATOM     82  F   UNL A   1      40.720  25.762  26.063  1.00  0.00    -0.206 F 
ATOM     83  C   UNL A   1      40.813  23.442  26.411  1.00  0.00     0.059 A 
ATOM     84  C   UNL A   1      41.975  22.562  28.351  1.00  0.00     0.059 A 
ATOM     85  F   UNL A   1      42.960  24.037  29.884  1.00  0.00    -0.206 F 
ATOM     86  C   UNL A   1      41.239  22.362  27.184  1.00  0.00     0.060 A 
BRANCH  86  87
ATOM     87  S   UNL A   1      40.842  20.691  26.625  1.00  0.00     0.124 S 
ATOM     88  O   UNL A   1      41.944  20.416  25.709  1.00  0.00    -0.237 OA
ATOM     89  O   UNL A   1      40.851  19.940  27.876  1.00  0.00    -0.237 OA
ATOM     90  O   UNL A   1      39.530  20.844  26.002  1.00  0.00    -0.744 OA
ENDBRANCH  86  87
ENDBRANCH  54  79
BRANCH  66  91
ATOM     91  C   UNL A   1      47.771  28.722  28.074  1.00  0.00     0.058 A 
ATOM     92  C   UNL A   1      48.698  28.240  29.009  1.00  0.00     0.135 A 
ATOM     93  C   UNL A   1      48.192  28.837  26.736  1.00  0.00     0.135 A 
ATOM     94  F   UNL A   1      48.353  28.113  30.299  1.00  0.00    -0.206 F 
ATOM     95  C   UNL A   1      49.999  27.908  28.640  1.00  0.00     0.059 A 
ATOM     96  C   UNL A   1      49.476  28.479  26.339  1.00  0.00     0.059 A 
ATOM     97  F   UNL A   1      47.342  29.278  25.796  1.00  0.00    -0.206 F 
ATOM     98  C   UNL A   1      50.378  28.027  27.301  1.00  0.00     0.060 A 
BRANCH  98  99
ATOM     99  S   UNL A   1      52.057  27.559  26.830  1.00  0.00     0.124 S 
ATOM    100  O   UNL A   1      52.756  28.837  26.926  1.00  0.00    -0.237 OA
ATOM    101  O   UNL A   1      52.402  26.570  27.846  1.00  0.00    -0.237 OA
ATOM    102  O   UNL A   1      51.898  27.032  25.479  1.00  0.00    -0.744 OA
ENDBRANCH  98  99
ENDBRANCH  66  91
ENDBRANCH  40  41
ENDBRANCH  33  35
ENDBRANCH  32  33
ENDBRANCH  31  32
ENDBRANCH  30  31
ENDBRANCH  29  30
ENDBRANCH  28  29
ENDBRANCH   1  28
TORSDOF 23
ENDMDL
MODEL 3
REMARK VINA RESULT:     -10.0      2.578      9.390
REMARK SMILES Cc1nc(=O)[nH]c(C)c1CC(=O)Nc1sccc1C(=O)OCCOCCOCCOC(=O)c1ccc(-c2c3nc(c(-c4c(F)cc(S(=O)(=O)[O-])cc4F)c4ccc([nH]4)c(-c4c(F)cc(S(=O)(=O)[O-])cc4F)c4nc(c(-c5c(F)cc(S(=O)(=O)[O-])cc5F)c5ccc2[nH]5)C=C4)C=C3)cc1
REMARK SMILES IDX 25 1 24 2 23 3 22 4 21 5 19 6 20 7 18 8 14 9 15 10 16 11
REMARK SMILES IDX 17 12 13 13 11 14 12 15 10 17 9 18 1 19 2 20 3 21 4 22 7 23
REMARK SMILES IDX 5 24 6 25 8 26 26 28 27 29 28 30 29 31 30 32 31 33 32 34
REMARK SMILES IDX 33 35 34 36 98 37 35 38 97 39 36 40 37 41 38 42 91 43 39 44
REMARK SMILES IDX 96 45 90 46 92 47 40 48 95 49 89 50 88 51 41 53 75 54 54 55
REMARK SMILES IDX 74 56 55 57 58 58 73 59 93 60 56 61 57 62 72 64 94 65 59 66
REMARK SMILES IDX 42 67 43 68 52 69 44 70 45 71 51 72 53 73 46 74 47 75 48 76
REMARK SMILES IDX 49 77 50 78 76 79 77 80 86 81 78 82 79 83 85 84 87 85 80 86
REMARK SMILES IDX 81 87 82 88 83 89 84 90 60 91 61 92 70 93 62 94 63 95 69 96
REMARK SMILES IDX 71 97 64 98 65 99 66 100 67 101 68 102
REMARK H PARENT 13 16 6 27 92 52 58 63
REMARK Flexibility Score: inf
ROOT
ATOM      1  C   UNL A   1      39.225  21.942  26.107  1.00  0.00     0.188 C 
ENDROOT
BRANCH   1   2
ATOM      2  O   UNL A   1      38.595  20.767  25.643  1.00  0.00    -0.376 OA
BRANCH   2   3
ATOM      3  C   UNL A   1      37.353  20.991  25.010  1.00  0.00     0.202 C 
BRANCH   3   4
ATOM      4  C   UNL A   1      36.505  22.131  25.578  1.00  0.00     0.261 C 
BRANCH   4   5
ATOM      5  O   UNL A   1      36.070  23.280  24.806  1.00  0.00    -0.460 OA
BRANCH   5   6
ATOM      6  C   UNL A   1      35.075  23.261  23.873  1.00  0.00     0.341 C 
ATOM      7  O   UNL A   1      35.240  23.436  22.690  1.00  0.00    -0.246 OA
BRANCH   6   8
ATOM      8  C   UNL A   1      33.770  22.874  24.439  1.00  0.00     0.094 A 
ATOM      9  C   UNL A   1      33.046  23.565  25.387  1.00  0.00     0.110 A 
ATOM     10  S   UNL A   1      31.790  22.655  26.082  1.00  0.00    -0.126 S 
ATOM     11  C   UNL A   1      31.978  21.421  24.914  1.00  0.00     0.068 A 
ATOM     12  C   UNL A   1      33.083  21.644  24.117  1.00  0.00     0.029 A 
BRANCH   9  13
ATOM     13  N   UNL A   1      33.164  24.824  25.913  1.00  0.00    -0.317 N 
ATOM     14  C   UNL A   1      33.319  25.978  25.192  1.00  0.00     0.229 C 
ATOM     15  O   UNL A   1      33.663  27.007  25.779  1.00  0.00    -0.274 OA
ATOM     16  H   UNL A   1      33.135  24.906  26.893  1.00  0.00     0.170 HD
BRANCH  14  17
ATOM     17  C   UNL A   1      32.848  26.027  23.724  1.00  0.00     0.139 C 
BRANCH  17  18
ATOM     18  C   UNL A   1      32.039  27.202  23.258  1.00  0.00     0.002 A 
ATOM     19  C   UNL A   1      29.813  26.136  24.169  1.00  0.00     0.067 C 
ATOM     20  C   UNL A   1      30.537  27.237  23.416  1.00  0.00     0.049 A 
ATOM     21  N   UNL A   1      29.765  28.156  22.934  1.00  0.00    -0.198 NA
ATOM     22  C   UNL A   1      30.311  29.172  22.206  1.00  0.00     0.345 A 
ATOM     23  C   UNL A   1      32.539  28.313  22.682  1.00  0.00     0.022 A 
ATOM     24  O   UNL A   1      29.656  30.018  21.606  1.00  0.00    -0.246 OA
ATOM     25  N   UNL A   1      31.680  29.247  22.163  1.00  0.00    -0.310 N 
ATOM     26  C   UNL A   1      34.005  28.589  22.489  1.00  0.00     0.065 C 
ATOM     27  H   UNL A   1      32.078  30.035  21.725  1.00  0.00     0.171 HD
ENDBRANCH  17  18
ENDBRANCH  14  17
ENDBRANCH   9  13
ENDBRANCH   6   8
ENDBRANCH   5   6
ENDBRANCH   4   5
ENDBRANCH   3   4
ENDBRANCH   2   3
ENDBRANCH   1   2
BRANCH   1  28
ATOM     28  C   UNL A   1      40.648  21.703  26.653  1.00  0.00     0.188 C 
BRANCH  28  29
ATOM     29  O   UNL A   1      40.864  20.709  27.640  1.00  0.00    -0.376 OA
BRANCH  29  30
ATOM     30  C   UNL A   1      41.587  19.545  27.269  1.00  0.00     0.202 C 
BRANCH  30  31
ATOM     31  C   UNL A   1      42.035  19.312  25.807  1.00  0.00     0.261 C 
BRANCH  31  32
ATOM     32  O   UNL A   1      43.422  18.990  25.577  1.00  0.00    -0.460 OA
BRANCH  32  33
ATOM     33  C   UNL A   1      44.119  19.823  24.754  1.00  0.00     0.338 C 
ATOM     34  O   UNL A   1      44.467  19.576  23.612  1.00  0.00    -0.246 OA
BRANCH  33  35
ATOM     35  C   UNL A   1      44.154  21.201  25.333  1.00  0.00     0.060 A 
ATOM     36  C   UNL A   1      43.867  22.293  24.490  1.00  0.00     0.016 A 
ATOM     37  C   UNL A   1      44.419  21.430  26.683  1.00  0.00     0.016 A 
ATOM     38  C   UNL A   1      43.890  23.603  24.972  1.00  0.00     0.010 A 
ATOM     39  C   UNL A   1      44.494  22.748  27.158  1.00  0.00     0.010 A 
ATOM     40  C   UNL A   1      44.282  23.842  26.293  1.00  0.00    -0.014 A 
BRANCH  40  41
ATOM     41  C   UNL A   1      44.804  25.186  26.661  1.00  0.00     0.031 A 
ATOM     42  C   UNL A   1      43.805  26.178  27.207  1.00  0.00     0.074 A 
ATOM     43  C   UNL A   1      46.101  25.530  26.557  1.00  0.00     0.049 A 
ATOM     44  N   UNL A   1      43.958  27.439  27.513  1.00  0.00    -0.248 NA
ATOM     45  C   UNL A   1      42.440  25.668  27.431  1.00  0.00     0.031 C 
ATOM     46  C   UNL A   1      47.184  24.653  26.119  1.00  0.00     0.029 A 
ATOM     47  N   UNL A   1      46.721  26.733  26.803  1.00  0.00    -0.354 N 
ATOM     48  C   UNL A   1      42.707  27.878  27.935  1.00  0.00     0.074 A 
ATOM     49  C   UNL A   1      41.803  26.757  27.829  1.00  0.00     0.031 C 
ATOM     50  C   UNL A   1      48.334  25.354  26.106  1.00  0.00     0.029 A 
ATOM     51  C   UNL A   1      48.063  26.739  26.496  1.00  0.00     0.049 A 
ATOM     52  H   UNL A   1      46.249  27.517  27.165  1.00  0.00     0.167 HD
ATOM     53  C   UNL A   1      42.340  29.105  28.372  1.00  0.00     0.037 A 
ATOM     54  C   UNL A   1      48.955  27.752  26.500  1.00  0.00     0.037 A 
ATOM     55  C   UNL A   1      43.242  30.219  28.484  1.00  0.00     0.049 A 
ATOM     56  C   UNL A   1      48.508  29.135  26.915  1.00  0.00     0.074 A 
ATOM     57  C   UNL A   1      42.974  31.498  28.935  1.00  0.00     0.029 A 
ATOM     58  N   UNL A   1      44.583  30.190  28.130  1.00  0.00    -0.354 N 
ATOM     59  N   UNL A   1      47.326  29.538  27.321  1.00  0.00    -0.248 NA
ATOM     60  C   UNL A   1      49.517  30.205  26.869  1.00  0.00     0.031 C 
ATOM     61  C   UNL A   1      44.137  32.261  28.796  1.00  0.00     0.029 A 
ATOM     62  C   UNL A   1      45.149  31.439  28.325  1.00  0.00     0.049 A 
ATOM     63  H   UNL A   1      45.062  29.399  27.792  1.00  0.00     0.167 HD
ATOM     64  C   UNL A   1      47.460  30.894  27.613  1.00  0.00     0.074 A 
ATOM     65  C   UNL A   1      48.839  31.241  27.344  1.00  0.00     0.031 C 
ATOM     66  C   UNL A   1      46.529  31.770  28.066  1.00  0.00     0.037 A 
BRANCH  53  67
ATOM     67  C   UNL A   1      40.892  29.317  28.721  1.00  0.00     0.058 A 
ATOM     68  C   UNL A   1      40.450  29.416  30.050  1.00  0.00     0.135 A 
ATOM     69  C   UNL A   1      39.934  29.447  27.703  1.00  0.00     0.135 A 
ATOM     70  F   UNL A   1      41.318  29.274  31.065  1.00  0.00    -0.206 F 
ATOM     71  C   UNL A   1      39.107  29.610  30.357  1.00  0.00     0.059 A 
ATOM     72  C   UNL A   1      38.591  29.675  27.985  1.00  0.00     0.059 A 
ATOM     73  F   UNL A   1      40.299  29.353  26.414  1.00  0.00    -0.206 F 
ATOM     74  C   UNL A   1      38.185  29.742  29.316  1.00  0.00     0.060 A 
BRANCH  74  75
ATOM     75  S   UNL A   1      36.449  30.007  29.731  1.00  0.00     0.124 S 
ATOM     76  O   UNL A   1      35.778  29.379  28.597  1.00  0.00    -0.237 OA
ATOM     77  O   UNL A   1      36.324  29.308  31.006  1.00  0.00    -0.237 OA
ATOM     78  O   UNL A   1      36.333  31.460  29.802  1.00  0.00    -0.744 OA
ENDBRANCH  74  75
ENDBRANCH  53  67
BRANCH  54  79
ATOM     79  C   UNL A   1      50.367  27.512  26.085  1.00  0.00     0.058 A 
ATOM     80  C   UNL A   1      50.746  27.574  24.735  1.00  0.00     0.135 A 
ATOM     81  C   UNL A   1      51.361  27.193  27.024  1.00  0.00     0.135 A 
ATOM     82  F   UNL A   1      49.831  27.852  23.794  1.00  0.00    -0.206 F 
ATOM     83  C   UNL A   1      52.053  27.318  24.329  1.00  0.00     0.059 A 
ATOM     84  C   UNL A   1      52.682  26.964  26.646  1.00  0.00     0.059 A 
ATOM     85  F   UNL A   1      51.055  27.116  28.327  1.00  0.00    -0.206 F 
ATOM     86  C   UNL A   1      53.016  27.019  25.293  1.00  0.00     0.060 A 
BRANCH  86  87
ATOM     87  S   UNL A   1      54.717  26.735  24.756  1.00  0.00     0.124 S 
ATOM     88  O   UNL A   1      55.476  27.267  25.883  1.00  0.00    -0.237 OA
ATOM     89  O   UNL A   1      54.748  25.285  24.595  1.00  0.00    -0.237 OA
ATOM     90  O   UNL A   1      54.814  27.501  23.516  1.00  0.00    -0.744 OA
ENDBRANCH  86  87
ENDBRANCH  54  79
BRANCH  66  91
ATOM     91  C   UNL A   1      46.969  33.182  28.356  1.00  0.00     0.058 A 
ATOM     92  C   UNL A   1      47.523  33.552  29.591  1.00  0.00     0.135 A 
ATOM     93  C   UNL A   1      46.896  34.165  27.353  1.00  0.00     0.135 A 
ATOM     94  F   UNL A   1      47.616  32.655  30.585  1.00  0.00    -0.206 F 
ATOM     95  C   UNL A   1      47.965  34.850  29.831  1.00  0.00     0.059 A 
ATOM     96  C   UNL A   1      47.361  35.460  27.560  1.00  0.00     0.059 A 
ATOM     97  F   UNL A   1      46.389  33.864  26.147  1.00  0.00    -0.206 F 
ATOM     98  C   UNL A   1      47.883  35.797  28.808  1.00  0.00     0.060 A 
BRANCH  98  99
ATOM     99  S   UNL A   1      48.491  37.468  29.121  1.00  0.00     0.124 S 
ATOM    100  O   UNL A   1      47.462  38.280  28.482  1.00  0.00    -0.237 OA
ATOM    101  O   UNL A   1      48.524  37.519  30.579  1.00  0.00    -0.237 OA
ATOM    102  O   UNL A   1      49.797  37.484  28.470  1.00  0.00    -0.744 OA
ENDBRANCH  98  99
ENDBRANCH  66  91
ENDBRANCH  40  41
ENDBRANCH  33  35
ENDBRANCH  32  33
ENDBRANCH  31  32
ENDBRANCH  30  31
ENDBRANCH  29  30
ENDBRANCH  28  29
ENDBRANCH   1  28
TORSDOF 23
ENDMDL
