MODEL 1
REMARK VINA RESULT:     -12.8      0.000      0.000
REMARK SMILES O=C(OCCOCCOCCOC(=O)[C@@H]1CCCN1S(=O)(=O)c1ccc2c3c(cccc13)C(=O)N2)c1ccc(-c2c3nc(c(-c4c(F)cc(S(=O)(=O)[O-])cc4F)c4ccc([nH]4)c(-c4c(F)cc(S(=O)(=O)[O-])cc4F)c4nc(c(-c5c(F)cc(S(=O)(=O)[O-])cc5F)c5ccc2[nH]5)C=C4)C=C3)cc1
REMARK SMILES IDX 7 1 6 2 5 3 4 4 3 5 2 6 1 7 36 8 37 9 101 10 38 11 100 12
REMARK SMILES IDX 39 13 40 14 41 15 94 16 42 17 99 18 93 19 95 20 43 21 98 22
REMARK SMILES IDX 92 23 91 24 44 26 78 27 57 28 77 29 58 30 61 31 76 32 96 33
REMARK SMILES IDX 59 34 60 35 75 37 97 38 62 39 45 40 46 41 55 42 47 43 48 44
REMARK SMILES IDX 54 45 56 46 49 47 50 48 51 49 52 50 53 51 79 52 80 53 89 54
REMARK SMILES IDX 81 55 82 56 88 57 90 58 83 59 84 60 85 61 86 62 87 63 63 64
REMARK SMILES IDX 64 65 73 66 65 67 66 68 72 69 74 70 67 71 68 72 69 73 70 74
REMARK SMILES IDX 71 75 8 76 9 77 10 78 11 79 12 80 13 81 14 82 15 83 16 84
REMARK SMILES IDX 19 85 17 86 18 87 20 88 21 89 22 90 23 91 24 92 32 93 25 94
REMARK SMILES IDX 27 95 31 96 26 97 28 98 30 99 35 100 29 101 33 102 34 104
REMARK H PARENT 95 25 61 36 35 103
REMARK Flexibility Score: inf
ROOT
ATOM      1  C   UNL A   1      42.357  21.648  25.833  1.00  0.00     0.188 C 
ENDROOT
BRANCH   1   2
ATOM      2  O   UNL A   1      43.198  22.178  24.631  1.00  0.00    -0.376 OA
BRANCH   2   3
ATOM      3  C   UNL A   1      45.170  22.415  24.184  1.00  0.00     0.202 C 
BRANCH   3   4
ATOM      4  C   UNL A   1      45.369  24.451  25.116  1.00  0.00     0.261 C 
BRANCH   4   5
ATOM      5  O   UNL A   1      44.007  25.512  25.314  1.00  0.00    -0.460 OA
BRANCH   5   6
ATOM      6  C   UNL A   1      42.769  25.898  25.736  1.00  0.00     0.338 C 
ATOM      7  O   UNL A   1      41.805  25.644  25.007  1.00  0.00    -0.246 OA
BRANCH   6   8
ATOM      8  C   UNL A   1      42.403  26.637  27.006  1.00  0.00     0.060 A 
ATOM      9  C   UNL A   1      42.490  28.013  27.089  1.00  0.00     0.016 A 
ATOM     10  C   UNL A   1      41.722  26.033  28.075  1.00  0.00     0.016 A 
ATOM     11  C   UNL A   1      42.191  28.724  28.258  1.00  0.00     0.010 A 
ATOM     12  C   UNL A   1      41.281  26.785  29.220  1.00  0.00     0.010 A 
ATOM     13  C   UNL A   1      41.547  28.156  29.342  1.00  0.00    -0.014 A 
BRANCH  13  14
ATOM     14  C   UNL A   1      41.389  29.034  30.562  1.00  0.00     0.031 A 
ATOM     15  C   UNL A   1      40.126  29.837  30.712  1.00  0.00     0.074 A 
ATOM     16  C   UNL A   1      42.195  28.944  31.653  1.00  0.00     0.049 A 
ATOM     17  N   UNL A   1      39.774  30.659  31.667  1.00  0.00    -0.248 NA
ATOM     18  C   UNL A   1      39.128  29.695  29.643  1.00  0.00     0.031 C 
ATOM     19  C   UNL A   1      43.399  28.124  31.732  1.00  0.00     0.029 A 
ATOM     20  N   UNL A   1      42.088  29.466  32.932  1.00  0.00    -0.354 N 
ATOM     21  C   UNL A   1      38.572  31.218  31.257  1.00  0.00     0.074 A 
ATOM     22  C   UNL A   1      38.211  30.576  30.013  1.00  0.00     0.031 C 
ATOM     23  C   UNL A   1      43.826  28.080  33.006  1.00  0.00     0.029 A 
ATOM     24  C   UNL A   1      43.015  28.970  33.835  1.00  0.00     0.049 A 
ATOM     25  H   UNL A   1      41.409  30.136  33.180  1.00  0.00     0.167 HD
ATOM     26  C   UNL A   1      37.880  32.229  31.833  1.00  0.00     0.037 A 
ATOM     27  C   UNL A   1      43.214  29.217  35.156  1.00  0.00     0.037 A 
ATOM     28  C   UNL A   1      38.234  32.840  33.088  1.00  0.00     0.049 A 
ATOM     29  C   UNL A   1      42.430  30.345  35.794  1.00  0.00     0.074 A 
ATOM     30  C   UNL A   1      37.664  33.945  33.696  1.00  0.00     0.029 A 
ATOM     31  N   UNL A   1      39.238  32.394  33.934  1.00  0.00    -0.354 N 
ATOM     32  N   UNL A   1      41.412  31.015  35.309  1.00  0.00    -0.248 NA
ATOM     33  C   UNL A   1      42.890  30.830  37.107  1.00  0.00     0.031 C 
ATOM     34  C   UNL A   1      38.372  34.210  34.871  1.00  0.00     0.029 A 
ATOM     35  C   UNL A   1      39.329  33.222  35.040  1.00  0.00     0.049 A 
ATOM     36  H   UNL A   1      39.805  31.604  33.771  1.00  0.00     0.167 HD
ATOM     37  C   UNL A   1      41.148  32.030  36.225  1.00  0.00     0.074 A 
ATOM     38  C   UNL A   1      42.068  31.848  37.329  1.00  0.00     0.031 C 
ATOM     39  C   UNL A   1      40.255  33.047  36.133  1.00  0.00     0.037 A 
BRANCH  26  40
ATOM     40  C   UNL A   1      36.787  32.854  31.014  1.00  0.00     0.058 A 
ATOM     41  C   UNL A   1      37.023  33.611  29.858  1.00  0.00     0.135 A 
ATOM     42  C   UNL A   1      35.453  32.696  31.433  1.00  0.00     0.135 A 
ATOM     43  F   UNL A   1      38.279  33.828  29.434  1.00  0.00    -0.206 F 
ATOM     44  C   UNL A   1      35.979  34.215  29.165  1.00  0.00     0.059 A 
ATOM     45  C   UNL A   1      34.393  33.260  30.736  1.00  0.00     0.059 A 
ATOM     46  F   UNL A   1      35.172  31.993  32.542  1.00  0.00    -0.206 F 
ATOM     47  C   UNL A   1      34.667  34.033  29.612  1.00  0.00     0.060 A 
BRANCH  47  48
ATOM     48  S   UNL A   1      33.326  34.841  28.717  1.00  0.00     0.124 S 
ATOM     49  O   UNL A   1      34.044  35.894  28.005  1.00  0.00    -0.237 OA
ATOM     50  O   UNL A   1      32.809  33.756  27.890  1.00  0.00    -0.237 OA
ATOM     51  O   UNL A   1      32.433  35.299  29.777  1.00  0.00    -0.744 OA
ENDBRANCH  47  48
ENDBRANCH  26  40
BRANCH  27  52
ATOM     52  C   UNL A   1      44.261  28.485  35.956  1.00  0.00     0.058 A 
ATOM     53  C   UNL A   1      43.947  27.366  36.752  1.00  0.00     0.135 A 
ATOM     54  C   UNL A   1      45.605  28.892  35.952  1.00  0.00     0.135 A 
ATOM     55  F   UNL A   1      42.675  26.953  36.859  1.00  0.00    -0.206 F 
ATOM     56  C   UNL A   1      44.922  26.663  37.466  1.00  0.00     0.059 A 
ATOM     57  C   UNL A   1      46.604  28.179  36.615  1.00  0.00     0.059 A 
ATOM     58  F   UNL A   1      45.976  29.985  35.269  1.00  0.00    -0.206 F 
ATOM     59  C   UNL A   1      46.255  27.063  37.368  1.00  0.00     0.060 A 
BRANCH  59  60
ATOM     60  S   UNL A   1      47.540  26.080  38.179  1.00  0.00     0.124 S 
ATOM     61  O   UNL A   1      47.962  25.193  37.103  1.00  0.00    -0.237 OA
ATOM     62  O   UNL A   1      48.499  27.104  38.581  1.00  0.00    -0.237 OA
ATOM     63  O   UNL A   1      46.824  25.441  39.280  1.00  0.00    -0.744 OA
ENDBRANCH  59  60
ENDBRANCH  27  52
BRANCH  39  64
ATOM     64  C   UNL A   1      40.224  34.074  37.234  1.00  0.00     0.058 A 
ATOM     65  C   UNL A   1      40.977  35.257  37.155  1.00  0.00     0.135 A 
ATOM     66  C   UNL A   1      39.342  33.934  38.318  1.00  0.00     0.135 A 
ATOM     67  F   UNL A   1      41.836  35.445  36.141  1.00  0.00    -0.206 F 
ATOM     68  C   UNL A   1      40.859  36.261  38.112  1.00  0.00     0.059 A 
ATOM     69  C   UNL A   1      39.188  34.936  39.271  1.00  0.00     0.059 A 
ATOM     70  F   UNL A   1      38.588  32.829  38.437  1.00  0.00    -0.206 F 
ATOM     71  C   UNL A   1      39.954  36.096  39.162  1.00  0.00     0.060 A 
BRANCH  71  72
ATOM     72  S   UNL A   1      39.772  37.432  40.364  1.00  0.00     0.124 S 
ATOM     73  O   UNL A   1      40.691  38.434  39.833  1.00  0.00    -0.237 OA
ATOM     74  O   UNL A   1      38.353  37.754  40.257  1.00  0.00    -0.237 OA
ATOM     75  O   UNL A   1      40.178  36.816  41.624  1.00  0.00    -0.744 OA
ENDBRANCH  71  72
ENDBRANCH  39  64
ENDBRANCH  13  14
ENDBRANCH   6   8
ENDBRANCH   5   6
ENDBRANCH   4   5
ENDBRANCH   3   4
ENDBRANCH   2   3
ENDBRANCH   1   2
BRANCH   1  76
ATOM     76  C   UNL A   1      41.337  22.523  26.688  1.00  0.00     0.188 C 
BRANCH  76  77
ATOM     77  O   UNL A   1      39.968  22.795  26.414  1.00  0.00    -0.376 OA
BRANCH  77  78
ATOM     78  C   UNL A   1      38.928  21.856  26.113  1.00  0.00     0.202 C 
BRANCH  78  79
ATOM     79  C   UNL A   1      37.719  22.057  25.196  1.00  0.00     0.261 C 
BRANCH  79  80
ATOM     80  O   UNL A   1      36.552  21.459  25.712  1.00  0.00    -0.462 OA
BRANCH  80  81
ATOM     81  C   UNL A   1      35.543  22.328  25.857  1.00  0.00     0.324 C 
ATOM     82  O   UNL A   1      35.672  23.495  26.221  1.00  0.00    -0.250 OA
BRANCH  81  83
ATOM     83  C   UNL A   1      34.262  21.791  25.359  1.00  0.00     0.183 C 
ATOM     84  C   UNL A   1      34.527  20.343  24.970  1.00  0.00     0.034 C 
ATOM     85  N   UNL A   1      33.299  22.301  24.339  1.00  0.00    -0.184 NA
ATOM     86  C   UNL A   1      33.150  19.851  24.652  1.00  0.00     0.019 C 
ATOM     87  C   UNL A   1      32.451  21.074  24.068  1.00  0.00     0.103 C 
BRANCH  85  88
ATOM     88  S   UNL A   1      33.740  23.263  22.952  1.00  0.00     0.244 S 
ATOM     89  O   UNL A   1      35.181  23.341  22.871  1.00  0.00    -0.207 OA
ATOM     90  O   UNL A   1      32.979  22.737  21.836  1.00  0.00    -0.207 OA
BRANCH  88  91
ATOM     91  C   UNL A   1      33.094  25.012  23.146  1.00  0.00     0.090 A 
ATOM     92  C   UNL A   1      33.342  26.073  21.847  1.00  0.00     0.024 A 
ATOM     93  C   UNL A   1      33.061  25.538  24.710  1.00  0.00     0.005 A 
ATOM     94  C   UNL A   1      33.941  27.730  21.917  1.00  0.00     0.028 A 
ATOM     95  C   UNL A   1      33.588  27.166  25.063  1.00  0.00     0.019 A 
ATOM     96  C   UNL A   1      32.231  24.935  25.691  1.00  0.00     0.010 A 
ATOM     97  C   UNL A   1      34.133  28.396  23.571  1.00  0.00     0.050 A 
ATOM     98  C   UNL A   1      31.945  27.759  25.571  1.00  0.00     0.050 A 
ATOM     99  C   UNL A   1      31.378  25.685  26.562  1.00  0.00     0.002 A 
ATOM    100  N   UNL A   1      32.747  29.581  23.448  1.00  0.00    -0.321 N 
ATOM    101  C   UNL A   1      31.123  27.052  26.427  1.00  0.00     0.014 A 
ATOM    102  C   UNL A   1      31.429  29.152  24.512  1.00  0.00     0.256 C 
ATOM    103  H   UNL A   1      32.743  30.367  22.855  1.00  0.00     0.170 HD
ATOM    104  O   UNL A   1      30.354  29.736  24.432  1.00  0.00    -0.269 OA
ENDBRANCH  88  91
ENDBRANCH  85  88
ENDBRANCH  81  83
ENDBRANCH  80  81
ENDBRANCH  79  80
ENDBRANCH  78  79
ENDBRANCH  77  78
ENDBRANCH  76  77
ENDBRANCH   1  76
TORSDOF 22
ENDMDL
MODEL 2
REMARK VINA RESULT:     -12.7      1.395      3.474
REMARK SMILES O=C(OCCOCCOCCOC(=O)[C@@H]1CCCN1S(=O)(=O)c1ccc2c3c(cccc13)C(=O)N2)c1ccc(-c2c3nc(c(-c4c(F)cc(S(=O)(=O)[O-])cc4F)c4ccc([nH]4)c(-c4c(F)cc(S(=O)(=O)[O-])cc4F)c4nc(c(-c5c(F)cc(S(=O)(=O)[O-])cc5F)c5ccc2[nH]5)C=C4)C=C3)cc1
REMARK SMILES IDX 7 1 6 2 5 3 4 4 3 5 2 6 1 7 36 8 37 9 101 10 38 11 100 12
REMARK SMILES IDX 39 13 40 14 41 15 94 16 42 17 99 18 93 19 95 20 43 21 98 22
REMARK SMILES IDX 92 23 91 24 44 26 78 27 57 28 77 29 58 30 61 31 76 32 96 33
REMARK SMILES IDX 59 34 60 35 75 37 97 38 62 39 45 40 46 41 55 42 47 43 48 44
REMARK SMILES IDX 54 45 56 46 49 47 50 48 51 49 52 50 53 51 79 52 80 53 89 54
REMARK SMILES IDX 81 55 82 56 88 57 90 58 83 59 84 60 85 61 86 62 87 63 63 64
REMARK SMILES IDX 64 65 73 66 65 67 66 68 72 69 74 70 67 71 68 72 69 73 70 74
REMARK SMILES IDX 71 75 8 76 9 77 10 78 11 79 12 80 13 81 14 82 15 83 16 84
REMARK SMILES IDX 19 85 17 86 18 87 20 88 21 89 22 90 23 91 24 92 32 93 25 94
REMARK SMILES IDX 27 95 31 96 26 97 28 98 30 99 35 100 29 101 33 102 34 104
REMARK H PARENT 95 25 61 36 35 103
REMARK Flexibility Score: inf
ROOT
ATOM      1  C   UNL A   1      39.995  22.609  27.149  1.00  0.00     0.188 C 
ENDROOT
BRANCH   1   2
ATOM      2  O   UNL A   1      41.376  23.276  26.869  1.00  0.00    -0.376 OA
BRANCH   2   3
ATOM      3  C   UNL A   1      43.338  22.809  27.144  1.00  0.00     0.202 C 
BRANCH   3   4
ATOM      4  C   UNL A   1      44.092  23.926  25.344  1.00  0.00     0.261 C 
BRANCH   4   5
ATOM      5  O   UNL A   1      43.580  25.548  24.986  1.00  0.00    -0.460 OA
BRANCH   5   6
ATOM      6  C   UNL A   1      43.008  26.763  25.220  1.00  0.00     0.338 C 
ATOM      7  O   UNL A   1      42.790  27.495  24.250  1.00  0.00    -0.246 OA
BRANCH   6   8
ATOM      8  C   UNL A   1      42.611  27.367  26.550  1.00  0.00     0.060 A 
ATOM      9  C   UNL A   1      42.546  28.735  26.730  1.00  0.00     0.016 A 
ATOM     10  C   UNL A   1      42.044  26.617  27.593  1.00  0.00     0.016 A 
ATOM     11  C   UNL A   1      42.214  29.326  27.956  1.00  0.00     0.010 A 
ATOM     12  C   UNL A   1      41.566  27.234  28.802  1.00  0.00     0.010 A 
ATOM     13  C   UNL A   1      41.681  28.615  29.016  1.00  0.00    -0.014 A 
BRANCH  13  14
ATOM     14  C   UNL A   1      41.472  29.383  30.300  1.00  0.00     0.031 A 
ATOM     15  C   UNL A   1      40.178  30.124  30.493  1.00  0.00     0.074 A 
ATOM     16  C   UNL A   1      42.267  29.234  31.393  1.00  0.00     0.049 A 
ATOM     17  N   UNL A   1      39.782  30.851  31.506  1.00  0.00    -0.248 NA
ATOM     18  C   UNL A   1      39.201  30.034  29.399  1.00  0.00     0.031 C 
ATOM     19  C   UNL A   1      43.500  28.456  31.425  1.00  0.00     0.029 A 
ATOM     20  N   UNL A   1      42.122  29.646  32.709  1.00  0.00    -0.354 N 
ATOM     21  C   UNL A   1      38.565  31.397  31.122  1.00  0.00     0.074 A 
ATOM     22  C   UNL A   1      38.246  30.846  29.824  1.00  0.00     0.031 C 
ATOM     23  C   UNL A   1      43.910  28.323  32.699  1.00  0.00     0.029 A 
ATOM     24  C   UNL A   1      43.054  29.111  33.584  1.00  0.00     0.049 A 
ATOM     25  H   UNL A   1      41.414  30.267  32.999  1.00  0.00     0.167 HD
ATOM     26  C   UNL A   1      37.826  32.331  31.767  1.00  0.00     0.037 A 
ATOM     27  C   UNL A   1      43.225  29.257  34.924  1.00  0.00     0.037 A 
ATOM     28  C   UNL A   1      38.139  32.850  33.073  1.00  0.00     0.049 A 
ATOM     29  C   UNL A   1      42.390  30.299  35.638  1.00  0.00     0.074 A 
ATOM     30  C   UNL A   1      37.519  33.879  33.760  1.00  0.00     0.029 A 
ATOM     31  N   UNL A   1      39.148  32.374  33.897  1.00  0.00    -0.354 N 
ATOM     32  N   UNL A   1      41.354  30.968  35.192  1.00  0.00    -0.248 NA
ATOM     33  C   UNL A   1      42.813  30.691  36.994  1.00  0.00     0.031 C 
ATOM     34  C   UNL A   1      38.200  34.073  34.964  1.00  0.00     0.029 A 
ATOM     35  C   UNL A   1      39.192  33.111  35.068  1.00  0.00     0.049 A 
ATOM     36  H   UNL A   1      39.747  31.622  33.680  1.00  0.00     0.167 HD
ATOM     37  C   UNL A   1      41.039  31.894  36.183  1.00  0.00     0.074 A 
ATOM     38  C   UNL A   1      41.949  31.656  37.284  1.00  0.00     0.031 C 
ATOM     39  C   UNL A   1      40.109  32.881  36.159  1.00  0.00     0.037 A 
BRANCH  26  40
ATOM     40  C   UNL A   1      36.722  32.980  30.983  1.00  0.00     0.058 A 
ATOM     41  C   UNL A   1      36.944  33.916  29.963  1.00  0.00     0.135 A 
ATOM     42  C   UNL A   1      35.389  32.656  31.297  1.00  0.00     0.135 A 
ATOM     43  F   UNL A   1      38.194  34.292  29.648  1.00  0.00    -0.206 F 
ATOM     44  C   UNL A   1      35.883  34.530  29.303  1.00  0.00     0.059 A 
ATOM     45  C   UNL A   1      34.317  33.230  30.627  1.00  0.00     0.059 A 
ATOM     46  F   UNL A   1      35.120  31.778  32.276  1.00  0.00    -0.206 F 
ATOM     47  C   UNL A   1      34.574  34.180  29.643  1.00  0.00     0.060 A 
BRANCH  47  48
ATOM     48  S   UNL A   1      33.209  35.000  28.795  1.00  0.00     0.124 S 
ATOM     49  O   UNL A   1      32.326  35.324  29.912  1.00  0.00    -0.237 OA
ATOM     50  O   UNL A   1      33.876  36.135  28.165  1.00  0.00    -0.237 OA
ATOM     51  O   UNL A   1      32.712  33.980  27.878  1.00  0.00    -0.744 OA
ENDBRANCH  47  48
ENDBRANCH  26  40
BRANCH  27  52
ATOM     52  C   UNL A   1      44.288  28.501  35.679  1.00  0.00     0.058 A 
ATOM     53  C   UNL A   1      45.603  28.988  35.807  1.00  0.00     0.135 A 
ATOM     54  C   UNL A   1      44.018  27.263  36.285  1.00  0.00     0.135 A 
ATOM     55  F   UNL A   1      45.959  30.132  35.203  1.00  0.00    -0.206 F 
ATOM     56  C   UNL A   1      46.582  28.306  36.537  1.00  0.00     0.059 A 
ATOM     57  C   UNL A   1      44.961  26.589  37.060  1.00  0.00     0.059 A 
ATOM     58  F   UNL A   1      42.808  26.700  36.157  1.00  0.00    -0.206 F 
ATOM     59  C   UNL A   1      46.242  27.118  37.184  1.00  0.00     0.060 A 
BRANCH  59  60
ATOM     60  S   UNL A   1      47.462  26.300  38.240  1.00  0.00     0.124 S 
ATOM     61  O   UNL A   1      48.218  25.516  37.271  1.00  0.00    -0.237 OA
ATOM     62  O   UNL A   1      48.163  27.434  38.833  1.00  0.00    -0.237 OA
ATOM     63  O   UNL A   1      46.637  25.532  39.168  1.00  0.00    -0.744 OA
ENDBRANCH  59  60
ENDBRANCH  27  52
BRANCH  39  64
ATOM     64  C   UNL A   1      40.023  33.813  37.339  1.00  0.00     0.058 A 
ATOM     65  C   UNL A   1      40.626  35.081  37.318  1.00  0.00     0.135 A 
ATOM     66  C   UNL A   1      39.230  33.487  38.451  1.00  0.00     0.135 A 
ATOM     67  F   UNL A   1      41.395  35.447  36.280  1.00  0.00    -0.206 F 
ATOM     68  C   UNL A   1      40.448  35.990  38.357  1.00  0.00     0.059 A 
ATOM     69  C   UNL A   1      39.016  34.390  39.489  1.00  0.00     0.059 A 
ATOM     70  F   UNL A   1      38.620  32.292  38.519  1.00  0.00    -0.206 F 
ATOM     71  C   UNL A   1      39.633  35.639  39.435  1.00  0.00     0.060 A 
BRANCH  71  72
ATOM     72  S   UNL A   1      39.368  36.850  40.748  1.00  0.00     0.124 S 
ATOM     73  O   UNL A   1      40.735  37.112  41.189  1.00  0.00    -0.237 OA
ATOM     74  O   UNL A   1      38.713  37.941  40.035  1.00  0.00    -0.237 OA
ATOM     75  O   UNL A   1      38.527  36.138  41.706  1.00  0.00    -0.744 OA
ENDBRANCH  71  72
ENDBRANCH  39  64
ENDBRANCH  13  14
ENDBRANCH   6   8
ENDBRANCH   5   6
ENDBRANCH   4   5
ENDBRANCH   3   4
ENDBRANCH   2   3
ENDBRANCH   1   2
BRANCH   1  76
ATOM     76  C   UNL A   1      39.177  21.732  26.100  1.00  0.00     0.188 C 
BRANCH  76  77
ATOM     77  O   UNL A   1      37.801  21.836  25.751  1.00  0.00    -0.376 OA
BRANCH  77  78
ATOM     78  C   UNL A   1      37.173  22.840  24.946  1.00  0.00     0.202 C 
BRANCH  78  79
ATOM     79  C   UNL A   1      36.290  24.001  25.413  1.00  0.00     0.261 C 
BRANCH  79  80
ATOM     80  O   UNL A   1      35.372  24.405  24.424  1.00  0.00    -0.462 OA
BRANCH  80  81
ATOM     81  C   UNL A   1      34.351  25.116  24.921  1.00  0.00     0.324 C 
ATOM     82  O   UNL A   1      34.118  25.260  26.118  1.00  0.00    -0.250 OA
BRANCH  81  83
ATOM     83  C   UNL A   1      33.625  25.865  23.877  1.00  0.00     0.183 C 
ATOM     84  C   UNL A   1      33.683  27.332  24.284  1.00  0.00     0.034 C 
ATOM     85  N   UNL A   1      32.270  25.678  23.280  1.00  0.00    -0.184 NA
ATOM     86  C   UNL A   1      33.083  28.008  23.091  1.00  0.00     0.019 C 
ATOM     87  C   UNL A   1      32.046  27.009  22.590  1.00  0.00     0.103 C 
BRANCH  85  88
ATOM     88  S   UNL A   1      30.901  24.998  24.119  1.00  0.00     0.244 S 
ATOM     89  O   UNL A   1      30.610  25.807  25.281  1.00  0.00    -0.207 OA
ATOM     90  O   UNL A   1      29.879  24.777  23.116  1.00  0.00    -0.207 OA
BRANCH  88  91
ATOM     91  C   UNL A   1      31.307  23.271  24.727  1.00  0.00     0.090 A 
ATOM     92  C   UNL A   1      31.388  23.043  26.405  1.00  0.00     0.024 A 
ATOM     93  C   UNL A   1      32.244  22.403  23.681  1.00  0.00     0.005 A 
ATOM     94  C   UNL A   1      32.640  22.194  27.311  1.00  0.00     0.028 A 
ATOM     95  C   UNL A   1      33.558  21.446  24.322  1.00  0.00     0.019 A 
ATOM     96  C   UNL A   1      31.786  22.031  22.389  1.00  0.00     0.010 A 
ATOM     97  C   UNL A   1      33.853  21.338  26.306  1.00  0.00     0.050 A 
ATOM     98  C   UNL A   1      32.818  19.843  23.880  1.00  0.00     0.050 A 
ATOM     99  C   UNL A   1      31.886  20.698  21.878  1.00  0.00     0.002 A 
ATOM    100  N   UNL A   1      33.292  19.655  26.745  1.00  0.00    -0.321 N 
ATOM    101  C   UNL A   1      32.261  19.590  22.641  1.00  0.00     0.014 A 
ATOM    102  C   UNL A   1      32.582  18.830  25.378  1.00  0.00     0.256 C 
ATOM    103  H   UNL A   1      33.379  19.260  27.643  1.00  0.00     0.170 HD
ATOM    104  O   UNL A   1      31.999  17.762  25.535  1.00  0.00    -0.269 OA
ENDBRANCH  88  91
ENDBRANCH  85  88
ENDBRANCH  81  83
ENDBRANCH  80  81
ENDBRANCH  79  80
ENDBRANCH  78  79
ENDBRANCH  77  78
ENDBRANCH  76  77
ENDBRANCH   1  76
TORSDOF 22
ENDMDL
MODEL 3
REMARK VINA RESULT:     -12.2      5.736     11.642
REMARK SMILES O=C(OCCOCCOCCOC(=O)[C@@H]1CCCN1S(=O)(=O)c1ccc2c3c(cccc13)C(=O)N2)c1ccc(-c2c3nc(c(-c4c(F)cc(S(=O)(=O)[O-])cc4F)c4ccc([nH]4)c(-c4c(F)cc(S(=O)(=O)[O-])cc4F)c4nc(c(-c5c(F)cc(S(=O)(=O)[O-])cc5F)c5ccc2[nH]5)C=C4)C=C3)cc1
REMARK SMILES IDX 7 1 6 2 5 3 4 4 3 5 2 6 1 7 36 8 37 9 101 10 38 11 100 12
REMARK SMILES IDX 39 13 40 14 41 15 94 16 42 17 99 18 93 19 95 20 43 21 98 22
REMARK SMILES IDX 92 23 91 24 44 26 78 27 57 28 77 29 58 30 61 31 76 32 96 33
REMARK SMILES IDX 59 34 60 35 75 37 97 38 62 39 45 40 46 41 55 42 47 43 48 44
REMARK SMILES IDX 54 45 56 46 49 47 50 48 51 49 52 50 53 51 79 52 80 53 89 54
REMARK SMILES IDX 81 55 82 56 88 57 90 58 83 59 84 60 85 61 86 62 87 63 63 64
REMARK SMILES IDX 64 65 73 66 65 67 66 68 72 69 74 70 67 71 68 72 69 73 70 74
REMARK SMILES IDX 71 75 8 76 9 77 10 78 11 79 12 80 13 81 14 82 15 83 16 84
REMARK SMILES IDX 19 85 17 86 18 87 20 88 21 89 22 90 23 91 24 92 32 93 25 94
REMARK SMILES IDX 27 95 31 96 26 97 28 98 30 99 35 100 29 101 33 102 34 104
REMARK H PARENT 95 25 61 36 35 103
REMARK Flexibility Score: inf
ROOT
ATOM      1  C   UNL A   1      34.435  32.344  29.018  1.00  0.00     0.188 C 
ENDROOT
BRANCH   1   2
ATOM      2  O   UNL A   1      35.675  32.394  29.962  1.00  0.00    -0.376 OA
BRANCH   2   3
ATOM      3  C   UNL A   1      36.654  33.801  31.061  1.00  0.00     0.202 C 
BRANCH   3   4
ATOM      4  C   UNL A   1      36.511  32.701  33.017  1.00  0.00     0.261 C 
BRANCH   4   5
ATOM      5  O   UNL A   1      36.887  31.009  33.152  1.00  0.00    -0.460 OA
BRANCH   5   6
ATOM      6  C   UNL A   1      37.585  29.858  32.933  1.00  0.00     0.338 C 
ATOM      7  O   UNL A   1      37.196  28.831  33.498  1.00  0.00    -0.246 OA
BRANCH   6   8
ATOM      8  C   UNL A   1      38.822  29.664  32.083  1.00  0.00     0.060 A 
ATOM      9  C   UNL A   1      39.708  28.632  32.323  1.00  0.00     0.016 A 
ATOM     10  C   UNL A   1      39.026  30.331  30.863  1.00  0.00     0.016 A 
ATOM     11  C   UNL A   1      40.878  28.444  31.576  1.00  0.00     0.010 A 
ATOM     12  C   UNL A   1      40.152  30.042  30.016  1.00  0.00     0.010 A 
ATOM     13  C   UNL A   1      41.126  29.104  30.387  1.00  0.00    -0.014 A 
BRANCH  13  14
ATOM     14  C   UNL A   1      42.479  28.862  29.758  1.00  0.00     0.031 A 
ATOM     15  C   UNL A   1      42.657  27.657  28.875  1.00  0.00     0.074 A 
ATOM     16  C   UNL A   1      43.464  29.799  29.728  1.00  0.00     0.049 A 
ATOM     17  N   UNL A   1      43.723  27.247  28.237  1.00  0.00    -0.248 NA
ATOM     18  C   UNL A   1      41.478  26.800  28.689  1.00  0.00     0.031 C 
ATOM     19  C   UNL A   1      43.416  31.079  30.428  1.00  0.00     0.029 A 
ATOM     20  N   UNL A   1      44.653  29.873  29.021  1.00  0.00    -0.354 N 
ATOM     21  C   UNL A   1      43.376  26.029  27.671  1.00  0.00     0.074 A 
ATOM     22  C   UNL A   1      41.977  25.810  27.966  1.00  0.00     0.031 C 
ATOM     23  C   UNL A   1      44.429  31.855  30.006  1.00  0.00     0.029 A 
ATOM     24  C   UNL A   1      45.293  31.100  29.100  1.00  0.00     0.049 A 
ATOM     25  H   UNL A   1      45.015  29.117  28.505  1.00  0.00     0.167 HD
ATOM     26  C   UNL A   1      44.178  25.144  27.033  1.00  0.00     0.037 A 
ATOM     27  C   UNL A   1      46.444  31.558  28.542  1.00  0.00     0.037 A 
ATOM     28  C   UNL A   1      45.562  25.386  26.720  1.00  0.00     0.049 A 
ATOM     29  C   UNL A   1      47.331  30.563  27.824  1.00  0.00     0.074 A 
ATOM     30  C   UNL A   1      46.487  24.509  26.180  1.00  0.00     0.029 A 
ATOM     31  N   UNL A   1      46.219  26.593  26.904  1.00  0.00    -0.354 N 
ATOM     32  N   UNL A   1      47.063  29.328  27.471  1.00  0.00    -0.248 NA
ATOM     33  C   UNL A   1      48.713  30.979  27.529  1.00  0.00     0.031 C 
ATOM     34  C   UNL A   1      47.719  25.163  26.107  1.00  0.00     0.029 A 
ATOM     35  C   UNL A   1      47.545  26.474  26.523  1.00  0.00     0.049 A 
ATOM     36  H   UNL A   1      45.803  27.414  27.255  1.00  0.00     0.167 HD
ATOM     37  C   UNL A   1      48.252  28.805  26.969  1.00  0.00     0.074 A 
ATOM     38  C   UNL A   1      49.226  29.877  26.998  1.00  0.00     0.031 C 
ATOM     39  C   UNL A   1      48.519  27.539  26.565  1.00  0.00     0.037 A 
BRANCH  26  40
ATOM     40  C   UNL A   1      43.621  23.767  26.807  1.00  0.00     0.058 A 
ATOM     41  C   UNL A   1      43.098  23.336  25.580  1.00  0.00     0.135 A 
ATOM     42  C   UNL A   1      43.596  22.863  27.885  1.00  0.00     0.135 A 
ATOM     43  F   UNL A   1      43.059  24.171  24.528  1.00  0.00    -0.206 F 
ATOM     44  C   UNL A   1      42.543  22.067  25.437  1.00  0.00     0.059 A 
ATOM     45  C   UNL A   1      43.080  21.580  27.755  1.00  0.00     0.059 A 
ATOM     46  F   UNL A   1      44.070  23.230  29.086  1.00  0.00    -0.206 F 
ATOM     47  C   UNL A   1      42.539  21.197  26.531  1.00  0.00     0.060 A 
BRANCH  47  48
ATOM     48  S   UNL A   1      41.795  19.565  26.338  1.00  0.00     0.124 S 
ATOM     49  O   UNL A   1      42.506  19.058  25.168  1.00  0.00    -0.237 OA
ATOM     50  O   UNL A   1      42.125  18.925  27.606  1.00  0.00    -0.237 OA
ATOM     51  O   UNL A   1      40.380  19.856  26.134  1.00  0.00    -0.744 OA
ENDBRANCH  47  48
ENDBRANCH  26  40
BRANCH  27  52
ATOM     52  C   UNL A   1      46.904  32.982  28.719  1.00  0.00     0.058 A 
ATOM     53  C   UNL A   1      46.606  33.987  27.778  1.00  0.00     0.135 A 
ATOM     54  C   UNL A   1      47.665  33.375  29.833  1.00  0.00     0.135 A 
ATOM     55  F   UNL A   1      45.939  33.681  26.655  1.00  0.00    -0.206 F 
ATOM     56  C   UNL A   1      47.001  35.317  27.958  1.00  0.00     0.059 A 
ATOM     57  C   UNL A   1      48.027  34.702  30.061  1.00  0.00     0.059 A 
ATOM     58  F   UNL A   1      48.043  32.466  30.744  1.00  0.00    -0.206 F 
ATOM     59  C   UNL A   1      47.689  35.669  29.120  1.00  0.00     0.060 A 
BRANCH  59  60
ATOM     60  S   UNL A   1      48.086  37.408  29.424  1.00  0.00     0.124 S 
ATOM     61  O   UNL A   1      49.529  37.355  29.624  1.00  0.00    -0.237 OA
ATOM     62  O   UNL A   1      47.633  38.045  28.192  1.00  0.00    -0.237 OA
ATOM     63  O   UNL A   1      47.296  37.727  30.610  1.00  0.00    -0.744 OA
ENDBRANCH  59  60
ENDBRANCH  27  52
BRANCH  39  64
ATOM     64  C   UNL A   1      49.924  27.204  26.139  1.00  0.00     0.058 A 
ATOM     65  C   UNL A   1      50.877  26.733  27.057  1.00  0.00     0.135 A 
ATOM     66  C   UNL A   1      50.287  27.238  24.783  1.00  0.00     0.135 A 
ATOM     67  F   UNL A   1      50.585  26.679  28.367  1.00  0.00    -0.206 F 
ATOM     68  C   UNL A   1      52.138  26.311  26.647  1.00  0.00     0.059 A 
ATOM     69  C   UNL A   1      51.533  26.795  24.347  1.00  0.00     0.059 A 
ATOM     70  F   UNL A   1      49.412  27.667  23.860  1.00  0.00    -0.206 F 
ATOM     71  C   UNL A   1      52.454  26.336  25.288  1.00  0.00     0.060 A 
BRANCH  71  72
ATOM     72  S   UNL A   1      54.074  25.732  24.766  1.00  0.00     0.124 S 
ATOM     73  O   UNL A   1      54.127  26.188  23.380  1.00  0.00    -0.237 OA
ATOM     74  O   UNL A   1      54.972  26.413  25.691  1.00  0.00    -0.237 OA
ATOM     75  O   UNL A   1      53.974  24.286  24.945  1.00  0.00    -0.744 OA
ENDBRANCH  71  72
ENDBRANCH  39  64
ENDBRANCH  13  14
ENDBRANCH   6   8
ENDBRANCH   5   6
ENDBRANCH   4   5
ENDBRANCH   3   4
ENDBRANCH   2   3
ENDBRANCH   1   2
BRANCH   1  76
ATOM     76  C   UNL A   1      34.317  31.437  27.714  1.00  0.00     0.188 C 
BRANCH  76  77
ATOM     77  O   UNL A   1      34.656  30.063  27.565  1.00  0.00    -0.376 OA
BRANCH  77  78
ATOM     78  C   UNL A   1      33.775  28.966  27.298  1.00  0.00     0.202 C 
BRANCH  78  79
ATOM     79  C   UNL A   1      33.849  27.960  26.146  1.00  0.00     0.261 C 
BRANCH  79  80
ATOM     80  O   UNL A   1      33.182  26.756  26.444  1.00  0.00    -0.462 OA
BRANCH  80  81
ATOM     81  C   UNL A   1      33.698  25.702  25.798  1.00  0.00     0.324 C 
ATOM     82  O   UNL A   1      34.746  25.719  25.158  1.00  0.00    -0.250 OA
BRANCH  81  83
ATOM     83  C   UNL A   1      32.964  24.453  26.082  1.00  0.00     0.183 C 
ATOM     84  C   UNL A   1      34.011  23.422  26.481  1.00  0.00     0.034 C 
ATOM     85  N   UNL A   1      31.949  23.696  25.292  1.00  0.00    -0.184 NA
ATOM     86  C   UNL A   1      33.161  22.267  26.910  1.00  0.00     0.019 C 
ATOM     87  C   UNL A   1      31.942  22.354  25.997  1.00  0.00     0.103 C 
BRANCH  85  88
ATOM     88  S   UNL A   1      31.874  23.658  23.549  1.00  0.00     0.244 S 
ATOM     89  O   UNL A   1      33.168  23.278  23.029  1.00  0.00    -0.207 OA
ATOM     90  O   UNL A   1      30.700  22.879  23.211  1.00  0.00    -0.207 OA
BRANCH  88  91
ATOM     91  C   UNL A   1      31.482  25.366  22.882  1.00  0.00     0.090 A 
ATOM     92  C   UNL A   1      32.669  26.114  21.931  1.00  0.00     0.024 A 
ATOM     93  C   UNL A   1      30.456  26.233  23.841  1.00  0.00     0.005 A 
ATOM     94  C   UNL A   1      33.251  27.774  22.054  1.00  0.00     0.028 A 
ATOM     95  C   UNL A   1      30.789  27.926  24.116  1.00  0.00     0.019 A 
ATOM     96  C   UNL A   1      29.116  25.825  24.076  1.00  0.00     0.010 A 
ATOM     97  C   UNL A   1      32.343  28.811  23.201  1.00  0.00     0.050 A 
ATOM     98  C   UNL A   1      29.325  28.525  23.218  1.00  0.00     0.050 A 
ATOM     99  C   UNL A   1      27.996  26.705  23.943  1.00  0.00     0.002 A 
ATOM    100  N   UNL A   1      31.564  29.855  21.919  1.00  0.00    -0.321 N 
ATOM    101  C   UNL A   1      28.065  27.988  23.394  1.00  0.00     0.014 A 
ATOM    102  C   UNL A   1      29.836  29.607  21.841  1.00  0.00     0.256 C 
ATOM    103  H   UNL A   1      32.058  30.483  21.342  1.00  0.00     0.170 HD
ATOM    104  O   UNL A   1      29.182  30.095  20.926  1.00  0.00    -0.269 OA
ENDBRANCH  88  91
ENDBRANCH  85  88
ENDBRANCH  81  83
ENDBRANCH  80  81
ENDBRANCH  79  80
ENDBRANCH  78  79
ENDBRANCH  77  78
ENDBRANCH  76  77
ENDBRANCH   1  76
TORSDOF 22
ENDMDL
