MODEL 1
REMARK VINA RESULT:     -10.0      0.000      0.000
REMARK SMILES COC(=O)[C@]1(C)C[C@H](C(=O)OCCOCCOCCOC(=O)c2ccc(-c3c4nc(c(-c5c(F)cc(S(=O)(=O)[O-])cc5F)c5ccc([nH]5)c(-c5c(F)cc(S(=O)(=O)[O-])cc5F)c5nc(c(-c6c(F)cc(S(=O)(=O)[O-])cc6F)c6ccc3[nH]6)C=C5)C=C4)cc2)[C@H](c2ccccc2F)[N@H+]1C
REMARK SMILES IDX 16 1 15 2 14 3 13 4 12 5 11 6 9 7 10 8 8 9 5 10 7 11 97 12
REMARK SMILES IDX 6 13 89 14 98 15 3 17 4 18 2 19 1 20 90 21 91 22 95 23 92 24
REMARK SMILES IDX 94 25 96 26 93 27 17 28 18 29 19 30 20 31 21 32 22 33 23 34
REMARK SMILES IDX 24 35 88 36 25 37 87 38 26 39 27 40 28 41 81 42 29 43 86 44
REMARK SMILES IDX 80 45 82 46 30 47 85 48 79 49 78 50 31 52 65 53 44 54 64 55
REMARK SMILES IDX 45 56 48 57 63 58 83 59 46 60 47 61 62 63 84 64 49 65 32 66
REMARK SMILES IDX 33 67 42 68 34 69 35 70 41 71 43 72 36 73 37 74 38 75 39 76
REMARK SMILES IDX 40 77 66 78 67 79 76 80 68 81 69 82 75 83 77 84 70 85 71 86
REMARK SMILES IDX 72 87 73 88 74 89 50 90 51 91 60 92 52 93 53 94 59 95 61 96
REMARK SMILES IDX 54 97 55 98 56 99 57 100 58 101
REMARK H PARENT 97 16 82 51 48 62
REMARK Flexibility Score: inf
ROOT
ATOM      1  C   UNL A   1      36.360  21.642  24.679  1.00  0.00     0.188 C 
ENDROOT
BRANCH   1   2
ATOM      2  C   UNL A   1      35.668  21.451  26.036  1.00  0.00     0.188 C 
BRANCH   2   3
ATOM      3  O   UNL A   1      34.257  21.252  26.014  1.00  0.00    -0.376 OA
BRANCH   3   4
ATOM      4  C   UNL A   1      33.552  21.563  27.214  1.00  0.00     0.202 C 
BRANCH   4   5
ATOM      5  C   UNL A   1      33.383  23.058  27.482  1.00  0.00     0.261 C 
BRANCH   5   6
ATOM      6  O   UNL A   1      32.220  23.551  26.783  1.00  0.00    -0.463 OA
BRANCH   6   7
ATOM      7  C   UNL A   1      32.241  24.864  26.485  1.00  0.00     0.315 C 
ATOM      8  O   UNL A   1      31.338  25.633  26.808  1.00  0.00    -0.252 OA
BRANCH   7   9
ATOM      9  C   UNL A   1      33.384  25.314  25.576  1.00  0.00     0.169 C 
ATOM     10  C   UNL A   1      32.717  24.959  23.265  1.00  0.00     0.194 C 
ATOM     11  C   UNL A   1      33.492  24.318  24.423  1.00  0.00     0.103 C 
ATOM     12  N   UNL A   1      32.945  26.442  23.451  1.00  0.00    -0.316 N 
ATOM     13  C   UNL A   1      33.193  24.294  21.952  1.00  0.00     0.092 C 
ATOM     14  C   UNL A   1      33.505  26.672  24.834  1.00  0.00     0.233 C 
ATOM     15  C   UNL A   1      33.847  26.971  22.411  1.00  0.00     0.334 C 
ATOM     16  H   UNL A   1      32.061  26.940  23.356  1.00  0.00     0.349 HD
BRANCH  10  17
ATOM     17  C   UNL A   1      31.194  24.627  23.341  1.00  0.00     0.367 C 
ATOM     18  O   UNL A   1      30.310  25.452  23.141  1.00  0.00    -0.245 OA
BRANCH  17  19
ATOM     19  O   UNL A   1      30.955  23.341  23.727  1.00  0.00    -0.464 OA
ATOM     20  C   UNL A   1      31.720  22.305  23.090  1.00  0.00     0.282 C 
ENDBRANCH  17  19
ENDBRANCH  10  17
BRANCH  14  21
ATOM     21  C   UNL A   1      33.168  27.978  25.567  1.00  0.00     0.046 A 
ATOM     22  C   UNL A   1      34.068  28.525  26.506  1.00  0.00     0.013 A 
ATOM     23  C   UNL A   1      32.038  28.769  25.298  1.00  0.00     0.132 A 
ATOM     24  C   UNL A   1      33.784  29.699  27.222  1.00  0.00     0.001 A 
ATOM     25  C   UNL A   1      31.767  29.963  25.975  1.00  0.00     0.040 A 
ATOM     26  F   UNL A   1      31.154  28.443  24.354  1.00  0.00    -0.206 F 
ATOM     27  C   UNL A   1      32.625  30.417  26.962  1.00  0.00     0.003 A 
ENDBRANCH  14  21
ENDBRANCH   7   9
ENDBRANCH   6   7
ENDBRANCH   5   6
ENDBRANCH   4   5
ENDBRANCH   3   4
ENDBRANCH   2   3
ENDBRANCH   1   2
BRANCH   1  28
ATOM     28  O   UNL A   1      37.782  21.627  24.723  1.00  0.00    -0.376 OA
BRANCH  28  29
ATOM     29  C   UNL A   1      38.344  22.351  25.811  1.00  0.00     0.202 C 
BRANCH  29  30
ATOM     30  C   UNL A   1      39.749  21.851  26.148  1.00  0.00     0.261 C 
BRANCH  30  31
ATOM     31  O   UNL A   1      40.317  22.633  27.218  1.00  0.00    -0.460 OA
BRANCH  31  32
ATOM     32  C   UNL A   1      41.201  23.587  26.830  1.00  0.00     0.338 C 
ATOM     33  O   UNL A   1      42.001  23.519  25.913  1.00  0.00    -0.246 OA
BRANCH  32  34
ATOM     34  C   UNL A   1      40.982  24.815  27.622  1.00  0.00     0.060 A 
ATOM     35  C   UNL A   1      42.035  25.730  27.711  1.00  0.00     0.016 A 
ATOM     36  C   UNL A   1      39.796  25.046  28.320  1.00  0.00     0.016 A 
ATOM     37  C   UNL A   1      41.917  26.869  28.511  1.00  0.00     0.010 A 
ATOM     38  C   UNL A   1      39.684  26.187  29.129  1.00  0.00     0.010 A 
ATOM     39  C   UNL A   1      40.750  27.099  29.244  1.00  0.00    -0.014 A 
BRANCH  39  40
ATOM     40  C   UNL A   1      40.704  28.184  30.260  1.00  0.00     0.031 A 
ATOM     41  C   UNL A   1      41.607  28.074  31.454  1.00  0.00     0.074 A 
ATOM     42  C   UNL A   1      39.900  29.257  30.139  1.00  0.00     0.049 A 
ATOM     43  N   UNL A   1      41.632  28.796  32.543  1.00  0.00    -0.248 NA
ATOM     44  C   UNL A   1      42.637  27.025  31.396  1.00  0.00     0.031 C 
ATOM     45  C   UNL A   1      39.109  29.586  28.962  1.00  0.00     0.029 A 
ATOM     46  N   UNL A   1      39.596  30.261  31.026  1.00  0.00    -0.354 N 
ATOM     47  C   UNL A   1      42.674  28.286  33.306  1.00  0.00     0.074 A 
ATOM     48  C   UNL A   1      43.249  27.187  32.559  1.00  0.00     0.031 C 
ATOM     49  C   UNL A   1      38.332  30.649  29.224  1.00  0.00     0.029 A 
ATOM     50  C   UNL A   1      38.580  31.085  30.594  1.00  0.00     0.049 A 
ATOM     51  H   UNL A   1      40.058  30.380  31.887  1.00  0.00     0.167 HD
ATOM     52  C   UNL A   1      43.110  28.700  34.517  1.00  0.00     0.037 A 
ATOM     53  C   UNL A   1      37.909  32.061  31.235  1.00  0.00     0.037 A 
ATOM     54  C   UNL A   1      42.522  29.784  35.258  1.00  0.00     0.049 A 
ATOM     55  C   UNL A   1      38.315  32.419  32.638  1.00  0.00     0.074 A 
ATOM     56  C   UNL A   1      42.862  30.255  36.513  1.00  0.00     0.029 A 
ATOM     57  N   UNL A   1      41.462  30.562  34.812  1.00  0.00    -0.354 N 
ATOM     58  N   UNL A   1      39.274  31.904  33.371  1.00  0.00    -0.248 NA
ATOM     59  C   UNL A   1      37.563  33.494  33.298  1.00  0.00     0.031 C 
ATOM     60  C   UNL A   1      41.979  31.290  36.845  1.00  0.00     0.029 A 
ATOM     61  C   UNL A   1      41.119  31.494  35.777  1.00  0.00     0.049 A 
ATOM     62  H   UNL A   1      41.020  30.465  33.939  1.00  0.00     0.167 HD
ATOM     63  C   UNL A   1      39.261  32.612  34.567  1.00  0.00     0.074 A 
ATOM     64  C   UNL A   1      38.201  33.594  34.458  1.00  0.00     0.031 C 
ATOM     65  C   UNL A   1      40.061  32.467  35.652  1.00  0.00     0.037 A 
BRANCH  52  66
ATOM     66  C   UNL A   1      44.239  27.925  35.132  1.00  0.00     0.058 A 
ATOM     67  C   UNL A   1      44.013  26.800  35.941  1.00  0.00     0.135 A 
ATOM     68  C   UNL A   1      45.566  28.337  34.935  1.00  0.00     0.135 A 
ATOM     69  F   UNL A   1      42.761  26.380  36.182  1.00  0.00    -0.206 F 
ATOM     70  C   UNL A   1      45.063  26.133  36.564  1.00  0.00     0.059 A 
ATOM     71  C   UNL A   1      46.632  27.670  35.528  1.00  0.00     0.059 A 
ATOM     72  F   UNL A   1      45.834  29.411  34.176  1.00  0.00    -0.206 F 
ATOM     73  C   UNL A   1      46.369  26.583  36.358  1.00  0.00     0.060 A 
BRANCH  73  74
ATOM     74  S   UNL A   1      47.721  25.734  37.202  1.00  0.00     0.124 S 
ATOM     75  O   UNL A   1      48.771  26.747  37.156  1.00  0.00    -0.237 OA
ATOM     76  O   UNL A   1      47.153  25.470  38.520  1.00  0.00    -0.237 OA
ATOM     77  O   UNL A   1      47.950  24.555  36.374  1.00  0.00    -0.744 OA
ENDBRANCH  73  74
ENDBRANCH  52  66
BRANCH  53  78
ATOM     78  C   UNL A   1      36.776  32.755  30.563  1.00  0.00     0.058 A 
ATOM     79  C   UNL A   1      35.467  32.260  30.648  1.00  0.00     0.135 A 
ATOM     80  C   UNL A   1      36.983  33.931  29.823  1.00  0.00     0.135 A 
ATOM     81  F   UNL A   1      35.219  31.134  31.334  1.00  0.00    -0.206 F 
ATOM     82  C   UNL A   1      34.404  32.899  30.016  1.00  0.00     0.059 A 
ATOM     83  C   UNL A   1      35.933  34.600  29.201  1.00  0.00     0.059 A 
ATOM     84  F   UNL A   1      38.216  34.450  29.716  1.00  0.00    -0.206 F 
ATOM     85  C   UNL A   1      34.646  34.070  29.296  1.00  0.00     0.060 A 
BRANCH  85  86
ATOM     86  S   UNL A   1      33.251  34.915  28.516  1.00  0.00     0.124 S 
ATOM     87  O   UNL A   1      32.530  35.423  29.678  1.00  0.00    -0.237 OA
ATOM     88  O   UNL A   1      33.921  35.916  27.693  1.00  0.00    -0.237 OA
ATOM     89  O   UNL A   1      32.584  33.848  27.776  1.00  0.00    -0.744 OA
ENDBRANCH  85  86
ENDBRANCH  53  78
BRANCH  65  90
ATOM     90  C   UNL A   1      39.843  33.409  36.801  1.00  0.00     0.058 A 
ATOM     91  C   UNL A   1      38.916  33.130  37.816  1.00  0.00     0.135 A 
ATOM     92  C   UNL A   1      40.618  34.575  36.919  1.00  0.00     0.135 A 
ATOM     93  F   UNL A   1      38.145  32.033  37.745  1.00  0.00    -0.206 F 
ATOM     94  C   UNL A   1      38.753  33.982  38.904  1.00  0.00     0.059 A 
ATOM     95  C   UNL A   1      40.489  35.427  38.010  1.00  0.00     0.059 A 
ATOM     96  F   UNL A   1      41.524  34.882  35.978  1.00  0.00    -0.206 F 
ATOM     97  C   UNL A   1      39.548  35.127  38.993  1.00  0.00     0.060 A 
BRANCH  97  98
ATOM     98  S   UNL A   1      39.363  36.200  40.433  1.00  0.00     0.124 S 
ATOM     99  O   UNL A   1      40.753  36.492  40.762  1.00  0.00    -0.237 OA
ATOM    100  O   UNL A   1      38.589  37.316  39.896  1.00  0.00    -0.237 OA
ATOM    101  O   UNL A   1      38.653  35.359  41.393  1.00  0.00    -0.744 OA
ENDBRANCH  97  98
ENDBRANCH  65  90
ENDBRANCH  39  40
ENDBRANCH  32  34
ENDBRANCH  31  32
ENDBRANCH  30  31
ENDBRANCH  29  30
ENDBRANCH  28  29
ENDBRANCH   1  28
TORSDOF 23
ENDMDL
MODEL 2
REMARK VINA RESULT:     -10.0      2.875      3.518
REMARK SMILES COC(=O)[C@]1(C)C[C@H](C(=O)OCCOCCOCCOC(=O)c2ccc(-c3c4nc(c(-c5c(F)cc(S(=O)(=O)[O-])cc5F)c5ccc([nH]5)c(-c5c(F)cc(S(=O)(=O)[O-])cc5F)c5nc(c(-c6c(F)cc(S(=O)(=O)[O-])cc6F)c6ccc3[nH]6)C=C5)C=C4)cc2)[C@H](c2ccccc2F)[N@H+]1C
REMARK SMILES IDX 16 1 15 2 14 3 13 4 12 5 11 6 9 7 10 8 8 9 5 10 7 11 97 12
REMARK SMILES IDX 6 13 89 14 98 15 3 17 4 18 2 19 1 20 90 21 91 22 95 23 92 24
REMARK SMILES IDX 94 25 96 26 93 27 17 28 18 29 19 30 20 31 21 32 22 33 23 34
REMARK SMILES IDX 24 35 88 36 25 37 87 38 26 39 27 40 28 41 81 42 29 43 86 44
REMARK SMILES IDX 80 45 82 46 30 47 85 48 79 49 78 50 31 52 65 53 44 54 64 55
REMARK SMILES IDX 45 56 48 57 63 58 83 59 46 60 47 61 62 63 84 64 49 65 32 66
REMARK SMILES IDX 33 67 42 68 34 69 35 70 41 71 43 72 36 73 37 74 38 75 39 76
REMARK SMILES IDX 40 77 66 78 67 79 76 80 68 81 69 82 75 83 77 84 70 85 71 86
REMARK SMILES IDX 72 87 73 88 74 89 50 90 51 91 60 92 52 93 53 94 59 95 61 96
REMARK SMILES IDX 54 97 55 98 56 99 57 100 58 101
REMARK H PARENT 97 16 82 51 48 62
REMARK Flexibility Score: inf
ROOT
ATOM      1  C   UNL A   1      35.053  21.527  24.290  1.00  0.00     0.188 C 
ENDROOT
BRANCH   1   2
ATOM      2  C   UNL A   1      33.553  21.232  24.431  1.00  0.00     0.188 C 
BRANCH   2   3
ATOM      3  O   UNL A   1      32.775  22.191  25.142  1.00  0.00    -0.376 OA
BRANCH   3   4
ATOM      4  C   UNL A   1      33.033  22.311  26.540  1.00  0.00     0.202 C 
BRANCH   4   5
ATOM      5  C   UNL A   1      32.794  23.707  27.112  1.00  0.00     0.261 C 
BRANCH   5   6
ATOM      6  O   UNL A   1      31.879  24.433  26.263  1.00  0.00    -0.463 OA
BRANCH   6   7
ATOM      7  C   UNL A   1      32.081  25.764  26.203  1.00  0.00     0.315 C 
ATOM      8  O   UNL A   1      31.307  26.576  26.704  1.00  0.00    -0.252 OA
BRANCH   7   9
ATOM      9  C   UNL A   1      33.254  26.211  25.332  1.00  0.00     0.169 C 
ATOM     10  C   UNL A   1      32.557  26.138  23.003  1.00  0.00     0.194 C 
ATOM     11  C   UNL A   1      33.282  25.329  24.086  1.00  0.00     0.103 C 
ATOM     12  N   UNL A   1      32.899  27.574  23.332  1.00  0.00    -0.316 N 
ATOM     13  C   UNL A   1      32.977  25.571  21.627  1.00  0.00     0.092 C 
ATOM     14  C   UNL A   1      33.478  27.622  24.726  1.00  0.00     0.233 C 
ATOM     15  C   UNL A   1      33.838  28.132  22.340  1.00  0.00     0.334 C 
ATOM     16  H   UNL A   1      32.056  28.145  23.295  1.00  0.00     0.349 HD
BRANCH  10  17
ATOM     17  C   UNL A   1      31.012  25.919  23.061  1.00  0.00     0.367 C 
ATOM     18  O   UNL A   1      30.488  24.817  23.176  1.00  0.00    -0.245 OA
BRANCH  17  19
ATOM     19  O   UNL A   1      30.311  27.077  22.894  1.00  0.00    -0.464 OA
ATOM     20  C   UNL A   1      29.421  27.471  23.951  1.00  0.00     0.282 C 
ENDBRANCH  17  19
ENDBRANCH  10  17
BRANCH  14  21
ATOM     21  C   UNL A   1      33.245  28.872  25.586  1.00  0.00     0.046 A 
ATOM     22  C   UNL A   1      32.096  29.669  25.396  1.00  0.00     0.013 A 
ATOM     23  C   UNL A   1      34.060  29.253  26.667  1.00  0.00     0.132 A 
ATOM     24  C   UNL A   1      31.862  30.837  26.139  1.00  0.00     0.001 A 
ATOM     25  C   UNL A   1      33.812  30.392  27.441  1.00  0.00     0.040 A 
ATOM     26  F   UNL A   1      35.119  28.535  27.043  1.00  0.00    -0.206 F 
ATOM     27  C   UNL A   1      32.728  31.205  27.160  1.00  0.00     0.003 A 
ENDBRANCH  14  21
ENDBRANCH   7   9
ENDBRANCH   6   7
ENDBRANCH   5   6
ENDBRANCH   4   5
ENDBRANCH   3   4
ENDBRANCH   2   3
ENDBRANCH   1   2
BRANCH   1  28
ATOM     28  O   UNL A   1      35.913  20.456  24.660  1.00  0.00    -0.376 OA
BRANCH  28  29
ATOM     29  C   UNL A   1      36.893  20.798  25.633  1.00  0.00     0.202 C 
BRANCH  29  30
ATOM     30  C   UNL A   1      38.111  21.461  24.989  1.00  0.00     0.261 C 
BRANCH  30  31
ATOM     31  O   UNL A   1      38.689  22.428  25.889  1.00  0.00    -0.460 OA
BRANCH  31  32
ATOM     32  C   UNL A   1      37.851  23.418  26.288  1.00  0.00     0.338 C 
ATOM     33  O   UNL A   1      36.635  23.432  26.205  1.00  0.00    -0.246 OA
BRANCH  32  34
ATOM     34  C   UNL A   1      38.626  24.476  26.970  1.00  0.00     0.060 A 
ATOM     35  C   UNL A   1      38.304  24.765  28.299  1.00  0.00     0.016 A 
ATOM     36  C   UNL A   1      39.606  25.220  26.311  1.00  0.00     0.016 A 
ATOM     37  C   UNL A   1      38.945  25.809  28.971  1.00  0.00     0.010 A 
ATOM     38  C   UNL A   1      40.242  26.273  26.987  1.00  0.00     0.010 A 
ATOM     39  C   UNL A   1      39.905  26.586  28.317  1.00  0.00    -0.014 A 
BRANCH  39  40
ATOM     40  C   UNL A   1      40.425  27.827  28.951  1.00  0.00     0.031 A 
ATOM     41  C   UNL A   1      41.818  27.807  29.509  1.00  0.00     0.074 A 
ATOM     42  C   UNL A   1      39.701  28.959  29.027  1.00  0.00     0.049 A 
ATOM     43  N   UNL A   1      42.428  28.696  30.245  1.00  0.00    -0.248 NA
ATOM     44  C   UNL A   1      42.640  26.636  29.163  1.00  0.00     0.031 C 
ATOM     45  C   UNL A   1      38.417  29.182  28.379  1.00  0.00     0.029 A 
ATOM     46  N   UNL A   1      39.932  30.133  29.702  1.00  0.00    -0.354 N 
ATOM     47  C   UNL A   1      43.704  28.193  30.460  1.00  0.00     0.074 A 
ATOM     48  C   UNL A   1      43.775  26.914  29.785  1.00  0.00     0.031 C 
ATOM     49  C   UNL A   1      37.918  30.368  28.761  1.00  0.00     0.029 A 
ATOM     50  C   UNL A   1      38.859  30.997  29.681  1.00  0.00     0.049 A 
ATOM     51  H   UNL A   1      40.781  30.337  30.157  1.00  0.00     0.167 HD
ATOM     52  C   UNL A   1      44.722  28.749  31.156  1.00  0.00     0.037 A 
ATOM     53  C   UNL A   1      38.648  32.151  30.344  1.00  0.00     0.037 A 
ATOM     54  C   UNL A   1      44.636  30.013  31.837  1.00  0.00     0.049 A 
ATOM     55  C   UNL A   1      39.740  32.689  31.228  1.00  0.00     0.074 A 
ATOM     56  C   UNL A   1      45.596  30.645  32.606  1.00  0.00     0.029 A 
ATOM     57  N   UNL A   1      43.518  30.836  31.837  1.00  0.00    -0.354 N 
ATOM     58  N   UNL A   1      40.929  32.186  31.461  1.00  0.00    -0.248 NA
ATOM     59  C   UNL A   1      39.472  33.953  31.927  1.00  0.00     0.031 C 
ATOM     60  C   UNL A   1      45.043  31.830  33.107  1.00  0.00     0.029 A 
ATOM     61  C   UNL A   1      43.755  31.958  32.612  1.00  0.00     0.049 A 
ATOM     62  H   UNL A   1      42.680  30.648  31.356  1.00  0.00     0.167 HD
ATOM     63  C   UNL A   1      41.563  33.087  32.309  1.00  0.00     0.074 A 
ATOM     64  C   UNL A   1      40.627  34.167  32.545  1.00  0.00     0.031 C 
ATOM     65  C   UNL A   1      42.811  33.026  32.836  1.00  0.00     0.037 A 
BRANCH  52  66
ATOM     66  C   UNL A   1      45.988  27.948  31.261  1.00  0.00     0.058 A 
ATOM     67  C   UNL A   1      46.206  27.038  32.307  1.00  0.00     0.135 A 
ATOM     68  C   UNL A   1      47.011  28.122  30.317  1.00  0.00     0.135 A 
ATOM     69  F   UNL A   1      45.269  26.854  33.251  1.00  0.00    -0.206 F 
ATOM     70  C   UNL A   1      47.412  26.356  32.434  1.00  0.00     0.059 A 
ATOM     71  C   UNL A   1      48.215  27.433  30.411  1.00  0.00     0.059 A 
ATOM     72  F   UNL A   1      46.854  28.987  29.302  1.00  0.00    -0.206 F 
ATOM     73  C   UNL A   1      48.414  26.569  31.486  1.00  0.00     0.060 A 
BRANCH  73  74
ATOM     74  S   UNL A   1      49.989  25.708  31.681  1.00  0.00     0.124 S 
ATOM     75  O   UNL A   1      50.215  25.209  30.328  1.00  0.00    -0.237 OA
ATOM     76  O   UNL A   1      50.880  26.778  32.118  1.00  0.00    -0.237 OA
ATOM     77  O   UNL A   1      49.698  24.690  32.685  1.00  0.00    -0.744 OA
ENDBRANCH  73  74
ENDBRANCH  52  66
BRANCH  53  78
ATOM     78  C   UNL A   1      37.347  32.862  30.211  1.00  0.00     0.058 A 
ATOM     79  C   UNL A   1      36.292  32.620  31.102  1.00  0.00     0.135 A 
ATOM     80  C   UNL A   1      37.136  33.801  29.189  1.00  0.00     0.135 A 
ATOM     81  F   UNL A   1      36.441  31.724  32.090  1.00  0.00    -0.206 F 
ATOM     82  C   UNL A   1      35.070  33.276  30.980  1.00  0.00     0.059 A 
ATOM     83  C   UNL A   1      35.930  34.485  29.059  1.00  0.00     0.059 A 
ATOM     84  F   UNL A   1      38.116  34.074  28.313  1.00  0.00    -0.206 F 
ATOM     85  C   UNL A   1      34.899  34.208  29.956  1.00  0.00     0.060 A 
BRANCH  85  86
ATOM     86  S   UNL A   1      33.323  35.085  29.834  1.00  0.00     0.124 S 
ATOM     87  O   UNL A   1      32.847  35.026  31.211  1.00  0.00    -0.237 OA
ATOM     88  O   UNL A   1      33.741  36.401  29.359  1.00  0.00    -0.237 OA
ATOM     89  O   UNL A   1      32.569  34.288  28.871  1.00  0.00    -0.744 OA
ENDBRANCH  85  86
ENDBRANCH  53  78
BRANCH  65  90
ATOM     90  C   UNL A   1      43.252  34.174  33.698  1.00  0.00     0.058 A 
ATOM     91  C   UNL A   1      43.085  34.155  35.091  1.00  0.00     0.135 A 
ATOM     92  C   UNL A   1      43.906  35.279  33.129  1.00  0.00     0.135 A 
ATOM     93  F   UNL A   1      42.458  33.125  35.683  1.00  0.00    -0.206 F 
ATOM     94  C   UNL A   1      43.539  35.198  35.891  1.00  0.00     0.059 A 
ATOM     95  C   UNL A   1      44.390  36.322  33.912  1.00  0.00     0.059 A 
ATOM     96  F   UNL A   1      44.097  35.341  31.802  1.00  0.00    -0.206 F 
ATOM     97  C   UNL A   1      44.194  36.277  35.292  1.00  0.00     0.060 A 
BRANCH  97  98
ATOM     98  S   UNL A   1      44.823  37.602  36.343  1.00  0.00     0.124 S 
ATOM     99  O   UNL A   1      46.041  37.002  36.875  1.00  0.00    -0.237 OA
ATOM    100  O   UNL A   1      45.015  38.693  35.392  1.00  0.00    -0.237 OA
ATOM    101  O   UNL A   1      43.748  37.806  37.311  1.00  0.00    -0.744 OA
ENDBRANCH  97  98
ENDBRANCH  65  90
ENDBRANCH  39  40
ENDBRANCH  32  34
ENDBRANCH  31  32
ENDBRANCH  30  31
ENDBRANCH  29  30
ENDBRANCH  28  29
ENDBRANCH   1  28
TORSDOF 23
ENDMDL
MODEL 3
REMARK VINA RESULT:      -9.9      4.328      5.380
REMARK SMILES COC(=O)[C@]1(C)C[C@H](C(=O)OCCOCCOCCOC(=O)c2ccc(-c3c4nc(c(-c5c(F)cc(S(=O)(=O)[O-])cc5F)c5ccc([nH]5)c(-c5c(F)cc(S(=O)(=O)[O-])cc5F)c5nc(c(-c6c(F)cc(S(=O)(=O)[O-])cc6F)c6ccc3[nH]6)C=C5)C=C4)cc2)[C@H](c2ccccc2F)[N@H+]1C
REMARK SMILES IDX 16 1 15 2 14 3 13 4 12 5 11 6 9 7 10 8 8 9 5 10 7 11 97 12
REMARK SMILES IDX 6 13 89 14 98 15 3 17 4 18 2 19 1 20 90 21 91 22 95 23 92 24
REMARK SMILES IDX 94 25 96 26 93 27 17 28 18 29 19 30 20 31 21 32 22 33 23 34
REMARK SMILES IDX 24 35 88 36 25 37 87 38 26 39 27 40 28 41 81 42 29 43 86 44
REMARK SMILES IDX 80 45 82 46 30 47 85 48 79 49 78 50 31 52 65 53 44 54 64 55
REMARK SMILES IDX 45 56 48 57 63 58 83 59 46 60 47 61 62 63 84 64 49 65 32 66
REMARK SMILES IDX 33 67 42 68 34 69 35 70 41 71 43 72 36 73 37 74 38 75 39 76
REMARK SMILES IDX 40 77 66 78 67 79 76 80 68 81 69 82 75 83 77 84 70 85 71 86
REMARK SMILES IDX 72 87 73 88 74 89 50 90 51 91 60 92 52 93 53 94 59 95 61 96
REMARK SMILES IDX 54 97 55 98 56 99 57 100 58 101
REMARK H PARENT 97 16 82 51 48 62
REMARK Flexibility Score: inf
ROOT
ATOM      1  C   UNL A   1      35.065  20.734  24.445  1.00  0.00     0.188 C 
ENDROOT
BRANCH   1   2
ATOM      2  C   UNL A   1      33.770  20.662  25.266  1.00  0.00     0.188 C 
BRANCH   2   3
ATOM      3  O   UNL A   1      33.086  21.891  25.494  1.00  0.00    -0.376 OA
BRANCH   3   4
ATOM      4  C   UNL A   1      32.519  22.073  26.790  1.00  0.00     0.202 C 
BRANCH   4   5
ATOM      5  C   UNL A   1      32.369  23.532  27.218  1.00  0.00     0.261 C 
BRANCH   5   6
ATOM      6  O   UNL A   1      31.881  24.319  26.110  1.00  0.00    -0.463 OA
BRANCH   6   7
ATOM      7  C   UNL A   1      32.120  25.642  26.192  1.00  0.00     0.315 C 
ATOM      8  O   UNL A   1      31.388  26.412  26.809  1.00  0.00    -0.252 OA
BRANCH   7   9
ATOM      9  C   UNL A   1      33.275  26.155  25.334  1.00  0.00     0.169 C 
ATOM     10  C   UNL A   1      32.652  25.941  22.993  1.00  0.00     0.194 C 
ATOM     11  C   UNL A   1      33.412  25.234  24.124  1.00  0.00     0.103 C 
ATOM     12  N   UNL A   1      32.865  27.411  23.276  1.00  0.00    -0.316 N 
ATOM     13  C   UNL A   1      33.156  25.362  21.651  1.00  0.00     0.092 C 
ATOM     14  C   UNL A   1      33.398  27.557  24.681  1.00  0.00     0.233 C 
ATOM     15  C   UNL A   1      33.781  28.010  22.287  1.00  0.00     0.334 C 
ATOM     16  H   UNL A   1      31.978  27.908  23.197  1.00  0.00     0.349 HD
BRANCH  10  17
ATOM     17  C   UNL A   1      31.130  25.594  23.021  1.00  0.00     0.367 C 
ATOM     18  O   UNL A   1      30.695  24.449  23.008  1.00  0.00    -0.245 OA
BRANCH  17  19
ATOM     19  O   UNL A   1      30.339  26.704  22.985  1.00  0.00    -0.464 OA
ATOM     20  C   UNL A   1      29.286  26.800  23.959  1.00  0.00     0.282 C 
ENDBRANCH  17  19
ENDBRANCH  10  17
BRANCH  14  21
ATOM     21  C   UNL A   1      33.038  28.813  25.487  1.00  0.00     0.046 A 
ATOM     22  C   UNL A   1      31.853  29.527  25.211  1.00  0.00     0.013 A 
ATOM     23  C   UNL A   1      33.766  29.278  26.597  1.00  0.00     0.132 A 
ATOM     24  C   UNL A   1      31.504  30.698  25.902  1.00  0.00     0.001 A 
ATOM     25  C   UNL A   1      33.403  30.419  27.320  1.00  0.00     0.040 A 
ATOM     26  F   UNL A   1      34.846  28.641  27.052  1.00  0.00    -0.206 F 
ATOM     27  C   UNL A   1      32.286  31.151  26.956  1.00  0.00     0.003 A 
ENDBRANCH  14  21
ENDBRANCH   7   9
ENDBRANCH   6   7
ENDBRANCH   5   6
ENDBRANCH   4   5
ENDBRANCH   3   4
ENDBRANCH   2   3
ENDBRANCH   1   2
BRANCH   1  28
ATOM     28  O   UNL A   1      36.079  19.819  24.843  1.00  0.00    -0.376 OA
BRANCH  28  29
ATOM     29  C   UNL A   1      37.086  20.382  25.676  1.00  0.00     0.202 C 
BRANCH  29  30
ATOM     30  C   UNL A   1      38.047  21.261  24.875  1.00  0.00     0.261 C 
BRANCH  30  31
ATOM     31  O   UNL A   1      38.717  22.194  25.746  1.00  0.00    -0.460 OA
BRANCH  31  32
ATOM     32  C   UNL A   1      37.983  23.280  26.101  1.00  0.00     0.338 C 
ATOM     33  O   UNL A   1      36.769  23.379  26.105  1.00  0.00    -0.246 OA
BRANCH  32  34
ATOM     34  C   UNL A   1      38.882  24.336  26.613  1.00  0.00     0.060 A 
ATOM     35  C   UNL A   1      38.785  24.674  27.966  1.00  0.00     0.016 A 
ATOM     36  C   UNL A   1      39.759  25.033  25.780  1.00  0.00     0.016 A 
ATOM     37  C   UNL A   1      39.549  25.719  28.490  1.00  0.00     0.010 A 
ATOM     38  C   UNL A   1      40.519  26.088  26.308  1.00  0.00     0.010 A 
ATOM     39  C   UNL A   1      40.408  26.450  27.665  1.00  0.00    -0.014 A 
BRANCH  39  40
ATOM     40  C   UNL A   1      41.051  27.694  28.164  1.00  0.00     0.031 A 
ATOM     41  C   UNL A   1      42.550  27.762  28.175  1.00  0.00     0.074 A 
ATOM     42  C   UNL A   1      40.340  28.757  28.587  1.00  0.00     0.049 A 
ATOM     43  N   UNL A   1      43.335  28.659  28.709  1.00  0.00    -0.248 NA
ATOM     44  C   UNL A   1      43.254  26.684  27.462  1.00  0.00     0.031 C 
ATOM     45  C   UNL A   1      38.898  28.905  28.469  1.00  0.00     0.029 A 
ATOM     46  N   UNL A   1      40.734  29.908  29.225  1.00  0.00    -0.354 N 
ATOM     47  C   UNL A   1      44.627  28.253  28.405  1.00  0.00     0.074 A 
ATOM     48  C   UNL A   1      44.520  27.023  27.650  1.00  0.00     0.031 C 
ATOM     49  C   UNL A   1      38.505  30.023  29.100  1.00  0.00     0.029 A 
ATOM     50  C   UNL A   1      39.680  30.679  29.663  1.00  0.00     0.049 A 
ATOM     51  H   UNL A   1      41.677  30.158  29.356  1.00  0.00     0.167 HD
ATOM     52  C   UNL A   1      45.795  28.855  28.728  1.00  0.00     0.037 A 
ATOM     53  C   UNL A   1      39.660  31.774  30.447  1.00  0.00     0.037 A 
ATOM     54  C   UNL A   1      45.892  30.069  29.492  1.00  0.00     0.049 A 
ATOM     55  C   UNL A   1      40.966  32.355  30.916  1.00  0.00     0.074 A 
ATOM     56  C   UNL A   1      47.028  30.738  29.909  1.00  0.00     0.029 A 
ATOM     57  N   UNL A   1      44.806  30.795  29.963  1.00  0.00    -0.354 N 
ATOM     58  N   UNL A   1      42.186  31.941  30.661  1.00  0.00    -0.248 NA
ATOM     59  C   UNL A   1      40.901  33.553  31.763  1.00  0.00     0.031 C 
ATOM     60  C   UNL A   1      46.630  31.844  30.670  1.00  0.00     0.029 A 
ATOM     61  C   UNL A   1      45.245  31.890  30.687  1.00  0.00     0.049 A 
ATOM     62  H   UNL A   1      43.862  30.563  29.806  1.00  0.00     0.167 HD
ATOM     63  C   UNL A   1      43.033  32.845  31.291  1.00  0.00     0.074 A 
ATOM     64  C   UNL A   1      42.187  33.830  31.936  1.00  0.00     0.031 C 
ATOM     65  C   UNL A   1      44.389  32.862  31.322  1.00  0.00     0.037 A 
BRANCH  52  66
ATOM     66  C   UNL A   1      47.056  28.159  28.302  1.00  0.00     0.058 A 
ATOM     67  C   UNL A   1      47.653  27.159  29.086  1.00  0.00     0.135 A 
ATOM     68  C   UNL A   1      47.693  28.525  27.107  1.00  0.00     0.135 A 
ATOM     69  F   UNL A   1      47.097  26.790  30.251  1.00  0.00    -0.206 F 
ATOM     70  C   UNL A   1      48.859  26.573  28.717  1.00  0.00     0.059 A 
ATOM     71  C   UNL A   1      48.886  27.935  26.706  1.00  0.00     0.059 A 
ATOM     72  F   UNL A   1      47.166  29.481  26.326  1.00  0.00    -0.206 F 
ATOM     73  C   UNL A   1      49.473  26.975  27.529  1.00  0.00     0.060 A 
BRANCH  73  74
ATOM     74  S   UNL A   1      51.057  26.236  27.078  1.00  0.00     0.124 S 
ATOM     75  O   UNL A   1      51.961  26.891  28.019  1.00  0.00    -0.237 OA
ATOM     76  O   UNL A   1      50.819  24.816  27.314  1.00  0.00    -0.237 OA
ATOM     77  O   UNL A   1      51.223  26.617  25.680  1.00  0.00    -0.744 OA
ENDBRANCH  73  74
ENDBRANCH  52  66
BRANCH  53  78
ATOM     78  C   UNL A   1      38.362  32.380  30.853  1.00  0.00     0.058 A 
ATOM     79  C   UNL A   1      37.758  32.054  32.075  1.00  0.00     0.135 A 
ATOM     80  C   UNL A   1      37.701  33.300  30.023  1.00  0.00     0.135 A 
ATOM     81  F   UNL A   1      38.344  31.172  32.899  1.00  0.00    -0.206 F 
ATOM     82  C   UNL A   1      36.540  32.611  32.458  1.00  0.00     0.059 A 
ATOM     83  C   UNL A   1      36.494  33.886  30.393  1.00  0.00     0.059 A 
ATOM     84  F   UNL A   1      38.241  33.651  28.845  1.00  0.00    -0.206 F 
ATOM     85  C   UNL A   1      35.917  33.528  31.610  1.00  0.00     0.060 A 
BRANCH  85  86
ATOM     86  S   UNL A   1      34.358  34.276  32.138  1.00  0.00     0.124 S 
ATOM     87  O   UNL A   1      33.710  34.538  30.857  1.00  0.00    -0.237 OA
ATOM     88  O   UNL A   1      33.767  33.215  32.946  1.00  0.00    -0.237 OA
ATOM     89  O   UNL A   1      34.788  35.457  32.881  1.00  0.00    -0.744 OA
ENDBRANCH  85  86
ENDBRANCH  53  78
BRANCH  65  90
ATOM     90  C   UNL A   1      45.047  33.995  32.056  1.00  0.00     0.058 A 
ATOM     91  C   UNL A   1      45.377  35.197  31.412  1.00  0.00     0.135 A 
ATOM     92  C   UNL A   1      45.294  33.899  33.435  1.00  0.00     0.135 A 
ATOM     93  F   UNL A   1      45.169  35.335  30.092  1.00  0.00    -0.206 F 
ATOM     94  C   UNL A   1      45.941  36.261  32.106  1.00  0.00     0.059 A 
ATOM     95  C   UNL A   1      45.835  34.959  34.154  1.00  0.00     0.059 A 
ATOM     96  F   UNL A   1      44.989  32.773  34.099  1.00  0.00    -0.206 F 
ATOM     97  C   UNL A   1      46.164  36.134  33.479  1.00  0.00     0.060 A 
BRANCH  97  98
ATOM     98  S   UNL A   1      46.852  37.538  34.381  1.00  0.00     0.124 S 
ATOM     99  O   UNL A   1      45.833  37.761  35.400  1.00  0.00    -0.237 OA
ATOM    100  O   UNL A   1      48.125  37.010  34.861  1.00  0.00    -0.237 OA
ATOM    101  O   UNL A   1      46.957  38.577  33.360  1.00  0.00    -0.744 OA
ENDBRANCH  97  98
ENDBRANCH  65  90
ENDBRANCH  39  40
ENDBRANCH  32  34
ENDBRANCH  31  32
ENDBRANCH  30  31
ENDBRANCH  29  30
ENDBRANCH  28  29
ENDBRANCH   1  28
TORSDOF 23
ENDMDL
