MODEL 1
REMARK VINA RESULT:     -11.5      0.000      0.000
REMARK SMILES Cc1cccc2c1[C@H]1c3c(C)cccc3[C@H](CC(=O)OCCOCCOCCOC(=O)c3ccc(-c4c5nc(c(-c6c(F)cc(S(=O)(=O)[O-])cc6F)c6ccc([nH]6)c(-c6c(F)cc(S(=O)(=O)[O-])cc6F)c6nc(c(-c7c(F)cc(S(=O)(=O)[O-])cc7F)c7ccc4[nH]7)C=C6)C=C5)cc3)C[C@H]1CC2
REMARK SMILES IDX 25 1 24 2 23 3 22 4 21 5 20 6 18 7 19 8 17 9 16 10 1 11 2 12
REMARK SMILES IDX 3 13 7 14 4 15 6 16 8 17 5 18 101 19 9 20 99 21 100 22 10 23
REMARK SMILES IDX 15 24 98 25 12 26 11 27 14 28 13 29 26 30 27 31 28 32 29 33
REMARK SMILES IDX 30 34 31 35 32 36 33 37 97 38 34 39 96 40 35 41 36 42 37 43
REMARK SMILES IDX 90 44 38 45 95 46 89 47 91 48 39 49 94 50 88 51 87 52 40 54
REMARK SMILES IDX 74 55 53 56 73 57 54 58 57 59 72 60 92 61 55 62 56 63 71 65
REMARK SMILES IDX 93 66 58 67 41 68 42 69 51 70 43 71 44 72 50 73 52 74 45 75
REMARK SMILES IDX 46 76 47 77 48 78 49 79 75 80 76 81 85 82 77 83 78 84 84 85
REMARK SMILES IDX 86 86 79 87 80 88 81 89 82 90 83 91 59 92 60 93 69 94 61 95
REMARK SMILES IDX 62 96 68 97 70 98 63 99 64 100 65 101 66 102 67 103
REMARK H PARENT 91 53 57 64
REMARK Flexibility Score: inf
ROOT
ATOM      1  C   UNL A   1      33.937  34.910  29.650  1.00  0.00     0.188 C 
ENDROOT
BRANCH   1   2
ATOM      2  C   UNL A   1      34.322  34.220  28.342  1.00  0.00     0.188 C 
BRANCH   2   3
ATOM      3  O   UNL A   1      35.350  33.250  28.358  1.00  0.00    -0.376 OA
BRANCH   3   4
ATOM      4  C   UNL A   1      35.078  32.030  27.664  1.00  0.00     0.202 C 
BRANCH   4   5
ATOM      5  C   UNL A   1      33.625  31.493  27.688  1.00  0.00     0.261 C 
BRANCH   5   6
ATOM      6  O   UNL A   1      33.518  30.146  27.166  1.00  0.00    -0.463 OA
BRANCH   6   7
ATOM      7  C   UNL A   1      32.708  29.883  26.115  1.00  0.00     0.306 C 
ATOM      8  O   UNL A   1      31.715  30.546  25.842  1.00  0.00    -0.252 OA
BRANCH   7   9
ATOM      9  C   UNL A   1      33.179  28.698  25.258  1.00  0.00     0.131 C 
BRANCH   9  10
ATOM     10  C   UNL A   1      32.395  27.346  25.285  1.00  0.00     0.031 C 
ATOM     11  C   UNL A   1      35.982  22.854  25.166  1.00  0.00     0.044 C 
ATOM     12  C   UNL A   1      34.602  22.253  25.099  1.00  0.00    -0.047 A 
ATOM     13  C   UNL A   1      34.473  20.886  24.809  1.00  0.00     0.004 A 
ATOM     14  C   UNL A   1      33.433  23.031  25.278  1.00  0.00    -0.034 A 
ATOM     15  C   UNL A   1      33.221  20.275  24.793  1.00  0.00     0.001 A 
ATOM     16  C   UNL A   1      32.191  22.375  25.432  1.00  0.00    -0.044 A 
ATOM     17  C   UNL A   1      33.478  24.556  25.256  1.00  0.00     0.053 C 
ATOM     18  C   UNL A   1      32.093  21.005  25.155  1.00  0.00     0.004 A 
ATOM     19  C   UNL A   1      30.989  23.069  26.036  1.00  0.00     0.036 C 
ATOM     20  C   UNL A   1      33.090  25.243  23.919  1.00  0.00    -0.034 A 
ATOM     21  C   UNL A   1      32.562  25.039  26.414  1.00  0.00     0.002 C 
ATOM     22  C   UNL A   1      31.104  24.586  26.196  1.00  0.00     0.009 C 
ATOM     23  C   UNL A   1      33.239  24.692  22.610  1.00  0.00    -0.047 A 
ATOM     24  C   UNL A   1      32.473  26.513  24.012  1.00  0.00    -0.040 A 
ATOM     25  C   UNL A   1      32.723  26.553  26.566  1.00  0.00     0.013 C 
ATOM     26  C   UNL A   1      32.702  25.357  21.486  1.00  0.00     0.004 A 
ATOM     27  C   UNL A   1      33.840  23.360  22.268  1.00  0.00     0.044 C 
ATOM     28  C   UNL A   1      31.756  26.984  22.902  1.00  0.00     0.004 A 
ATOM     29  C   UNL A   1      31.912  26.469  21.636  1.00  0.00     0.001 A 
ENDBRANCH   9  10
ENDBRANCH   7   9
ENDBRANCH   6   7
ENDBRANCH   5   6
ENDBRANCH   4   5
ENDBRANCH   3   4
ENDBRANCH   2   3
ENDBRANCH   1   2
BRANCH   1  30
ATOM     30  O   UNL A   1      33.561  34.148  30.776  1.00  0.00    -0.376 OA
BRANCH  30  31
ATOM     31  C   UNL A   1      34.650  33.685  31.581  1.00  0.00     0.202 C 
BRANCH  31  32
ATOM     32  C   UNL A   1      35.033  32.180  31.531  1.00  0.00     0.261 C 
BRANCH  32  33
ATOM     33  O   UNL A   1      36.399  31.922  31.108  1.00  0.00    -0.460 OA
BRANCH  33  34
ATOM     34  C   UNL A   1      36.699  30.624  30.810  1.00  0.00     0.338 C 
ATOM     35  O   UNL A   1      35.899  29.704  30.678  1.00  0.00    -0.246 OA
BRANCH  34  36
ATOM     36  C   UNL A   1      38.105  30.519  30.342  1.00  0.00     0.060 A 
ATOM     37  C   UNL A   1      38.361  30.043  29.040  1.00  0.00     0.016 A 
ATOM     38  C   UNL A   1      39.165  30.815  31.192  1.00  0.00     0.016 A 
ATOM     39  C   UNL A   1      39.669  29.876  28.580  1.00  0.00     0.010 A 
ATOM     40  C   UNL A   1      40.476  30.575  30.757  1.00  0.00     0.010 A 
ATOM     41  C   UNL A   1      40.732  30.077  29.464  1.00  0.00    -0.014 A 
BRANCH  41  42
ATOM     42  C   UNL A   1      42.058  29.481  29.163  1.00  0.00     0.031 A 
ATOM     43  C   UNL A   1      43.250  30.402  29.183  1.00  0.00     0.074 A 
ATOM     44  C   UNL A   1      42.216  28.179  28.865  1.00  0.00     0.049 A 
ATOM     45  N   UNL A   1      44.480  30.182  28.803  1.00  0.00    -0.248 NA
ATOM     46  C   UNL A   1      43.015  31.761  29.705  1.00  0.00     0.031 C 
ATOM     47  C   UNL A   1      41.168  27.163  28.904  1.00  0.00     0.029 A 
ATOM     48  N   UNL A   1      43.335  27.496  28.453  1.00  0.00    -0.354 N 
ATOM     49  C   UNL A   1      45.162  31.372  29.030  1.00  0.00     0.074 A 
ATOM     50  C   UNL A   1      44.208  32.316  29.566  1.00  0.00     0.031 C 
ATOM     51  C   UNL A   1      41.688  25.988  28.499  1.00  0.00     0.029 A 
ATOM     52  C   UNL A   1      43.091  26.181  28.132  1.00  0.00     0.049 A 
ATOM     53  H   UNL A   1      44.227  27.909  28.392  1.00  0.00     0.167 HD
ATOM     54  C   UNL A   1      46.466  31.656  28.810  1.00  0.00     0.037 A 
ATOM     55  C   UNL A   1      43.900  25.257  27.573  1.00  0.00     0.037 A 
ATOM     56  C   UNL A   1      47.408  30.724  28.250  1.00  0.00     0.049 A 
ATOM     57  C   UNL A   1      45.320  25.632  27.217  1.00  0.00     0.074 A 
ATOM     58  C   UNL A   1      48.747  30.921  27.965  1.00  0.00     0.029 A 
ATOM     59  N   UNL A   1      47.107  29.421  27.881  1.00  0.00    -0.354 N 
ATOM     60  N   UNL A   1      45.952  26.766  27.411  1.00  0.00    -0.248 NA
ATOM     61  C   UNL A   1      46.133  24.601  26.557  1.00  0.00     0.031 C 
ATOM     62  C   UNL A   1      49.244  29.755  27.374  1.00  0.00     0.029 A 
ATOM     63  C   UNL A   1      48.229  28.811  27.344  1.00  0.00     0.049 A 
ATOM     64  H   UNL A   1      46.226  28.993  27.984  1.00  0.00     0.167 HD
ATOM     65  C   UNL A   1      47.240  26.578  26.915  1.00  0.00     0.074 A 
ATOM     66  C   UNL A   1      47.303  25.213  26.435  1.00  0.00     0.031 C 
ATOM     67  C   UNL A   1      48.275  27.454  26.858  1.00  0.00     0.037 A 
BRANCH  54  68
ATOM     68  C   UNL A   1      46.939  33.043  29.142  1.00  0.00     0.058 A 
ATOM     69  C   UNL A   1      47.404  33.376  30.423  1.00  0.00     0.135 A 
ATOM     70  C   UNL A   1      46.954  34.045  28.157  1.00  0.00     0.135 A 
ATOM     71  F   UNL A   1      47.383  32.465  31.409  1.00  0.00    -0.206 F 
ATOM     72  C   UNL A   1      47.856  34.657  30.721  1.00  0.00     0.059 A 
ATOM     73  C   UNL A   1      47.428  35.324  28.425  1.00  0.00     0.059 A 
ATOM     74  F   UNL A   1      46.507  33.783  26.919  1.00  0.00    -0.206 F 
ATOM     75  C   UNL A   1      47.870  35.623  29.713  1.00  0.00     0.060 A 
BRANCH  75  76
ATOM     76  S   UNL A   1      48.482  37.273  30.114  1.00  0.00     0.124 S 
ATOM     77  O   UNL A   1      49.486  37.475  29.074  1.00  0.00    -0.237 OA
ATOM     78  O   UNL A   1      47.277  38.086  29.997  1.00  0.00    -0.237 OA
ATOM     79  O   UNL A   1      49.006  37.122  31.469  1.00  0.00    -0.744 OA
ENDBRANCH  75  76
ENDBRANCH  54  68
BRANCH  55  80
ATOM     80  C   UNL A   1      43.389  23.887  27.288  1.00  0.00     0.058 A 
ATOM     81  C   UNL A   1      43.114  23.480  25.973  1.00  0.00     0.135 A 
ATOM     82  C   UNL A   1      43.153  22.962  28.318  1.00  0.00     0.135 A 
ATOM     83  F   UNL A   1      43.298  24.334  24.955  1.00  0.00    -0.206 F 
ATOM     84  C   UNL A   1      42.622  22.210  25.689  1.00  0.00     0.059 A 
ATOM     85  C   UNL A   1      42.688  21.676  28.056  1.00  0.00     0.059 A 
ATOM     86  F   UNL A   1      43.394  23.300  29.594  1.00  0.00    -0.206 F 
ATOM     87  C   UNL A   1      42.421  21.310  26.737  1.00  0.00     0.060 A 
BRANCH  87  88
ATOM     88  S   UNL A   1      41.842  19.645  26.345  1.00  0.00     0.124 S 
ATOM     89  O   UNL A   1      42.535  19.377  25.091  1.00  0.00    -0.237 OA
ATOM     90  O   UNL A   1      42.299  18.885  27.504  1.00  0.00    -0.237 OA
ATOM     91  O   UNL A   1      40.394  19.807  26.243  1.00  0.00    -0.744 OA
ENDBRANCH  87  88
ENDBRANCH  55  80
BRANCH  67  92
ATOM     92  C   UNL A   1      49.570  26.965  26.263  1.00  0.00     0.058 A 
ATOM     93  C   UNL A   1      50.534  26.303  27.041  1.00  0.00     0.135 A 
ATOM     94  C   UNL A   1      49.834  27.121  24.891  1.00  0.00     0.135 A 
ATOM     95  F   UNL A   1      50.335  26.125  28.356  1.00  0.00    -0.206 F 
ATOM     96  C   UNL A   1      51.730  25.851  26.490  1.00  0.00     0.059 A 
ATOM     97  C   UNL A   1      51.008  26.646  24.312  1.00  0.00     0.059 A 
ATOM     98  F   UNL A   1      48.941  27.728  24.094  1.00  0.00    -0.206 F 
ATOM     99  C   UNL A   1      51.959  26.030  25.124  1.00  0.00     0.060 A 
BRANCH  99 100
ATOM    100  S   UNL A   1      53.515  25.439  24.426  1.00  0.00     0.124 S 
ATOM    101  O   UNL A   1      53.350  25.769  23.015  1.00  0.00    -0.237 OA
ATOM    102  O   UNL A   1      54.502  26.233  25.152  1.00  0.00    -0.237 OA
ATOM    103  O   UNL A   1      53.512  24.013  24.741  1.00  0.00    -0.744 OA
ENDBRANCH  99 100
ENDBRANCH  67  92
ENDBRANCH  41  42
ENDBRANCH  34  36
ENDBRANCH  33  34
ENDBRANCH  32  33
ENDBRANCH  31  32
ENDBRANCH  30  31
ENDBRANCH   1  30
TORSDOF 21
ENDMDL
MODEL 2
REMARK VINA RESULT:     -11.5      5.990     11.863
REMARK SMILES Cc1cccc2c1[C@H]1c3c(C)cccc3[C@H](CC(=O)OCCOCCOCCOC(=O)c3ccc(-c4c5nc(c(-c6c(F)cc(S(=O)(=O)[O-])cc6F)c6ccc([nH]6)c(-c6c(F)cc(S(=O)(=O)[O-])cc6F)c6nc(c(-c7c(F)cc(S(=O)(=O)[O-])cc7F)c7ccc4[nH]7)C=C6)C=C5)cc3)C[C@H]1CC2
REMARK SMILES IDX 25 1 24 2 23 3 22 4 21 5 20 6 18 7 19 8 17 9 16 10 1 11 2 12
REMARK SMILES IDX 3 13 7 14 4 15 6 16 8 17 5 18 101 19 9 20 99 21 100 22 10 23
REMARK SMILES IDX 15 24 98 25 12 26 11 27 14 28 13 29 26 30 27 31 28 32 29 33
REMARK SMILES IDX 30 34 31 35 32 36 33 37 97 38 34 39 96 40 35 41 36 42 37 43
REMARK SMILES IDX 90 44 38 45 95 46 89 47 91 48 39 49 94 50 88 51 87 52 40 54
REMARK SMILES IDX 74 55 53 56 73 57 54 58 57 59 72 60 92 61 55 62 56 63 71 65
REMARK SMILES IDX 93 66 58 67 41 68 42 69 51 70 43 71 44 72 50 73 52 74 45 75
REMARK SMILES IDX 46 76 47 77 48 78 49 79 75 80 76 81 85 82 77 83 78 84 84 85
REMARK SMILES IDX 86 86 79 87 80 88 81 89 82 90 83 91 59 92 60 93 69 94 61 95
REMARK SMILES IDX 62 96 68 97 70 98 63 99 64 100 65 101 66 102 67 103
REMARK H PARENT 91 53 57 64
REMARK Flexibility Score: inf
ROOT
ATOM      1  C   UNL A   1      42.858  22.403  26.688  1.00  0.00     0.188 C 
ENDROOT
BRANCH   1   2
ATOM      2  C   UNL A   1      41.567  22.318  25.874  1.00  0.00     0.188 C 
BRANCH   2   3
ATOM      3  O   UNL A   1      40.417  21.756  26.474  1.00  0.00    -0.376 OA
BRANCH   3   4
ATOM      4  C   UNL A   1      39.349  22.660  26.762  1.00  0.00     0.202 C 
BRANCH   4   5
ATOM      5  C   UNL A   1      38.231  22.819  25.702  1.00  0.00     0.261 C 
BRANCH   5   6
ATOM      6  O   UNL A   1      37.132  21.897  25.905  1.00  0.00    -0.463 OA
BRANCH   6   7
ATOM      7  C   UNL A   1      35.856  22.346  25.921  1.00  0.00     0.306 C 
ATOM      8  O   UNL A   1      35.456  23.226  26.674  1.00  0.00    -0.252 OA
BRANCH   7   9
ATOM      9  C   UNL A   1      34.958  21.683  24.865  1.00  0.00     0.131 C 
BRANCH   9  10
ATOM     10  C   UNL A   1      33.965  22.547  24.021  1.00  0.00     0.031 C 
ATOM     11  C   UNL A   1      34.000  28.034  25.738  1.00  0.00     0.044 C 
ATOM     12  C   UNL A   1      32.923  27.961  24.687  1.00  0.00    -0.047 A 
ATOM     13  C   UNL A   1      32.067  29.060  24.518  1.00  0.00     0.004 A 
ATOM     14  C   UNL A   1      32.722  26.805  23.895  1.00  0.00    -0.034 A 
ATOM     15  C   UNL A   1      31.094  29.060  23.521  1.00  0.00     0.001 A 
ATOM     16  C   UNL A   1      31.856  26.881  22.781  1.00  0.00    -0.044 A 
ATOM     17  C   UNL A   1      33.375  25.472  24.247  1.00  0.00     0.053 C 
ATOM     18  C   UNL A   1      31.025  27.999  22.624  1.00  0.00     0.004 A 
ATOM     19  C   UNL A   1      31.903  25.864  21.661  1.00  0.00     0.036 C 
ATOM     20  C   UNL A   1      32.496  24.450  25.017  1.00  0.00    -0.034 A 
ATOM     21  C   UNL A   1      33.887  24.867  22.911  1.00  0.00     0.002 C 
ATOM     22  C   UNL A   1      32.722  24.602  21.937  1.00  0.00     0.009 C 
ATOM     23  C   UNL A   1      31.417  24.757  25.901  1.00  0.00    -0.047 A 
ATOM     24  C   UNL A   1      32.752  23.080  24.773  1.00  0.00    -0.040 A 
ATOM     25  C   UNL A   1      34.726  23.627  23.225  1.00  0.00     0.013 C 
ATOM     26  C   UNL A   1      30.597  23.730  26.416  1.00  0.00     0.004 A 
ATOM     27  C   UNL A   1      30.949  26.129  26.290  1.00  0.00     0.044 C 
ATOM     28  C   UNL A   1      31.758  22.150  25.112  1.00  0.00     0.004 A 
ATOM     29  C   UNL A   1      30.729  22.436  25.979  1.00  0.00     0.001 A 
ENDBRANCH   9  10
ENDBRANCH   7   9
ENDBRANCH   6   7
ENDBRANCH   5   6
ENDBRANCH   4   5
ENDBRANCH   3   4
ENDBRANCH   2   3
ENDBRANCH   1   2
BRANCH   1  30
ATOM     30  O   UNL A   1      44.113  22.323  26.050  1.00  0.00    -0.376 OA
BRANCH  30  31
ATOM     31  C   UNL A   1      44.629  23.572  25.578  1.00  0.00     0.202 C 
BRANCH  31  32
ATOM     32  C   UNL A   1      43.668  24.555  24.854  1.00  0.00     0.261 C 
BRANCH  32  33
ATOM     33  O   UNL A   1      43.570  25.865  25.476  1.00  0.00    -0.460 OA
BRANCH  33  34
ATOM     34  C   UNL A   1      42.316  26.262  25.843  1.00  0.00     0.338 C 
ATOM     35  O   UNL A   1      41.277  26.050  25.227  1.00  0.00    -0.246 OA
BRANCH  34  36
ATOM     36  C   UNL A   1      42.315  26.711  27.259  1.00  0.00     0.060 A 
ATOM     37  C   UNL A   1      41.387  26.148  28.157  1.00  0.00     0.016 A 
ATOM     38  C   UNL A   1      43.166  27.726  27.687  1.00  0.00     0.016 A 
ATOM     39  C   UNL A   1      41.316  26.582  29.482  1.00  0.00     0.010 A 
ATOM     40  C   UNL A   1      43.041  28.213  28.995  1.00  0.00     0.010 A 
ATOM     41  C   UNL A   1      42.097  27.666  29.887  1.00  0.00    -0.014 A 
BRANCH  41  42
ATOM     42  C   UNL A   1      41.722  28.427  31.106  1.00  0.00     0.031 A 
ATOM     43  C   UNL A   1      40.564  29.383  30.993  1.00  0.00     0.074 A 
ATOM     44  C   UNL A   1      42.382  28.300  32.271  1.00  0.00     0.049 A 
ATOM     45  N   UNL A   1      40.136  30.278  31.843  1.00  0.00    -0.248 NA
ATOM     46  C   UNL A   1      39.782  29.316  29.745  1.00  0.00     0.031 C 
ATOM     47  C   UNL A   1      43.453  27.346  32.544  1.00  0.00     0.029 A 
ATOM     48  N   UNL A   1      42.246  29.001  33.445  1.00  0.00    -0.354 N 
ATOM     49  C   UNL A   1      39.046  30.886  31.231  1.00  0.00     0.074 A 
ATOM     50  C   UNL A   1      38.885  30.270  29.934  1.00  0.00     0.031 C 
ATOM     51  C   UNL A   1      43.901  27.544  33.798  1.00  0.00     0.029 A 
ATOM     52  C   UNL A   1      43.177  28.665  34.399  1.00  0.00     0.049 A 
ATOM     53  H   UNL A   1      41.548  29.681  33.589  1.00  0.00     0.167 HD
ATOM     54  C   UNL A   1      38.250  31.872  31.706  1.00  0.00     0.037 A 
ATOM     55  C   UNL A   1      43.436  29.224  35.599  1.00  0.00     0.037 A 
ATOM     56  C   UNL A   1      38.428  32.503  32.986  1.00  0.00     0.049 A 
ATOM     57  C   UNL A   1      42.615  30.408  36.057  1.00  0.00     0.074 A 
ATOM     58  C   UNL A   1      37.689  33.528  33.550  1.00  0.00     0.029 A 
ATOM     59  N   UNL A   1      39.421  32.176  33.897  1.00  0.00    -0.354 N 
ATOM     60  N   UNL A   1      41.601  30.994  35.464  1.00  0.00    -0.248 NA
ATOM     61  C   UNL A   1      42.982  31.011  37.346  1.00  0.00     0.031 C 
ATOM     62  C   UNL A   1      38.268  33.856  34.780  1.00  0.00     0.029 A 
ATOM     63  C   UNL A   1      39.332  32.998  35.008  1.00  0.00     0.049 A 
ATOM     64  H   UNL A   1      40.091  31.465  33.773  1.00  0.00     0.167 HD
ATOM     65  C   UNL A   1      41.200  32.021  36.316  1.00  0.00     0.074 A 
ATOM     66  C   UNL A   1      42.064  31.959  37.475  1.00  0.00     0.031 C 
ATOM     67  C   UNL A   1      40.208  32.934  36.152  1.00  0.00     0.037 A 
BRANCH  54  68
ATOM     68  C   UNL A   1      37.136  32.351  30.817  1.00  0.00     0.058 A 
ATOM     69  C   UNL A   1      35.837  31.828  30.917  1.00  0.00     0.135 A 
ATOM     70  C   UNL A   1      37.364  33.366  29.874  1.00  0.00     0.135 A 
ATOM     71  F   UNL A   1      35.571  30.836  31.781  1.00  0.00    -0.206 F 
ATOM     72  C   UNL A   1      34.807  32.287  30.104  1.00  0.00     0.059 A 
ATOM     73  C   UNL A   1      36.342  33.859  29.071  1.00  0.00     0.059 A 
ATOM     74  F   UNL A   1      38.591  33.890  29.729  1.00  0.00    -0.206 F 
ATOM     75  C   UNL A   1      35.068  33.307  29.188  1.00  0.00     0.060 A 
BRANCH  75  76
ATOM     76  S   UNL A   1      33.710  33.904  28.159  1.00  0.00     0.124 S 
ATOM     77  O   UNL A   1      33.227  32.662  27.561  1.00  0.00    -0.237 OA
ATOM     78  O   UNL A   1      32.825  34.518  29.142  1.00  0.00    -0.237 OA
ATOM     79  O   UNL A   1      34.362  34.830  27.237  1.00  0.00    -0.744 OA
ENDBRANCH  75  76
ENDBRANCH  54  68
BRANCH  55  80
ATOM     80  C   UNL A   1      44.535  28.695  36.453  1.00  0.00     0.058 A 
ATOM     81  C   UNL A   1      45.815  29.270  36.419  1.00  0.00     0.135 A 
ATOM     82  C   UNL A   1      44.337  27.600  37.310  1.00  0.00     0.135 A 
ATOM     83  F   UNL A   1      46.064  30.302  35.598  1.00  0.00    -0.206 F 
ATOM     84  C   UNL A   1      46.858  28.779  37.198  1.00  0.00     0.059 A 
ATOM     85  C   UNL A   1      45.357  27.108  38.120  1.00  0.00     0.059 A 
ATOM     86  F   UNL A   1      43.135  27.008  37.378  1.00  0.00    -0.206 F 
ATOM     87  C   UNL A   1      46.617  27.703  38.054  1.00  0.00     0.060 A 
BRANCH  87  88
ATOM     88  S   UNL A   1      47.965  27.118  39.105  1.00  0.00     0.124 S 
ATOM     89  O   UNL A   1      48.307  28.325  39.848  1.00  0.00    -0.237 OA
ATOM     90  O   UNL A   1      47.315  26.059  39.869  1.00  0.00    -0.237 OA
ATOM     91  O   UNL A   1      48.967  26.663  38.145  1.00  0.00    -0.744 OA
ENDBRANCH  87  88
ENDBRANCH  55  80
BRANCH  67  92
ATOM     92  C   UNL A   1      39.996  33.937  37.256  1.00  0.00     0.058 A 
ATOM     93  C   UNL A   1      40.577  35.215  37.213  1.00  0.00     0.135 A 
ATOM     94  C   UNL A   1      39.169  33.634  38.352  1.00  0.00     0.135 A 
ATOM     95  F   UNL A   1      41.375  35.560  36.190  1.00  0.00    -0.206 F 
ATOM     96  C   UNL A   1      40.380  36.140  38.234  1.00  0.00     0.059 A 
ATOM     97  C   UNL A   1      38.930  34.556  39.367  1.00  0.00     0.059 A 
ATOM     98  F   UNL A   1      38.571  32.435  38.438  1.00  0.00    -0.206 F 
ATOM     99  C   UNL A   1      39.556  35.800  39.308  1.00  0.00     0.060 A 
BRANCH  99 100
ATOM    100  S   UNL A   1      39.313  37.012  40.624  1.00  0.00     0.124 S 
ATOM    101  O   UNL A   1      38.658  38.100  39.906  1.00  0.00    -0.237 OA
ATOM    102  O   UNL A   1      38.474  36.281  41.569  1.00  0.00    -0.237 OA
ATOM    103  O   UNL A   1      40.669  37.293  41.085  1.00  0.00    -0.744 OA
ENDBRANCH  99 100
ENDBRANCH  67  92
ENDBRANCH  41  42
ENDBRANCH  34  36
ENDBRANCH  33  34
ENDBRANCH  32  33
ENDBRANCH  31  32
ENDBRANCH  30  31
ENDBRANCH   1  30
TORSDOF 21
ENDMDL
MODEL 3
REMARK VINA RESULT:     -11.1      5.347     12.841
REMARK SMILES Cc1cccc2c1[C@H]1c3c(C)cccc3[C@H](CC(=O)OCCOCCOCCOC(=O)c3ccc(-c4c5nc(c(-c6c(F)cc(S(=O)(=O)[O-])cc6F)c6ccc([nH]6)c(-c6c(F)cc(S(=O)(=O)[O-])cc6F)c6nc(c(-c7c(F)cc(S(=O)(=O)[O-])cc7F)c7ccc4[nH]7)C=C6)C=C5)cc3)C[C@H]1CC2
REMARK SMILES IDX 25 1 24 2 23 3 22 4 21 5 20 6 18 7 19 8 17 9 16 10 1 11 2 12
REMARK SMILES IDX 3 13 7 14 4 15 6 16 8 17 5 18 101 19 9 20 99 21 100 22 10 23
REMARK SMILES IDX 15 24 98 25 12 26 11 27 14 28 13 29 26 30 27 31 28 32 29 33
REMARK SMILES IDX 30 34 31 35 32 36 33 37 97 38 34 39 96 40 35 41 36 42 37 43
REMARK SMILES IDX 90 44 38 45 95 46 89 47 91 48 39 49 94 50 88 51 87 52 40 54
REMARK SMILES IDX 74 55 53 56 73 57 54 58 57 59 72 60 92 61 55 62 56 63 71 65
REMARK SMILES IDX 93 66 58 67 41 68 42 69 51 70 43 71 44 72 50 73 52 74 45 75
REMARK SMILES IDX 46 76 47 77 48 78 49 79 75 80 76 81 85 82 77 83 78 84 84 85
REMARK SMILES IDX 86 86 79 87 80 88 81 89 82 90 83 91 59 92 60 93 69 94 61 95
REMARK SMILES IDX 62 96 68 97 70 98 63 99 64 100 65 101 66 102 67 103
REMARK H PARENT 91 53 57 64
REMARK Flexibility Score: inf
ROOT
ATOM      1  C   UNL A   1      47.087  27.757  23.874  1.00  0.00     0.188 C 
ENDROOT
BRANCH   1   2
ATOM      2  C   UNL A   1      45.873  27.262  24.661  1.00  0.00     0.188 C 
BRANCH   2   3
ATOM      3  O   UNL A   1      45.855  25.924  25.118  1.00  0.00    -0.376 OA
BRANCH   3   4
ATOM      4  C   UNL A   1      44.566  25.334  25.293  1.00  0.00     0.202 C 
BRANCH   4   5
ATOM      5  C   UNL A   1      44.334  23.917  24.709  1.00  0.00     0.261 C 
BRANCH   5   6
ATOM      6  O   UNL A   1      42.964  23.470  24.852  1.00  0.00    -0.463 OA
BRANCH   6   7
ATOM      7  C   UNL A   1      42.672  22.391  25.614  1.00  0.00     0.306 C 
ATOM      8  O   UNL A   1      43.488  21.523  25.900  1.00  0.00    -0.252 OA
BRANCH   7   9
ATOM      9  C   UNL A   1      41.227  22.380  26.137  1.00  0.00     0.131 C 
BRANCH   9  10
ATOM     10  C   UNL A   1      40.784  23.385  27.249  1.00  0.00     0.031 C 
ATOM     11  C   UNL A   1      42.773  28.674  26.190  1.00  0.00     0.044 C 
ATOM     12  C   UNL A   1      42.097  28.774  27.533  1.00  0.00    -0.047 A 
ATOM     13  C   UNL A   1      42.269  29.940  28.293  1.00  0.00     0.004 A 
ATOM     14  C   UNL A   1      41.327  27.713  28.067  1.00  0.00    -0.034 A 
ATOM     15  C   UNL A   1      41.617  30.101  29.513  1.00  0.00     0.001 A 
ATOM     16  C   UNL A   1      40.535  27.951  29.214  1.00  0.00    -0.044 A 
ATOM     17  C   UNL A   1      41.374  26.311  27.467  1.00  0.00     0.053 C 
ATOM     18  C   UNL A   1      40.714  29.134  29.944  1.00  0.00     0.004 A 
ATOM     19  C   UNL A   1      39.388  27.042  29.596  1.00  0.00     0.036 C 
ATOM     20  C   UNL A   1      42.304  25.285  28.171  1.00  0.00    -0.034 A 
ATOM     21  C   UNL A   1      39.908  25.798  27.434  1.00  0.00     0.002 C 
ATOM     22  C   UNL A   1      39.318  25.706  28.855  1.00  0.00     0.009 C 
ATOM     23  C   UNL A   1      43.491  25.584  28.906  1.00  0.00    -0.047 A 
ATOM     24  C   UNL A   1      41.902  23.929  28.129  1.00  0.00    -0.040 A 
ATOM     25  C   UNL A   1      39.869  24.478  26.660  1.00  0.00     0.013 C 
ATOM     26  C   UNL A   1      44.161  24.573  29.629  1.00  0.00     0.004 A 
ATOM     27  C   UNL A   1      44.096  26.943  29.106  1.00  0.00     0.044 C 
ATOM     28  C   UNL A   1      42.463  23.043  29.060  1.00  0.00     0.004 A 
ATOM     29  C   UNL A   1      43.618  23.319  29.755  1.00  0.00     0.001 A 
ENDBRANCH   9  10
ENDBRANCH   7   9
ENDBRANCH   6   7
ENDBRANCH   5   6
ENDBRANCH   4   5
ENDBRANCH   3   4
ENDBRANCH   2   3
ENDBRANCH   1   2
BRANCH   1  30
ATOM     30  O   UNL A   1      47.884  26.850  23.146  1.00  0.00    -0.376 OA
BRANCH  30  31
ATOM     31  C   UNL A   1      49.037  27.428  22.523  1.00  0.00     0.202 C 
BRANCH  31  32
ATOM     32  C   UNL A   1      50.447  26.957  22.972  1.00  0.00     0.261 C 
BRANCH  32  33
ATOM     33  O   UNL A   1      50.883  27.498  24.248  1.00  0.00    -0.460 OA
BRANCH  33  34
ATOM     34  C   UNL A   1      51.245  26.584  25.195  1.00  0.00     0.338 C 
ATOM     35  O   UNL A   1      52.244  25.873  25.174  1.00  0.00    -0.246 OA
BRANCH  34  36
ATOM     36  C   UNL A   1      50.444  26.781  26.430  1.00  0.00     0.060 A 
ATOM     37  C   UNL A   1      49.101  26.355  26.453  1.00  0.00     0.016 A 
ATOM     38  C   UNL A   1      50.980  27.440  27.532  1.00  0.00     0.016 A 
ATOM     39  C   UNL A   1      48.298  26.570  27.574  1.00  0.00     0.010 A 
ATOM     40  C   UNL A   1      50.151  27.725  28.626  1.00  0.00     0.010 A 
ATOM     41  C   UNL A   1      48.803  27.319  28.640  1.00  0.00    -0.014 A 
BRANCH  41  42
ATOM     42  C   UNL A   1      47.864  27.945  29.606  1.00  0.00     0.031 A 
ATOM     43  C   UNL A   1      47.355  27.083  30.731  1.00  0.00     0.074 A 
ATOM     44  C   UNL A   1      47.455  29.222  29.495  1.00  0.00     0.049 A 
ATOM     45  N   UNL A   1      46.415  27.324  31.605  1.00  0.00    -0.248 NA
ATOM     46  C   UNL A   1      47.999  25.767  30.887  1.00  0.00     0.031 C 
ATOM     47  C   UNL A   1      47.941  30.190  28.516  1.00  0.00     0.029 A 
ATOM     48  N   UNL A   1      46.515  29.915  30.219  1.00  0.00    -0.354 N 
ATOM     49  C   UNL A   1      46.348  26.189  32.406  1.00  0.00     0.074 A 
ATOM     50  C   UNL A   1      47.331  25.255  31.907  1.00  0.00     0.031 C 
ATOM     51  C   UNL A   1      47.271  31.346  28.679  1.00  0.00     0.029 A 
ATOM     52  C   UNL A   1      46.281  31.185  29.745  1.00  0.00     0.049 A 
ATOM     53  H   UNL A   1      46.053  29.538  31.002  1.00  0.00     0.167 HD
ATOM     54  C   UNL A   1      45.539  25.946  33.463  1.00  0.00     0.037 A 
ATOM     55  C   UNL A   1      45.350  32.091  30.108  1.00  0.00     0.037 A 
ATOM     56  C   UNL A   1      44.543  26.866  33.941  1.00  0.00     0.049 A 
ATOM     57  C   UNL A   1      44.372  31.749  31.208  1.00  0.00     0.074 A 
ATOM     58  C   UNL A   1      43.655  26.704  34.991  1.00  0.00     0.029 A 
ATOM     59  N   UNL A   1      44.294  28.117  33.396  1.00  0.00    -0.354 N 
ATOM     60  N   UNL A   1      44.298  30.666  31.946  1.00  0.00    -0.248 NA
ATOM     61  C   UNL A   1      43.344  32.754  31.518  1.00  0.00     0.031 C 
ATOM     62  C   UNL A   1      42.835  27.835  35.046  1.00  0.00     0.029 A 
ATOM     63  C   UNL A   1      43.248  28.727  34.069  1.00  0.00     0.049 A 
ATOM     64  H   UNL A   1      44.788  28.513  32.641  1.00  0.00     0.167 HD
ATOM     65  C   UNL A   1      43.230  30.868  32.817  1.00  0.00     0.074 A 
ATOM     66  C   UNL A   1      42.705  32.186  32.531  1.00  0.00     0.031 C 
ATOM     67  C   UNL A   1      42.726  30.036  33.765  1.00  0.00     0.037 A 
BRANCH  54  68
ATOM     68  C   UNL A   1      45.676  24.615  34.148  1.00  0.00     0.058 A 
ATOM     69  C   UNL A   1      44.957  23.488  33.720  1.00  0.00     0.135 A 
ATOM     70  C   UNL A   1      46.559  24.458  35.228  1.00  0.00     0.135 A 
ATOM     71  F   UNL A   1      44.077  23.589  32.711  1.00  0.00    -0.206 F 
ATOM     72  C   UNL A   1      45.099  22.255  34.347  1.00  0.00     0.059 A 
ATOM     73  C   UNL A   1      46.738  23.228  35.852  1.00  0.00     0.059 A 
ATOM     74  F   UNL A   1      47.260  25.507  35.687  1.00  0.00    -0.206 F 
ATOM     75  C   UNL A   1      45.998  22.134  35.409  1.00  0.00     0.060 A 
BRANCH  75  76
ATOM     76  S   UNL A   1      46.185  20.519  36.194  1.00  0.00     0.124 S 
ATOM     77  O   UNL A   1      47.589  20.222  35.924  1.00  0.00    -0.237 OA
ATOM     78  O   UNL A   1      45.856  20.812  37.585  1.00  0.00    -0.237 OA
ATOM     79  O   UNL A   1      45.221  19.682  35.485  1.00  0.00    -0.744 OA
ENDBRANCH  75  76
ENDBRANCH  54  68
BRANCH  55  80
ATOM     80  C   UNL A   1      45.273  33.407  29.414  1.00  0.00     0.058 A 
ATOM     81  C   UNL A   1      45.880  34.547  29.961  1.00  0.00     0.135 A 
ATOM     82  C   UNL A   1      44.584  33.557  28.199  1.00  0.00     0.135 A 
ATOM     83  F   UNL A   1      46.529  34.464  31.133  1.00  0.00    -0.206 F 
ATOM     84  C   UNL A   1      45.806  35.788  29.334  1.00  0.00     0.059 A 
ATOM     85  C   UNL A   1      44.519  34.780  27.539  1.00  0.00     0.059 A 
ATOM     86  F   UNL A   1      43.980  32.500  27.633  1.00  0.00    -0.206 F 
ATOM     87  C   UNL A   1      45.130  35.892  28.117  1.00  0.00     0.060 A 
BRANCH  87  88
ATOM     88  S   UNL A   1      45.096  37.496  27.286  1.00  0.00     0.124 S 
ATOM     89  O   UNL A   1      46.032  37.281  26.188  1.00  0.00    -0.237 OA
ATOM     90  O   UNL A   1      43.690  37.614  26.914  1.00  0.00    -0.237 OA
ATOM     91  O   UNL A   1      45.543  38.423  28.322  1.00  0.00    -0.744 OA
ENDBRANCH  87  88
ENDBRANCH  55  80
BRANCH  67  92
ATOM     92  C   UNL A   1      41.553  30.529  34.572  1.00  0.00     0.058 A 
ATOM     93  C   UNL A   1      41.722  31.376  35.678  1.00  0.00     0.135 A 
ATOM     94  C   UNL A   1      40.238  30.184  34.210  1.00  0.00     0.135 A 
ATOM     95  F   UNL A   1      42.955  31.740  36.068  1.00  0.00    -0.206 F 
ATOM     96  C   UNL A   1      40.637  31.831  36.421  1.00  0.00     0.059 A 
ATOM     97  C   UNL A   1      39.136  30.654  34.919  1.00  0.00     0.059 A 
ATOM     98  F   UNL A   1      40.013  29.392  33.150  1.00  0.00    -0.206 F 
ATOM     99  C   UNL A   1      39.347  31.462  36.035  1.00  0.00     0.060 A 
BRANCH  99 100
ATOM    100  S   UNL A   1      37.951  32.059  37.011  1.00  0.00     0.124 S 
ATOM    101  O   UNL A   1      37.460  30.822  37.610  1.00  0.00    -0.237 OA
ATOM    102  O   UNL A   1      38.591  32.996  37.928  1.00  0.00    -0.237 OA
ATOM    103  O   UNL A   1      37.072  32.666  36.016  1.00  0.00    -0.744 OA
ENDBRANCH  99 100
ENDBRANCH  67  92
ENDBRANCH  41  42
ENDBRANCH  34  36
ENDBRANCH  33  34
ENDBRANCH  32  33
ENDBRANCH  31  32
ENDBRANCH  30  31
ENDBRANCH   1  30
TORSDOF 21
ENDMDL
