MODEL 1
REMARK VINA RESULT:      -9.1      0.000      0.000
REMARK SMILES CC(C)(C)c1ccc(N2C(=O)/C(=C\c3ccc(OCC(=O)OCCOCCOCCOC(=O)c4ccc(-c5c6nc(c(-c7c(F)cc(S(=O)(=O)[O-])cc7F)c7ccc([nH]7)c(-c7c(F)cc(S(=O)(=O)[O-])cc7F)c7nc(c(-c8c(F)cc(S(=O)(=O)[O-])cc8F)c8ccc5[nH]8)C=C7)C=C6)cc4)c(Br)c3)C(=O)[NH+]=C2O)cc1
REMARK SMILES IDX 26 1 25 2 24 3 23 4 22 5 20 6 21 7 19 8 18 9 17 10 14 11
REMARK SMILES IDX 15 12 102 13 16 14 100 15 101 16 13 17 9 18 10 19 106 20
REMARK SMILES IDX 11 21 12 22 105 23 103 24 104 26 8 27 5 28 6 29 109 30 7 31
REMARK SMILES IDX 108 32 2 33 1 34 3 35 4 36 107 37 27 39 28 40 29 41 30 42
REMARK SMILES IDX 31 43 32 44 33 45 34 46 35 47 99 48 36 49 98 50 37 51 38 52
REMARK SMILES IDX 39 53 92 54 40 55 97 56 91 57 93 58 41 59 96 60 90 61 89 62
REMARK SMILES IDX 42 64 76 65 55 66 75 67 56 68 59 69 74 70 94 71 57 72 58 73
REMARK SMILES IDX 73 75 95 76 60 77 43 78 44 79 53 80 45 81 46 82 52 83 54 84
REMARK SMILES IDX 47 85 48 86 49 87 50 88 51 89 77 90 78 91 87 92 79 93 80 94
REMARK SMILES IDX 86 95 88 96 81 97 82 98 83 99 84 100 85 101 61 102 62 103
REMARK SMILES IDX 71 104 63 105 64 106 70 107 72 108 65 109 66 110 67 111
REMARK SMILES IDX 68 112 69 113
REMARK H PARENT 105 25 107 38 93 63 59 74
REMARK Flexibility Score: inf
ROOT
ATOM      1  C   UNL A   1      37.749  28.869  31.407  1.00  0.00     0.188 C 
ENDROOT
BRANCH   1   2
ATOM      2  O   UNL A   1      38.254  28.246  30.241  1.00  0.00    -0.376 OA
BRANCH   2   3
ATOM      3  C   UNL A   1      39.051  29.034  29.362  1.00  0.00     0.202 C 
BRANCH   3   4
ATOM      4  C   UNL A   1      40.257  28.364  28.650  1.00  0.00     0.261 C 
BRANCH   4   5
ATOM      5  O   UNL A   1      40.014  27.846  27.300  1.00  0.00    -0.461 OA
BRANCH   5   6
ATOM      6  C   UNL A   1      40.624  26.682  26.934  1.00  0.00     0.344 C 
ATOM      7  O   UNL A   1      41.365  26.598  25.956  1.00  0.00    -0.248 OA
BRANCH   6   8
ATOM      8  C   UNL A   1      40.381  25.430  27.885  1.00  0.00     0.352 C 
BRANCH   8   9
ATOM      9  O   UNL A   1      40.379  24.034  27.566  1.00  0.00    -0.481 OA
BRANCH   9  10
ATOM     10  C   UNL A   1      39.484  23.334  26.782  1.00  0.00     0.134 A 
ATOM     11  C   UNL A   1      37.071  22.232  25.544  1.00  0.00    -0.023 A 
ATOM     12  C   UNL A   1      37.190  23.586  25.816  1.00  0.00     0.012 A 
ATOM     13  C   UNL A   1      38.261  21.481  25.716  1.00  0.00     0.027 A 
ATOM     14  C   UNL A   1      38.370  24.116  26.413  1.00  0.00     0.048 A 
ATOM     15  C   UNL A   1      39.452  22.014  26.319  1.00  0.00     0.060 A 
ATOM     16  Br  UNL A   1      40.935  20.825  26.381  1.00  0.00    -0.047 Br
BRANCH  11  17
ATOM     17  C   UNL A   1      35.809  21.567  25.044  1.00  0.00     0.032 C 
ATOM     18  N   UNL A   1      33.108  23.646  23.534  1.00  0.00    -0.124 N 
ATOM     19  C   UNL A   1      34.445  23.187  23.429  1.00  0.00     0.357 C 
ATOM     20  C   UNL A   1      32.159  22.691  23.797  1.00  0.00     0.462 C 
ATOM     21  O   UNL A   1      35.323  23.708  22.741  1.00  0.00    -0.240 OA
ATOM     22  C   UNL A   1      34.742  21.922  24.246  1.00  0.00     0.155 C 
ATOM     23  N   UNL A   1      32.341  21.472  24.115  1.00  0.00    -0.172 N 
ATOM     24  C   UNL A   1      33.593  20.962  24.337  1.00  0.00     0.349 C 
ATOM     25  H   UNL A   1      31.560  20.879  24.203  1.00  0.00     0.319 HD
ATOM     26  O   UNL A   1      33.757  19.793  24.639  1.00  0.00    -0.240 OA
BRANCH  18  27
ATOM     27  C   UNL A   1      32.715  25.057  23.390  1.00  0.00     0.140 A 
ATOM     28  C   UNL A   1      31.254  27.583  23.183  1.00  0.00    -0.042 A 
ATOM     29  C   UNL A   1      31.391  26.715  22.093  1.00  0.00     0.008 A 
ATOM     30  C   UNL A   1      31.997  27.226  24.328  1.00  0.00     0.008 A 
ATOM     31  C   UNL A   1      32.133  25.510  22.185  1.00  0.00     0.053 A 
ATOM     32  C   UNL A   1      32.709  25.987  24.432  1.00  0.00     0.053 A 
BRANCH  28  33
ATOM     33  C   UNL A   1      30.274  28.790  23.129  1.00  0.00    -0.013 C 
ATOM     34  C   UNL A   1      30.383  29.580  21.802  1.00  0.00     0.016 C 
ATOM     35  C   UNL A   1      30.496  29.807  24.272  1.00  0.00     0.016 C 
ATOM     36  C   UNL A   1      28.803  28.309  23.239  1.00  0.00     0.016 C 
ENDBRANCH  28  33
ENDBRANCH  18  27
BRANCH  20  37
ATOM     37  O   UNL A   1      30.874  23.061  23.631  1.00  0.00    -0.446 OA
ATOM     38  H   UNL A   1      30.667  23.938  23.372  1.00  0.00     0.301 HD
ENDBRANCH  20  37
ENDBRANCH  11  17
ENDBRANCH   9  10
ENDBRANCH   8   9
ENDBRANCH   6   8
ENDBRANCH   5   6
ENDBRANCH   4   5
ENDBRANCH   3   4
ENDBRANCH   2   3
ENDBRANCH   1   2
BRANCH   1  39
ATOM     39  C   UNL A   1      37.477  30.374  31.347  1.00  0.00     0.188 C 
BRANCH  39  40
ATOM     40  O   UNL A   1      36.233  30.776  30.824  1.00  0.00    -0.376 OA
BRANCH  40  41
ATOM     41  C   UNL A   1      36.319  31.941  30.040  1.00  0.00     0.202 C 
BRANCH  41  42
ATOM     42  C   UNL A   1      36.504  33.242  30.825  1.00  0.00     0.261 C 
BRANCH  42  43
ATOM     43  O   UNL A   1      35.446  33.791  31.665  1.00  0.00    -0.460 OA
BRANCH  43  44
ATOM     44  C   UNL A   1      35.883  34.633  32.615  1.00  0.00     0.338 C 
ATOM     45  O   UNL A   1      35.452  35.760  32.741  1.00  0.00    -0.246 OA
BRANCH  44  46
ATOM     46  C   UNL A   1      36.745  34.177  33.705  1.00  0.00     0.060 A 
ATOM     47  C   UNL A   1      38.083  34.577  33.667  1.00  0.00     0.016 A 
ATOM     48  C   UNL A   1      36.399  33.044  34.437  1.00  0.00     0.016 A 
ATOM     49  C   UNL A   1      39.056  33.880  34.366  1.00  0.00     0.010 A 
ATOM     50  C   UNL A   1      37.359  32.392  35.216  1.00  0.00     0.010 A 
ATOM     51  C   UNL A   1      38.693  32.821  35.198  1.00  0.00    -0.014 A 
BRANCH  51  52
ATOM     52  C   UNL A   1      39.690  32.249  36.128  1.00  0.00     0.031 A 
ATOM     53  C   UNL A   1      39.928  32.851  37.478  1.00  0.00     0.074 A 
ATOM     54  C   UNL A   1      40.413  31.194  35.699  1.00  0.00     0.049 A 
ATOM     55  N   UNL A   1      40.920  32.642  38.301  1.00  0.00    -0.248 NA
ATOM     56  C   UNL A   1      38.925  33.806  37.972  1.00  0.00     0.031 C 
ATOM     57  C   UNL A   1      40.206  30.486  34.430  1.00  0.00     0.029 A 
ATOM     58  N   UNL A   1      41.478  30.544  36.265  1.00  0.00    -0.354 N 
ATOM     59  C   UNL A   1      40.688  33.465  39.396  1.00  0.00     0.074 A 
ATOM     60  C   UNL A   1      39.450  34.170  39.138  1.00  0.00     0.031 C 
ATOM     61  C   UNL A   1      41.115  29.510  34.313  1.00  0.00     0.029 A 
ATOM     62  C   UNL A   1      42.034  29.598  35.437  1.00  0.00     0.049 A 
ATOM     63  H   UNL A   1      41.811  30.735  37.173  1.00  0.00     0.167 HD
ATOM     64  C   UNL A   1      41.460  33.621  40.497  1.00  0.00     0.037 A 
ATOM     65  C   UNL A   1      43.201  28.934  35.521  1.00  0.00     0.037 A 
ATOM     66  C   UNL A   1      42.685  32.891  40.721  1.00  0.00     0.049 A 
ATOM     67  C   UNL A   1      44.085  29.195  36.705  1.00  0.00     0.074 A 
ATOM     68  C   UNL A   1      43.547  32.969  41.801  1.00  0.00     0.029 A 
ATOM     69  N   UNL A   1      43.223  31.952  39.849  1.00  0.00    -0.354 N 
ATOM     70  N   UNL A   1      43.882  30.008  37.715  1.00  0.00    -0.248 NA
ATOM     71  C   UNL A   1      45.357  28.467  36.759  1.00  0.00     0.031 C 
ATOM     72  C   UNL A   1      44.636  32.129  41.552  1.00  0.00     0.029 A 
ATOM     73  C   UNL A   1      44.418  31.469  40.354  1.00  0.00     0.049 A 
ATOM     74  H   UNL A   1      42.814  31.674  38.999  1.00  0.00     0.167 HD
ATOM     75  C   UNL A   1      44.984  29.859  38.545  1.00  0.00     0.074 A 
ATOM     76  C   UNL A   1      45.851  28.882  37.918  1.00  0.00     0.031 C 
ATOM     77  C   UNL A   1      45.252  30.474  39.724  1.00  0.00     0.037 A 
BRANCH  64  78
ATOM     78  C   UNL A   1      41.058  34.653  41.517  1.00  0.00     0.058 A 
ATOM     79  C   UNL A   1      40.375  34.321  42.695  1.00  0.00     0.135 A 
ATOM     80  C   UNL A   1      41.442  35.995  41.342  1.00  0.00     0.135 A 
ATOM     81  F   UNL A   1      39.972  33.059  42.910  1.00  0.00    -0.206 F 
ATOM     82  C   UNL A   1      40.080  35.282  43.661  1.00  0.00     0.059 A 
ATOM     83  C   UNL A   1      41.183  36.965  42.305  1.00  0.00     0.059 A 
ATOM     84  F   UNL A   1      42.097  36.370  40.232  1.00  0.00    -0.206 F 
ATOM     85  C   UNL A   1      40.494  36.600  43.459  1.00  0.00     0.060 A 
BRANCH  85  86
ATOM     86  S   UNL A   1      40.134  37.827  44.734  1.00  0.00     0.124 S 
ATOM     87  O   UNL A   1      39.590  38.924  43.941  1.00  0.00    -0.237 OA
ATOM     88  O   UNL A   1      39.177  37.123  45.582  1.00  0.00    -0.237 OA
ATOM     89  O   UNL A   1      41.437  38.081  45.342  1.00  0.00    -0.744 OA
ENDBRANCH  85  86
ENDBRANCH  64  78
BRANCH  65  90
ATOM     90  C   UNL A   1      43.622  28.032  34.416  1.00  0.00     0.058 A 
ATOM     91  C   UNL A   1      43.479  26.642  34.519  1.00  0.00     0.135 A 
ATOM     92  C   UNL A   1      44.160  28.547  33.224  1.00  0.00     0.135 A 
ATOM     93  F   UNL A   1      42.972  26.100  35.637  1.00  0.00    -0.206 F 
ATOM     94  C   UNL A   1      43.878  25.792  33.492  1.00  0.00     0.059 A 
ATOM     95  C   UNL A   1      44.531  27.721  32.169  1.00  0.00     0.059 A 
ATOM     96  F   UNL A   1      44.298  29.873  33.064  1.00  0.00    -0.206 F 
ATOM     97  C   UNL A   1      44.401  26.342  32.320  1.00  0.00     0.060 A 
BRANCH  97  98
ATOM     98  S   UNL A   1      44.897  25.232  30.987  1.00  0.00     0.124 S 
ATOM     99  O   UNL A   1      44.178  25.801  29.852  1.00  0.00    -0.237 OA
ATOM    100  O   UNL A   1      46.347  25.398  30.973  1.00  0.00    -0.237 OA
ATOM    101  O   UNL A   1      44.426  23.928  31.442  1.00  0.00    -0.744 OA
ENDBRANCH  97  98
ENDBRANCH  65  90
BRANCH  77 102
ATOM    102  C   UNL A   1      46.495  30.057  40.455  1.00  0.00     0.058 A 
ATOM    103  C   UNL A   1      47.712  30.736  40.301  1.00  0.00     0.135 A 
ATOM    104  C   UNL A   1      46.436  29.013  41.393  1.00  0.00     0.135 A 
ATOM    105  F   UNL A   1      47.823  31.731  39.407  1.00  0.00    -0.206 F 
ATOM    106  C   UNL A   1      48.830  30.396  41.055  1.00  0.00     0.059 A 
ATOM    107  C   UNL A   1      47.532  28.676  42.178  1.00  0.00     0.059 A 
ATOM    108  F   UNL A   1      45.293  28.332  41.577  1.00  0.00    -0.206 F 
ATOM    109  C   UNL A   1      48.726  29.372  42.001  1.00  0.00     0.060 A 
BRANCH 109 110
ATOM    110  S   UNL A   1      50.159  28.999  43.031  1.00  0.00     0.124 S 
ATOM    111  O   UNL A   1      49.696  27.827  43.768  1.00  0.00    -0.237 OA
ATOM    112  O   UNL A   1      51.199  28.750  42.036  1.00  0.00    -0.237 OA
ATOM    113  O   UNL A   1      50.335  30.210  43.824  1.00  0.00    -0.744 OA
ENDBRANCH 109 110
ENDBRANCH  77 102
ENDBRANCH  51  52
ENDBRANCH  44  46
ENDBRANCH  43  44
ENDBRANCH  42  43
ENDBRANCH  41  42
ENDBRANCH  40  41
ENDBRANCH  39  40
ENDBRANCH   1  39
TORSDOF 26
ENDMDL
MODEL 2
REMARK VINA RESULT:      -9.1      2.064      7.887
REMARK SMILES CC(C)(C)c1ccc(N2C(=O)/C(=C\c3ccc(OCC(=O)OCCOCCOCCOC(=O)c4ccc(-c5c6nc(c(-c7c(F)cc(S(=O)(=O)[O-])cc7F)c7ccc([nH]7)c(-c7c(F)cc(S(=O)(=O)[O-])cc7F)c7nc(c(-c8c(F)cc(S(=O)(=O)[O-])cc8F)c8ccc5[nH]8)C=C7)C=C6)cc4)c(Br)c3)C(=O)[NH+]=C2O)cc1
REMARK SMILES IDX 26 1 25 2 24 3 23 4 22 5 20 6 21 7 19 8 18 9 17 10 14 11
REMARK SMILES IDX 15 12 102 13 16 14 100 15 101 16 13 17 9 18 10 19 106 20
REMARK SMILES IDX 11 21 12 22 105 23 103 24 104 26 8 27 5 28 6 29 109 30 7 31
REMARK SMILES IDX 108 32 2 33 1 34 3 35 4 36 107 37 27 39 28 40 29 41 30 42
REMARK SMILES IDX 31 43 32 44 33 45 34 46 35 47 99 48 36 49 98 50 37 51 38 52
REMARK SMILES IDX 39 53 92 54 40 55 97 56 91 57 93 58 41 59 96 60 90 61 89 62
REMARK SMILES IDX 42 64 76 65 55 66 75 67 56 68 59 69 74 70 94 71 57 72 58 73
REMARK SMILES IDX 73 75 95 76 60 77 43 78 44 79 53 80 45 81 46 82 52 83 54 84
REMARK SMILES IDX 47 85 48 86 49 87 50 88 51 89 77 90 78 91 87 92 79 93 80 94
REMARK SMILES IDX 86 95 88 96 81 97 82 98 83 99 84 100 85 101 61 102 62 103
REMARK SMILES IDX 71 104 63 105 64 106 70 107 72 108 65 109 66 110 67 111
REMARK SMILES IDX 68 112 69 113
REMARK H PARENT 105 25 107 38 93 63 59 74
REMARK Flexibility Score: inf
ROOT
ATOM      1  C   UNL A   1      37.364  31.465  28.619  1.00  0.00     0.188 C 
ENDROOT
BRANCH   1   2
ATOM      2  O   UNL A   1      36.811  30.175  28.799  1.00  0.00    -0.376 OA
BRANCH   2   3
ATOM      3  C   UNL A   1      37.638  29.053  28.505  1.00  0.00     0.202 C 
BRANCH   3   4
ATOM      4  C   UNL A   1      39.174  29.262  28.426  1.00  0.00     0.261 C 
BRANCH   4   5
ATOM      5  O   UNL A   1      39.848  28.708  27.247  1.00  0.00    -0.461 OA
BRANCH   5   6
ATOM      6  C   UNL A   1      41.205  28.566  27.285  1.00  0.00     0.344 C 
ATOM      7  O   UNL A   1      41.968  29.288  26.646  1.00  0.00    -0.248 OA
BRANCH   6   8
ATOM      8  C   UNL A   1      41.767  27.444  28.263  1.00  0.00     0.352 C 
BRANCH   8   9
ATOM      9  O   UNL A   1      41.205  26.171  28.602  1.00  0.00    -0.481 OA
BRANCH   9  10
ATOM     10  C   UNL A   1      40.881  25.124  27.763  1.00  0.00     0.134 A 
ATOM     11  C   UNL A   1      39.539  22.916  26.387  1.00  0.00    -0.023 A 
ATOM     12  C   UNL A   1      38.870  24.091  26.690  1.00  0.00     0.012 A 
ATOM     13  C   UNL A   1      40.939  22.952  26.603  1.00  0.00     0.027 A 
ATOM     14  C   UNL A   1      39.531  25.164  27.355  1.00  0.00     0.048 A 
ATOM     15  C   UNL A   1      41.608  24.034  27.274  1.00  0.00     0.060 A 
ATOM     16  Br  UNL A   1      43.500  23.877  27.386  1.00  0.00    -0.047 Br
BRANCH  11  17
ATOM     17  C   UNL A   1      38.882  21.680  25.814  1.00  0.00     0.032 C 
ATOM     18  N   UNL A   1      35.295  21.804  24.806  1.00  0.00    -0.124 N 
ATOM     19  C   UNL A   1      36.605  22.292  24.574  1.00  0.00     0.357 C 
ATOM     20  C   UNL A   1      35.166  20.444  24.918  1.00  0.00     0.462 C 
ATOM     21  O   UNL A   1      36.881  23.327  23.967  1.00  0.00    -0.240 OA
ATOM     22  C   UNL A   1      37.719  21.394  25.132  1.00  0.00     0.155 C 
ATOM     23  N   UNL A   1      36.092  19.573  24.997  1.00  0.00    -0.172 N 
ATOM     24  C   UNL A   1      37.413  19.927  25.080  1.00  0.00     0.349 C 
ATOM     25  H   UNL A   1      35.851  18.618  24.999  1.00  0.00     0.319 HD
ATOM     26  O   UNL A   1      38.291  19.086  25.152  1.00  0.00    -0.240 OA
BRANCH  18  27
ATOM     27  C   UNL A   1      34.113  22.671  24.940  1.00  0.00     0.140 A 
ATOM     28  C   UNL A   1      32.263  24.931  25.116  1.00  0.00    -0.042 A 
ATOM     29  C   UNL A   1      33.032  24.515  26.211  1.00  0.00     0.008 A 
ATOM     30  C   UNL A   1      32.332  24.090  23.986  1.00  0.00     0.008 A 
ATOM     31  C   UNL A   1      33.898  23.395  26.134  1.00  0.00     0.053 A 
ATOM     32  C   UNL A   1      33.241  22.987  23.896  1.00  0.00     0.053 A 
BRANCH  28  33
ATOM     33  C   UNL A   1      31.479  26.274  25.151  1.00  0.00    -0.013 C 
ATOM     34  C   UNL A   1      29.959  26.065  25.355  1.00  0.00     0.016 C 
ATOM     35  C   UNL A   1      31.644  27.109  23.860  1.00  0.00     0.016 C 
ATOM     36  C   UNL A   1      31.965  27.165  26.324  1.00  0.00     0.016 C 
ENDBRANCH  28  33
ENDBRANCH  18  27
BRANCH  20  37
ATOM     37  O   UNL A   1      33.912  19.953  24.866  1.00  0.00    -0.446 OA
ATOM     38  H   UNL A   1      33.772  19.041  24.704  1.00  0.00     0.301 HD
ENDBRANCH  20  37
ENDBRANCH  11  17
ENDBRANCH   9  10
ENDBRANCH   8   9
ENDBRANCH   6   8
ENDBRANCH   5   6
ENDBRANCH   4   5
ENDBRANCH   3   4
ENDBRANCH   2   3
ENDBRANCH   1   2
BRANCH   1  39
ATOM     39  C   UNL A   1      36.455  32.553  28.042  1.00  0.00     0.188 C 
BRANCH  39  40
ATOM     40  O   UNL A   1      35.086  32.244  27.927  1.00  0.00    -0.376 OA
BRANCH  40  41
ATOM     41  C   UNL A   1      34.265  33.107  28.676  1.00  0.00     0.202 C 
BRANCH  41  42
ATOM     42  C   UNL A   1      34.562  33.150  30.176  1.00  0.00     0.261 C 
BRANCH  42  43
ATOM     43  O   UNL A   1      34.322  34.346  30.975  1.00  0.00    -0.460 OA
BRANCH  43  44
ATOM     44  C   UNL A   1      34.208  34.112  32.292  1.00  0.00     0.338 C 
ATOM     45  O   UNL A   1      33.146  33.867  32.825  1.00  0.00    -0.246 OA
BRANCH  44  46
ATOM     46  C   UNL A   1      35.384  33.912  33.138  1.00  0.00     0.060 A 
ATOM     47  C   UNL A   1      36.389  34.879  33.069  1.00  0.00     0.016 A 
ATOM     48  C   UNL A   1      35.705  32.634  33.591  1.00  0.00     0.016 A 
ATOM     49  C   UNL A   1      37.685  34.591  33.468  1.00  0.00     0.010 A 
ATOM     50  C   UNL A   1      36.986  32.365  34.079  1.00  0.00     0.010 A 
ATOM     51  C   UNL A   1      37.981  33.352  34.037  1.00  0.00    -0.014 A 
BRANCH  51  52
ATOM     52  C   UNL A   1      39.291  33.142  34.686  1.00  0.00     0.031 A 
ATOM     53  C   UNL A   1      40.427  32.499  33.953  1.00  0.00     0.074 A 
ATOM     54  C   UNL A   1      39.415  33.508  35.979  1.00  0.00     0.049 A 
ATOM     55  N   UNL A   1      41.540  32.014  34.437  1.00  0.00    -0.248 NA
ATOM     56  C   UNL A   1      40.305  32.387  32.492  1.00  0.00     0.031 C 
ATOM     57  C   UNL A   1      38.392  34.212  36.761  1.00  0.00     0.029 A 
ATOM     58  N   UNL A   1      40.438  33.323  36.872  1.00  0.00    -0.354 N 
ATOM     59  C   UNL A   1      42.237  31.502  33.349  1.00  0.00     0.074 A 
ATOM     60  C   UNL A   1      41.427  31.749  32.175  1.00  0.00     0.031 C 
ATOM     61  C   UNL A   1      38.835  34.392  38.011  1.00  0.00     0.029 A 
ATOM     62  C   UNL A   1      40.116  33.718  38.149  1.00  0.00     0.049 A 
ATOM     63  H   UNL A   1      41.314  32.945  36.623  1.00  0.00     0.167 HD
ATOM     64  C   UNL A   1      43.434  30.869  33.353  1.00  0.00     0.037 A 
ATOM     65  C   UNL A   1      40.736  33.488  39.321  1.00  0.00     0.037 A 
ATOM     66  C   UNL A   1      44.217  30.652  34.546  1.00  0.00     0.049 A 
ATOM     67  C   UNL A   1      42.013  32.702  39.309  1.00  0.00     0.074 A 
ATOM     68  C   UNL A   1      45.443  30.022  34.667  1.00  0.00     0.029 A 
ATOM     69  N   UNL A   1      43.848  31.053  35.824  1.00  0.00    -0.354 N 
ATOM     70  N   UNL A   1      42.645  32.182  38.284  1.00  0.00    -0.248 NA
ATOM     71  C   UNL A   1      42.655  32.456  40.605  1.00  0.00     0.031 C 
ATOM     72  C   UNL A   1      45.784  29.985  36.021  1.00  0.00     0.029 A 
ATOM     73  C   UNL A   1      44.808  30.658  36.740  1.00  0.00     0.049 A 
ATOM     74  H   UNL A   1      43.025  31.545  36.045  1.00  0.00     0.167 HD
ATOM     75  C   UNL A   1      43.781  31.580  38.808  1.00  0.00     0.074 A 
ATOM     76  C   UNL A   1      43.747  31.798  40.239  1.00  0.00     0.031 C 
ATOM     77  C   UNL A   1      44.766  30.911  38.159  1.00  0.00     0.037 A 
BRANCH  64  78
ATOM     78  C   UNL A   1      43.953  30.306  32.057  1.00  0.00     0.058 A 
ATOM     79  C   UNL A   1      44.757  31.050  31.181  1.00  0.00     0.135 A 
ATOM     80  C   UNL A   1      43.705  28.961  31.730  1.00  0.00     0.135 A 
ATOM     81  F   UNL A   1      45.016  32.342  31.434  1.00  0.00    -0.206 F 
ATOM     82  C   UNL A   1      45.289  30.484  30.023  1.00  0.00     0.059 A 
ATOM     83  C   UNL A   1      44.249  28.367  30.595  1.00  0.00     0.059 A 
ATOM     84  F   UNL A   1      42.942  28.202  32.532  1.00  0.00    -0.206 F 
ATOM     85  C   UNL A   1      45.034  29.140  29.743  1.00  0.00     0.060 A 
BRANCH  85  86
ATOM     86  S   UNL A   1      45.758  28.412  28.257  1.00  0.00     0.124 S 
ATOM     87  O   UNL A   1      47.181  28.645  28.479  1.00  0.00    -0.237 OA
ATOM     88  O   UNL A   1      45.322  27.022  28.348  1.00  0.00    -0.237 OA
ATOM     89  O   UNL A   1      45.160  29.183  27.172  1.00  0.00    -0.744 OA
ENDBRANCH  85  86
ENDBRANCH  64  78
BRANCH  65  90
ATOM     90  C   UNL A   1      40.108  33.942  40.591  1.00  0.00     0.058 A 
ATOM     91  C   UNL A   1      40.358  35.219  41.109  1.00  0.00     0.135 A 
ATOM     92  C   UNL A   1      39.230  33.107  41.304  1.00  0.00     0.135 A 
ATOM     93  F   UNL A   1      41.190  36.053  40.467  1.00  0.00    -0.206 F 
ATOM     94  C   UNL A   1      39.780  35.646  42.301  1.00  0.00     0.059 A 
ATOM     95  C   UNL A   1      38.611  33.525  42.477  1.00  0.00     0.059 A 
ATOM     96  F   UNL A   1      38.939  31.881  40.841  1.00  0.00    -0.206 F 
ATOM     97  C   UNL A   1      38.907  34.791  42.976  1.00  0.00     0.060 A 
BRANCH  97  98
ATOM     98  S   UNL A   1      38.148  35.362  44.511  1.00  0.00     0.124 S 
ATOM     99  O   UNL A   1      38.534  34.304  45.438  1.00  0.00    -0.237 OA
ATOM    100  O   UNL A   1      38.796  36.654  44.710  1.00  0.00    -0.237 OA
ATOM    101  O   UNL A   1      36.728  35.425  44.181  1.00  0.00    -0.744 OA
ENDBRANCH  97  98
ENDBRANCH  65  90
BRANCH  77 102
ATOM    102  C   UNL A   1      45.929  30.429  38.977  1.00  0.00     0.058 A 
ATOM    103  C   UNL A   1      46.983  31.278  39.346  1.00  0.00     0.135 A 
ATOM    104  C   UNL A   1      45.937  29.115  39.473  1.00  0.00     0.135 A 
ATOM    105  F   UNL A   1      47.029  32.538  38.885  1.00  0.00    -0.206 F 
ATOM    106  C   UNL A   1      48.006  30.841  40.180  1.00  0.00     0.059 A 
ATOM    107  C   UNL A   1      46.933  28.666  40.332  1.00  0.00     0.059 A 
ATOM    108  F   UNL A   1      44.950  28.264  39.149  1.00  0.00    -0.206 F 
ATOM    109  C   UNL A   1      47.964  29.536  40.679  1.00  0.00     0.060 A 
BRANCH 109 110
ATOM    110  S   UNL A   1      49.252  29.009  41.828  1.00  0.00     0.124 S 
ATOM    111  O   UNL A   1      49.533  30.249  42.545  1.00  0.00    -0.237 OA
ATOM    112  O   UNL A   1      48.573  27.971  42.599  1.00  0.00    -0.237 OA
ATOM    113  O   UNL A   1      50.318  28.536  40.952  1.00  0.00    -0.744 OA
ENDBRANCH 109 110
ENDBRANCH  77 102
ENDBRANCH  51  52
ENDBRANCH  44  46
ENDBRANCH  43  44
ENDBRANCH  42  43
ENDBRANCH  41  42
ENDBRANCH  40  41
ENDBRANCH  39  40
ENDBRANCH   1  39
TORSDOF 26
ENDMDL
MODEL 3
REMARK VINA RESULT:      -9.1      1.769      2.330
REMARK SMILES CC(C)(C)c1ccc(N2C(=O)/C(=C\c3ccc(OCC(=O)OCCOCCOCCOC(=O)c4ccc(-c5c6nc(c(-c7c(F)cc(S(=O)(=O)[O-])cc7F)c7ccc([nH]7)c(-c7c(F)cc(S(=O)(=O)[O-])cc7F)c7nc(c(-c8c(F)cc(S(=O)(=O)[O-])cc8F)c8ccc5[nH]8)C=C7)C=C6)cc4)c(Br)c3)C(=O)[NH+]=C2O)cc1
REMARK SMILES IDX 26 1 25 2 24 3 23 4 22 5 20 6 21 7 19 8 18 9 17 10 14 11
REMARK SMILES IDX 15 12 102 13 16 14 100 15 101 16 13 17 9 18 10 19 106 20
REMARK SMILES IDX 11 21 12 22 105 23 103 24 104 26 8 27 5 28 6 29 109 30 7 31
REMARK SMILES IDX 108 32 2 33 1 34 3 35 4 36 107 37 27 39 28 40 29 41 30 42
REMARK SMILES IDX 31 43 32 44 33 45 34 46 35 47 99 48 36 49 98 50 37 51 38 52
REMARK SMILES IDX 39 53 92 54 40 55 97 56 91 57 93 58 41 59 96 60 90 61 89 62
REMARK SMILES IDX 42 64 76 65 55 66 75 67 56 68 59 69 74 70 94 71 57 72 58 73
REMARK SMILES IDX 73 75 95 76 60 77 43 78 44 79 53 80 45 81 46 82 52 83 54 84
REMARK SMILES IDX 47 85 48 86 49 87 50 88 51 89 77 90 78 91 87 92 79 93 80 94
REMARK SMILES IDX 86 95 88 96 81 97 82 98 83 99 84 100 85 101 61 102 62 103
REMARK SMILES IDX 71 104 63 105 64 106 70 107 72 108 65 109 66 110 67 111
REMARK SMILES IDX 68 112 69 113
REMARK H PARENT 105 25 107 38 93 63 59 74
REMARK Flexibility Score: inf
ROOT
ATOM      1  C   UNL A   1      39.225  28.344  31.333  1.00  0.00     0.188 C 
ENDROOT
BRANCH   1   2
ATOM      2  O   UNL A   1      40.210  28.325  30.317  1.00  0.00    -0.376 OA
BRANCH   2   3
ATOM      3  C   UNL A   1      40.155  29.341  29.321  1.00  0.00     0.202 C 
BRANCH   3   4
ATOM      4  C   UNL A   1      40.973  29.148  28.016  1.00  0.00     0.261 C 
BRANCH   4   5
ATOM      5  O   UNL A   1      40.325  28.384  26.945  1.00  0.00    -0.461 OA
BRANCH   5   6
ATOM      6  C   UNL A   1      40.825  27.153  26.635  1.00  0.00     0.344 C 
ATOM      7  O   UNL A   1      41.361  26.905  25.557  1.00  0.00    -0.248 OA
BRANCH   6   8
ATOM      8  C   UNL A   1      40.738  26.050  27.778  1.00  0.00     0.352 C 
BRANCH   8   9
ATOM      9  O   UNL A   1      40.867  24.627  27.678  1.00  0.00    -0.481 OA
BRANCH   9  10
ATOM     10  C   UNL A   1      40.110  23.747  26.932  1.00  0.00     0.134 A 
ATOM     11  C   UNL A   1      37.931  22.179  25.765  1.00  0.00    -0.023 A 
ATOM     12  C   UNL A   1      37.802  23.541  25.987  1.00  0.00     0.012 A 
ATOM     13  C   UNL A   1      39.239  21.664  25.947  1.00  0.00     0.027 A 
ATOM     14  C   UNL A   1      38.869  24.299  26.550  1.00  0.00     0.048 A 
ATOM     15  C   UNL A   1      40.317  22.428  26.515  1.00  0.00     0.060 A 
ATOM     16  Br  UNL A   1      41.992  21.532  26.600  1.00  0.00    -0.047 Br
BRANCH  11  17
ATOM     17  C   UNL A   1      36.808  21.277  25.306  1.00  0.00     0.032 C 
ATOM     18  N   UNL A   1      33.677  22.781  23.952  1.00  0.00    -0.124 N 
ATOM     19  C   UNL A   1      35.072  22.604  23.782  1.00  0.00     0.357 C 
ATOM     20  C   UNL A   1      32.954  21.651  24.235  1.00  0.00     0.462 C 
ATOM     21  O   UNL A   1      35.795  23.300  23.068  1.00  0.00    -0.240 OA
ATOM     22  C   UNL A   1      35.656  21.417  24.561  1.00  0.00     0.155 C 
ATOM     23  N   UNL A   1      33.393  20.490  24.521  1.00  0.00    -0.172 N 
ATOM     24  C   UNL A   1      34.731  20.243  24.681  1.00  0.00     0.349 C 
ATOM     25  H   UNL A   1      32.752  19.750  24.630  1.00  0.00     0.319 HD
ATOM     26  O   UNL A   1      35.141  19.128  24.951  1.00  0.00    -0.240 OA
BRANCH  18  27
ATOM     27  C   UNL A   1      33.001  24.084  23.853  1.00  0.00     0.140 A 
ATOM     28  C   UNL A   1      32.349  26.932  23.691  1.00  0.00    -0.042 A 
ATOM     29  C   UNL A   1      32.610  26.300  24.912  1.00  0.00     0.008 A 
ATOM     30  C   UNL A   1      32.271  26.069  22.577  1.00  0.00     0.008 A 
ATOM     31  C   UNL A   1      32.887  24.911  24.992  1.00  0.00     0.053 A 
ATOM     32  C   UNL A   1      32.595  24.676  22.654  1.00  0.00     0.053 A 
BRANCH  28  33
ATOM     33  C   UNL A   1      32.251  28.481  23.594  1.00  0.00    -0.013 C 
ATOM     34  C   UNL A   1      33.576  29.128  23.120  1.00  0.00     0.016 C 
ATOM     35  C   UNL A   1      31.885  29.153  24.938  1.00  0.00     0.016 C 
ATOM     36  C   UNL A   1      31.162  28.901  22.573  1.00  0.00     0.016 C 
ENDBRANCH  28  33
ENDBRANCH  18  27
BRANCH  20  37
ATOM     37  O   UNL A   1      31.614  21.753  24.131  1.00  0.00    -0.446 OA
ATOM     38  H   UNL A   1      31.145  21.194  23.544  1.00  0.00     0.301 HD
ENDBRANCH  20  37
ENDBRANCH  11  17
ENDBRANCH   9  10
ENDBRANCH   8   9
ENDBRANCH   6   8
ENDBRANCH   5   6
ENDBRANCH   4   5
ENDBRANCH   3   4
ENDBRANCH   2   3
ENDBRANCH   1   2
BRANCH   1  39
ATOM     39  C   UNL A   1      38.134  29.414  31.245  1.00  0.00     0.188 C 
BRANCH  39  40
ATOM     40  O   UNL A   1      36.845  28.980  30.881  1.00  0.00    -0.376 OA
BRANCH  40  41
ATOM     41  C   UNL A   1      36.283  29.746  29.843  1.00  0.00     0.202 C 
BRANCH  41  42
ATOM     42  C   UNL A   1      36.459  31.260  29.982  1.00  0.00     0.261 C 
BRANCH  42  43
ATOM     43  O   UNL A   1      35.713  32.034  30.967  1.00  0.00    -0.460 OA
BRANCH  43  44
ATOM     44  C   UNL A   1      36.354  33.130  31.403  1.00  0.00     0.338 C 
ATOM     45  O   UNL A   1      36.145  34.236  30.951  1.00  0.00    -0.246 OA
BRANCH  44  46
ATOM     46  C   UNL A   1      37.185  33.102  32.606  1.00  0.00     0.060 A 
ATOM     47  C   UNL A   1      38.533  33.436  32.456  1.00  0.00     0.016 A 
ATOM     48  C   UNL A   1      36.797  32.332  33.701  1.00  0.00     0.016 A 
ATOM     49  C   UNL A   1      39.476  33.036  33.392  1.00  0.00     0.010 A 
ATOM     50  C   UNL A   1      37.726  32.005  34.692  1.00  0.00     0.010 A 
ATOM     51  C   UNL A   1      39.071  32.373  34.550  1.00  0.00    -0.014 A 
BRANCH  51  52
ATOM     52  C   UNL A   1      40.036  32.176  35.652  1.00  0.00     0.031 A 
ATOM     53  C   UNL A   1      40.337  33.272  36.626  1.00  0.00     0.074 A 
ATOM     54  C   UNL A   1      40.672  30.989  35.721  1.00  0.00     0.049 A 
ATOM     55  N   UNL A   1      41.324  33.358  37.479  1.00  0.00    -0.248 NA
ATOM     56  C   UNL A   1      39.415  34.418  36.653  1.00  0.00     0.031 C 
ATOM     57  C   UNL A   1      40.395  29.828  34.866  1.00  0.00     0.029 A 
ATOM     58  N   UNL A   1      41.694  30.562  36.529  1.00  0.00    -0.354 N 
ATOM     59  C   UNL A   1      41.169  34.581  38.119  1.00  0.00     0.074 A 
ATOM     60  C   UNL A   1      39.983  35.199  37.566  1.00  0.00     0.031 C 
ATOM     61  C   UNL A   1      41.228  28.831  35.188  1.00  0.00     0.029 A 
ATOM     62  C   UNL A   1      42.167  29.317  36.187  1.00  0.00     0.049 A 
ATOM     63  H   UNL A   1      42.054  31.093  37.277  1.00  0.00     0.167 HD
ATOM     64  C   UNL A   1      41.967  35.130  39.066  1.00  0.00     0.037 A 
ATOM     65  C   UNL A   1      43.283  28.667  36.565  1.00  0.00     0.037 A 
ATOM     66  C   UNL A   1      43.137  34.475  39.599  1.00  0.00     0.049 A 
ATOM     67  C   UNL A   1      44.200  29.338  37.543  1.00  0.00     0.074 A 
ATOM     68  C   UNL A   1      44.018  34.938  40.561  1.00  0.00     0.029 A 
ATOM     69  N   UNL A   1      43.591  33.220  39.215  1.00  0.00    -0.354 N 
ATOM     70  N   UNL A   1      44.073  30.513  38.112  1.00  0.00    -0.248 NA
ATOM     71  C   UNL A   1      45.415  28.609  37.923  1.00  0.00     0.031 C 
ATOM     72  C   UNL A   1      45.038  33.994  40.709  1.00  0.00     0.029 A 
ATOM     73  C   UNL A   1      44.755  32.907  39.897  1.00  0.00     0.049 A 
ATOM     74  H   UNL A   1      43.151  32.639  38.554  1.00  0.00     0.167 HD
ATOM     75  C   UNL A   1      45.173  30.649  38.948  1.00  0.00     0.074 A 
ATOM     76  C   UNL A   1      45.956  29.438  38.807  1.00  0.00     0.031 C 
ATOM     77  C   UNL A   1      45.502  31.681  39.761  1.00  0.00     0.037 A 
BRANCH  64  78
ATOM     78  C   UNL A   1      41.657  36.522  39.547  1.00  0.00     0.058 A 
ATOM     79  C   UNL A   1      40.698  36.781  40.537  1.00  0.00     0.135 A 
ATOM     80  C   UNL A   1      42.401  37.611  39.061  1.00  0.00     0.135 A 
ATOM     81  F   UNL A   1      39.948  35.782  41.029  1.00  0.00    -0.206 F 
ATOM     82  C   UNL A   1      40.481  38.070  41.022  1.00  0.00     0.059 A 
ATOM     83  C   UNL A   1      42.222  38.902  39.550  1.00  0.00     0.059 A 
ATOM     84  F   UNL A   1      43.332  37.423  38.112  1.00  0.00    -0.206 F 
ATOM     85  C   UNL A   1      41.253  39.122  40.526  1.00  0.00     0.060 A 
BRANCH  85  86
ATOM     86  S   UNL A   1      40.985  40.781  41.188  1.00  0.00     0.124 S 
ATOM     87  O   UNL A   1      39.556  40.963  40.955  1.00  0.00    -0.237 OA
ATOM     88  O   UNL A   1      41.385  40.628  42.583  1.00  0.00    -0.237 OA
ATOM     89  O   UNL A   1      41.862  41.620  40.376  1.00  0.00    -0.744 OA
ENDBRANCH  85  86
ENDBRANCH  64  78
BRANCH  65  90
ATOM     90  C   UNL A   1      43.619  27.354  35.951  1.00  0.00     0.058 A 
ATOM     91  C   UNL A   1      43.146  26.154  36.499  1.00  0.00     0.135 A 
ATOM     92  C   UNL A   1      44.409  27.277  34.791  1.00  0.00     0.135 A 
ATOM     93  F   UNL A   1      42.390  26.174  37.607  1.00  0.00    -0.206 F 
ATOM     94  C   UNL A   1      43.464  24.923  35.934  1.00  0.00     0.059 A 
ATOM     95  C   UNL A   1      44.708  26.061  34.186  1.00  0.00     0.059 A 
ATOM     96  F   UNL A   1      44.870  28.397  34.212  1.00  0.00    -0.206 F 
ATOM     97  C   UNL A   1      44.245  24.888  34.776  1.00  0.00     0.060 A 
BRANCH  97  98
ATOM     98  S   UNL A   1      44.634  23.286  34.041  1.00  0.00     0.124 S 
ATOM     99  O   UNL A   1      46.076  23.398  33.847  1.00  0.00    -0.237 OA
ATOM    100  O   UNL A   1      44.199  22.359  35.081  1.00  0.00    -0.237 OA
ATOM    101  O   UNL A   1      43.832  23.272  32.822  1.00  0.00    -0.744 OA
ENDBRANCH  97  98
ENDBRANCH  65  90
BRANCH  77 102
ATOM    102  C   UNL A   1      46.722  31.522  40.623  1.00  0.00     0.058 A 
ATOM    103  C   UNL A   1      46.661  30.952  41.902  1.00  0.00     0.135 A 
ATOM    104  C   UNL A   1      47.985  31.868  40.114  1.00  0.00     0.135 A 
ATOM    105  F   UNL A   1      45.476  30.620  42.438  1.00  0.00    -0.206 F 
ATOM    106  C   UNL A   1      47.812  30.727  42.649  1.00  0.00     0.059 A 
ATOM    107  C   UNL A   1      49.151  31.625  40.831  1.00  0.00     0.059 A 
ATOM    108  F   UNL A   1      48.096  32.417  38.893  1.00  0.00    -0.206 F 
ATOM    109  C   UNL A   1      49.054  31.055  42.099  1.00  0.00     0.060 A 
BRANCH 109 110
ATOM    110  S   UNL A   1      50.544  30.679  43.044  1.00  0.00     0.124 S 
ATOM    111  O   UNL A   1      51.590  30.928  42.058  1.00  0.00    -0.237 OA
ATOM    112  O   UNL A   1      50.465  31.641  44.141  1.00  0.00    -0.237 OA
ATOM    113  O   UNL A   1      50.362  29.283  43.427  1.00  0.00    -0.744 OA
ENDBRANCH 109 110
ENDBRANCH  77 102
ENDBRANCH  51  52
ENDBRANCH  44  46
ENDBRANCH  43  44
ENDBRANCH  42  43
ENDBRANCH  41  42
ENDBRANCH  40  41
ENDBRANCH  39  40
ENDBRANCH   1  39
TORSDOF 26
ENDMDL
