MODEL 1
REMARK VINA RESULT:     -10.1      0.000      0.000
REMARK SMILES Cc1cc(C)c2c(c1)C=C(C(=O)OCCOCCOCCOC(=O)c1ccc(-c3c4nc(c(-c5c(F)cc(S(=O)(=O)[O-])cc5F)c5ccc([nH]5)c(-c5c(F)cc(S(=O)(=O)[O-])cc5F)c5nc(c(-c6c(F)cc(S(=O)(=O)[O-])cc6F)c6ccc3[nH]6)C=C5)C=C4)cc1)[C@@H](C(F)(F)F)O2
REMARK SMILES IDX 18 1 17 2 16 3 15 4 14 5 13 6 11 7 12 8 10 9 1 10 2 11 3 12
REMARK SMILES IDX 8 13 4 14 7 15 5 16 6 17 9 18 96 19 91 20 92 21 93 22 94 23
REMARK SMILES IDX 95 24 19 25 20 26 21 27 22 28 23 29 24 30 25 31 26 32 90 33
REMARK SMILES IDX 27 34 89 35 28 36 29 37 30 38 83 39 31 40 88 41 82 42 84 43
REMARK SMILES IDX 32 44 87 45 81 46 80 47 33 49 67 50 46 51 66 52 47 53 50 54
REMARK SMILES IDX 65 55 85 56 48 57 49 58 64 60 86 61 51 62 34 63 35 64 44 65
REMARK SMILES IDX 36 66 37 67 43 68 45 69 38 70 39 71 40 72 41 73 42 74 68 75
REMARK SMILES IDX 69 76 78 77 70 78 71 79 77 80 79 81 72 82 73 83 74 84 75 85
REMARK SMILES IDX 76 86 52 87 53 88 62 89 54 90 55 91 61 92 63 93 56 94 57 95
REMARK SMILES IDX 58 96 59 97 60 98
REMARK H PARENT 84 48 50 59
REMARK Flexibility Score: inf
ROOT
ATOM      1  C   UNL A   1      31.030  29.334  24.215  1.00  0.00     0.188 C 
ENDROOT
BRANCH   1   2
ATOM      2  C   UNL A   1      31.400  28.959  22.764  1.00  0.00     0.188 C 
BRANCH   2   3
ATOM      3  O   UNL A   1      30.704  27.930  22.098  1.00  0.00    -0.376 OA
BRANCH   3   4
ATOM      4  C   UNL A   1      31.074  26.569  22.212  1.00  0.00     0.202 C 
BRANCH   4   5
ATOM      5  C   UNL A   1      32.503  26.070  22.469  1.00  0.00     0.261 C 
BRANCH   5   6
ATOM      6  O   UNL A   1      32.931  26.049  23.832  1.00  0.00    -0.460 OA
BRANCH   6   7
ATOM      7  C   UNL A   1      32.349  25.094  24.596  1.00  0.00     0.338 C 
ATOM      8  O   UNL A   1      31.193  25.076  24.989  1.00  0.00    -0.246 OA
BRANCH   7   9
ATOM      9  C   UNL A   1      33.301  23.991  24.814  1.00  0.00     0.087 C 
ATOM     10  C   UNL A   1      39.181  22.926  26.316  1.00  0.00     0.044 C 
ATOM     11  C   UNL A   1      37.773  22.589  25.920  1.00  0.00    -0.050 A 
ATOM     12  C   UNL A   1      37.442  21.278  25.553  1.00  0.00     0.010 A 
ATOM     13  C   UNL A   1      36.791  23.582  25.853  1.00  0.00     0.015 A 
ATOM     14  C   UNL A   1      36.140  20.950  25.143  1.00  0.00    -0.008 A 
ATOM     15  C   UNL A   1      35.493  23.273  25.432  1.00  0.00     0.018 A 
ATOM     16  C   UNL A   1      35.816  19.542  24.732  1.00  0.00     0.048 C 
ATOM     17  C   UNL A   1      35.162  21.955  25.101  1.00  0.00     0.130 A 
ATOM     18  C   UNL A   1      34.508  24.329  25.282  1.00  0.00     0.027 C 
ATOM     19  O   UNL A   1      33.905  21.572  24.722  1.00  0.00    -0.475 OA
ATOM     20  C   UNL A   1      32.886  22.582  24.500  1.00  0.00     0.316 C 
BRANCH  20  21
ATOM     21  C   UNL A   1      32.364  22.429  23.065  1.00  0.00     0.430 C 
ATOM     22  F   UNL A   1      32.238  21.121  22.725  1.00  0.00    -0.167 F 
ATOM     23  F   UNL A   1      31.136  22.980  22.913  1.00  0.00    -0.167 F 
ATOM     24  F   UNL A   1      33.181  23.005  22.156  1.00  0.00    -0.167 F 
ENDBRANCH  20  21
ENDBRANCH   7   9
ENDBRANCH   6   7
ENDBRANCH   5   6
ENDBRANCH   4   5
ENDBRANCH   3   4
ENDBRANCH   2   3
ENDBRANCH   1   2
BRANCH   1  25
ATOM     25  O   UNL A   1      31.046  28.355  25.238  1.00  0.00    -0.376 OA
BRANCH  25  26
ATOM     26  C   UNL A   1      31.942  28.523  26.329  1.00  0.00     0.202 C 
BRANCH  26  27
ATOM     27  C   UNL A   1      33.443  28.684  26.059  1.00  0.00     0.261 C 
BRANCH  27  28
ATOM     28  O   UNL A   1      34.244  28.645  27.251  1.00  0.00    -0.460 OA
BRANCH  28  29
ATOM     29  C   UNL A   1      34.667  29.852  27.704  1.00  0.00     0.338 C 
ATOM     30  O   UNL A   1      33.987  30.843  27.908  1.00  0.00    -0.246 OA
BRANCH  29  31
ATOM     31  C   UNL A   1      36.078  29.747  28.122  1.00  0.00     0.060 A 
ATOM     32  C   UNL A   1      37.069  30.009  27.166  1.00  0.00     0.016 A 
ATOM     33  C   UNL A   1      36.423  29.363  29.419  1.00  0.00     0.016 A 
ATOM     34  C   UNL A   1      38.413  29.867  27.502  1.00  0.00     0.010 A 
ATOM     35  C   UNL A   1      37.772  29.192  29.744  1.00  0.00     0.010 A 
ATOM     36  C   UNL A   1      38.770  29.417  28.779  1.00  0.00    -0.014 A 
BRANCH  36  37
ATOM     37  C   UNL A   1      40.167  28.987  29.025  1.00  0.00     0.031 A 
ATOM     38  C   UNL A   1      41.100  29.957  29.699  1.00  0.00     0.074 A 
ATOM     39  C   UNL A   1      40.586  27.750  28.707  1.00  0.00     0.049 A 
ATOM     40  N   UNL A   1      42.350  29.798  30.045  1.00  0.00    -0.248 NA
ATOM     41  C   UNL A   1      40.544  31.279  30.033  1.00  0.00     0.031 C 
ATOM     42  C   UNL A   1      39.765  26.708  28.092  1.00  0.00     0.029 A 
ATOM     43  N   UNL A   1      41.816  27.159  28.866  1.00  0.00    -0.354 N 
ATOM     44  C   UNL A   1      42.724  30.989  30.654  1.00  0.00     0.074 A 
ATOM     45  C   UNL A   1      41.584  31.877  30.595  1.00  0.00     0.031 C 
ATOM     46  C   UNL A   1      40.515  25.605  27.924  1.00  0.00     0.029 A 
ATOM     47  C   UNL A   1      41.874  25.867  28.396  1.00  0.00     0.049 A 
ATOM     48  H   UNL A   1      42.583  27.617  29.276  1.00  0.00     0.167 HD
ATOM     49  C   UNL A   1      43.906  31.310  31.229  1.00  0.00     0.037 A 
ATOM     50  C   UNL A   1      42.910  25.006  28.347  1.00  0.00     0.037 A 
ATOM     51  C   UNL A   1      45.045  30.434  31.273  1.00  0.00     0.049 A 
ATOM     52  C   UNL A   1      44.254  25.429  28.888  1.00  0.00     0.074 A 
ATOM     53  C   UNL A   1      46.285  30.666  31.839  1.00  0.00     0.029 A 
ATOM     54  N   UNL A   1      45.088  29.164  30.716  1.00  0.00    -0.354 N 
ATOM     55  N   UNL A   1      44.585  26.545  29.493  1.00  0.00    -0.248 NA
ATOM     56  C   UNL A   1      45.367  24.480  28.731  1.00  0.00     0.031 C 
ATOM     57  C   UNL A   1      47.095  29.556  31.584  1.00  0.00     0.029 A 
ATOM     58  C   UNL A   1      46.344  28.614  30.895  1.00  0.00     0.049 A 
ATOM     59  H   UNL A   1      44.336  28.722  30.261  1.00  0.00     0.167 HD
ATOM     60  C   UNL A   1      45.937  26.426  29.802  1.00  0.00     0.074 A 
ATOM     61  C   UNL A   1      46.361  25.125  29.331  1.00  0.00     0.031 C 
ATOM     62  C   UNL A   1      46.753  27.316  30.420  1.00  0.00     0.037 A 
BRANCH  49  63
ATOM     63  C   UNL A   1      44.027  32.669  31.854  1.00  0.00     0.058 A 
ATOM     64  C   UNL A   1      44.467  33.775  31.110  1.00  0.00     0.135 A 
ATOM     65  C   UNL A   1      43.666  32.878  33.193  1.00  0.00     0.135 A 
ATOM     66  F   UNL A   1      44.845  33.624  29.830  1.00  0.00    -0.206 F 
ATOM     67  C   UNL A   1      44.558  35.041  31.678  1.00  0.00     0.059 A 
ATOM     68  C   UNL A   1      43.728  34.139  33.777  1.00  0.00     0.059 A 
ATOM     69  F   UNL A   1      43.246  31.850  33.948  1.00  0.00    -0.206 F 
ATOM     70  C   UNL A   1      44.184  35.212  33.012  1.00  0.00     0.060 A 
BRANCH  70  71
ATOM     71  S   UNL A   1      44.297  36.866  33.728  1.00  0.00     0.124 S 
ATOM     72  O   UNL A   1      45.347  36.681  34.725  1.00  0.00    -0.237 OA
ATOM     73  O   UNL A   1      44.657  37.680  32.572  1.00  0.00    -0.237 OA
ATOM     74  O   UNL A   1      42.959  37.098  34.264  1.00  0.00    -0.744 OA
ENDBRANCH  70  71
ENDBRANCH  49  63
BRANCH  50  75
ATOM     75  C   UNL A   1      42.727  23.653  27.757  1.00  0.00     0.058 A 
ATOM     76  C   UNL A   1      42.452  22.543  28.568  1.00  0.00     0.135 A 
ATOM     77  C   UNL A   1      42.834  23.440  26.374  1.00  0.00     0.135 A 
ATOM     78  F   UNL A   1      42.356  22.692  29.898  1.00  0.00    -0.206 F 
ATOM     79  C   UNL A   1      42.296  21.268  28.033  1.00  0.00     0.059 A 
ATOM     80  C   UNL A   1      42.661  22.179  25.811  1.00  0.00     0.059 A 
ATOM     81  F   UNL A   1      43.095  24.470  25.553  1.00  0.00    -0.206 F 
ATOM     82  C   UNL A   1      42.399  21.098  26.650  1.00  0.00     0.060 A 
BRANCH  82  83
ATOM     83  S   UNL A   1      42.151  19.445  25.964  1.00  0.00     0.124 S 
ATOM     84  O   UNL A   1      42.632  18.600  27.050  1.00  0.00    -0.237 OA
ATOM     85  O   UNL A   1      40.711  19.426  25.730  1.00  0.00    -0.237 OA
ATOM     86  O   UNL A   1      42.975  19.455  24.759  1.00  0.00    -0.744 OA
ENDBRANCH  82  83
ENDBRANCH  50  75
BRANCH  62  87
ATOM     87  C   UNL A   1      48.192  26.932  30.627  1.00  0.00     0.058 A 
ATOM     88  C   UNL A   1      49.171  27.243  29.672  1.00  0.00     0.135 A 
ATOM     89  C   UNL A   1      48.613  26.362  31.839  1.00  0.00     0.135 A 
ATOM     90  F   UNL A   1      48.818  27.783  28.494  1.00  0.00    -0.206 F 
ATOM     91  C   UNL A   1      50.520  27.008  29.914  1.00  0.00     0.059 A 
ATOM     92  C   UNL A   1      49.960  26.138  32.111  1.00  0.00     0.059 A 
ATOM     93  F   UNL A   1      47.715  26.055  32.789  1.00  0.00    -0.206 F 
ATOM     94  C   UNL A   1      50.906  26.467  31.141  1.00  0.00     0.060 A 
BRANCH  94  95
ATOM     95  S   UNL A   1      52.668  26.249  31.471  1.00  0.00     0.124 S 
ATOM     96  O   UNL A   1      52.719  24.853  31.893  1.00  0.00    -0.237 OA
ATOM     97  O   UNL A   1      53.265  26.541  30.171  1.00  0.00    -0.237 OA
ATOM     98  O   UNL A   1      52.944  27.231  32.515  1.00  0.00    -0.744 OA
ENDBRANCH  94  95
ENDBRANCH  62  87
ENDBRANCH  36  37
ENDBRANCH  29  31
ENDBRANCH  28  29
ENDBRANCH  27  28
ENDBRANCH  26  27
ENDBRANCH  25  26
ENDBRANCH   1  25
TORSDOF 21
ENDMDL
MODEL 2
REMARK VINA RESULT:     -10.0      3.022      8.712
REMARK SMILES Cc1cc(C)c2c(c1)C=C(C(=O)OCCOCCOCCOC(=O)c1ccc(-c3c4nc(c(-c5c(F)cc(S(=O)(=O)[O-])cc5F)c5ccc([nH]5)c(-c5c(F)cc(S(=O)(=O)[O-])cc5F)c5nc(c(-c6c(F)cc(S(=O)(=O)[O-])cc6F)c6ccc3[nH]6)C=C5)C=C4)cc1)[C@@H](C(F)(F)F)O2
REMARK SMILES IDX 18 1 17 2 16 3 15 4 14 5 13 6 11 7 12 8 10 9 1 10 2 11 3 12
REMARK SMILES IDX 8 13 4 14 7 15 5 16 6 17 9 18 96 19 91 20 92 21 93 22 94 23
REMARK SMILES IDX 95 24 19 25 20 26 21 27 22 28 23 29 24 30 25 31 26 32 90 33
REMARK SMILES IDX 27 34 89 35 28 36 29 37 30 38 83 39 31 40 88 41 82 42 84 43
REMARK SMILES IDX 32 44 87 45 81 46 80 47 33 49 67 50 46 51 66 52 47 53 50 54
REMARK SMILES IDX 65 55 85 56 48 57 49 58 64 60 86 61 51 62 34 63 35 64 44 65
REMARK SMILES IDX 36 66 37 67 43 68 45 69 38 70 39 71 40 72 41 73 42 74 68 75
REMARK SMILES IDX 69 76 78 77 70 78 71 79 77 80 79 81 72 82 73 83 74 84 75 85
REMARK SMILES IDX 76 86 52 87 53 88 62 89 54 90 55 91 61 92 63 93 56 94 57 95
REMARK SMILES IDX 58 96 59 97 60 98
REMARK H PARENT 84 48 50 59
REMARK Flexibility Score: inf
ROOT
ATOM      1  C   UNL A   1      32.156  29.449  26.265  1.00  0.00     0.188 C 
ENDROOT
BRANCH   1   2
ATOM      2  C   UNL A   1      31.296  29.782  25.026  1.00  0.00     0.188 C 
BRANCH   2   3
ATOM      3  O   UNL A   1      30.938  28.765  24.117  1.00  0.00    -0.376 OA
BRANCH   3   4
ATOM      4  C   UNL A   1      30.667  27.440  24.533  1.00  0.00     0.202 C 
BRANCH   4   5
ATOM      5  C   UNL A   1      29.962  26.381  23.674  1.00  0.00     0.261 C 
BRANCH   5   6
ATOM      6  O   UNL A   1      30.574  25.091  23.628  1.00  0.00    -0.460 OA
BRANCH   6   7
ATOM      7  C   UNL A   1      31.589  24.975  22.738  1.00  0.00     0.338 C 
ATOM      8  O   UNL A   1      31.790  25.680  21.762  1.00  0.00    -0.246 OA
BRANCH   7   9
ATOM      9  C   UNL A   1      32.506  23.908  23.175  1.00  0.00     0.087 C 
ATOM     10  C   UNL A   1      32.578  17.943  24.717  1.00  0.00     0.044 C 
ATOM     11  C   UNL A   1      33.135  19.317  24.485  1.00  0.00    -0.050 A 
ATOM     12  C   UNL A   1      34.442  19.622  24.889  1.00  0.00     0.010 A 
ATOM     13  C   UNL A   1      32.345  20.325  23.922  1.00  0.00     0.015 A 
ATOM     14  C   UNL A   1      34.969  20.911  24.716  1.00  0.00    -0.008 A 
ATOM     15  C   UNL A   1      32.853  21.618  23.756  1.00  0.00     0.018 A 
ATOM     16  C   UNL A   1      36.364  21.219  25.178  1.00  0.00     0.048 C 
ATOM     17  C   UNL A   1      34.169  21.904  24.130  1.00  0.00     0.130 A 
ATOM     18  C   UNL A   1      31.993  22.675  23.253  1.00  0.00     0.027 C 
ATOM     19  O   UNL A   1      34.744  23.134  23.960  1.00  0.00    -0.475 OA
ATOM     20  C   UNL A   1      33.930  24.249  23.512  1.00  0.00     0.316 C 
BRANCH  20  21
ATOM     21  C   UNL A   1      34.035  25.369  24.556  1.00  0.00     0.430 C 
ATOM     22  F   UNL A   1      33.960  26.593  23.973  1.00  0.00    -0.167 F 
ATOM     23  F   UNL A   1      33.024  25.316  25.457  1.00  0.00    -0.167 F 
ATOM     24  F   UNL A   1      35.195  25.322  25.247  1.00  0.00    -0.167 F 
ENDBRANCH  20  21
ENDBRANCH   7   9
ENDBRANCH   6   7
ENDBRANCH   5   6
ENDBRANCH   4   5
ENDBRANCH   3   4
ENDBRANCH   2   3
ENDBRANCH   1   2
BRANCH   1  25
ATOM     25  O   UNL A   1      33.547  29.714  26.268  1.00  0.00    -0.376 OA
BRANCH  25  26
ATOM     26  C   UNL A   1      34.116  30.354  27.402  1.00  0.00     0.202 C 
BRANCH  26  27
ATOM     27  C   UNL A   1      35.218  29.645  28.200  1.00  0.00     0.261 C 
BRANCH  27  28
ATOM     28  O   UNL A   1      36.010  30.538  28.999  1.00  0.00    -0.460 OA
BRANCH  28  29
ATOM     29  C   UNL A   1      36.677  29.957  30.028  1.00  0.00     0.338 C 
ATOM     30  O   UNL A   1      36.195  29.384  30.989  1.00  0.00    -0.246 OA
BRANCH  29  31
ATOM     31  C   UNL A   1      38.120  29.937  29.721  1.00  0.00     0.060 A 
ATOM     32  C   UNL A   1      38.506  29.935  28.373  1.00  0.00     0.016 A 
ATOM     33  C   UNL A   1      39.076  29.885  30.736  1.00  0.00     0.016 A 
ATOM     34  C   UNL A   1      39.855  29.860  28.037  1.00  0.00     0.010 A 
ATOM     35  C   UNL A   1      40.428  29.778  30.394  1.00  0.00     0.010 A 
ATOM     36  C   UNL A   1      40.820  29.738  29.044  1.00  0.00    -0.014 A 
BRANCH  36  37
ATOM     37  C   UNL A   1      42.204  29.361  28.672  1.00  0.00     0.031 A 
ATOM     38  C   UNL A   1      42.474  27.927  28.303  1.00  0.00     0.074 A 
ATOM     39  C   UNL A   1      43.188  30.275  28.611  1.00  0.00     0.049 A 
ATOM     40  N   UNL A   1      43.589  27.367  27.915  1.00  0.00    -0.248 NA
ATOM     41  C   UNL A   1      41.328  27.003  28.374  1.00  0.00     0.031 C 
ATOM     42  C   UNL A   1      43.040  31.700  28.902  1.00  0.00     0.029 A 
ATOM     43  N   UNL A   1      44.513  30.135  28.276  1.00  0.00    -0.354 N 
ATOM     44  C   UNL A   1      43.278  26.035  27.677  1.00  0.00     0.074 A 
ATOM     45  C   UNL A   1      41.879  25.857  28.003  1.00  0.00     0.031 C 
ATOM     46  C   UNL A   1      44.230  32.304  28.734  1.00  0.00     0.029 A 
ATOM     47  C   UNL A   1      45.228  31.307  28.347  1.00  0.00     0.049 A 
ATOM     48  H   UNL A   1      44.912  29.276  28.011  1.00  0.00     0.167 HD
ATOM     49  C   UNL A   1      44.079  25.050  27.211  1.00  0.00     0.037 A 
ATOM     50  C   UNL A   1      46.539  31.541  28.134  1.00  0.00     0.037 A 
ATOM     51  C   UNL A   1      45.472  25.222  26.904  1.00  0.00     0.049 A 
ATOM     52  C   UNL A   1      47.440  30.400  27.729  1.00  0.00     0.074 A 
ATOM     53  C   UNL A   1      46.366  24.284  26.419  1.00  0.00     0.029 A 
ATOM     54  N   UNL A   1      46.177  26.405  27.065  1.00  0.00    -0.354 N 
ATOM     55  N   UNL A   1      47.125  29.152  27.474  1.00  0.00    -0.248 NA
ATOM     56  C   UNL A   1      48.874  30.696  27.592  1.00  0.00     0.031 C 
ATOM     57  C   UNL A   1      47.624  24.888  26.333  1.00  0.00     0.029 A 
ATOM     58  C   UNL A   1      47.504  26.213  26.722  1.00  0.00     0.049 A 
ATOM     59  H   UNL A   1      45.791  27.254  27.377  1.00  0.00     0.167 HD
ATOM     60  C   UNL A   1      48.317  28.519  27.132  1.00  0.00     0.074 A 
ATOM     61  C   UNL A   1      49.357  29.523  27.199  1.00  0.00     0.031 C 
ATOM     62  C   UNL A   1      48.530  27.223  26.795  1.00  0.00     0.037 A 
BRANCH  49  63
ATOM     63  C   UNL A   1      43.466  23.694  27.010  1.00  0.00     0.058 A 
ATOM     64  C   UNL A   1      42.903  23.325  25.779  1.00  0.00     0.135 A 
ATOM     65  C   UNL A   1      43.476  22.743  28.041  1.00  0.00     0.135 A 
ATOM     66  F   UNL A   1      42.850  24.206  24.767  1.00  0.00    -0.206 F 
ATOM     67  C   UNL A   1      42.355  22.063  25.581  1.00  0.00     0.059 A 
ATOM     68  C   UNL A   1      42.954  21.466  27.859  1.00  0.00     0.059 A 
ATOM     69  F   UNL A   1      43.997  23.051  29.240  1.00  0.00    -0.206 F 
ATOM     70  C   UNL A   1      42.389  21.139  26.628  1.00  0.00     0.060 A 
BRANCH  70  71
ATOM     71  S   UNL A   1      41.684  19.501  26.347  1.00  0.00     0.124 S 
ATOM     72  O   UNL A   1      40.293  19.828  26.054  1.00  0.00    -0.237 OA
ATOM     73  O   UNL A   1      42.473  19.014  25.221  1.00  0.00    -0.237 OA
ATOM     74  O   UNL A   1      41.912  18.811  27.614  1.00  0.00    -0.744 OA
ENDBRANCH  70  71
ENDBRANCH  49  63
BRANCH  50  75
ATOM     75  C   UNL A   1      47.090  32.912  28.305  1.00  0.00     0.058 A 
ATOM     76  C   UNL A   1      47.102  33.823  27.238  1.00  0.00     0.135 A 
ATOM     77  C   UNL A   1      47.624  33.336  29.532  1.00  0.00     0.135 A 
ATOM     78  F   UNL A   1      46.617  33.460  26.041  1.00  0.00    -0.206 F 
ATOM     79  C   UNL A   1      47.630  35.102  27.378  1.00  0.00     0.059 A 
ATOM     80  C   UNL A   1      48.138  34.617  29.703  1.00  0.00     0.059 A 
ATOM     81  F   UNL A   1      47.635  32.502  30.584  1.00  0.00    -0.206 F 
ATOM     82  C   UNL A   1      48.143  35.491  28.617  1.00  0.00     0.060 A 
BRANCH  82  83
ATOM     83  S   UNL A   1      48.785  37.170  28.796  1.00  0.00     0.124 S 
ATOM     84  O   UNL A   1      50.046  37.082  28.071  1.00  0.00    -0.237 OA
ATOM     85  O   UNL A   1      47.738  37.965  28.164  1.00  0.00    -0.237 OA
ATOM     86  O   UNL A   1      48.899  37.333  30.244  1.00  0.00    -0.744 OA
ENDBRANCH  82  83
ENDBRANCH  50  75
BRANCH  62  87
ATOM     87  C   UNL A   1      49.935  26.797  26.472  1.00  0.00     0.058 A 
ATOM     88  C   UNL A   1      50.748  26.185  27.438  1.00  0.00     0.135 A 
ATOM     89  C   UNL A   1      50.428  26.887  25.160  1.00  0.00     0.135 A 
ATOM     90  F   UNL A   1      50.326  26.081  28.708  1.00  0.00    -0.206 F 
ATOM     91  C   UNL A   1      51.999  25.672  27.113  1.00  0.00     0.059 A 
ATOM     92  C   UNL A   1      51.667  26.360  24.808  1.00  0.00     0.059 A 
ATOM     93  F   UNL A   1      49.684  27.455  24.197  1.00  0.00    -0.206 F 
ATOM     94  C   UNL A   1      52.444  25.752  25.793  1.00  0.00     0.060 A 
BRANCH  94  95
ATOM     95  S   UNL A   1      54.033  25.004  25.372  1.00  0.00     0.124 S 
ATOM     96  O   UNL A   1      54.683  24.938  26.676  1.00  0.00    -0.237 OA
ATOM     97  O   UNL A   1      53.630  23.724  24.798  1.00  0.00    -0.237 OA
ATOM     98  O   UNL A   1      54.617  25.952  24.426  1.00  0.00    -0.744 OA
ENDBRANCH  94  95
ENDBRANCH  62  87
ENDBRANCH  36  37
ENDBRANCH  29  31
ENDBRANCH  28  29
ENDBRANCH  27  28
ENDBRANCH  26  27
ENDBRANCH  25  26
ENDBRANCH   1  25
TORSDOF 21
ENDMDL
MODEL 3
REMARK VINA RESULT:      -9.9      1.409      8.320
REMARK SMILES Cc1cc(C)c2c(c1)C=C(C(=O)OCCOCCOCCOC(=O)c1ccc(-c3c4nc(c(-c5c(F)cc(S(=O)(=O)[O-])cc5F)c5ccc([nH]5)c(-c5c(F)cc(S(=O)(=O)[O-])cc5F)c5nc(c(-c6c(F)cc(S(=O)(=O)[O-])cc6F)c6ccc3[nH]6)C=C5)C=C4)cc1)[C@@H](C(F)(F)F)O2
REMARK SMILES IDX 18 1 17 2 16 3 15 4 14 5 13 6 11 7 12 8 10 9 1 10 2 11 3 12
REMARK SMILES IDX 8 13 4 14 7 15 5 16 6 17 9 18 96 19 91 20 92 21 93 22 94 23
REMARK SMILES IDX 95 24 19 25 20 26 21 27 22 28 23 29 24 30 25 31 26 32 90 33
REMARK SMILES IDX 27 34 89 35 28 36 29 37 30 38 83 39 31 40 88 41 82 42 84 43
REMARK SMILES IDX 32 44 87 45 81 46 80 47 33 49 67 50 46 51 66 52 47 53 50 54
REMARK SMILES IDX 65 55 85 56 48 57 49 58 64 60 86 61 51 62 34 63 35 64 44 65
REMARK SMILES IDX 36 66 37 67 43 68 45 69 38 70 39 71 40 72 41 73 42 74 68 75
REMARK SMILES IDX 69 76 78 77 70 78 71 79 77 80 79 81 72 82 73 83 74 84 75 85
REMARK SMILES IDX 76 86 52 87 53 88 62 89 54 90 55 91 61 92 63 93 56 94 57 95
REMARK SMILES IDX 58 96 59 97 60 98
REMARK H PARENT 84 48 50 59
REMARK Flexibility Score: inf
ROOT
ATOM      1  C   UNL A   1      30.279  30.128  24.125  1.00  0.00     0.188 C 
ENDROOT
BRANCH   1   2
ATOM      2  C   UNL A   1      30.161  29.670  22.655  1.00  0.00     0.188 C 
BRANCH   2   3
ATOM      3  O   UNL A   1      29.320  28.590  22.315  1.00  0.00    -0.376 OA
BRANCH   3   4
ATOM      4  C   UNL A   1      28.587  27.867  23.284  1.00  0.00     0.202 C 
BRANCH   4   5
ATOM      5  C   UNL A   1      28.974  26.481  23.819  1.00  0.00     0.261 C 
BRANCH   5   6
ATOM      6  O   UNL A   1      30.317  26.333  24.282  1.00  0.00    -0.460 OA
BRANCH   6   7
ATOM      7  C   UNL A   1      30.467  25.489  25.332  1.00  0.00     0.338 C 
ATOM      8  O   UNL A   1      29.790  25.458  26.348  1.00  0.00    -0.246 OA
BRANCH   7   9
ATOM      9  C   UNL A   1      31.529  24.514  25.031  1.00  0.00     0.087 C 
ATOM     10  C   UNL A   1      32.797  18.496  25.405  1.00  0.00     0.044 C 
ATOM     11  C   UNL A   1      33.047  19.945  25.103  1.00  0.00    -0.050 A 
ATOM     12  C   UNL A   1      34.334  20.377  24.756  1.00  0.00     0.010 A 
ATOM     13  C   UNL A   1      32.022  20.888  25.222  1.00  0.00     0.015 A 
ATOM     14  C   UNL A   1      34.597  21.733  24.506  1.00  0.00    -0.008 A 
ATOM     15  C   UNL A   1      32.273  22.245  24.989  1.00  0.00     0.018 A 
ATOM     16  C   UNL A   1      35.990  22.175  24.158  1.00  0.00     0.048 C 
ATOM     17  C   UNL A   1      33.552  22.663  24.609  1.00  0.00     0.130 A 
ATOM     18  C   UNL A   1      31.221  23.223  25.203  1.00  0.00     0.027 C 
ATOM     19  O   UNL A   1      33.859  23.966  24.327  1.00  0.00    -0.475 OA
ATOM     20  C   UNL A   1      32.873  25.002  24.569  1.00  0.00     0.316 C 
BRANCH  20  21
ATOM     21  C   UNL A   1      33.485  26.033  25.528  1.00  0.00     0.430 C 
ATOM     22  F   UNL A   1      33.360  27.293  25.040  1.00  0.00    -0.167 F 
ATOM     23  F   UNL A   1      32.867  26.030  26.734  1.00  0.00    -0.167 F 
ATOM     24  F   UNL A   1      34.800  25.814  25.747  1.00  0.00    -0.167 F 
ENDBRANCH  20  21
ENDBRANCH   7   9
ENDBRANCH   6   7
ENDBRANCH   5   6
ENDBRANCH   4   5
ENDBRANCH   3   4
ENDBRANCH   2   3
ENDBRANCH   1   2
BRANCH   1  25
ATOM     25  O   UNL A   1      31.267  29.574  24.975  1.00  0.00    -0.376 OA
BRANCH  25  26
ATOM     26  C   UNL A   1      31.832  30.395  25.990  1.00  0.00     0.202 C 
BRANCH  26  27
ATOM     27  C   UNL A   1      32.490  29.744  27.212  1.00  0.00     0.261 C 
BRANCH  27  28
ATOM     28  O   UNL A   1      33.920  29.656  27.112  1.00  0.00    -0.460 OA
BRANCH  28  29
ATOM     29  C   UNL A   1      34.610  30.495  27.925  1.00  0.00     0.338 C 
ATOM     30  O   UNL A   1      34.172  31.453  28.540  1.00  0.00    -0.246 OA
BRANCH  29  31
ATOM     31  C   UNL A   1      35.969  29.961  28.133  1.00  0.00     0.060 A 
ATOM     32  C   UNL A   1      36.325  29.552  29.426  1.00  0.00     0.016 A 
ATOM     33  C   UNL A   1      36.891  29.895  27.087  1.00  0.00     0.016 A 
ATOM     34  C   UNL A   1      37.615  29.094  29.680  1.00  0.00     0.010 A 
ATOM     35  C   UNL A   1      38.194  29.464  27.351  1.00  0.00     0.010 A 
ATOM     36  C   UNL A   1      38.569  29.088  28.654  1.00  0.00    -0.014 A 
BRANCH  36  37
ATOM     37  C   UNL A   1      39.996  28.888  29.000  1.00  0.00     0.031 A 
ATOM     38  C   UNL A   1      40.616  27.548  28.708  1.00  0.00     0.074 A 
ATOM     39  C   UNL A   1      40.739  29.884  29.512  1.00  0.00     0.049 A 
ATOM     40  N   UNL A   1      41.846  27.147  28.891  1.00  0.00    -0.248 NA
ATOM     41  C   UNL A   1      39.729  26.527  28.122  1.00  0.00     0.031 C 
ATOM     42  C   UNL A   1      40.264  31.237  29.797  1.00  0.00     0.029 A 
ATOM     43  N   UNL A   1      42.063  29.908  29.879  1.00  0.00    -0.354 N 
ATOM     44  C   UNL A   1      41.887  25.838  28.428  1.00  0.00     0.074 A 
ATOM     45  C   UNL A   1      40.551  25.496  27.992  1.00  0.00     0.031 C 
ATOM     46  C   UNL A   1      41.281  31.959  30.297  1.00  0.00     0.029 A 
ATOM     47  C   UNL A   1      42.474  31.117  30.389  1.00  0.00     0.049 A 
ATOM     48  H   UNL A   1      42.661  29.132  29.785  1.00  0.00     0.167 HD
ATOM     49  C   UNL A   1      42.947  25.001  28.354  1.00  0.00     0.037 A 
ATOM     50  C   UNL A   1      43.671  31.491  30.883  1.00  0.00     0.037 A 
ATOM     51  C   UNL A   1      44.270  25.335  28.803  1.00  0.00     0.049 A 
ATOM     52  C   UNL A   1      44.810  30.500  30.899  1.00  0.00     0.074 A 
ATOM     53  C   UNL A   1      45.412  24.555  28.764  1.00  0.00     0.029 A 
ATOM     54  N   UNL A   1      44.627  26.541  29.387  1.00  0.00    -0.354 N 
ATOM     55  N   UNL A   1      44.844  29.277  30.426  1.00  0.00    -0.248 NA
ATOM     56  C   UNL A   1      46.067  30.936  31.525  1.00  0.00     0.031 C 
ATOM     57  C   UNL A   1      46.449  25.272  29.367  1.00  0.00     0.029 A 
ATOM     58  C   UNL A   1      45.964  26.515  29.744  1.00  0.00     0.049 A 
ATOM     59  H   UNL A   1      44.019  27.302  29.526  1.00  0.00     0.167 HD
ATOM     60  C   UNL A   1      46.129  28.804  30.682  1.00  0.00     0.074 A 
ATOM     61  C   UNL A   1      46.845  29.876  31.340  1.00  0.00     0.031 C 
ATOM     62  C   UNL A   1      46.664  27.591  30.399  1.00  0.00     0.037 A 
BRANCH  49  63
ATOM     63  C   UNL A   1      42.714  23.639  27.769  1.00  0.00     0.058 A 
ATOM     64  C   UNL A   1      42.747  23.426  26.382  1.00  0.00     0.135 A 
ATOM     65  C   UNL A   1      42.496  22.529  28.600  1.00  0.00     0.135 A 
ATOM     66  F   UNL A   1      42.932  24.458  25.543  1.00  0.00    -0.206 F 
ATOM     67  C   UNL A   1      42.556  22.161  25.837  1.00  0.00     0.059 A 
ATOM     68  C   UNL A   1      42.324  21.251  28.078  1.00  0.00     0.059 A 
ATOM     69  F   UNL A   1      42.448  22.682  29.933  1.00  0.00    -0.206 F 
ATOM     70  C   UNL A   1      42.347  21.080  26.695  1.00  0.00     0.060 A 
BRANCH  70  71
ATOM     71  S   UNL A   1      42.114  19.443  25.969  1.00  0.00     0.124 S 
ATOM     72  O   UNL A   1      42.576  18.577  27.049  1.00  0.00    -0.237 OA
ATOM     73  O   UNL A   1      40.679  19.422  25.709  1.00  0.00    -0.237 OA
ATOM     74  O   UNL A   1      42.964  19.472  24.782  1.00  0.00    -0.744 OA
ENDBRANCH  70  71
ENDBRANCH  49  63
BRANCH  50  75
ATOM     75  C   UNL A   1      43.863  32.868  31.411  1.00  0.00     0.058 A 
ATOM     76  C   UNL A   1      44.392  33.884  30.603  1.00  0.00     0.135 A 
ATOM     77  C   UNL A   1      43.533  33.193  32.736  1.00  0.00     0.135 A 
ATOM     78  F   UNL A   1      44.737  33.620  29.333  1.00  0.00    -0.206 F 
ATOM     79  C   UNL A   1      44.593  35.172  31.088  1.00  0.00     0.059 A 
ATOM     80  C   UNL A   1      43.706  34.479  33.240  1.00  0.00     0.059 A 
ATOM     81  F   UNL A   1      43.023  32.256  33.552  1.00  0.00    -0.206 F 
ATOM     82  C   UNL A   1      44.243  35.460  32.410  1.00  0.00     0.060 A 
BRANCH  82  83
ATOM     83  S   UNL A   1      44.469  37.147  33.014  1.00  0.00     0.124 S 
ATOM     84  O   UNL A   1      43.663  37.909  32.069  1.00  0.00    -0.237 OA
ATOM     85  O   UNL A   1      43.946  37.056  34.373  1.00  0.00    -0.237 OA
ATOM     86  O   UNL A   1      45.913  37.347  32.917  1.00  0.00    -0.744 OA
ENDBRANCH  82  83
ENDBRANCH  50  75
BRANCH  62  87
ATOM     87  C   UNL A   1      48.092  27.337  30.795  1.00  0.00     0.058 A 
ATOM     88  C   UNL A   1      48.409  26.741  32.025  1.00  0.00     0.135 A 
ATOM     89  C   UNL A   1      49.140  27.577  29.891  1.00  0.00     0.135 A 
ATOM     90  F   UNL A   1      47.446  26.498  32.926  1.00  0.00    -0.206 F 
ATOM     91  C   UNL A   1      49.716  26.386  32.342  1.00  0.00     0.059 A 
ATOM     92  C   UNL A   1      50.451  27.210  30.179  1.00  0.00     0.059 A 
ATOM     93  F   UNL A   1      48.886  28.138  28.697  1.00  0.00    -0.206 F 
ATOM     94  C   UNL A   1      50.728  26.612  31.407  1.00  0.00     0.060 A 
BRANCH  94  95
ATOM     95  S   UNL A   1      52.404  26.066  31.801  1.00  0.00     0.124 S 
ATOM     96  O   UNL A   1      52.196  24.648  32.072  1.00  0.00    -0.237 OA
ATOM     97  O   UNL A   1      53.128  26.378  30.573  1.00  0.00    -0.237 OA
ATOM     98  O   UNL A   1      52.764  26.880  32.958  1.00  0.00    -0.744 OA
ENDBRANCH  94  95
ENDBRANCH  62  87
ENDBRANCH  36  37
ENDBRANCH  29  31
ENDBRANCH  28  29
ENDBRANCH  27  28
ENDBRANCH  26  27
ENDBRANCH  25  26
ENDBRANCH   1  25
TORSDOF 21
ENDMDL
