MODEL 1
REMARK VINA RESULT:      -9.7      0.000      0.000
REMARK SMILES O=C(OCCOCCOCCOC(=O)[C@@H]1CC[C@H](CNC(=O)c2cccn2C2CC2)O1)c1ccc(-c2c3nc(c(-c4c(F)cc(S(=O)(=O)[O-])cc4F)c4ccc([nH]4)c(-c4c(F)cc(S(=O)(=O)[O-])cc4F)c4nc(c(-c5c(F)cc(S(=O)(=O)[O-])cc5F)c5ccc2[nH]5)C=C4)C=C3)cc1
REMARK SMILES IDX 8 1 7 2 6 3 5 4 4 5 3 6 2 7 1 8 32 9 33 10 97 11 34 12 96 13
REMARK SMILES IDX 35 14 36 15 37 16 90 17 38 18 95 19 89 20 91 21 39 22 94 23
REMARK SMILES IDX 88 24 87 25 40 27 74 28 53 29 73 30 54 31 57 32 72 33 92 34
REMARK SMILES IDX 55 35 56 36 71 38 93 39 58 40 41 41 42 42 51 43 43 44 44 45
REMARK SMILES IDX 50 46 52 47 45 48 46 49 47 50 48 51 49 52 75 53 76 54 85 55
REMARK SMILES IDX 77 56 78 57 84 58 86 59 79 60 80 61 81 62 82 63 83 64 59 65
REMARK SMILES IDX 60 66 69 67 61 68 62 69 68 70 70 71 63 72 64 73 65 74 66 75
REMARK SMILES IDX 67 76 9 77 10 78 11 79 12 80 13 81 14 82 15 83 16 84 31 85
REMARK SMILES IDX 17 86 18 87 19 88 20 89 21 90 22 92 23 93 24 94 27 95 25 96
REMARK SMILES IDX 26 97 28 98 29 99 30 100
REMARK H PARENT 91 26 57 37 20 91
REMARK Flexibility Score: inf
ROOT
ATOM      1  C   UNL A   1      34.668  32.877  28.011  1.00  0.00     0.188 C 
ENDROOT
BRANCH   1   2
ATOM      2  C   UNL A   1      34.318  34.026  28.980  1.00  0.00     0.188 C 
BRANCH   2   3
ATOM      3  O   UNL A   1      34.278  35.282  28.293  1.00  0.00    -0.376 OA
BRANCH   3   4
ATOM      4  C   UNL A   1      33.667  36.343  29.009  1.00  0.00     0.202 C 
BRANCH   4   5
ATOM      5  C   UNL A   1      32.429  35.919  29.828  1.00  0.00     0.261 C 
BRANCH   5   6
ATOM      6  O   UNL A   1      32.368  36.501  31.151  1.00  0.00    -0.460 OA
BRANCH   6   7
ATOM      7  C   UNL A   1      32.894  36.158  32.345  1.00  0.00     0.338 C 
ATOM      8  O   UNL A   1      32.391  36.609  33.370  1.00  0.00    -0.246 OA
BRANCH   7   9
ATOM      9  C   UNL A   1      34.073  35.272  32.466  1.00  0.00     0.060 A 
ATOM     10  C   UNL A   1      35.375  35.689  32.205  1.00  0.00     0.016 A 
ATOM     11  C   UNL A   1      33.862  33.971  32.950  1.00  0.00     0.016 A 
ATOM     12  C   UNL A   1      36.445  34.831  32.336  1.00  0.00     0.010 A 
ATOM     13  C   UNL A   1      34.936  33.098  33.110  1.00  0.00     0.010 A 
ATOM     14  C   UNL A   1      36.222  33.538  32.785  1.00  0.00    -0.014 A 
BRANCH  14  15
ATOM     15  C   UNL A   1      37.418  32.705  32.966  1.00  0.00     0.031 A 
ATOM     16  C   UNL A   1      37.509  31.585  31.933  1.00  0.00     0.074 A 
ATOM     17  C   UNL A   1      38.169  33.004  34.063  1.00  0.00     0.049 A 
ATOM     18  N   UNL A   1      38.040  30.404  32.032  1.00  0.00    -0.248 NA
ATOM     19  C   UNL A   1      36.806  31.757  30.632  1.00  0.00     0.031 C 
ATOM     20  C   UNL A   1      37.851  34.099  35.001  1.00  0.00     0.029 A 
ATOM     21  N   UNL A   1      39.312  32.479  34.623  1.00  0.00    -0.354 N 
ATOM     22  C   UNL A   1      37.977  29.824  30.748  1.00  0.00     0.074 A 
ATOM     23  C   UNL A   1      37.057  30.616  29.989  1.00  0.00     0.031 C 
ATOM     24  C   UNL A   1      38.729  34.123  36.020  1.00  0.00     0.029 A 
ATOM     25  C   UNL A   1      39.717  33.079  35.842  1.00  0.00     0.049 A 
ATOM     26  H   UNL A   1      39.813  31.740  34.207  1.00  0.00     0.167 HD
ATOM     27  C   UNL A   1      38.834  28.850  30.324  1.00  0.00     0.037 A 
ATOM     28  C   UNL A   1      40.757  32.747  36.668  1.00  0.00     0.037 A 
ATOM     29  C   UNL A   1      39.741  28.497  31.368  1.00  0.00     0.049 A 
ATOM     30  C   UNL A   1      41.530  31.719  35.942  1.00  0.00     0.074 A 
ATOM     31  C   UNL A   1      39.621  27.789  32.532  1.00  0.00     0.029 A 
ATOM     32  N   UNL A   1      40.947  29.162  31.377  1.00  0.00    -0.354 N 
ATOM     33  N   UNL A   1      42.236  31.935  34.871  1.00  0.00    -0.248 NA
ATOM     34  C   UNL A   1      41.441  30.321  36.383  1.00  0.00     0.031 C 
ATOM     35  C   UNL A   1      40.590  28.355  33.389  1.00  0.00     0.029 A 
ATOM     36  C   UNL A   1      41.325  29.317  32.688  1.00  0.00     0.049 A 
ATOM     37  H   UNL A   1      41.447  29.468  30.587  1.00  0.00     0.167 HD
ATOM     38  C   UNL A   1      42.388  30.674  34.343  1.00  0.00     0.074 A 
ATOM     39  C   UNL A   1      42.164  29.744  35.427  1.00  0.00     0.031 C 
ATOM     40  C   UNL A   1      42.148  30.465  33.024  1.00  0.00     0.037 A 
BRANCH  27  41
ATOM     41  C   UNL A   1      39.178  28.363  28.938  1.00  0.00     0.058 A 
ATOM     42  C   UNL A   1      39.467  26.985  28.784  1.00  0.00     0.135 A 
ATOM     43  C   UNL A   1      39.613  29.205  27.903  1.00  0.00     0.135 A 
ATOM     44  F   UNL A   1      39.025  26.087  29.682  1.00  0.00    -0.206 F 
ATOM     45  C   UNL A   1      40.297  26.504  27.778  1.00  0.00     0.059 A 
ATOM     46  C   UNL A   1      40.406  28.734  26.855  1.00  0.00     0.059 A 
ATOM     47  F   UNL A   1      39.368  30.521  27.923  1.00  0.00    -0.206 F 
ATOM     48  C   UNL A   1      40.804  27.400  26.847  1.00  0.00     0.060 A 
BRANCH  48  49
ATOM     49  S   UNL A   1      42.046  26.822  25.671  1.00  0.00     0.124 S 
ATOM     50  O   UNL A   1      42.187  27.987  24.804  1.00  0.00    -0.237 OA
ATOM     51  O   UNL A   1      43.188  26.533  26.533  1.00  0.00    -0.237 OA
ATOM     52  O   UNL A   1      41.414  25.651  25.072  1.00  0.00    -0.744 OA
ENDBRANCH  48  49
ENDBRANCH  27  41
BRANCH  28  53
ATOM     53  C   UNL A   1      41.191  33.077  38.084  1.00  0.00     0.058 A 
ATOM     54  C   UNL A   1      40.427  32.910  39.250  1.00  0.00     0.135 A 
ATOM     55  C   UNL A   1      42.539  33.457  38.334  1.00  0.00     0.135 A 
ATOM     56  F   UNL A   1      39.109  32.701  39.207  1.00  0.00    -0.206 F 
ATOM     57  C   UNL A   1      40.988  32.938  40.537  1.00  0.00     0.059 A 
ATOM     58  C   UNL A   1      43.131  33.445  39.595  1.00  0.00     0.059 A 
ATOM     59  F   UNL A   1      43.365  33.820  37.340  1.00  0.00    -0.206 F 
ATOM     60  C   UNL A   1      42.353  33.145  40.695  1.00  0.00     0.060 A 
BRANCH  60  61
ATOM     61  S   UNL A   1      43.145  32.897  42.296  1.00  0.00     0.124 S 
ATOM     62  O   UNL A   1      43.900  34.134  42.456  1.00  0.00    -0.237 OA
ATOM     63  O   UNL A   1      42.008  32.724  43.195  1.00  0.00    -0.237 OA
ATOM     64  O   UNL A   1      43.941  31.692  42.076  1.00  0.00    -0.744 OA
ENDBRANCH  60  61
ENDBRANCH  28  53
BRANCH  40  65
ATOM     65  C   UNL A   1      42.374  31.684  32.144  1.00  0.00     0.058 A 
ATOM     66  C   UNL A   1      43.671  32.130  31.853  1.00  0.00     0.135 A 
ATOM     67  C   UNL A   1      41.330  32.486  31.652  1.00  0.00     0.135 A 
ATOM     68  F   UNL A   1      44.731  31.425  32.279  1.00  0.00    -0.206 F 
ATOM     69  C   UNL A   1      43.912  33.302  31.123  1.00  0.00     0.059 A 
ATOM     70  C   UNL A   1      41.536  33.652  30.914  1.00  0.00     0.059 A 
ATOM     71  F   UNL A   1      40.064  32.153  31.888  1.00  0.00    -0.206 F 
ATOM     72  C   UNL A   1      42.837  34.059  30.657  1.00  0.00     0.060 A 
BRANCH  72  73
ATOM     73  S   UNL A   1      43.154  35.579  29.733  1.00  0.00     0.124 S 
ATOM     74  O   UNL A   1      44.311  35.216  28.921  1.00  0.00    -0.237 OA
ATOM     75  O   UNL A   1      41.903  35.760  29.005  1.00  0.00    -0.237 OA
ATOM     76  O   UNL A   1      43.418  36.570  30.775  1.00  0.00    -0.744 OA
ENDBRANCH  72  73
ENDBRANCH  40  65
ENDBRANCH  14  15
ENDBRANCH   7   9
ENDBRANCH   6   7
ENDBRANCH   5   6
ENDBRANCH   4   5
ENDBRANCH   3   4
ENDBRANCH   2   3
ENDBRANCH   1   2
BRANCH   1  77
ATOM     77  O   UNL A   1      33.986  31.629  28.181  1.00  0.00    -0.376 OA
BRANCH  77  78
ATOM     78  C   UNL A   1      34.292  30.612  27.230  1.00  0.00     0.202 C 
BRANCH  78  79
ATOM     79  C   UNL A   1      33.010  30.030  26.608  1.00  0.00     0.261 C 
BRANCH  79  80
ATOM     80  O   UNL A   1      33.283  28.906  25.753  1.00  0.00    -0.461 OA
BRANCH  80  81
ATOM     81  C   UNL A   1      32.696  28.971  24.520  1.00  0.00     0.335 C 
ATOM     82  O   UNL A   1      33.274  29.316  23.495  1.00  0.00    -0.249 OA
BRANCH  81  83
ATOM     83  C   UNL A   1      31.225  28.517  24.599  1.00  0.00     0.228 C 
ATOM     84  C   UNL A   1      31.041  27.233  25.408  1.00  0.00     0.047 C 
ATOM     85  O   UNL A   1      30.660  28.285  23.298  1.00  0.00    -0.361 OA
ATOM     86  C   UNL A   1      30.179  26.366  24.521  1.00  0.00     0.037 C 
ATOM     87  C   UNL A   1      30.515  26.862  23.127  1.00  0.00     0.138 C 
BRANCH  87  88
ATOM     88  C   UNL A   1      31.829  26.323  22.545  1.00  0.00     0.148 C 
BRANCH  88  89
ATOM     89  N   UNL A   1      31.810  24.911  22.216  1.00  0.00    -0.348 N 
ATOM     90  C   UNL A   1      32.361  23.864  22.893  1.00  0.00     0.268 C 
ATOM     91  H   UNL A   1      31.333  24.676  21.388  1.00  0.00     0.163 HD
ATOM     92  O   UNL A   1      32.075  22.717  22.499  1.00  0.00    -0.268 OA
BRANCH  90  93
ATOM     93  C   UNL A   1      33.182  24.115  24.043  1.00  0.00     0.107 A 
ATOM     94  C   UNL A   1      34.349  24.879  24.078  1.00  0.00     0.033 A 
ATOM     95  N   UNL A   1      32.943  23.726  25.345  1.00  0.00    -0.340 N 
ATOM     96  C   UNL A   1      34.824  24.922  25.406  1.00  0.00     0.020 A 
ATOM     97  C   UNL A   1      33.922  24.224  26.171  1.00  0.00     0.086 A 
BRANCH  95  98
ATOM     98  C   UNL A   1      31.926  22.840  25.886  1.00  0.00     0.087 C 
ATOM     99  C   UNL A   1      31.431  22.784  27.314  1.00  0.00     0.027 C 
ATOM    100  C   UNL A   1      30.550  23.361  26.260  1.00  0.00     0.027 C 
ENDBRANCH  95  98
ENDBRANCH  90  93
ENDBRANCH  88  89
ENDBRANCH  87  88
ENDBRANCH  81  83
ENDBRANCH  80  81
ENDBRANCH  79  80
ENDBRANCH  78  79
ENDBRANCH  77  78
ENDBRANCH   1  77
TORSDOF 24
ENDMDL
MODEL 2
REMARK VINA RESULT:      -9.5      3.771      7.736
REMARK SMILES O=C(OCCOCCOCCOC(=O)[C@@H]1CC[C@H](CNC(=O)c2cccn2C2CC2)O1)c1ccc(-c2c3nc(c(-c4c(F)cc(S(=O)(=O)[O-])cc4F)c4ccc([nH]4)c(-c4c(F)cc(S(=O)(=O)[O-])cc4F)c4nc(c(-c5c(F)cc(S(=O)(=O)[O-])cc5F)c5ccc2[nH]5)C=C4)C=C3)cc1
REMARK SMILES IDX 8 1 7 2 6 3 5 4 4 5 3 6 2 7 1 8 32 9 33 10 97 11 34 12 96 13
REMARK SMILES IDX 35 14 36 15 37 16 90 17 38 18 95 19 89 20 91 21 39 22 94 23
REMARK SMILES IDX 88 24 87 25 40 27 74 28 53 29 73 30 54 31 57 32 72 33 92 34
REMARK SMILES IDX 55 35 56 36 71 38 93 39 58 40 41 41 42 42 51 43 43 44 44 45
REMARK SMILES IDX 50 46 52 47 45 48 46 49 47 50 48 51 49 52 75 53 76 54 85 55
REMARK SMILES IDX 77 56 78 57 84 58 86 59 79 60 80 61 81 62 82 63 83 64 59 65
REMARK SMILES IDX 60 66 69 67 61 68 62 69 68 70 70 71 63 72 64 73 65 74 66 75
REMARK SMILES IDX 67 76 9 77 10 78 11 79 12 80 13 81 14 82 15 83 16 84 31 85
REMARK SMILES IDX 17 86 18 87 19 88 20 89 21 90 22 92 23 93 24 94 27 95 25 96
REMARK SMILES IDX 26 97 28 98 29 99 30 100
REMARK H PARENT 91 26 57 37 20 91
REMARK Flexibility Score: inf
ROOT
ATOM      1  C   UNL A   1      34.308  31.286  27.624  1.00  0.00     0.188 C 
ENDROOT
BRANCH   1   2
ATOM      2  C   UNL A   1      33.805  32.699  27.988  1.00  0.00     0.188 C 
BRANCH   2   3
ATOM      3  O   UNL A   1      34.788  33.690  27.670  1.00  0.00    -0.376 OA
BRANCH   3   4
ATOM      4  C   UNL A   1      34.492  35.002  28.124  1.00  0.00     0.202 C 
BRANCH   4   5
ATOM      5  C   UNL A   1      33.490  35.051  29.297  1.00  0.00     0.261 C 
BRANCH   5   6
ATOM      6  O   UNL A   1      34.110  35.069  30.604  1.00  0.00    -0.460 OA
BRANCH   6   7
ATOM      7  C   UNL A   1      34.702  34.127  31.367  1.00  0.00     0.338 C 
ATOM      8  O   UNL A   1      34.014  33.472  32.146  1.00  0.00    -0.246 OA
BRANCH   7   9
ATOM      9  C   UNL A   1      36.158  33.867  31.318  1.00  0.00     0.060 A 
ATOM     10  C   UNL A   1      36.750  32.994  30.409  1.00  0.00     0.016 A 
ATOM     11  C   UNL A   1      36.981  34.607  32.183  1.00  0.00     0.016 A 
ATOM     12  C   UNL A   1      38.112  32.786  30.396  1.00  0.00     0.010 A 
ATOM     13  C   UNL A   1      38.361  34.425  32.165  1.00  0.00     0.010 A 
ATOM     14  C   UNL A   1      38.913  33.500  31.275  1.00  0.00    -0.014 A 
BRANCH  14  15
ATOM     15  C   UNL A   1      40.359  33.276  31.153  1.00  0.00     0.031 A 
ATOM     16  C   UNL A   1      40.881  32.274  32.179  1.00  0.00     0.074 A 
ATOM     17  C   UNL A   1      40.990  34.060  30.235  1.00  0.00     0.049 A 
ATOM     18  N   UNL A   1      42.048  32.193  32.745  1.00  0.00    -0.248 NA
ATOM     19  C   UNL A   1      39.932  31.279  32.752  1.00  0.00     0.031 C 
ATOM     20  C   UNL A   1      40.296  35.048  29.385  1.00  0.00     0.029 A 
ATOM     21  N   UNL A   1      42.297  34.211  29.828  1.00  0.00    -0.354 N 
ATOM     22  C   UNL A   1      42.049  31.005  33.503  1.00  0.00     0.074 A 
ATOM     23  C   UNL A   1      40.682  30.592  33.614  1.00  0.00     0.031 C 
ATOM     24  C   UNL A   1      41.174  35.718  28.619  1.00  0.00     0.029 A 
ATOM     25  C   UNL A   1      42.514  35.225  28.862  1.00  0.00     0.049 A 
ATOM     26  H   UNL A   1      43.027  33.654  30.182  1.00  0.00     0.167 HD
ATOM     27  C   UNL A   1      43.186  30.323  33.825  1.00  0.00     0.037 A 
ATOM     28  C   UNL A   1      43.689  35.659  28.311  1.00  0.00     0.037 A 
ATOM     29  C   UNL A   1      44.334  31.007  33.324  1.00  0.00     0.049 A 
ATOM     30  C   UNL A   1      44.725  34.721  28.789  1.00  0.00     0.074 A 
ATOM     31  C   UNL A   1      44.996  32.147  33.691  1.00  0.00     0.029 A 
ATOM     32  N   UNL A   1      44.785  30.614  32.084  1.00  0.00    -0.354 N 
ATOM     33  N   UNL A   1      44.827  33.475  28.428  1.00  0.00    -0.248 NA
ATOM     34  C   UNL A   1      45.668  35.169  29.823  1.00  0.00     0.031 C 
ATOM     35  C   UNL A   1      45.553  32.633  32.488  1.00  0.00     0.029 A 
ATOM     36  C   UNL A   1      45.291  31.725  31.455  1.00  0.00     0.049 A 
ATOM     37  H   UNL A   1      44.751  29.702  31.716  1.00  0.00     0.167 HD
ATOM     38  C   UNL A   1      45.612  32.930  29.416  1.00  0.00     0.074 A 
ATOM     39  C   UNL A   1      46.319  34.029  30.034  1.00  0.00     0.031 C 
ATOM     40  C   UNL A   1      45.237  31.766  30.006  1.00  0.00     0.037 A 
BRANCH  27  41
ATOM     41  C   UNL A   1      43.397  28.903  34.288  1.00  0.00     0.058 A 
ATOM     42  C   UNL A   1      42.800  27.871  33.522  1.00  0.00     0.135 A 
ATOM     43  C   UNL A   1      43.782  28.558  35.593  1.00  0.00     0.135 A 
ATOM     44  F   UNL A   1      42.467  28.078  32.235  1.00  0.00    -0.206 F 
ATOM     45  C   UNL A   1      42.433  26.649  34.072  1.00  0.00     0.059 A 
ATOM     46  C   UNL A   1      43.469  27.317  36.150  1.00  0.00     0.059 A 
ATOM     47  F   UNL A   1      44.386  29.440  36.399  1.00  0.00    -0.206 F 
ATOM     48  C   UNL A   1      42.727  26.403  35.406  1.00  0.00     0.060 A 
BRANCH  48  49
ATOM     49  S   UNL A   1      42.069  24.912  36.182  1.00  0.00     0.124 S 
ATOM     50  O   UNL A   1      42.531  25.072  37.556  1.00  0.00    -0.237 OA
ATOM     51  O   UNL A   1      40.630  25.058  35.977  1.00  0.00    -0.237 OA
ATOM     52  O   UNL A   1      42.694  23.839  35.416  1.00  0.00    -0.744 OA
ENDBRANCH  48  49
ENDBRANCH  27  41
BRANCH  28  53
ATOM     53  C   UNL A   1      44.152  36.850  27.493  1.00  0.00     0.058 A 
ATOM     54  C   UNL A   1      43.711  38.176  27.627  1.00  0.00     0.135 A 
ATOM     55  C   UNL A   1      45.238  36.698  26.586  1.00  0.00     0.135 A 
ATOM     56  F   UNL A   1      42.611  38.488  28.317  1.00  0.00    -0.206 F 
ATOM     57  C   UNL A   1      44.394  39.266  27.063  1.00  0.00     0.059 A 
ATOM     58  C   UNL A   1      45.961  37.763  26.052  1.00  0.00     0.059 A 
ATOM     59  F   UNL A   1      45.678  35.488  26.209  1.00  0.00    -0.206 F 
ATOM     60  C   UNL A   1      45.553  39.053  26.328  1.00  0.00     0.060 A 
BRANCH  60  61
ATOM     61  S   UNL A   1      46.606  40.435  25.843  1.00  0.00     0.124 S 
ATOM     62  O   UNL A   1      47.860  40.111  26.514  1.00  0.00    -0.237 OA
ATOM     63  O   UNL A   1      46.619  40.334  24.386  1.00  0.00    -0.237 OA
ATOM     64  O   UNL A   1      45.883  41.589  26.371  1.00  0.00    -0.744 OA
ENDBRANCH  60  61
ENDBRANCH  28  53
BRANCH  40  65
ATOM     65  C   UNL A   1      44.397  30.857  29.122  1.00  0.00     0.058 A 
ATOM     66  C   UNL A   1      44.940  30.276  27.966  1.00  0.00     0.135 A 
ATOM     67  C   UNL A   1      43.030  30.619  29.338  1.00  0.00     0.135 A 
ATOM     68  F   UNL A   1      46.240  30.446  27.681  1.00  0.00    -0.206 F 
ATOM     69  C   UNL A   1      44.168  29.510  27.082  1.00  0.00     0.059 A 
ATOM     70  C   UNL A   1      42.236  29.854  28.483  1.00  0.00     0.059 A 
ATOM     71  F   UNL A   1      42.420  31.140  30.400  1.00  0.00    -0.206 F 
ATOM     72  C   UNL A   1      42.814  29.305  27.348  1.00  0.00     0.060 A 
BRANCH  72  73
ATOM     73  S   UNL A   1      41.819  28.332  26.195  1.00  0.00     0.124 S 
ATOM     74  O   UNL A   1      42.015  26.971  26.683  1.00  0.00    -0.237 OA
ATOM     75  O   UNL A   1      40.486  28.890  26.395  1.00  0.00    -0.237 OA
ATOM     76  O   UNL A   1      42.423  28.614  24.893  1.00  0.00    -0.744 OA
ENDBRANCH  72  73
ENDBRANCH  40  65
ENDBRANCH  14  15
ENDBRANCH   7   9
ENDBRANCH   6   7
ENDBRANCH   5   6
ENDBRANCH   4   5
ENDBRANCH   3   4
ENDBRANCH   2   3
ENDBRANCH   1   2
BRANCH   1  77
ATOM     77  O   UNL A   1      33.339  30.320  27.201  1.00  0.00    -0.376 OA
BRANCH  77  78
ATOM     78  C   UNL A   1      33.692  28.952  27.388  1.00  0.00     0.202 C 
BRANCH  78  79
ATOM     79  C   UNL A   1      32.679  28.018  26.703  1.00  0.00     0.261 C 
BRANCH  79  80
ATOM     80  O   UNL A   1      33.282  26.784  26.276  1.00  0.00    -0.461 OA
BRANCH  80  81
ATOM     81  C   UNL A   1      32.496  25.678  26.446  1.00  0.00     0.335 C 
ATOM     82  O   UNL A   1      31.334  25.707  26.837  1.00  0.00    -0.249 OA
BRANCH  81  83
ATOM     83  C   UNL A   1      33.265  24.404  26.043  1.00  0.00     0.228 C 
ATOM     84  C   UNL A   1      34.393  24.679  25.048  1.00  0.00     0.047 C 
ATOM     85  O   UNL A   1      32.405  23.417  25.449  1.00  0.00    -0.361 OA
ATOM     86  C   UNL A   1      34.182  23.644  23.967  1.00  0.00     0.037 C 
ATOM     87  C   UNL A   1      32.692  23.372  24.039  1.00  0.00     0.138 C 
BRANCH  87  88
ATOM     88  C   UNL A   1      31.807  24.418  23.346  1.00  0.00     0.148 C 
BRANCH  88  89
ATOM     89  N   UNL A   1      32.113  24.638  21.947  1.00  0.00    -0.348 N 
ATOM     90  C   UNL A   1      32.663  25.732  21.349  1.00  0.00     0.268 C 
ATOM     91  H   UNL A   1      31.891  23.892  21.343  1.00  0.00     0.163 HD
ATOM     92  O   UNL A   1      32.981  25.626  20.148  1.00  0.00    -0.268 OA
BRANCH  90  93
ATOM     93  C   UNL A   1      32.905  26.916  22.121  1.00  0.00     0.107 A 
ATOM     94  C   UNL A   1      34.144  27.378  22.568  1.00  0.00     0.033 A 
ATOM     95  N   UNL A   1      31.984  27.869  22.505  1.00  0.00    -0.340 N 
ATOM     96  C   UNL A   1      33.956  28.600  23.246  1.00  0.00     0.020 A 
ATOM     97  C   UNL A   1      32.616  28.893  23.168  1.00  0.00     0.086 A 
BRANCH  95  98
ATOM     98  C   UNL A   1      30.535  27.869  22.393  1.00  0.00     0.087 C 
ATOM     99  C   UNL A   1      29.549  27.188  23.317  1.00  0.00     0.027 C 
ATOM    100  C   UNL A   1      29.674  28.672  23.352  1.00  0.00     0.027 C 
ENDBRANCH  95  98
ENDBRANCH  90  93
ENDBRANCH  88  89
ENDBRANCH  87  88
ENDBRANCH  81  83
ENDBRANCH  80  81
ENDBRANCH  79  80
ENDBRANCH  78  79
ENDBRANCH  77  78
ENDBRANCH   1  77
TORSDOF 24
ENDMDL
MODEL 3
REMARK VINA RESULT:      -9.3      4.291      6.355
REMARK SMILES O=C(OCCOCCOCCOC(=O)[C@@H]1CC[C@H](CNC(=O)c2cccn2C2CC2)O1)c1ccc(-c2c3nc(c(-c4c(F)cc(S(=O)(=O)[O-])cc4F)c4ccc([nH]4)c(-c4c(F)cc(S(=O)(=O)[O-])cc4F)c4nc(c(-c5c(F)cc(S(=O)(=O)[O-])cc5F)c5ccc2[nH]5)C=C4)C=C3)cc1
REMARK SMILES IDX 8 1 7 2 6 3 5 4 4 5 3 6 2 7 1 8 32 9 33 10 97 11 34 12 96 13
REMARK SMILES IDX 35 14 36 15 37 16 90 17 38 18 95 19 89 20 91 21 39 22 94 23
REMARK SMILES IDX 88 24 87 25 40 27 74 28 53 29 73 30 54 31 57 32 72 33 92 34
REMARK SMILES IDX 55 35 56 36 71 38 93 39 58 40 41 41 42 42 51 43 43 44 44 45
REMARK SMILES IDX 50 46 52 47 45 48 46 49 47 50 48 51 49 52 75 53 76 54 85 55
REMARK SMILES IDX 77 56 78 57 84 58 86 59 79 60 80 61 81 62 82 63 83 64 59 65
REMARK SMILES IDX 60 66 69 67 61 68 62 69 68 70 70 71 63 72 64 73 65 74 66 75
REMARK SMILES IDX 67 76 9 77 10 78 11 79 12 80 13 81 14 82 15 83 16 84 31 85
REMARK SMILES IDX 17 86 18 87 19 88 20 89 21 90 22 92 23 93 24 94 27 95 25 96
REMARK SMILES IDX 26 97 28 98 29 99 30 100
REMARK H PARENT 91 26 57 37 20 91
REMARK Flexibility Score: inf
ROOT
ATOM      1  C   UNL A   1      32.124  29.126  24.723  1.00  0.00     0.188 C 
ENDROOT
BRANCH   1   2
ATOM      2  C   UNL A   1      31.847  28.978  26.234  1.00  0.00     0.188 C 
BRANCH   2   3
ATOM      3  O   UNL A   1      32.897  28.249  26.878  1.00  0.00    -0.376 OA
BRANCH   3   4
ATOM      4  C   UNL A   1      34.202  28.771  26.682  1.00  0.00     0.202 C 
BRANCH   4   5
ATOM      5  C   UNL A   1      34.333  30.275  27.003  1.00  0.00     0.261 C 
BRANCH   5   6
ATOM      6  O   UNL A   1      35.611  30.651  27.568  1.00  0.00    -0.460 OA
BRANCH   6   7
ATOM      7  C   UNL A   1      36.127  30.606  28.814  1.00  0.00     0.338 C 
ATOM      8  O   UNL A   1      35.544  31.193  29.722  1.00  0.00    -0.246 OA
BRANCH   7   9
ATOM      9  C   UNL A   1      37.385  29.893  29.126  1.00  0.00     0.060 A 
ATOM     10  C   UNL A   1      37.523  29.012  30.195  1.00  0.00     0.016 A 
ATOM     11  C   UNL A   1      38.464  30.060  28.241  1.00  0.00     0.016 A 
ATOM     12  C   UNL A   1      38.713  28.366  30.445  1.00  0.00     0.010 A 
ATOM     13  C   UNL A   1      39.666  29.395  28.467  1.00  0.00     0.010 A 
ATOM     14  C   UNL A   1      39.782  28.561  29.582  1.00  0.00    -0.014 A 
BRANCH  14  15
ATOM     15  C   UNL A   1      40.993  27.784  29.874  1.00  0.00     0.031 A 
ATOM     16  C   UNL A   1      41.052  26.478  29.085  1.00  0.00     0.074 A 
ATOM     17  C   UNL A   1      41.788  28.299  30.853  1.00  0.00     0.049 A 
ATOM     18  N   UNL A   1      41.598  25.342  29.396  1.00  0.00    -0.248 NA
ATOM     19  C   UNL A   1      40.291  26.383  27.808  1.00  0.00     0.031 C 
ATOM     20  C   UNL A   1      41.500  29.560  31.565  1.00  0.00     0.029 A 
ATOM     21  N   UNL A   1      42.959  27.899  31.457  1.00  0.00    -0.354 N 
ATOM     22  C   UNL A   1      41.486  24.514  28.260  1.00  0.00     0.074 A 
ATOM     23  C   UNL A   1      40.525  25.136  27.399  1.00  0.00     0.031 C 
ATOM     24  C   UNL A   1      42.420  29.791  32.518  1.00  0.00     0.029 A 
ATOM     25  C   UNL A   1      43.410  28.734  32.511  1.00  0.00     0.049 A 
ATOM     26  H   UNL A   1      43.449  27.093  31.176  1.00  0.00     0.167 HD
ATOM     27  C   UNL A   1      42.333  23.477  28.004  1.00  0.00     0.037 A 
ATOM     28  C   UNL A   1      44.488  28.577  33.339  1.00  0.00     0.037 A 
ATOM     29  C   UNL A   1      43.289  23.343  29.056  1.00  0.00     0.049 A 
ATOM     30  C   UNL A   1      45.240  27.425  32.802  1.00  0.00     0.074 A 
ATOM     31  C   UNL A   1      43.226  22.884  30.343  1.00  0.00     0.029 A 
ATOM     32  N   UNL A   1      44.486  23.997  28.877  1.00  0.00    -0.354 N 
ATOM     33  N   UNL A   1      45.897  27.420  31.679  1.00  0.00    -0.248 NA
ATOM     34  C   UNL A   1      45.184  26.144  33.519  1.00  0.00     0.031 C 
ATOM     35  C   UNL A   1      44.225  23.613  31.025  1.00  0.00     0.029 A 
ATOM     36  C   UNL A   1      44.919  24.415  30.111  1.00  0.00     0.049 A 
ATOM     37  H   UNL A   1      44.949  24.138  28.020  1.00  0.00     0.167 HD
ATOM     38  C   UNL A   1      46.039  26.080  31.410  1.00  0.00     0.074 A 
ATOM     39  C   UNL A   1      45.871  25.387  32.668  1.00  0.00     0.031 C 
ATOM     40  C   UNL A   1      45.744  25.607  30.172  1.00  0.00     0.037 A 
BRANCH  27  41
ATOM     41  C   UNL A   1      42.622  22.720  26.731  1.00  0.00     0.058 A 
ATOM     42  C   UNL A   1      42.263  21.350  26.690  1.00  0.00     0.135 A 
ATOM     43  C   UNL A   1      43.549  23.144  25.766  1.00  0.00     0.135 A 
ATOM     44  F   UNL A   1      41.325  20.862  27.521  1.00  0.00    -0.206 F 
ATOM     45  C   UNL A   1      42.921  20.429  25.883  1.00  0.00     0.059 A 
ATOM     46  C   UNL A   1      44.186  22.244  24.910  1.00  0.00     0.059 A 
ATOM     47  F   UNL A   1      43.938  24.423  25.686  1.00  0.00    -0.206 F 
ATOM     48  C   UNL A   1      43.920  20.882  25.032  1.00  0.00     0.060 A 
BRANCH  48  49
ATOM     49  S   UNL A   1      44.919  19.672  24.141  1.00  0.00     0.124 S 
ATOM     50  O   UNL A   1      44.551  19.953  22.759  1.00  0.00    -0.237 OA
ATOM     51  O   UNL A   1      46.280  20.043  24.521  1.00  0.00    -0.237 OA
ATOM     52  O   UNL A   1      44.455  18.399  24.682  1.00  0.00    -0.744 OA
ENDBRANCH  48  49
ENDBRANCH  27  41
BRANCH  28  53
ATOM     53  C   UNL A   1      44.980  29.186  34.639  1.00  0.00     0.058 A 
ATOM     54  C   UNL A   1      44.398  29.028  35.906  1.00  0.00     0.135 A 
ATOM     55  C   UNL A   1      46.226  29.873  34.664  1.00  0.00     0.135 A 
ATOM     56  F   UNL A   1      43.163  28.543  36.060  1.00  0.00    -0.206 F 
ATOM     57  C   UNL A   1      45.067  29.355  37.097  1.00  0.00     0.059 A 
ATOM     58  C   UNL A   1      46.931  30.164  35.830  1.00  0.00     0.059 A 
ATOM     59  F   UNL A   1      46.842  30.258  33.536  1.00  0.00    -0.206 F 
ATOM     60  C   UNL A   1      46.358  29.865  37.050  1.00  0.00     0.060 A 
BRANCH  60  61
ATOM     61  S   UNL A   1      47.346  30.016  38.551  1.00  0.00     0.124 S 
ATOM     62  O   UNL A   1      46.908  31.305  39.074  1.00  0.00    -0.237 OA
ATOM     63  O   UNL A   1      46.941  28.845  39.323  1.00  0.00    -0.237 OA
ATOM     64  O   UNL A   1      48.714  29.971  38.041  1.00  0.00    -0.744 OA
ENDBRANCH  60  61
ENDBRANCH  28  53
BRANCH  40  65
ATOM     65  C   UNL A   1      45.919  26.624  29.055  1.00  0.00     0.058 A 
ATOM     66  C   UNL A   1      47.194  27.085  28.695  1.00  0.00     0.135 A 
ATOM     67  C   UNL A   1      44.843  27.231  28.387  1.00  0.00     0.135 A 
ATOM     68  F   UNL A   1      48.283  26.559  29.279  1.00  0.00    -0.206 F 
ATOM     69  C   UNL A   1      47.383  28.088  27.736  1.00  0.00     0.059 A 
ATOM     70  C   UNL A   1      44.997  28.225  27.420  1.00  0.00     0.059 A 
ATOM     71  F   UNL A   1      43.593  26.871  28.669  1.00  0.00    -0.206 F 
ATOM     72  C   UNL A   1      46.277  28.654  27.102  1.00  0.00     0.060 A 
BRANCH  72  73
ATOM     73  S   UNL A   1      46.525  29.961  25.879  1.00  0.00     0.124 S 
ATOM     74  O   UNL A   1      47.791  30.550  26.302  1.00  0.00    -0.237 OA
ATOM     75  O   UNL A   1      46.565  29.207  24.630  1.00  0.00    -0.237 OA
ATOM     76  O   UNL A   1      45.356  30.822  26.049  1.00  0.00    -0.744 OA
ENDBRANCH  72  73
ENDBRANCH  40  65
ENDBRANCH  14  15
ENDBRANCH   7   9
ENDBRANCH   6   7
ENDBRANCH   5   6
ENDBRANCH   4   5
ENDBRANCH   3   4
ENDBRANCH   2   3
ENDBRANCH   1   2
BRANCH   1  77
ATOM     77  O   UNL A   1      32.955  28.143  24.097  1.00  0.00    -0.376 OA
BRANCH  77  78
ATOM     78  C   UNL A   1      32.480  27.612  22.862  1.00  0.00     0.202 C 
BRANCH  78  79
ATOM     79  C   UNL A   1      30.976  27.885  22.683  1.00  0.00     0.261 C 
BRANCH  79  80
ATOM     80  O   UNL A   1      30.163  26.849  23.264  1.00  0.00    -0.461 OA
BRANCH  80  81
ATOM     81  C   UNL A   1      30.710  25.598  23.209  1.00  0.00     0.335 C 
ATOM     82  O   UNL A   1      31.373  25.171  22.269  1.00  0.00    -0.249 OA
BRANCH  81  83
ATOM     83  C   UNL A   1      30.406  24.820  24.505  1.00  0.00     0.228 C 
ATOM     84  C   UNL A   1      30.515  25.687  25.759  1.00  0.00     0.047 C 
ATOM     85  O   UNL A   1      31.289  23.700  24.684  1.00  0.00    -0.361 OA
ATOM     86  C   UNL A   1      31.370  24.865  26.695  1.00  0.00     0.037 C 
ATOM     87  C   UNL A   1      32.205  24.025  25.747  1.00  0.00     0.138 C 
BRANCH  87  88
ATOM     88  C   UNL A   1      33.408  24.749  25.125  1.00  0.00     0.148 C 
BRANCH  88  89
ATOM     89  N   UNL A   1      33.715  24.353  23.765  1.00  0.00    -0.348 N 
ATOM     90  C   UNL A   1      34.678  23.499  23.316  1.00  0.00     0.268 C 
ATOM     91  H   UNL A   1      33.150  24.759  23.068  1.00  0.00     0.163 HD
ATOM     92  O   UNL A   1      34.647  23.190  22.109  1.00  0.00    -0.268 OA
BRANCH  90  93
ATOM     93  C   UNL A   1      35.632  22.956  24.239  1.00  0.00     0.107 A 
ATOM     94  C   UNL A   1      36.777  23.592  24.719  1.00  0.00     0.033 A 
ATOM     95  N   UNL A   1      35.568  21.743  24.893  1.00  0.00    -0.340 N 
ATOM     96  C   UNL A   1      37.415  22.741  25.645  1.00  0.00     0.020 A 
ATOM     97  C   UNL A   1      36.632  21.618  25.753  1.00  0.00     0.086 A 
BRANCH  95  98
ATOM     98  C   UNL A   1      34.647  20.633  24.720  1.00  0.00     0.087 C 
ATOM     99  C   UNL A   1      33.482  20.266  25.612  1.00  0.00     0.027 C 
ATOM    100  C   UNL A   1      33.214  20.864  24.273  1.00  0.00     0.027 C 
ENDBRANCH  95  98
ENDBRANCH  90  93
ENDBRANCH  88  89
ENDBRANCH  87  88
ENDBRANCH  81  83
ENDBRANCH  80  81
ENDBRANCH  79  80
ENDBRANCH  78  79
ENDBRANCH  77  78
ENDBRANCH   1  77
TORSDOF 24
ENDMDL
