MODEL 1
REMARK VINA RESULT:     -10.5      0.000      0.000
REMARK SMILES COC(=O)C1CCN(C(=O)N[C@@H]2C=C[C@H](C(=O)OCCOCCOCCOC(=O)c3ccc(-c4c5nc(c(-c6c(F)cc(S(=O)(=O)[O-])cc6F)c6ccc([nH]6)c(-c6c(F)cc(S(=O)(=O)[O-])cc6F)c6nc(c(-c7c(F)cc(S(=O)(=O)[O-])cc7F)c7ccc4[nH]7)C=C6)C=C5)cc3)C2)CC1
REMARK SMILES IDX 22 1 21 2 20 3 19 4 18 5 16 6 17 7 15 8 12 9 13 10 96 11
REMARK SMILES IDX 14 12 11 13 5 14 6 15 98 16 7 17 97 18 8 19 9 20 10 21 3 23
REMARK SMILES IDX 4 24 2 25 1 26 23 27 24 28 25 29 26 30 27 31 28 32 29 33
REMARK SMILES IDX 30 34 31 35 95 36 32 37 94 38 33 39 34 40 35 41 88 42 36 43
REMARK SMILES IDX 93 44 87 45 89 46 37 47 92 48 86 49 85 50 38 52 72 53 51 54
REMARK SMILES IDX 71 55 52 56 55 57 70 58 90 59 53 60 54 61 69 63 91 64 56 65
REMARK SMILES IDX 39 66 40 67 49 68 41 69 42 70 48 71 50 72 43 73 44 74 45 75
REMARK SMILES IDX 46 76 47 77 73 78 74 79 83 80 75 81 76 82 82 83 84 84 77 85
REMARK SMILES IDX 78 86 79 87 80 88 81 89 57 90 58 91 67 92 59 93 60 94 66 95
REMARK SMILES IDX 68 96 61 97 62 98 63 99 64 100 65 101
REMARK H PARENT 11 22 89 51 55 62
REMARK Flexibility Score: inf
ROOT
ATOM      1  C   UNL A   1      32.312  29.656  25.149  1.00  0.00     0.188 C 
ENDROOT
BRANCH   1   2
ATOM      2  O   UNL A   1      33.550  29.045  24.889  1.00  0.00    -0.376 OA
BRANCH   2   3
ATOM      3  C   UNL A   1      33.622  27.673  24.561  1.00  0.00     0.202 C 
BRANCH   3   4
ATOM      4  C   UNL A   1      32.901  27.002  23.375  1.00  0.00     0.261 C 
BRANCH   4   5
ATOM      5  O   UNL A   1      31.498  26.764  23.503  1.00  0.00    -0.463 OA
BRANCH   5   6
ATOM      6  C   UNL A   1      31.110  25.525  23.937  1.00  0.00     0.312 C 
ATOM      7  O   UNL A   1      30.815  24.589  23.211  1.00  0.00    -0.252 OA
BRANCH   6   8
ATOM      8  C   UNL A   1      31.130  25.502  25.463  1.00  0.00     0.124 C 
ATOM      9  C   UNL A   1      31.443  23.403  26.726  1.00  0.00     0.107 C 
ATOM     10  C   UNL A   1      30.048  23.917  26.822  1.00  0.00    -0.006 C 
ATOM     11  C   UNL A   1      32.174  24.526  26.013  1.00  0.00     0.048 C 
ATOM     12  C   UNL A   1      29.862  25.024  26.097  1.00  0.00    -0.014 C 
BRANCH   9  13
ATOM     13  N   UNL A   1      31.364  22.166  25.999  1.00  0.00    -0.332 N 
ATOM     14  C   UNL A   1      36.379  21.544  25.870  1.00  0.00     0.102 C 
ATOM     15  C   UNL A   1      35.701  20.508  24.952  1.00  0.00     0.037 C 
ATOM     16  C   UNL A   1      35.313  22.222  26.726  1.00  0.00     0.037 C 
ATOM     17  C   UNL A   1      34.422  21.004  24.248  1.00  0.00     0.122 C 
ATOM     18  C   UNL A   1      34.301  22.867  25.794  1.00  0.00     0.122 C 
ATOM     19  N   UNL A   1      33.561  21.811  25.134  1.00  0.00    -0.325 N 
ATOM     20  C   UNL A   1      32.280  21.397  25.370  1.00  0.00     0.317 C 
ATOM     21  O   UNL A   1      31.861  20.292  25.025  1.00  0.00    -0.249 OA
ATOM     22  H   UNL A   1      30.450  21.803  25.946  1.00  0.00     0.165 HD
BRANCH  14  23
ATOM     23  C   UNL A   1      37.126  22.645  25.128  1.00  0.00     0.308 C 
ATOM     24  O   UNL A   1      36.801  23.136  24.054  1.00  0.00    -0.252 OA
BRANCH  23  25
ATOM     25  O   UNL A   1      38.126  23.126  25.929  1.00  0.00    -0.469 OA
ATOM     26  C   UNL A   1      39.160  22.184  26.214  1.00  0.00     0.282 C 
ENDBRANCH  23  25
ENDBRANCH  14  23
ENDBRANCH   9  13
ENDBRANCH   6   8
ENDBRANCH   5   6
ENDBRANCH   4   5
ENDBRANCH   3   4
ENDBRANCH   2   3
ENDBRANCH   1   2
BRANCH   1  27
ATOM     27  C   UNL A   1      32.007  30.167  26.580  1.00  0.00     0.188 C 
BRANCH  27  28
ATOM     28  O   UNL A   1      33.055  30.427  27.497  1.00  0.00    -0.376 OA
BRANCH  28  29
ATOM     29  C   UNL A   1      33.552  31.748  27.602  1.00  0.00     0.202 C 
BRANCH  29  30
ATOM     30  C   UNL A   1      34.799  32.009  28.456  1.00  0.00     0.261 C 
BRANCH  30  31
ATOM     31  O   UNL A   1      35.416  30.842  29.031  1.00  0.00    -0.460 OA
BRANCH  31  32
ATOM     32  C   UNL A   1      36.410  31.080  29.926  1.00  0.00     0.338 C 
ATOM     33  O   UNL A   1      36.318  31.716  30.964  1.00  0.00    -0.246 OA
BRANCH  32  34
ATOM     34  C   UNL A   1      37.636  30.335  29.561  1.00  0.00     0.060 A 
ATOM     35  C   UNL A   1      38.530  29.970  30.578  1.00  0.00     0.016 A 
ATOM     36  C   UNL A   1      37.959  30.087  28.226  1.00  0.00     0.016 A 
ATOM     37  C   UNL A   1      39.762  29.388  30.258  1.00  0.00     0.010 A 
ATOM     38  C   UNL A   1      39.203  29.524  27.907  1.00  0.00     0.010 A 
ATOM     39  C   UNL A   1      40.125  29.198  28.917  1.00  0.00    -0.014 A 
BRANCH  39  40
ATOM     40  C   UNL A   1      41.511  28.775  28.568  1.00  0.00     0.031 A 
ATOM     41  C   UNL A   1      42.633  29.772  28.660  1.00  0.00     0.074 A 
ATOM     42  C   UNL A   1      41.772  27.519  28.159  1.00  0.00     0.049 A 
ATOM     43  N   UNL A   1      43.901  29.618  28.377  1.00  0.00    -0.248 NA
ATOM     44  C   UNL A   1      42.276  31.127  29.105  1.00  0.00     0.031 C 
ATOM     45  C   UNL A   1      40.773  26.470  28.013  1.00  0.00     0.029 A 
ATOM     46  N   UNL A   1      42.955  26.908  27.811  1.00  0.00    -0.354 N 
ATOM     47  C   UNL A   1      44.485  30.866  28.559  1.00  0.00     0.074 A 
ATOM     48  C   UNL A   1      43.435  31.762  28.994  1.00  0.00     0.031 C 
ATOM     49  C   UNL A   1      41.385  25.331  27.646  1.00  0.00     0.029 A 
ATOM     50  C   UNL A   1      42.816  25.573  27.498  1.00  0.00     0.049 A 
ATOM     51  H   UNL A   1      43.818  27.379  27.787  1.00  0.00     0.167 HD
ATOM     52  C   UNL A   1      45.773  31.232  28.355  1.00  0.00     0.037 A 
ATOM     53  C   UNL A   1      43.733  24.648  27.146  1.00  0.00     0.037 A 
ATOM     54  C   UNL A   1      46.818  30.332  27.933  1.00  0.00     0.049 A 
ATOM     55  C   UNL A   1      45.174  25.071  26.990  1.00  0.00     0.074 A 
ATOM     56  C   UNL A   1      48.157  30.615  27.722  1.00  0.00     0.029 A 
ATOM     57  N   UNL A   1      46.646  28.985  27.651  1.00  0.00    -0.354 N 
ATOM     58  N   UNL A   1      45.716  26.247  27.200  1.00  0.00    -0.248 NA
ATOM     59  C   UNL A   1      46.125  24.050  26.525  1.00  0.00     0.031 C 
ATOM     60  C   UNL A   1      48.782  29.455  27.253  1.00  0.00     0.029 A 
ATOM     61  C   UNL A   1      47.849  28.432  27.237  1.00  0.00     0.049 A 
ATOM     62  H   UNL A   1      45.797  28.495  27.732  1.00  0.00     0.167 HD
ATOM     63  C   UNL A   1      47.065  26.109  26.885  1.00  0.00     0.074 A 
ATOM     64  C   UNL A   1      47.268  24.723  26.519  1.00  0.00     0.031 C 
ATOM     65  C   UNL A   1      48.042  27.049  26.876  1.00  0.00     0.037 A 
BRANCH  52  66
ATOM     66  C   UNL A   1      46.125  32.684  28.524  1.00  0.00     0.058 A 
ATOM     67  C   UNL A   1      46.045  33.603  27.468  1.00  0.00     0.135 A 
ATOM     68  C   UNL A   1      46.491  33.171  29.791  1.00  0.00     0.135 A 
ATOM     69  F   UNL A   1      45.722  33.190  26.233  1.00  0.00    -0.206 F 
ATOM     70  C   UNL A   1      46.322  34.954  27.660  1.00  0.00     0.059 A 
ATOM     71  C   UNL A   1      46.745  34.520  30.011  1.00  0.00     0.059 A 
ATOM     72  F   UNL A   1      46.590  32.333  30.835  1.00  0.00    -0.206 F 
ATOM     73  C   UNL A   1      46.665  35.404  28.937  1.00  0.00     0.060 A 
BRANCH  73  74
ATOM     74  S   UNL A   1      46.987  37.165  29.175  1.00  0.00     0.124 S 
ATOM     75  O   UNL A   1      47.479  37.187  30.549  1.00  0.00    -0.237 OA
ATOM     76  O   UNL A   1      47.981  37.441  28.143  1.00  0.00    -0.237 OA
ATOM     77  O   UNL A   1      45.682  37.783  28.967  1.00  0.00    -0.744 OA
ENDBRANCH  73  74
ENDBRANCH  52  66
BRANCH  53  78
ATOM     78  C   UNL A   1      43.331  23.231  26.893  1.00  0.00     0.058 A 
ATOM     79  C   UNL A   1      43.053  22.352  27.953  1.00  0.00     0.135 A 
ATOM     80  C   UNL A   1      43.252  22.714  25.590  1.00  0.00     0.135 A 
ATOM     81  F   UNL A   1      43.127  22.786  29.222  1.00  0.00    -0.206 F 
ATOM     82  C   UNL A   1      42.748  21.010  27.734  1.00  0.00     0.059 A 
ATOM     83  C   UNL A   1      42.907  21.387  25.345  1.00  0.00     0.059 A 
ATOM     84  F   UNL A   1      43.504  23.503  24.534  1.00  0.00    -0.206 F 
ATOM     85  C   UNL A   1      42.679  20.536  26.424  1.00  0.00     0.060 A 
BRANCH  85  86
ATOM     86  S   UNL A   1      42.276  18.797  26.143  1.00  0.00     0.124 S 
ATOM     87  O   UNL A   1      42.501  18.226  27.466  1.00  0.00    -0.237 OA
ATOM     88  O   UNL A   1      40.885  18.864  25.706  1.00  0.00    -0.237 OA
ATOM     89  O   UNL A   1      43.230  18.393  25.114  1.00  0.00    -0.744 OA
ENDBRANCH  85  86
ENDBRANCH  53  78
BRANCH  65  90
ATOM     90  C   UNL A   1      49.427  26.618  26.464  1.00  0.00     0.058 A 
ATOM     91  C   UNL A   1      50.298  25.979  27.361  1.00  0.00     0.135 A 
ATOM     92  C   UNL A   1      49.866  26.793  25.142  1.00  0.00     0.135 A 
ATOM     93  F   UNL A   1      49.932  25.785  28.638  1.00  0.00    -0.206 F 
ATOM     94  C   UNL A   1      51.564  25.553  26.969  1.00  0.00     0.059 A 
ATOM     95  C   UNL A   1      51.116  26.349  24.720  1.00  0.00     0.059 A 
ATOM     96  F   UNL A   1      49.070  27.386  24.237  1.00  0.00    -0.206 F 
ATOM     97  C   UNL A   1      51.964  25.741  25.645  1.00  0.00     0.060 A 
BRANCH  97  98
ATOM     98  S   UNL A   1      53.597  25.158  25.142  1.00  0.00     0.124 S 
ATOM     99  O   UNL A   1      54.467  25.904  26.045  1.00  0.00    -0.237 OA
ATOM    100  O   UNL A   1      53.507  23.723  25.390  1.00  0.00    -0.237 OA
ATOM    101  O   UNL A   1      53.678  25.541  23.735  1.00  0.00    -0.744 OA
ENDBRANCH  97  98
ENDBRANCH  65  90
ENDBRANCH  39  40
ENDBRANCH  32  34
ENDBRANCH  31  32
ENDBRANCH  30  31
ENDBRANCH  29  30
ENDBRANCH  28  29
ENDBRANCH  27  28
ENDBRANCH   1  27
TORSDOF 23
ENDMDL
MODEL 2
REMARK VINA RESULT:     -10.0      5.473      9.891
REMARK SMILES COC(=O)C1CCN(C(=O)N[C@@H]2C=C[C@H](C(=O)OCCOCCOCCOC(=O)c3ccc(-c4c5nc(c(-c6c(F)cc(S(=O)(=O)[O-])cc6F)c6ccc([nH]6)c(-c6c(F)cc(S(=O)(=O)[O-])cc6F)c6nc(c(-c7c(F)cc(S(=O)(=O)[O-])cc7F)c7ccc4[nH]7)C=C6)C=C5)cc3)C2)CC1
REMARK SMILES IDX 22 1 21 2 20 3 19 4 18 5 16 6 17 7 15 8 12 9 13 10 96 11
REMARK SMILES IDX 14 12 11 13 5 14 6 15 98 16 7 17 97 18 8 19 9 20 10 21 3 23
REMARK SMILES IDX 4 24 2 25 1 26 23 27 24 28 25 29 26 30 27 31 28 32 29 33
REMARK SMILES IDX 30 34 31 35 95 36 32 37 94 38 33 39 34 40 35 41 88 42 36 43
REMARK SMILES IDX 93 44 87 45 89 46 37 47 92 48 86 49 85 50 38 52 72 53 51 54
REMARK SMILES IDX 71 55 52 56 55 57 70 58 90 59 53 60 54 61 69 63 91 64 56 65
REMARK SMILES IDX 39 66 40 67 49 68 41 69 42 70 48 71 50 72 43 73 44 74 45 75
REMARK SMILES IDX 46 76 47 77 73 78 74 79 83 80 75 81 76 82 82 83 84 84 77 85
REMARK SMILES IDX 78 86 79 87 80 88 81 89 57 90 58 91 67 92 59 93 60 94 66 95
REMARK SMILES IDX 68 96 61 97 62 98 63 99 64 100 65 101
REMARK H PARENT 11 22 89 51 55 62
REMARK Flexibility Score: inf
ROOT
ATOM      1  C   UNL A   1      32.524  36.414  32.523  1.00  0.00     0.188 C 
ENDROOT
BRANCH   1   2
ATOM      2  O   UNL A   1      32.169  36.742  31.204  1.00  0.00    -0.376 OA
BRANCH   2   3
ATOM      3  C   UNL A   1      33.136  36.727  30.173  1.00  0.00     0.202 C 
BRANCH   3   4
ATOM      4  C   UNL A   1      32.945  36.090  28.782  1.00  0.00     0.261 C 
BRANCH   4   5
ATOM      5  O   UNL A   1      32.967  34.663  28.700  1.00  0.00    -0.463 OA
BRANCH   5   6
ATOM      6  C   UNL A   1      33.942  34.011  29.406  1.00  0.00     0.312 C 
ATOM      7  O   UNL A   1      33.870  33.713  30.588  1.00  0.00    -0.252 OA
BRANCH   6   8
ATOM      8  C   UNL A   1      35.110  33.702  28.475  1.00  0.00     0.124 C 
ATOM      9  C   UNL A   1      36.377  31.588  28.637  1.00  0.00     0.107 C 
ATOM     10  C   UNL A   1      37.164  32.756  29.122  1.00  0.00    -0.006 C 
ATOM     11  C   UNL A   1      35.136  32.233  28.046  1.00  0.00     0.048 C 
ATOM     12  C   UNL A   1      36.463  33.894  29.085  1.00  0.00    -0.014 C 
BRANCH   9  13
ATOM     13  N   UNL A   1      36.146  30.756  29.785  1.00  0.00    -0.332 N 
ATOM     14  C   UNL A   1      40.778  28.736  29.659  1.00  0.00     0.102 C 
ATOM     15  C   UNL A   1      39.905  27.974  30.675  1.00  0.00     0.037 C 
ATOM     16  C   UNL A   1      40.054  30.012  29.239  1.00  0.00     0.037 C 
ATOM     17  C   UNL A   1      38.414  27.865  30.295  1.00  0.00     0.122 C 
ATOM     18  C   UNL A   1      38.710  29.620  28.649  1.00  0.00     0.122 C 
ATOM     19  N   UNL A   1      37.879  29.115  29.722  1.00  0.00    -0.325 N 
ATOM     20  C   UNL A   1      36.825  29.729  30.340  1.00  0.00     0.317 C 
ATOM     21  O   UNL A   1      36.413  29.390  31.450  1.00  0.00    -0.249 OA
ATOM     22  H   UNL A   1      35.318  30.981  30.269  1.00  0.00     0.165 HD
BRANCH  14  23
ATOM     23  C   UNL A   1      41.084  27.955  28.386  1.00  0.00     0.308 C 
ATOM     24  O   UNL A   1      40.580  26.888  28.060  1.00  0.00    -0.252 OA
BRANCH  23  25
ATOM     25  O   UNL A   1      41.885  28.714  27.578  1.00  0.00    -0.469 OA
ATOM     26  C   UNL A   1      41.536  28.677  26.194  1.00  0.00     0.282 C 
ENDBRANCH  23  25
ENDBRANCH  14  23
ENDBRANCH   9  13
ENDBRANCH   6   8
ENDBRANCH   5   6
ENDBRANCH   4   5
ENDBRANCH   3   4
ENDBRANCH   2   3
ENDBRANCH   1   2
BRANCH   1  27
ATOM     27  C   UNL A   1      33.862  36.941  33.098  1.00  0.00     0.188 C 
BRANCH  27  28
ATOM     28  O   UNL A   1      34.971  36.077  33.268  1.00  0.00    -0.376 OA
BRANCH  28  29
ATOM     29  C   UNL A   1      34.743  34.772  33.767  1.00  0.00     0.202 C 
BRANCH  29  30
ATOM     30  C   UNL A   1      35.617  34.250  34.915  1.00  0.00     0.261 C 
BRANCH  30  31
ATOM     31  O   UNL A   1      36.186  32.942  34.720  1.00  0.00    -0.460 OA
BRANCH  31  32
ATOM     32  C   UNL A   1      37.139  32.574  35.615  1.00  0.00     0.338 C 
ATOM     33  O   UNL A   1      37.032  32.568  36.831  1.00  0.00    -0.246 OA
BRANCH  32  34
ATOM     34  C   UNL A   1      38.326  32.023  34.923  1.00  0.00     0.060 A 
ATOM     35  C   UNL A   1      39.590  32.216  35.498  1.00  0.00     0.016 A 
ATOM     36  C   UNL A   1      38.213  31.414  33.672  1.00  0.00     0.016 A 
ATOM     37  C   UNL A   1      40.745  31.831  34.807  1.00  0.00     0.010 A 
ATOM     38  C   UNL A   1      39.373  31.049  32.973  1.00  0.00     0.010 A 
ATOM     39  C   UNL A   1      40.647  31.281  33.521  1.00  0.00    -0.014 A 
BRANCH  39  40
ATOM     40  C   UNL A   1      41.873  31.065  32.702  1.00  0.00     0.031 A 
ATOM     41  C   UNL A   1      42.548  29.721  32.724  1.00  0.00     0.074 A 
ATOM     42  C   UNL A   1      42.392  32.055  31.952  1.00  0.00     0.049 A 
ATOM     43  N   UNL A   1      43.635  29.331  32.108  1.00  0.00    -0.248 NA
ATOM     44  C   UNL A   1      41.932  28.687  33.569  1.00  0.00     0.031 C 
ATOM     45  C   UNL A   1      41.843  33.400  31.860  1.00  0.00     0.029 A 
ATOM     46  N   UNL A   1      43.484  32.079  31.114  1.00  0.00    -0.354 N 
ATOM     47  C   UNL A   1      43.864  28.027  32.530  1.00  0.00     0.074 A 
ATOM     48  C   UNL A   1      42.792  27.686  33.441  1.00  0.00     0.031 C 
ATOM     49  C   UNL A   1      42.571  34.111  30.983  1.00  0.00     0.029 A 
ATOM     50  C   UNL A   1      43.660  33.285  30.471  1.00  0.00     0.049 A 
ATOM     51  H   UNL A   1      44.082  31.309  30.986  1.00  0.00     0.167 HD
ATOM     52  C   UNL A   1      44.890  27.204  32.207  1.00  0.00     0.037 A 
ATOM     53  C   UNL A   1      44.582  33.678  29.567  1.00  0.00     0.037 A 
ATOM     54  C   UNL A   1      45.949  27.545  31.289  1.00  0.00     0.049 A 
ATOM     55  C   UNL A   1      45.676  32.715  29.175  1.00  0.00     0.074 A 
ATOM     56  C   UNL A   1      47.018  26.763  30.887  1.00  0.00     0.029 A 
ATOM     57  N   UNL A   1      46.081  28.763  30.639  1.00  0.00    -0.354 N 
ATOM     58  N   UNL A   1      45.859  31.473  29.556  1.00  0.00    -0.248 NA
ATOM     59  C   UNL A   1      46.706  33.213  28.250  1.00  0.00     0.031 C 
ATOM     60  C   UNL A   1      47.829  27.527  30.043  1.00  0.00     0.029 A 
ATOM     61  C   UNL A   1      47.231  28.763  29.864  1.00  0.00     0.049 A 
ATOM     62  H   UNL A   1      45.451  29.516  30.716  1.00  0.00     0.167 HD
ATOM     63  C   UNL A   1      47.024  31.047  28.926  1.00  0.00     0.074 A 
ATOM     64  C   UNL A   1      47.477  32.145  28.099  1.00  0.00     0.031 C 
ATOM     65  C   UNL A   1      47.674  29.862  29.041  1.00  0.00     0.037 A 
BRANCH  52  66
ATOM     66  C   UNL A   1      44.961  25.868  32.892  1.00  0.00     0.058 A 
ATOM     67  C   UNL A   1      44.561  24.680  32.264  1.00  0.00     0.135 A 
ATOM     68  C   UNL A   1      45.503  25.774  34.186  1.00  0.00     0.135 A 
ATOM     69  F   UNL A   1      44.016  24.713  31.038  1.00  0.00    -0.206 F 
ATOM     70  C   UNL A   1      44.687  23.446  32.896  1.00  0.00     0.059 A 
ATOM     71  C   UNL A   1      45.665  24.550  34.825  1.00  0.00     0.059 A 
ATOM     72  F   UNL A   1      45.896  26.881  34.836  1.00  0.00    -0.206 F 
ATOM     73  C   UNL A   1      45.247  23.391  34.174  1.00  0.00     0.060 A 
BRANCH  73  74
ATOM     74  S   UNL A   1      45.436  21.779  34.966  1.00  0.00     0.124 S 
ATOM     75  O   UNL A   1      44.164  21.142  34.638  1.00  0.00    -0.237 OA
ATOM     76  O   UNL A   1      46.609  21.236  34.288  1.00  0.00    -0.237 OA
ATOM     77  O   UNL A   1      45.626  22.110  36.374  1.00  0.00    -0.744 OA
ENDBRANCH  73  74
ENDBRANCH  52  66
BRANCH  53  78
ATOM     78  C   UNL A   1      44.535  35.049  28.976  1.00  0.00     0.058 A 
ATOM     79  C   UNL A   1      43.926  35.287  27.733  1.00  0.00     0.135 A 
ATOM     80  C   UNL A   1      45.130  36.145  29.621  1.00  0.00     0.135 A 
ATOM     81  F   UNL A   1      43.353  34.275  27.061  1.00  0.00    -0.206 F 
ATOM     82  C   UNL A   1      43.939  36.547  27.136  1.00  0.00     0.059 A 
ATOM     83  C   UNL A   1      45.119  37.422  29.065  1.00  0.00     0.059 A 
ATOM     84  F   UNL A   1      45.727  35.985  30.812  1.00  0.00    -0.206 F 
ATOM     85  C   UNL A   1      44.541  37.609  27.811  1.00  0.00     0.060 A 
BRANCH  85  86
ATOM     86  S   UNL A   1      44.551  39.243  27.039  1.00  0.00     0.124 S 
ATOM     87  O   UNL A   1      43.213  39.303  26.462  1.00  0.00    -0.237 OA
ATOM     88  O   UNL A   1      44.793  40.126  28.176  1.00  0.00    -0.237 OA
ATOM     89  O   UNL A   1      45.647  39.154  26.078  1.00  0.00    -0.744 OA
ENDBRANCH  85  86
ENDBRANCH  53  78
BRANCH  65  90
ATOM     90  C   UNL A   1      48.944  29.679  28.250  1.00  0.00     0.058 A 
ATOM     91  C   UNL A   1      48.941  29.095  26.973  1.00  0.00     0.135 A 
ATOM     92  C   UNL A   1      50.171  30.146  28.750  1.00  0.00     0.135 A 
ATOM     93  F   UNL A   1      47.798  28.630  26.444  1.00  0.00    -0.206 F 
ATOM     94  C   UNL A   1      50.111  28.956  26.232  1.00  0.00     0.059 A 
ATOM     95  C   UNL A   1      51.348  30.045  28.014  1.00  0.00     0.059 A 
ATOM     96  F   UNL A   1      50.232  30.725  29.961  1.00  0.00    -0.206 F 
ATOM     97  C   UNL A   1      51.310  29.437  26.760  1.00  0.00     0.060 A 
BRANCH  97  98
ATOM     98  S   UNL A   1      52.816  29.278  25.776  1.00  0.00     0.124 S 
ATOM     99  O   UNL A   1      52.353  28.460  24.660  1.00  0.00    -0.237 OA
ATOM    100  O   UNL A   1      53.131  30.667  25.459  1.00  0.00    -0.237 OA
ATOM    101  O   UNL A   1      53.751  28.623  26.687  1.00  0.00    -0.744 OA
ENDBRANCH  97  98
ENDBRANCH  65  90
ENDBRANCH  39  40
ENDBRANCH  32  34
ENDBRANCH  31  32
ENDBRANCH  30  31
ENDBRANCH  29  30
ENDBRANCH  28  29
ENDBRANCH  27  28
ENDBRANCH   1  27
TORSDOF 23
ENDMDL
MODEL 3
REMARK VINA RESULT:      -9.7      1.289      2.097
REMARK SMILES COC(=O)C1CCN(C(=O)N[C@@H]2C=C[C@H](C(=O)OCCOCCOCCOC(=O)c3ccc(-c4c5nc(c(-c6c(F)cc(S(=O)(=O)[O-])cc6F)c6ccc([nH]6)c(-c6c(F)cc(S(=O)(=O)[O-])cc6F)c6nc(c(-c7c(F)cc(S(=O)(=O)[O-])cc7F)c7ccc4[nH]7)C=C6)C=C5)cc3)C2)CC1
REMARK SMILES IDX 22 1 21 2 20 3 19 4 18 5 16 6 17 7 15 8 12 9 13 10 96 11
REMARK SMILES IDX 14 12 11 13 5 14 6 15 98 16 7 17 97 18 8 19 9 20 10 21 3 23
REMARK SMILES IDX 4 24 2 25 1 26 23 27 24 28 25 29 26 30 27 31 28 32 29 33
REMARK SMILES IDX 30 34 31 35 95 36 32 37 94 38 33 39 34 40 35 41 88 42 36 43
REMARK SMILES IDX 93 44 87 45 89 46 37 47 92 48 86 49 85 50 38 52 72 53 51 54
REMARK SMILES IDX 71 55 52 56 55 57 70 58 90 59 53 60 54 61 69 63 91 64 56 65
REMARK SMILES IDX 39 66 40 67 49 68 41 69 42 70 48 71 50 72 43 73 44 74 45 75
REMARK SMILES IDX 46 76 47 77 73 78 74 79 83 80 75 81 76 82 82 83 84 84 77 85
REMARK SMILES IDX 78 86 79 87 80 88 81 89 57 90 58 91 67 92 59 93 60 94 66 95
REMARK SMILES IDX 68 96 61 97 62 98 63 99 64 100 65 101
REMARK H PARENT 11 22 89 51 55 62
REMARK Flexibility Score: inf
ROOT
ATOM      1  C   UNL A   1      33.971  28.184  22.647  1.00  0.00     0.188 C 
ENDROOT
BRANCH   1   2
ATOM      2  O   UNL A   1      33.411  26.945  22.291  1.00  0.00    -0.376 OA
BRANCH   2   3
ATOM      3  C   UNL A   1      32.052  26.851  21.915  1.00  0.00     0.202 C 
BRANCH   3   4
ATOM      4  C   UNL A   1      30.930  26.234  22.773  1.00  0.00     0.261 C 
BRANCH   4   5
ATOM      5  O   UNL A   1      30.822  26.668  24.130  1.00  0.00    -0.463 OA
BRANCH   5   6
ATOM      6  C   UNL A   1      29.859  26.075  24.902  1.00  0.00     0.312 C 
ATOM      7  O   UNL A   1      28.660  26.107  24.673  1.00  0.00    -0.252 OA
BRANCH   6   8
ATOM      8  C   UNL A   1      30.529  25.356  26.069  1.00  0.00     0.124 C 
ATOM      9  C   UNL A   1      32.452  23.844  25.732  1.00  0.00     0.107 C 
ATOM     10  C   UNL A   1      31.207  23.104  26.082  1.00  0.00    -0.006 C 
ATOM     11  C   UNL A   1      32.051  25.296  25.915  1.00  0.00     0.048 C 
ATOM     12  C   UNL A   1      30.153  23.915  26.214  1.00  0.00    -0.014 C 
BRANCH   9  13
ATOM     13  N   UNL A   1      32.777  23.464  24.384  1.00  0.00    -0.332 N 
ATOM     14  C   UNL A   1      37.465  22.001  25.581  1.00  0.00     0.102 C 
ATOM     15  C   UNL A   1      37.301  22.023  24.048  1.00  0.00     0.037 C 
ATOM     16  C   UNL A   1      36.092  22.149  26.230  1.00  0.00     0.037 C 
ATOM     17  C   UNL A   1      36.367  23.128  23.513  1.00  0.00     0.122 C 
ATOM     18  C   UNL A   1      35.480  23.452  25.745  1.00  0.00     0.122 C 
ATOM     19  N   UNL A   1      35.159  23.302  24.341  1.00  0.00    -0.325 N 
ATOM     20  C   UNL A   1      33.930  23.133  23.765  1.00  0.00     0.317 C 
ATOM     21  O   UNL A   1      33.782  22.668  22.634  1.00  0.00    -0.249 OA
ATOM     22  H   UNL A   1      31.995  23.442  23.787  1.00  0.00     0.165 HD
BRANCH  14  23
ATOM     23  C   UNL A   1      38.345  23.115  26.134  1.00  0.00     0.308 C 
ATOM     24  O   UNL A   1      38.091  24.313  26.104  1.00  0.00    -0.252 OA
BRANCH  23  25
ATOM     25  O   UNL A   1      39.387  22.560  26.825  1.00  0.00    -0.469 OA
ATOM     26  C   UNL A   1      39.818  21.292  26.332  1.00  0.00     0.282 C 
ENDBRANCH  23  25
ENDBRANCH  14  23
ENDBRANCH   9  13
ENDBRANCH   6   8
ENDBRANCH   5   6
ENDBRANCH   4   5
ENDBRANCH   3   4
ENDBRANCH   2   3
ENDBRANCH   1   2
BRANCH   1  27
ATOM     27  C   UNL A   1      33.384  28.960  23.852  1.00  0.00     0.188 C 
BRANCH  27  28
ATOM     28  O   UNL A   1      33.754  28.631  25.179  1.00  0.00    -0.376 OA
BRANCH  28  29
ATOM     29  C   UNL A   1      33.709  29.644  26.166  1.00  0.00     0.202 C 
BRANCH  29  30
ATOM     30  C   UNL A   1      34.327  29.370  27.543  1.00  0.00     0.261 C 
BRANCH  30  31
ATOM     31  O   UNL A   1      35.753  29.170  27.559  1.00  0.00    -0.460 OA
BRANCH  31  32
ATOM     32  C   UNL A   1      36.416  29.734  28.601  1.00  0.00     0.338 C 
ATOM     33  O   UNL A   1      35.926  30.141  29.642  1.00  0.00    -0.246 OA
BRANCH  32  34
ATOM     34  C   UNL A   1      37.880  29.672  28.387  1.00  0.00     0.060 A 
ATOM     35  C   UNL A   1      38.362  29.418  27.095  1.00  0.00     0.016 A 
ATOM     36  C   UNL A   1      38.770  29.758  29.459  1.00  0.00     0.016 A 
ATOM     37  C   UNL A   1      39.729  29.216  26.879  1.00  0.00     0.010 A 
ATOM     38  C   UNL A   1      40.137  29.534  29.244  1.00  0.00     0.010 A 
ATOM     39  C   UNL A   1      40.624  29.232  27.959  1.00  0.00    -0.014 A 
BRANCH  39  40
ATOM     40  C   UNL A   1      42.041  28.815  27.767  1.00  0.00     0.031 A 
ATOM     41  C   UNL A   1      43.142  29.819  27.972  1.00  0.00     0.074 A 
ATOM     42  C   UNL A   1      42.352  27.556  27.402  1.00  0.00     0.049 A 
ATOM     43  N   UNL A   1      44.434  29.670  27.831  1.00  0.00    -0.248 NA
ATOM     44  C   UNL A   1      42.732  31.176  28.362  1.00  0.00     0.031 C 
ATOM     45  C   UNL A   1      41.379  26.501  27.158  1.00  0.00     0.029 A 
ATOM     46  N   UNL A   1      43.568  26.949  27.190  1.00  0.00    -0.354 N 
ATOM     47  C   UNL A   1      44.989  30.922  28.063  1.00  0.00     0.074 A 
ATOM     48  C   UNL A   1      43.893  31.817  28.372  1.00  0.00     0.031 C 
ATOM     49  C   UNL A   1      42.033  25.362  26.871  1.00  0.00     0.029 A 
ATOM     50  C   UNL A   1      43.471  25.611  26.878  1.00  0.00     0.049 A 
ATOM     51  H   UNL A   1      44.427  27.425  27.256  1.00  0.00     0.167 HD
ATOM     52  C   UNL A   1      46.289  31.294  27.997  1.00  0.00     0.037 A 
ATOM     53  C   UNL A   1      44.425  24.687  26.636  1.00  0.00     0.037 A 
ATOM     54  C   UNL A   1      47.378  30.397  27.700  1.00  0.00     0.049 A 
ATOM     55  C   UNL A   1      45.872  25.117  26.635  1.00  0.00     0.074 A 
ATOM     56  C   UNL A   1      48.731  30.685  27.634  1.00  0.00     0.029 A 
ATOM     57  N   UNL A   1      47.245  29.046  27.414  1.00  0.00    -0.354 N 
ATOM     58  N   UNL A   1      46.383  26.299  26.891  1.00  0.00    -0.248 NA
ATOM     59  C   UNL A   1      46.873  24.098  26.285  1.00  0.00     0.031 C 
ATOM     60  C   UNL A   1      49.409  29.525  27.248  1.00  0.00     0.029 A 
ATOM     61  C   UNL A   1      48.488  28.496  27.140  1.00  0.00     0.049 A 
ATOM     62  H   UNL A   1      46.394  28.551  27.407  1.00  0.00     0.167 HD
ATOM     63  C   UNL A   1      47.759  26.165  26.726  1.00  0.00     0.074 A 
ATOM     64  C   UNL A   1      48.007  24.777  26.398  1.00  0.00     0.031 C 
ATOM     65  C   UNL A   1      48.726  27.111  26.815  1.00  0.00     0.037 A 
BRANCH  52  66
ATOM     66  C   UNL A   1      46.614  32.749  28.189  1.00  0.00     0.058 A 
ATOM     67  C   UNL A   1      46.960  33.282  29.439  1.00  0.00     0.135 A 
ATOM     68  C   UNL A   1      46.640  33.613  27.079  1.00  0.00     0.135 A 
ATOM     69  F   UNL A   1      46.931  32.510  30.536  1.00  0.00    -0.206 F 
ATOM     70  C   UNL A   1      47.312  34.622  29.585  1.00  0.00     0.059 A 
ATOM     71  C   UNL A   1      47.016  34.946  27.197  1.00  0.00     0.059 A 
ATOM     72  F   UNL A   1      46.312  33.156  25.860  1.00  0.00    -0.206 F 
ATOM     73  C   UNL A   1      47.343  35.444  28.457  1.00  0.00     0.060 A 
BRANCH  73  74
ATOM     74  S   UNL A   1      47.836  37.169  28.658  1.00  0.00     0.124 S 
ATOM     75  O   UNL A   1      47.720  37.339  30.103  1.00  0.00    -0.237 OA
ATOM     76  O   UNL A   1      49.196  37.168  28.128  1.00  0.00    -0.237 OA
ATOM     77  O   UNL A   1      46.856  37.900  27.861  1.00  0.00    -0.744 OA
ENDBRANCH  73  74
ENDBRANCH  52  66
BRANCH  53  78
ATOM     78  C   UNL A   1      44.060  23.267  26.355  1.00  0.00     0.058 A 
ATOM     79  C   UNL A   1      43.586  22.421  27.372  1.00  0.00     0.135 A 
ATOM     80  C   UNL A   1      44.211  22.712  25.074  1.00  0.00     0.135 A 
ATOM     81  F   UNL A   1      43.434  22.891  28.620  1.00  0.00    -0.206 F 
ATOM     82  C   UNL A   1      43.311  21.074  27.139  1.00  0.00     0.059 A 
ATOM     83  C   UNL A   1      43.902  21.380  24.808  1.00  0.00     0.059 A 
ATOM     84  F   UNL A   1      44.658  23.467  24.059  1.00  0.00    -0.206 F 
ATOM     85  C   UNL A   1      43.473  20.563  25.852  1.00  0.00     0.060 A 
BRANCH  85  86
ATOM     86  S   UNL A   1      43.109  18.819  25.551  1.00  0.00     0.124 S 
ATOM     87  O   UNL A   1      43.801  18.587  24.288  1.00  0.00    -0.237 OA
ATOM     88  O   UNL A   1      43.690  18.170  26.723  1.00  0.00    -0.237 OA
ATOM     89  O   UNL A   1      41.651  18.786  25.485  1.00  0.00    -0.744 OA
ENDBRANCH  85  86
ENDBRANCH  53  78
BRANCH  65  90
ATOM     90  C   UNL A   1      50.150  26.684  26.561  1.00  0.00     0.058 A 
ATOM     91  C   UNL A   1      50.708  26.704  25.273  1.00  0.00     0.135 A 
ATOM     92  C   UNL A   1      50.983  26.306  27.626  1.00  0.00     0.135 A 
ATOM     93  F   UNL A   1      49.958  27.056  24.216  1.00  0.00    -0.206 F 
ATOM     94  C   UNL A   1      52.032  26.340  25.046  1.00  0.00     0.059 A 
ATOM     95  C   UNL A   1      52.318  25.968  27.428  1.00  0.00     0.059 A 
ATOM     96  F   UNL A   1      50.507  26.281  28.882  1.00  0.00    -0.206 F 
ATOM     97  C   UNL A   1      52.831  25.975  26.131  1.00  0.00     0.060 A 
BRANCH  97  98
ATOM     98  S   UNL A   1      54.555  25.534  25.828  1.00  0.00     0.124 S 
ATOM     99  O   UNL A   1      54.627  25.608  24.372  1.00  0.00    -0.237 OA
ATOM    100  O   UNL A   1      55.277  26.575  26.552  1.00  0.00    -0.237 OA
ATOM    101  O   UNL A   1      54.669  24.192  26.393  1.00  0.00    -0.744 OA
ENDBRANCH  97  98
ENDBRANCH  65  90
ENDBRANCH  39  40
ENDBRANCH  32  34
ENDBRANCH  31  32
ENDBRANCH  30  31
ENDBRANCH  29  30
ENDBRANCH  28  29
ENDBRANCH  27  28
ENDBRANCH   1  27
TORSDOF 23
ENDMDL
