MODEL 1
REMARK VINA RESULT:      -6.9      0.000      0.000
REMARK SMILES CCCN1C(=O)/C(=C\c2ccc(OC)c(OC)c2C(=O)OCCOCCOCCOC(=O)c2ccc(-c3c4nc(c(-c5c(F)cc(S(=O)(=O)[O-])cc5F)c5ccc([nH]5)c(-c5c(F)cc(S(=O)(=O)[O-])cc5F)c5nc(c(-c6c(F)cc(S(=O)(=O)[O-])cc6F)c6ccc3[nH]6)C=C5)C=C4)cc2)S/C1=[NH+]\c1nccs1
REMARK SMILES IDX 25 1 24 2 23 3 22 4 21 5 19 6 20 7 18 8 9 9 10 10 11 11
REMARK SMILES IDX 15 12 12 13 8 14 4 15 5 16 100 17 6 18 7 19 99 20 101 21
REMARK SMILES IDX 3 23 2 24 1 25 102 26 103 27 106 28 104 29 105 30 16 31
REMARK SMILES IDX 17 32 13 33 14 34 26 35 27 36 28 37 29 38 30 39 31 40 32 41
REMARK SMILES IDX 33 42 34 43 98 44 35 45 97 46 36 47 37 48 38 49 91 50 39 51
REMARK SMILES IDX 96 52 90 53 92 54 40 55 95 56 89 57 88 58 41 60 75 61 54 62
REMARK SMILES IDX 74 63 55 64 58 65 73 66 93 67 56 68 57 69 72 71 94 72 59 73
REMARK SMILES IDX 42 74 43 75 52 76 44 77 45 78 51 79 53 80 46 81 47 82 48 83
REMARK SMILES IDX 49 84 50 85 76 86 77 87 86 88 78 89 79 90 85 91 87 92 80 93
REMARK SMILES IDX 81 94 82 95 83 96 84 97 60 98 61 99 70 100 62 101 63 102
REMARK SMILES IDX 69 103 71 104 64 105 65 106 66 107 67 108 68 109
REMARK H PARENT 101 22 92 59 58 70
REMARK Flexibility Score: inf
ROOT
ATOM      1  C   UNL A   1      36.249  30.541  27.576  1.00  0.00     0.188 C 
ENDROOT
BRANCH   1   2
ATOM      2  O   UNL A   1      37.196  29.929  28.443  1.00  0.00    -0.376 OA
BRANCH   2   3
ATOM      3  C   UNL A   1      38.460  29.643  27.857  1.00  0.00     0.202 C 
BRANCH   3   4
ATOM      4  C   UNL A   1      39.382  28.883  28.803  1.00  0.00     0.261 C 
BRANCH   4   5
ATOM      5  O   UNL A   1      40.690  28.674  28.250  1.00  0.00    -0.460 OA
BRANCH   5   6
ATOM      6  C   UNL A   1      41.434  27.634  28.708  1.00  0.00     0.342 C 
ATOM      7  O   UNL A   1      41.380  27.196  29.831  1.00  0.00    -0.246 OA
BRANCH   6   8
ATOM      8  C   UNL A   1      42.266  27.134  27.560  1.00  0.00     0.113 A 
ATOM      9  C   UNL A   1      41.673  26.379  26.502  1.00  0.00    -0.006 A 
ATOM     10  C   UNL A   1      42.496  25.870  25.493  1.00  0.00     0.013 A 
ATOM     11  C   UNL A   1      43.863  26.140  25.494  1.00  0.00     0.051 A 
ATOM     12  C   UNL A   1      43.655  27.420  27.539  1.00  0.00     0.175 A 
ATOM     13  C   UNL A   1      44.454  26.921  26.495  1.00  0.00     0.161 A 
BRANCH   9  14
ATOM     14  C   UNL A   1      40.231  26.054  26.371  1.00  0.00     0.032 C 
ATOM     15  N   UNL A   1      39.804  22.565  26.910  1.00  0.00    -0.219 N 
ATOM     16  C   UNL A   1      40.374  23.747  27.337  1.00  0.00     0.321 C 
ATOM     17  C   UNL A   1      38.527  22.678  26.413  1.00  0.00     0.271 C 
ATOM     18  O   UNL A   1      41.318  23.861  28.104  1.00  0.00    -0.250 OA
ATOM     19  C   UNL A   1      39.662  24.892  26.725  1.00  0.00     0.100 C 
ATOM     20  S   UNL A   1      38.083  24.380  26.273  1.00  0.00    -0.012 SA
ATOM     21  N   UNL A   1      37.815  21.644  26.136  1.00  0.00    -0.228 N 
ATOM     22  H   UNL A   1      38.164  20.746  26.342  1.00  0.00     0.268 HD
BRANCH  15  23
ATOM     23  C   UNL A   1      40.606  21.354  27.095  1.00  0.00     0.206 C 
BRANCH  23  24
ATOM     24  C   UNL A   1      41.699  20.988  26.090  1.00  0.00     0.035 C 
ATOM     25  C   UNL A   1      42.382  19.652  26.351  1.00  0.00     0.007 C 
ENDBRANCH  23  24
ENDBRANCH  15  23
BRANCH  21  26
ATOM     26  C   UNL A   1      36.599  21.767  25.566  1.00  0.00     0.319 A 
ATOM     27  N   UNL A   1      36.293  21.668  24.290  1.00  0.00    -0.101 NA
ATOM     28  S   UNL A   1      35.232  21.886  26.623  1.00  0.00    -0.070 S 
ATOM     29  C   UNL A   1      34.922  21.676  24.123  1.00  0.00     0.219 A 
ATOM     30  C   UNL A   1      34.183  21.777  25.278  1.00  0.00     0.110 A 
ENDBRANCH  21  26
ENDBRANCH   9  14
BRANCH  12  31
ATOM     31  O   UNL A   1      44.206  28.293  28.441  1.00  0.00    -0.492 OA
ATOM     32  C   UNL A   1      44.247  29.644  27.989  1.00  0.00     0.278 C 
ENDBRANCH  12  31
BRANCH  13  33
ATOM     33  O   UNL A   1      45.792  27.095  26.264  1.00  0.00    -0.493 OA
ATOM     34  C   UNL A   1      46.275  27.192  24.933  1.00  0.00     0.278 C 
ENDBRANCH  13  33
ENDBRANCH   6   8
ENDBRANCH   5   6
ENDBRANCH   4   5
ENDBRANCH   3   4
ENDBRANCH   2   3
ENDBRANCH   1   2
BRANCH   1  35
ATOM     35  C   UNL A   1      34.952  30.984  28.283  1.00  0.00     0.188 C 
BRANCH  35  36
ATOM     36  O   UNL A   1      35.009  31.749  29.481  1.00  0.00    -0.376 OA
BRANCH  36  37
ATOM     37  C   UNL A   1      34.740  33.140  29.417  1.00  0.00     0.202 C 
BRANCH  37  38
ATOM     38  C   UNL A   1      34.532  33.882  30.743  1.00  0.00     0.261 C 
BRANCH  38  39
ATOM     39  O   UNL A   1      35.744  34.264  31.418  1.00  0.00    -0.460 OA
BRANCH  39  40
ATOM     40  C   UNL A   1      36.166  33.415  32.390  1.00  0.00     0.338 C 
ATOM     41  O   UNL A   1      35.496  32.937  33.289  1.00  0.00    -0.246 OA
BRANCH  40  42
ATOM     42  C   UNL A   1      37.558  32.991  32.118  1.00  0.00     0.060 A 
ATOM     43  C   UNL A   1      38.576  33.454  32.965  1.00  0.00     0.016 A 
ATOM     44  C   UNL A   1      37.874  32.198  31.013  1.00  0.00     0.016 A 
ATOM     45  C   UNL A   1      39.911  33.141  32.702  1.00  0.00     0.010 A 
ATOM     46  C   UNL A   1      39.216  31.908  30.735  1.00  0.00     0.010 A 
ATOM     47  C   UNL A   1      40.243  32.395  31.565  1.00  0.00    -0.014 A 
BRANCH  47  48
ATOM     48  C   UNL A   1      41.664  32.233  31.163  1.00  0.00     0.031 A 
ATOM     49  C   UNL A   1      42.393  30.976  31.548  1.00  0.00     0.074 A 
ATOM     50  C   UNL A   1      42.306  33.195  30.477  1.00  0.00     0.049 A 
ATOM     51  N   UNL A   1      43.655  30.670  31.390  1.00  0.00    -0.248 NA
ATOM     52  C   UNL A   1      41.594  29.932  32.206  1.00  0.00     0.031 C 
ATOM     53  C   UNL A   1      41.705  34.447  30.027  1.00  0.00     0.029 A 
ATOM     54  N   UNL A   1      43.611  33.278  30.058  1.00  0.00    -0.354 N 
ATOM     55  C   UNL A   1      43.807  29.406  31.945  1.00  0.00     0.074 A 
ATOM     56  C   UNL A   1      42.511  29.009  32.454  1.00  0.00     0.031 C 
ATOM     57  C   UNL A   1      42.641  35.183  29.403  1.00  0.00     0.029 A 
ATOM     58  C   UNL A   1      43.922  34.476  29.457  1.00  0.00     0.049 A 
ATOM     59  H   UNL A   1      44.262  32.550  30.176  1.00  0.00     0.167 HD
ATOM     60  C   UNL A   1      44.927  28.649  32.030  1.00  0.00     0.037 A 
ATOM     61  C   UNL A   1      45.107  34.965  29.040  1.00  0.00     0.037 A 
ATOM     62  C   UNL A   1      46.218  29.050  31.531  1.00  0.00     0.049 A 
ATOM     63  C   UNL A   1      46.355  34.133  29.202  1.00  0.00     0.074 A 
ATOM     64  C   UNL A   1      47.404  28.337  31.544  1.00  0.00     0.029 A 
ATOM     65  N   UNL A   1      46.496  30.276  30.946  1.00  0.00    -0.354 N 
ATOM     66  N   UNL A   1      46.481  32.927  29.703  1.00  0.00    -0.248 NA
ATOM     67  C   UNL A   1      47.621  34.731  28.753  1.00  0.00     0.031 C 
ATOM     68  C   UNL A   1      48.411  29.152  31.016  1.00  0.00     0.029 A 
ATOM     69  C   UNL A   1      47.842  30.353  30.625  1.00  0.00     0.049 A 
ATOM     70  H   UNL A   1      45.835  30.988  30.783  1.00  0.00     0.167 HD
ATOM     71  C   UNL A   1      47.836  32.618  29.617  1.00  0.00     0.074 A 
ATOM     72  C   UNL A   1      48.486  33.757  29.002  1.00  0.00     0.031 C 
ATOM     73  C   UNL A   1      48.482  31.493  30.015  1.00  0.00     0.037 A 
BRANCH  60  74
ATOM     74  C   UNL A   1      44.814  27.323  32.728  1.00  0.00     0.058 A 
ATOM     75  C   UNL A   1      44.923  27.207  34.122  1.00  0.00     0.135 A 
ATOM     76  C   UNL A   1      44.577  26.152  31.988  1.00  0.00     0.135 A 
ATOM     77  F   UNL A   1      45.167  28.292  34.874  1.00  0.00    -0.206 F 
ATOM     78  C   UNL A   1      44.834  25.972  34.756  1.00  0.00     0.059 A 
ATOM     79  C   UNL A   1      44.458  24.911  32.604  1.00  0.00     0.059 A 
ATOM     80  F   UNL A   1      44.467  26.209  30.652  1.00  0.00    -0.206 F 
ATOM     81  C   UNL A   1      44.605  24.829  33.988  1.00  0.00     0.060 A 
BRANCH  81  82
ATOM     82  S   UNL A   1      44.505  23.232  34.822  1.00  0.00     0.124 S 
ATOM     83  O   UNL A   1      43.063  23.086  34.995  1.00  0.00    -0.237 OA
ATOM     84  O   UNL A   1      45.121  22.333  33.853  1.00  0.00    -0.237 OA
ATOM     85  O   UNL A   1      45.265  23.441  36.050  1.00  0.00    -0.744 OA
ENDBRANCH  81  82
ENDBRANCH  60  74
BRANCH  61  86
ATOM     86  C   UNL A   1      45.181  36.339  28.471  1.00  0.00     0.058 A 
ATOM     87  C   UNL A   1      45.296  37.464  29.299  1.00  0.00     0.135 A 
ATOM     88  C   UNL A   1      45.144  36.549  27.084  1.00  0.00     0.135 A 
ATOM     89  F   UNL A   1      45.318  37.316  30.633  1.00  0.00    -0.206 F 
ATOM     90  C   UNL A   1      45.367  38.752  28.774  1.00  0.00     0.059 A 
ATOM     91  C   UNL A   1      45.239  37.823  26.533  1.00  0.00     0.059 A 
ATOM     92  F   UNL A   1      45.041  35.505  26.248  1.00  0.00    -0.206 F 
ATOM     93  C   UNL A   1      45.344  38.920  27.388  1.00  0.00     0.060 A 
BRANCH  93  94
ATOM     94  S   UNL A   1      45.500  40.587  26.711  1.00  0.00     0.124 S 
ATOM     95  O   UNL A   1      45.061  41.403  27.837  1.00  0.00    -0.237 OA
ATOM     96  O   UNL A   1      46.922  40.654  26.389  1.00  0.00    -0.237 OA
ATOM     97  O   UNL A   1      44.605  40.565  25.558  1.00  0.00    -0.744 OA
ENDBRANCH  93  94
ENDBRANCH  61  86
BRANCH  73  98
ATOM     98  C   UNL A   1      49.967  31.419  29.785  1.00  0.00     0.058 A 
ATOM     99  C   UNL A   1      50.885  31.805  30.774  1.00  0.00     0.135 A 
ATOM    100  C   UNL A   1      50.479  30.885  28.591  1.00  0.00     0.135 A 
ATOM    101  F   UNL A   1      50.452  32.329  31.932  1.00  0.00    -0.206 F 
ATOM    102  C   UNL A   1      52.259  31.673  30.583  1.00  0.00     0.059 A 
ATOM    103  C   UNL A   1      51.846  30.721  28.388  1.00  0.00     0.059 A 
ATOM    104  F   UNL A   1      49.644  30.492  27.616  1.00  0.00    -0.206 F 
ATOM    105  C   UNL A   1      52.729  31.124  29.389  1.00  0.00     0.060 A 
BRANCH 105 106
ATOM    106  S   UNL A   1      54.509  30.910  29.174  1.00  0.00     0.124 S 
ATOM    107  O   UNL A   1      54.609  30.692  27.735  1.00  0.00    -0.237 OA
ATOM    108  O   UNL A   1      55.038  32.181  29.661  1.00  0.00    -0.237 OA
ATOM    109  O   UNL A   1      54.816  29.752  30.008  1.00  0.00    -0.744 OA
ENDBRANCH 105 106
ENDBRANCH  73  98
ENDBRANCH  47  48
ENDBRANCH  40  42
ENDBRANCH  39  40
ENDBRANCH  38  39
ENDBRANCH  37  38
ENDBRANCH  36  37
ENDBRANCH  35  36
ENDBRANCH   1  35
TORSDOF 26
ENDMDL
MODEL 2
REMARK VINA RESULT:      -6.8      4.025      7.315
REMARK SMILES CCCN1C(=O)/C(=C\c2ccc(OC)c(OC)c2C(=O)OCCOCCOCCOC(=O)c2ccc(-c3c4nc(c(-c5c(F)cc(S(=O)(=O)[O-])cc5F)c5ccc([nH]5)c(-c5c(F)cc(S(=O)(=O)[O-])cc5F)c5nc(c(-c6c(F)cc(S(=O)(=O)[O-])cc6F)c6ccc3[nH]6)C=C5)C=C4)cc2)S/C1=[NH+]\c1nccs1
REMARK SMILES IDX 25 1 24 2 23 3 22 4 21 5 19 6 20 7 18 8 9 9 10 10 11 11
REMARK SMILES IDX 15 12 12 13 8 14 4 15 5 16 100 17 6 18 7 19 99 20 101 21
REMARK SMILES IDX 3 23 2 24 1 25 102 26 103 27 106 28 104 29 105 30 16 31
REMARK SMILES IDX 17 32 13 33 14 34 26 35 27 36 28 37 29 38 30 39 31 40 32 41
REMARK SMILES IDX 33 42 34 43 98 44 35 45 97 46 36 47 37 48 38 49 91 50 39 51
REMARK SMILES IDX 96 52 90 53 92 54 40 55 95 56 89 57 88 58 41 60 75 61 54 62
REMARK SMILES IDX 74 63 55 64 58 65 73 66 93 67 56 68 57 69 72 71 94 72 59 73
REMARK SMILES IDX 42 74 43 75 52 76 44 77 45 78 51 79 53 80 46 81 47 82 48 83
REMARK SMILES IDX 49 84 50 85 76 86 77 87 86 88 78 89 79 90 85 91 87 92 80 93
REMARK SMILES IDX 81 94 82 95 83 96 84 97 60 98 61 99 70 100 62 101 63 102
REMARK SMILES IDX 69 103 71 104 64 105 65 106 66 107 67 108 68 109
REMARK H PARENT 101 22 92 59 58 70
REMARK Flexibility Score: inf
ROOT
ATOM      1  C   UNL A   1      35.253  33.353  29.505  1.00  0.00     0.188 C 
ENDROOT
BRANCH   1   2
ATOM      2  O   UNL A   1      35.133  31.945  29.341  1.00  0.00    -0.376 OA
BRANCH   2   3
ATOM      3  C   UNL A   1      34.342  31.527  28.237  1.00  0.00     0.202 C 
BRANCH   3   4
ATOM      4  C   UNL A   1      34.627  30.088  27.827  1.00  0.00     0.261 C 
BRANCH   4   5
ATOM      5  O   UNL A   1      33.462  29.415  27.327  1.00  0.00    -0.460 OA
BRANCH   5   6
ATOM      6  C   UNL A   1      33.612  28.499  26.334  1.00  0.00     0.342 C 
ATOM      7  O   UNL A   1      34.622  27.875  26.126  1.00  0.00    -0.246 OA
BRANCH   6   8
ATOM      8  C   UNL A   1      32.297  28.397  25.612  1.00  0.00     0.113 A 
ATOM      9  C   UNL A   1      31.675  27.128  25.404  1.00  0.00    -0.006 A 
ATOM     10  C   UNL A   1      30.490  27.070  24.662  1.00  0.00     0.013 A 
ATOM     11  C   UNL A   1      29.902  28.238  24.182  1.00  0.00     0.051 A 
ATOM     12  C   UNL A   1      31.678  29.580  25.136  1.00  0.00     0.175 A 
ATOM     13  C   UNL A   1      30.471  29.496  24.420  1.00  0.00     0.161 A 
BRANCH   9  14
ATOM     14  C   UNL A   1      32.183  25.821  25.892  1.00  0.00     0.032 C 
ATOM     15  N   UNL A   1      32.854  23.746  23.084  1.00  0.00    -0.219 N 
ATOM     16  C   UNL A   1      32.991  24.987  23.672  1.00  0.00     0.321 C 
ATOM     17  C   UNL A   1      32.961  22.677  23.940  1.00  0.00     0.271 C 
ATOM     18  O   UNL A   1      33.272  26.032  23.106  1.00  0.00    -0.250 OA
ATOM     19  C   UNL A   1      32.749  24.874  25.129  1.00  0.00     0.100 C 
ATOM     20  S   UNL A   1      33.028  23.246  25.609  1.00  0.00    -0.012 SA
ATOM     21  N   UNL A   1      33.020  21.467  23.508  1.00  0.00    -0.228 N 
ATOM     22  H   UNL A   1      33.054  21.301  22.539  1.00  0.00     0.268 HD
BRANCH  15  23
ATOM     23  C   UNL A   1      32.673  23.735  21.630  1.00  0.00     0.206 C 
BRANCH  23  24
ATOM     24  C   UNL A   1      33.341  24.800  20.759  1.00  0.00     0.035 C 
ATOM     25  C   UNL A   1      32.436  25.416  19.700  1.00  0.00     0.007 C 
ENDBRANCH  23  24
ENDBRANCH  15  23
BRANCH  21  26
ATOM     26  C   UNL A   1      33.035  20.423  24.361  1.00  0.00     0.319 A 
ATOM     27  N   UNL A   1      32.006  19.744  24.822  1.00  0.00    -0.101 NA
ATOM     28  S   UNL A   1      34.578  19.752  24.775  1.00  0.00    -0.070 S 
ATOM     29  C   UNL A   1      32.437  18.637  25.527  1.00  0.00     0.219 A 
ATOM     30  C   UNL A   1      33.801  18.472  25.599  1.00  0.00     0.110 A 
ENDBRANCH  21  26
ENDBRANCH   9  14
BRANCH  12  31
ATOM     31  O   UNL A   1      32.161  30.815  25.484  1.00  0.00    -0.492 OA
ATOM     32  C   UNL A   1      31.266  31.583  26.284  1.00  0.00     0.278 C 
ENDBRANCH  12  31
BRANCH  13  33
ATOM     33  O   UNL A   1      29.696  30.497  23.899  1.00  0.00    -0.493 OA
ATOM     34  C   UNL A   1      29.216  30.403  22.568  1.00  0.00     0.278 C 
ENDBRANCH  13  33
ENDBRANCH   6   8
ENDBRANCH   5   6
ENDBRANCH   4   5
ENDBRANCH   3   4
ENDBRANCH   2   3
ENDBRANCH   1   2
BRANCH   1  35
ATOM     35  C   UNL A   1      35.705  33.780  30.917  1.00  0.00     0.188 C 
BRANCH  35  36
ATOM     36  O   UNL A   1      36.392  32.865  31.762  1.00  0.00    -0.376 OA
BRANCH  36  37
ATOM     37  C   UNL A   1      37.439  33.349  32.586  1.00  0.00     0.202 C 
BRANCH  37  38
ATOM     38  C   UNL A   1      37.698  32.613  33.907  1.00  0.00     0.261 C 
BRANCH  38  39
ATOM     39  O   UNL A   1      38.841  31.739  33.897  1.00  0.00    -0.460 OA
BRANCH  39  40
ATOM     40  C   UNL A   1      38.594  30.455  33.536  1.00  0.00     0.338 C 
ATOM     41  O   UNL A   1      37.613  29.788  33.820  1.00  0.00    -0.246 OA
BRANCH  40  42
ATOM     42  C   UNL A   1      39.622  29.994  32.577  1.00  0.00     0.060 A 
ATOM     43  C   UNL A   1      40.777  29.377  33.079  1.00  0.00     0.016 A 
ATOM     44  C   UNL A   1      39.490  30.218  31.205  1.00  0.00     0.016 A 
ATOM     45  C   UNL A   1      41.807  28.995  32.217  1.00  0.00     0.010 A 
ATOM     46  C   UNL A   1      40.535  29.861  30.345  1.00  0.00     0.010 A 
ATOM     47  C   UNL A   1      41.708  29.267  30.847  1.00  0.00    -0.014 A 
BRANCH  47  48
ATOM     48  C   UNL A   1      42.877  29.057  29.955  1.00  0.00     0.031 A 
ATOM     49  C   UNL A   1      43.014  27.750  29.226  1.00  0.00     0.074 A 
ATOM     50  C   UNL A   1      43.815  30.008  29.803  1.00  0.00     0.049 A 
ATOM     51  N   UNL A   1      43.997  27.317  28.481  1.00  0.00    -0.248 NA
ATOM     52  C   UNL A   1      41.897  26.803  29.366  1.00  0.00     0.031 C 
ATOM     53  C   UNL A   1      43.786  31.324  30.436  1.00  0.00     0.029 A 
ATOM     54  N   UNL A   1      44.986  30.007  29.085  1.00  0.00    -0.354 N 
ATOM     55  C   UNL A   1      43.629  26.040  28.076  1.00  0.00     0.074 A 
ATOM     56  C   UNL A   1      42.337  25.765  28.669  1.00  0.00     0.031 C 
ATOM     57  C   UNL A   1      44.893  32.001  30.089  1.00  0.00     0.029 A 
ATOM     58  C   UNL A   1      45.737  31.147  29.253  1.00  0.00     0.049 A 
ATOM     59  H   UNL A   1      45.262  29.260  28.506  1.00  0.00     0.167 HD
ATOM     60  C   UNL A   1      44.309  25.173  27.289  1.00  0.00     0.037 A 
ATOM     61  C   UNL A   1      46.978  31.449  28.820  1.00  0.00     0.037 A 
ATOM     62  C   UNL A   1      45.599  25.445  26.707  1.00  0.00     0.049 A 
ATOM     63  C   UNL A   1      47.746  30.445  27.998  1.00  0.00     0.074 A 
ATOM     64  C   UNL A   1      46.352  24.639  25.871  1.00  0.00     0.029 A 
ATOM     65  N   UNL A   1      46.334  26.602  26.915  1.00  0.00    -0.354 N 
ATOM     66  N   UNL A   1      47.374  29.252  27.598  1.00  0.00    -0.248 NA
ATOM     67  C   UNL A   1      49.104  30.822  27.579  1.00  0.00     0.031 C 
ATOM     68  C   UNL A   1      47.566  25.286  25.616  1.00  0.00     0.029 A 
ATOM     69  C   UNL A   1      47.547  26.517  26.249  1.00  0.00     0.049 A 
ATOM     70  H   UNL A   1      46.039  27.370  27.455  1.00  0.00     0.167 HD
ATOM     71  C   UNL A   1      48.446  28.743  26.871  1.00  0.00     0.074 A 
ATOM     72  C   UNL A   1      49.474  29.763  26.871  1.00  0.00     0.031 C 
ATOM     73  C   UNL A   1      48.567  27.537  26.259  1.00  0.00     0.037 A 
BRANCH  60  74
ATOM     74  C   UNL A   1      43.687  23.827  27.045  1.00  0.00     0.058 A 
ATOM     75  C   UNL A   1      43.099  23.494  25.815  1.00  0.00     0.135 A 
ATOM     76  C   UNL A   1      43.693  22.851  28.055  1.00  0.00     0.135 A 
ATOM     77  F   UNL A   1      43.051  24.396  24.822  1.00  0.00    -0.206 F 
ATOM     78  C   UNL A   1      42.510  22.251  25.605  1.00  0.00     0.059 A 
ATOM     79  C   UNL A   1      43.134  21.593  27.859  1.00  0.00     0.059 A 
ATOM     80  F   UNL A   1      44.241  23.120  29.250  1.00  0.00    -0.206 F 
ATOM     81  C   UNL A   1      42.529  21.308  26.635  1.00  0.00     0.060 A 
BRANCH  81  82
ATOM     82  S   UNL A   1      41.749  19.705  26.354  1.00  0.00     0.124 S 
ATOM     83  O   UNL A   1      42.181  18.963  27.535  1.00  0.00    -0.237 OA
ATOM     84  O   UNL A   1      40.333  20.050  26.307  1.00  0.00    -0.237 OA
ATOM     85  O   UNL A   1      42.327  19.262  25.090  1.00  0.00    -0.744 OA
ENDBRANCH  81  82
ENDBRANCH  60  74
BRANCH  61  86
ATOM     86  C   UNL A   1      47.596  32.749  29.200  1.00  0.00     0.058 A 
ATOM     87  C   UNL A   1      47.466  33.882  28.385  1.00  0.00     0.135 A 
ATOM     88  C   UNL A   1      48.326  32.882  30.391  1.00  0.00     0.135 A 
ATOM     89  F   UNL A   1      46.792  33.802  27.227  1.00  0.00    -0.206 F 
ATOM     90  C   UNL A   1      48.040  35.101  28.733  1.00  0.00     0.059 A 
ATOM     91  C   UNL A   1      48.888  34.095  30.775  1.00  0.00     0.059 A 
ATOM     92  F   UNL A   1      48.475  31.829  31.210  1.00  0.00    -0.206 F 
ATOM     93  C   UNL A   1      48.744  35.199  29.935  1.00  0.00     0.060 A 
BRANCH  93  94
ATOM     94  S   UNL A   1      49.434  36.799  30.412  1.00  0.00     0.124 S 
ATOM     95  O   UNL A   1      48.339  37.370  31.187  1.00  0.00    -0.237 OA
ATOM     96  O   UNL A   1      50.618  36.407  31.171  1.00  0.00    -0.237 OA
ATOM     97  O   UNL A   1      49.706  37.442  29.130  1.00  0.00    -0.744 OA
ENDBRANCH  93  94
ENDBRANCH  61  86
BRANCH  73  98
ATOM     98  C   UNL A   1      49.847  27.251  25.519  1.00  0.00     0.058 A 
ATOM     99  C   UNL A   1      49.970  27.491  24.142  1.00  0.00     0.135 A 
ATOM    100  C   UNL A   1      50.985  26.803  26.210  1.00  0.00     0.135 A 
ATOM    101  F   UNL A   1      48.912  27.912  23.431  1.00  0.00    -0.206 F 
ATOM    102  C   UNL A   1      51.175  27.287  23.474  1.00  0.00     0.059 A 
ATOM    103  C   UNL A   1      52.205  26.617  25.567  1.00  0.00     0.059 A 
ATOM    104  F   UNL A   1      50.923  26.567  27.530  1.00  0.00    -0.206 F 
ATOM    105  C   UNL A   1      52.288  26.856  24.196  1.00  0.00     0.060 A 
BRANCH 105 106
ATOM    106  S   UNL A   1      53.858  26.646  23.328  1.00  0.00     0.124 S 
ATOM    107  O   UNL A   1      54.395  28.003  23.356  1.00  0.00    -0.237 OA
ATOM    108  O   UNL A   1      54.552  25.673  24.166  1.00  0.00    -0.237 OA
ATOM    109  O   UNL A   1      53.457  26.157  22.013  1.00  0.00    -0.744 OA
ENDBRANCH 105 106
ENDBRANCH  73  98
ENDBRANCH  47  48
ENDBRANCH  40  42
ENDBRANCH  39  40
ENDBRANCH  38  39
ENDBRANCH  37  38
ENDBRANCH  36  37
ENDBRANCH  35  36
ENDBRANCH   1  35
TORSDOF 26
ENDMDL
MODEL 3
REMARK VINA RESULT:      -6.8      1.170      2.050
REMARK SMILES CCCN1C(=O)/C(=C\c2ccc(OC)c(OC)c2C(=O)OCCOCCOCCOC(=O)c2ccc(-c3c4nc(c(-c5c(F)cc(S(=O)(=O)[O-])cc5F)c5ccc([nH]5)c(-c5c(F)cc(S(=O)(=O)[O-])cc5F)c5nc(c(-c6c(F)cc(S(=O)(=O)[O-])cc6F)c6ccc3[nH]6)C=C5)C=C4)cc2)S/C1=[NH+]\c1nccs1
REMARK SMILES IDX 25 1 24 2 23 3 22 4 21 5 19 6 20 7 18 8 9 9 10 10 11 11
REMARK SMILES IDX 15 12 12 13 8 14 4 15 5 16 100 17 6 18 7 19 99 20 101 21
REMARK SMILES IDX 3 23 2 24 1 25 102 26 103 27 106 28 104 29 105 30 16 31
REMARK SMILES IDX 17 32 13 33 14 34 26 35 27 36 28 37 29 38 30 39 31 40 32 41
REMARK SMILES IDX 33 42 34 43 98 44 35 45 97 46 36 47 37 48 38 49 91 50 39 51
REMARK SMILES IDX 96 52 90 53 92 54 40 55 95 56 89 57 88 58 41 60 75 61 54 62
REMARK SMILES IDX 74 63 55 64 58 65 73 66 93 67 56 68 57 69 72 71 94 72 59 73
REMARK SMILES IDX 42 74 43 75 52 76 44 77 45 78 51 79 53 80 46 81 47 82 48 83
REMARK SMILES IDX 49 84 50 85 76 86 77 87 86 88 78 89 79 90 85 91 87 92 80 93
REMARK SMILES IDX 81 94 82 95 83 96 84 97 60 98 61 99 70 100 62 101 63 102
REMARK SMILES IDX 69 103 71 104 64 105 65 106 66 107 67 108 68 109
REMARK H PARENT 101 22 92 59 58 70
REMARK Flexibility Score: inf
ROOT
ATOM      1  C   UNL A   1      36.440  32.631  28.805  1.00  0.00     0.188 C 
ENDROOT
BRANCH   1   2
ATOM      2  O   UNL A   1      36.905  31.385  29.311  1.00  0.00    -0.376 OA
BRANCH   2   3
ATOM      3  C   UNL A   1      38.203  31.000  28.878  1.00  0.00     0.202 C 
BRANCH   3   4
ATOM      4  C   UNL A   1      38.584  29.603  29.349  1.00  0.00     0.261 C 
BRANCH   4   5
ATOM      5  O   UNL A   1      39.791  29.123  28.738  1.00  0.00    -0.460 OA
BRANCH   5   6
ATOM      6  C   UNL A   1      40.404  28.033  29.269  1.00  0.00     0.342 C 
ATOM      7  O   UNL A   1      40.145  27.560  30.347  1.00  0.00    -0.246 OA
BRANCH   6   8
ATOM      8  C   UNL A   1      41.396  27.534  28.255  1.00  0.00     0.113 A 
ATOM      9  C   UNL A   1      41.010  26.582  27.262  1.00  0.00    -0.006 A 
ATOM     10  C   UNL A   1      41.982  26.088  26.386  1.00  0.00     0.013 A 
ATOM     11  C   UNL A   1      43.292  26.558  26.450  1.00  0.00     0.051 A 
ATOM     12  C   UNL A   1      42.728  28.019  28.297  1.00  0.00     0.175 A 
ATOM     13  C   UNL A   1      43.677  27.529  27.383  1.00  0.00     0.161 A 
BRANCH   9  14
ATOM     14  C   UNL A   1      39.644  26.032  27.072  1.00  0.00     0.032 C 
ATOM     15  N   UNL A   1      39.904  22.533  26.496  1.00  0.00    -0.219 N 
ATOM     16  C   UNL A   1      40.286  23.618  27.259  1.00  0.00     0.321 C 
ATOM     17  C   UNL A   1      38.590  22.535  26.093  1.00  0.00     0.271 C 
ATOM     18  O   UNL A   1      41.256  23.679  27.999  1.00  0.00    -0.250 OA
ATOM     19  C   UNL A   1      39.328  24.729  27.056  1.00  0.00     0.100 C 
ATOM     20  S   UNL A   1      37.834  24.075  26.507  1.00  0.00    -0.012 SA
ATOM     21  N   UNL A   1      38.056  21.514  25.522  1.00  0.00    -0.228 N 
ATOM     22  H   UNL A   1      38.577  20.685  25.426  1.00  0.00     0.268 HD
BRANCH  15  23
ATOM     23  C   UNL A   1      40.925  21.507  26.271  1.00  0.00     0.206 C 
BRANCH  23  24
ATOM     24  C   UNL A   1      40.957  20.246  27.134  1.00  0.00     0.035 C 
ATOM     25  C   UNL A   1      42.318  19.567  27.218  1.00  0.00     0.007 C 
ENDBRANCH  23  24
ENDBRANCH  15  23
BRANCH  21  26
ATOM     26  C   UNL A   1      36.793  21.560  25.051  1.00  0.00     0.319 A 
ATOM     27  N   UNL A   1      35.713  21.032  25.586  1.00  0.00    -0.101 NA
ATOM     28  S   UNL A   1      36.489  22.579  23.683  1.00  0.00    -0.070 S 
ATOM     29  C   UNL A   1      34.586  21.448  24.904  1.00  0.00     0.219 A 
ATOM     30  C   UNL A   1      34.810  22.299  23.847  1.00  0.00     0.110 A 
ENDBRANCH  21  26
ENDBRANCH   9  14
BRANCH  12  31
ATOM     31  O   UNL A   1      43.070  29.063  29.117  1.00  0.00    -0.492 OA
ATOM     32  C   UNL A   1      43.182  30.315  28.446  1.00  0.00     0.278 C 
ENDBRANCH  12  31
BRANCH  13  33
ATOM     33  O   UNL A   1      44.994  27.872  27.227  1.00  0.00    -0.493 OA
ATOM     34  C   UNL A   1      45.429  28.483  26.022  1.00  0.00     0.278 C 
ENDBRANCH  13  33
ENDBRANCH   6   8
ENDBRANCH   5   6
ENDBRANCH   4   5
ENDBRANCH   3   4
ENDBRANCH   2   3
ENDBRANCH   1   2
BRANCH   1  35
ATOM     35  C   UNL A   1      35.288  33.246  29.626  1.00  0.00     0.188 C 
BRANCH  35  36
ATOM     36  O   UNL A   1      35.341  33.258  31.047  1.00  0.00    -0.376 OA
BRANCH  36  37
ATOM     37  C   UNL A   1      35.132  34.484  31.729  1.00  0.00     0.202 C 
BRANCH  37  38
ATOM     38  C   UNL A   1      35.005  34.432  33.256  1.00  0.00     0.261 C 
BRANCH  38  39
ATOM     39  O   UNL A   1      36.205  34.771  33.974  1.00  0.00    -0.460 OA
BRANCH  39  40
ATOM     40  C   UNL A   1      36.729  33.782  34.741  1.00  0.00     0.338 C 
ATOM     41  O   UNL A   1      36.213  33.254  35.713  1.00  0.00    -0.246 OA
BRANCH  40  42
ATOM     42  C   UNL A   1      37.983  33.283  34.133  1.00  0.00     0.060 A 
ATOM     43  C   UNL A   1      39.204  33.731  34.658  1.00  0.00     0.016 A 
ATOM     44  C   UNL A   1      37.967  32.436  33.024  1.00  0.00     0.016 A 
ATOM     45  C   UNL A   1      40.411  33.346  34.068  1.00  0.00     0.010 A 
ATOM     46  C   UNL A   1      39.176  32.074  32.416  1.00  0.00     0.010 A 
ATOM     47  C   UNL A   1      40.403  32.543  32.921  1.00  0.00    -0.014 A 
BRANCH  47  48
ATOM     48  C   UNL A   1      41.659  32.301  32.167  1.00  0.00     0.031 A 
ATOM     49  C   UNL A   1      42.387  31.000  32.360  1.00  0.00     0.074 A 
ATOM     50  C   UNL A   1      42.158  33.228  31.332  1.00  0.00     0.049 A 
ATOM     51  N   UNL A   1      43.544  30.620  31.884  1.00  0.00    -0.248 NA
ATOM     52  C   UNL A   1      41.724  30.000  33.210  1.00  0.00     0.031 C 
ATOM     53  C   UNL A   1      41.537  34.517  31.042  1.00  0.00     0.029 A 
ATOM     54  N   UNL A   1      43.313  33.237  30.589  1.00  0.00    -0.354 N 
ATOM     55  C   UNL A   1      43.760  29.345  32.391  1.00  0.00     0.074 A 
ATOM     56  C   UNL A   1      42.618  29.021  33.220  1.00  0.00     0.031 C 
ATOM     57  C   UNL A   1      42.322  35.201  30.192  1.00  0.00     0.029 A 
ATOM     58  C   UNL A   1      43.529  34.419  29.919  1.00  0.00     0.049 A 
ATOM     59  H   UNL A   1      43.929  32.471  30.541  1.00  0.00     0.167 HD
ATOM     60  C   UNL A   1      44.817  28.522  32.189  1.00  0.00     0.037 A 
ATOM     61  C   UNL A   1      44.593  34.840  29.207  1.00  0.00     0.037 A 
ATOM     62  C   UNL A   1      45.956  28.850  31.371  1.00  0.00     0.049 A 
ATOM     63  C   UNL A   1      45.788  33.935  29.047  1.00  0.00     0.074 A 
ATOM     64  C   UNL A   1      47.061  28.067  31.082  1.00  0.00     0.029 A 
ATOM     65  N   UNL A   1      46.146  30.062  30.724  1.00  0.00    -0.354 N 
ATOM     66  N   UNL A   1      45.968  32.719  29.507  1.00  0.00    -0.248 NA
ATOM     67  C   UNL A   1      46.929  34.460  28.282  1.00  0.00     0.031 C 
ATOM     68  C   UNL A   1      47.944  28.826  30.306  1.00  0.00     0.029 A 
ATOM     69  C   UNL A   1      47.365  30.061  30.066  1.00  0.00     0.049 A 
ATOM     70  H   UNL A   1      45.508  30.813  30.732  1.00  0.00     0.167 HD
ATOM     71  C   UNL A   1      47.234  32.331  29.077  1.00  0.00     0.074 A 
ATOM     72  C   UNL A   1      47.769  33.434  28.307  1.00  0.00     0.031 C 
ATOM     73  C   UNL A   1      47.892  31.166  29.303  1.00  0.00     0.037 A 
BRANCH  60  74
ATOM     74  C   UNL A   1      44.808  27.199  32.902  1.00  0.00     0.058 A 
ATOM     75  C   UNL A   1      44.382  26.020  32.273  1.00  0.00     0.135 A 
ATOM     76  C   UNL A   1      45.249  27.111  34.233  1.00  0.00     0.135 A 
ATOM     77  F   UNL A   1      43.934  26.052  31.008  1.00  0.00    -0.206 F 
ATOM     78  C   UNL A   1      44.362  24.804  32.948  1.00  0.00     0.059 A 
ATOM     79  C   UNL A   1      45.263  25.901  34.919  1.00  0.00     0.059 A 
ATOM     80  F   UNL A   1      45.666  28.210  34.881  1.00  0.00    -0.206 F 
ATOM     81  C   UNL A   1      44.801  24.755  34.273  1.00  0.00     0.060 A 
BRANCH  81  82
ATOM     82  S   UNL A   1      44.756  23.174  35.141  1.00  0.00     0.124 S 
ATOM     83  O   UNL A   1      45.587  23.461  36.307  1.00  0.00    -0.237 OA
ATOM     84  O   UNL A   1      43.332  23.002  35.405  1.00  0.00    -0.237 OA
ATOM     85  O   UNL A   1      45.330  22.240  34.177  1.00  0.00    -0.744 OA
ENDBRANCH  81  82
ENDBRANCH  60  74
BRANCH  61  86
ATOM     86  C   UNL A   1      44.600  36.212  28.628  1.00  0.00     0.058 A 
ATOM     87  C   UNL A   1      43.966  36.490  27.409  1.00  0.00     0.135 A 
ATOM     88  C   UNL A   1      45.238  37.273  29.290  1.00  0.00     0.135 A 
ATOM     89  F   UNL A   1      43.358  35.505  26.729  1.00  0.00    -0.206 F 
ATOM     90  C   UNL A   1      43.967  37.770  26.862  1.00  0.00     0.059 A 
ATOM     91  C   UNL A   1      45.230  38.566  28.777  1.00  0.00     0.059 A 
ATOM     92  F   UNL A   1      45.853  37.061  30.463  1.00  0.00    -0.206 F 
ATOM     93  C   UNL A   1      44.597  38.803  27.558  1.00  0.00     0.060 A 
BRANCH  93  94
ATOM     94  S   UNL A   1      44.540  40.474  26.874  1.00  0.00     0.124 S 
ATOM     95  O   UNL A   1      45.949  40.726  26.599  1.00  0.00    -0.237 OA
ATOM     96  O   UNL A   1      43.683  40.297  25.705  1.00  0.00    -0.237 OA
ATOM     97  O   UNL A   1      43.955  41.259  27.956  1.00  0.00    -0.744 OA
ENDBRANCH  93  94
ENDBRANCH  61  86
BRANCH  73  98
ATOM     98  C   UNL A   1      49.261  31.006  28.698  1.00  0.00     0.058 A 
ATOM     99  C   UNL A   1      49.442  30.434  27.429  1.00  0.00     0.135 A 
ATOM    100  C   UNL A   1      50.397  31.497  29.361  1.00  0.00     0.135 A 
ATOM    101  F   UNL A   1      48.392  29.941  26.753  1.00  0.00    -0.206 F 
ATOM    102  C   UNL A   1      50.703  30.347  26.843  1.00  0.00     0.059 A 
ATOM    103  C   UNL A   1      51.663  31.443  28.785  1.00  0.00     0.059 A 
ATOM    104  F   UNL A   1      50.279  32.061  30.574  1.00  0.00    -0.206 F 
ATOM    105  C   UNL A   1      51.806  30.860  27.527  1.00  0.00     0.060 A 
BRANCH 105 106
ATOM    106  S   UNL A   1      53.428  30.788  26.735  1.00  0.00     0.124 S 
ATOM    107  O   UNL A   1      53.607  32.171  26.303  1.00  0.00    -0.237 OA
ATOM    108  O   UNL A   1      54.291  30.349  27.828  1.00  0.00    -0.237 OA
ATOM    109  O   UNL A   1      53.241  29.816  25.664  1.00  0.00    -0.744 OA
ENDBRANCH 105 106
ENDBRANCH  73  98
ENDBRANCH  47  48
ENDBRANCH  40  42
ENDBRANCH  39  40
ENDBRANCH  38  39
ENDBRANCH  37  38
ENDBRANCH  36  37
ENDBRANCH  35  36
ENDBRANCH   1  35
TORSDOF 26
ENDMDL
