MODEL 1
REMARK VINA RESULT:     -10.1      0.000      0.000
REMARK SMILES O=C(C[C@H]1CN(S(=O)(=O)N2CCCCC2)CCO1)OCCOCCOCCOC(=O)c1ccc(-c2c3nc(c(-c4c(F)cc(S(=O)(=O)[O-])cc4F)c4ccc([nH]4)c(-c4c(F)cc(S(=O)(=O)[O-])cc4F)c4nc(c(-c5c(F)cc(S(=O)(=O)[O-])cc5F)c5ccc2[nH]5)C=C4)C=C3)cc1
REMARK SMILES IDX 23 1 22 2 21 3 20 4 19 5 2 6 1 7 3 8 4 9 5 10 18 11 6 12
REMARK SMILES IDX 17 13 16 14 7 15 8 16 9 17 10 18 11 19 15 20 12 21 14 22
REMARK SMILES IDX 13 23 24 24 25 25 26 26 27 27 28 28 29 29 30 30 31 31 32 32
REMARK SMILES IDX 96 33 33 34 95 35 34 36 35 37 36 38 89 39 37 40 94 41 88 42
REMARK SMILES IDX 90 43 38 44 93 45 87 46 86 47 39 49 73 50 52 51 72 52 53 53
REMARK SMILES IDX 56 54 71 55 91 56 54 57 55 58 70 60 92 61 57 62 40 63 41 64
REMARK SMILES IDX 50 65 42 66 43 67 49 68 51 69 44 70 45 71 46 72 47 73 48 74
REMARK SMILES IDX 74 75 75 76 84 77 76 78 77 79 83 80 85 81 78 82 79 83 80 84
REMARK SMILES IDX 81 85 82 86 58 87 59 88 68 89 60 90 61 91 67 92 69 93 62 94
REMARK SMILES IDX 63 95 64 96 65 97 66 98
REMARK H PARENT 90 48 56 59
REMARK Flexibility Score: inf
ROOT
ATOM      1  C   UNL A   1      37.740  21.752  24.918  1.00  0.00     0.188 C 
ENDROOT
BRANCH   1   2
ATOM      2  O   UNL A   1      36.901  20.608  25.120  1.00  0.00    -0.376 OA
BRANCH   2   3
ATOM      3  C   UNL A   1      35.513  20.869  25.006  1.00  0.00     0.202 C 
BRANCH   3   4
ATOM      4  C   UNL A   1      34.967  21.523  26.271  1.00  0.00     0.261 C 
BRANCH   4   5
ATOM      5  O   UNL A   1      33.582  21.227  26.511  1.00  0.00    -0.463 OA
BRANCH   5   6
ATOM      6  C   UNL A   1      32.501  21.597  25.792  1.00  0.00     0.308 C 
ATOM      7  O   UNL A   1      31.776  20.698  25.358  1.00  0.00    -0.252 OA
BRANCH   6   8
ATOM      8  C   UNL A   1      32.210  23.039  25.419  1.00  0.00     0.156 C 
BRANCH   8   9
ATOM      9  C   UNL A   1      31.357  23.318  24.180  1.00  0.00     0.144 C 
ATOM     10  C   UNL A   1      31.234  24.819  23.794  1.00  0.00     0.136 C 
ATOM     11  O   UNL A   1      31.793  22.526  23.064  1.00  0.00    -0.375 OA
ATOM     12  N   UNL A   1      32.303  25.408  22.929  1.00  0.00    -0.184 NA
ATOM     13  C   UNL A   1      32.992  23.045  22.472  1.00  0.00     0.177 C 
ATOM     14  C   UNL A   1      32.729  24.425  21.876  1.00  0.00     0.132 C 
BRANCH  12  15
ATOM     15  S   UNL A   1      33.540  26.354  23.596  1.00  0.00     0.282 S 
ATOM     16  O   UNL A   1      34.464  25.459  24.242  1.00  0.00    -0.195 OA
ATOM     17  O   UNL A   1      33.992  27.263  22.564  1.00  0.00    -0.195 OA
BRANCH  15  18
ATOM     18  N   UNL A   1      32.785  27.302  24.780  1.00  0.00    -0.189 NA
ATOM     19  C   UNL A   1      32.622  26.760  26.138  1.00  0.00     0.103 C 
ATOM     20  C   UNL A   1      32.721  28.754  24.601  1.00  0.00     0.103 C 
ATOM     21  C   UNL A   1      31.478  27.471  26.862  1.00  0.00     0.017 C 
ATOM     22  C   UNL A   1      31.821  29.527  25.561  1.00  0.00     0.017 C 
ATOM     23  C   UNL A   1      31.774  28.957  26.960  1.00  0.00     0.003 C 
ENDBRANCH  15  18
ENDBRANCH  12  15
ENDBRANCH   8   9
ENDBRANCH   6   8
ENDBRANCH   5   6
ENDBRANCH   4   5
ENDBRANCH   3   4
ENDBRANCH   2   3
ENDBRANCH   1   2
BRANCH   1  24
ATOM     24  C   UNL A   1      38.663  21.940  26.114  1.00  0.00     0.188 C 
BRANCH  24  25
ATOM     25  O   UNL A   1      39.809  21.087  26.102  1.00  0.00    -0.376 OA
BRANCH  25  26
ATOM     26  C   UNL A   1      40.777  21.363  27.115  1.00  0.00     0.202 C 
BRANCH  26  27
ATOM     27  C   UNL A   1      41.947  22.273  26.692  1.00  0.00     0.261 C 
BRANCH  27  28
ATOM     28  O   UNL A   1      41.567  23.658  26.547  1.00  0.00    -0.460 OA
BRANCH  28  29
ATOM     29  C   UNL A   1      42.470  24.540  27.044  1.00  0.00     0.338 C 
ATOM     30  O   UNL A   1      43.676  24.526  26.845  1.00  0.00    -0.246 OA
BRANCH  29  31
ATOM     31  C   UNL A   1      41.826  25.672  27.742  1.00  0.00     0.060 A 
ATOM     32  C   UNL A   1      42.625  26.797  27.981  1.00  0.00     0.016 A 
ATOM     33  C   UNL A   1      40.556  25.576  28.315  1.00  0.00     0.016 A 
ATOM     34  C   UNL A   1      42.199  27.784  28.865  1.00  0.00     0.010 A 
ATOM     35  C   UNL A   1      40.128  26.575  29.204  1.00  0.00     0.010 A 
ATOM     36  C   UNL A   1      40.973  27.652  29.531  1.00  0.00    -0.014 A 
BRANCH  36  37
ATOM     37  C   UNL A   1      40.693  28.561  30.677  1.00  0.00     0.031 A 
ATOM     38  C   UNL A   1      41.536  28.459  31.926  1.00  0.00     0.074 A 
ATOM     39  C   UNL A   1      39.783  29.545  30.563  1.00  0.00     0.049 A 
ATOM     40  N   UNL A   1      41.525  29.206  33.001  1.00  0.00    -0.248 NA
ATOM     41  C   UNL A   1      42.527  27.372  31.967  1.00  0.00     0.031 C 
ATOM     42  C   UNL A   1      38.929  29.771  29.396  1.00  0.00     0.029 A 
ATOM     43  N   UNL A   1      39.434  30.549  31.433  1.00  0.00    -0.354 N 
ATOM     44  C   UNL A   1      42.510  28.691  33.837  1.00  0.00     0.074 A 
ATOM     45  C   UNL A   1      43.065  27.535  33.167  1.00  0.00     0.031 C 
ATOM     46  C   UNL A   1      38.156  30.846  29.623  1.00  0.00     0.029 A 
ATOM     47  C   UNL A   1      38.442  31.372  30.957  1.00  0.00     0.049 A 
ATOM     48  H   UNL A   1      39.857  30.669  32.314  1.00  0.00     0.167 HD
ATOM     49  C   UNL A   1      42.929  29.149  35.042  1.00  0.00     0.037 A 
ATOM     50  C   UNL A   1      37.823  32.421  31.537  1.00  0.00     0.037 A 
ATOM     51  C   UNL A   1      42.370  30.297  35.712  1.00  0.00     0.049 A 
ATOM     52  C   UNL A   1      38.267  32.877  32.904  1.00  0.00     0.074 A 
ATOM     53  C   UNL A   1      42.722  30.838  36.936  1.00  0.00     0.029 A 
ATOM     54  N   UNL A   1      41.339  31.080  35.214  1.00  0.00    -0.354 N 
ATOM     55  N   UNL A   1      39.213  32.389  33.672  1.00  0.00    -0.248 NA
ATOM     56  C   UNL A   1      37.571  34.037  33.475  1.00  0.00     0.031 C 
ATOM     57  C   UNL A   1      41.870  31.915  37.203  1.00  0.00     0.029 A 
ATOM     58  C   UNL A   1      41.027  32.086  36.117  1.00  0.00     0.049 A 
ATOM     59  H   UNL A   1      40.892  30.943  34.347  1.00  0.00     0.167 HD
ATOM     60  C   UNL A   1      39.237  33.195  34.807  1.00  0.00     0.074 A 
ATOM     61  C   UNL A   1      38.232  34.219  34.610  1.00  0.00     0.031 C 
ATOM     62  C   UNL A   1      40.017  33.096  35.914  1.00  0.00     0.037 A 
BRANCH  49  63
ATOM     63  C   UNL A   1      44.047  28.402  35.726  1.00  0.00     0.058 A 
ATOM     64  C   UNL A   1      43.793  27.344  36.615  1.00  0.00     0.135 A 
ATOM     65  C   UNL A   1      45.389  28.714  35.454  1.00  0.00     0.135 A 
ATOM     66  F   UNL A   1      42.530  27.011  36.926  1.00  0.00    -0.206 F 
ATOM     67  C   UNL A   1      44.826  26.638  37.224  1.00  0.00     0.059 A 
ATOM     68  C   UNL A   1      46.439  28.001  36.028  1.00  0.00     0.059 A 
ATOM     69  F   UNL A   1      45.694  29.714  34.613  1.00  0.00    -0.206 F 
ATOM     70  C   UNL A   1      46.147  26.972  36.921  1.00  0.00     0.060 A 
BRANCH  70  71
ATOM     71  S   UNL A   1      47.476  26.033  37.706  1.00  0.00     0.124 S 
ATOM     72  O   UNL A   1      46.951  24.673  37.644  1.00  0.00    -0.237 OA
ATOM     73  O   UNL A   1      48.613  26.315  36.835  1.00  0.00    -0.237 OA
ATOM     74  O   UNL A   1      47.557  26.611  39.045  1.00  0.00    -0.744 OA
ENDBRANCH  70  71
ENDBRANCH  49  63
BRANCH  50  75
ATOM     75  C   UNL A   1      36.698  33.100  30.835  1.00  0.00     0.058 A 
ATOM     76  C   UNL A   1      35.359  32.865  31.182  1.00  0.00     0.135 A 
ATOM     77  C   UNL A   1      36.949  33.996  29.782  1.00  0.00     0.135 A 
ATOM     78  F   UNL A   1      35.065  32.009  32.173  1.00  0.00    -0.206 F 
ATOM     79  C   UNL A   1      34.310  33.474  30.499  1.00  0.00     0.059 A 
ATOM     80  C   UNL A   1      35.919  34.640  29.106  1.00  0.00     0.059 A 
ATOM     81  F   UNL A   1      38.211  34.266  29.414  1.00  0.00    -0.206 F 
ATOM     82  C   UNL A   1      34.601  34.362  29.462  1.00  0.00     0.060 A 
BRANCH  82  83
ATOM     83  S   UNL A   1      33.237  35.176  28.604  1.00  0.00     0.124 S 
ATOM     84  O   UNL A   1      32.524  35.801  29.710  1.00  0.00    -0.237 OA
ATOM     85  O   UNL A   1      33.940  36.083  27.702  1.00  0.00    -0.237 OA
ATOM     86  O   UNL A   1      32.544  34.069  27.950  1.00  0.00    -0.744 OA
ENDBRANCH  82  83
ENDBRANCH  50  75
BRANCH  62  87
ATOM     87  C   UNL A   1      39.828  34.139  36.986  1.00  0.00     0.058 A 
ATOM     88  C   UNL A   1      40.459  35.393  36.919  1.00  0.00     0.135 A 
ATOM     89  C   UNL A   1      38.999  33.886  38.092  1.00  0.00     0.135 A 
ATOM     90  F   UNL A   1      41.261  35.692  35.885  1.00  0.00    -0.206 F 
ATOM     91  C   UNL A   1      40.318  36.335  37.934  1.00  0.00     0.059 A 
ATOM     92  C   UNL A   1      38.816  34.827  39.101  1.00  0.00     0.059 A 
ATOM     93  F   UNL A   1      38.356  32.713  38.201  1.00  0.00    -0.206 F 
ATOM     94  C   UNL A   1      39.499  36.039  39.025  1.00  0.00     0.060 A 
BRANCH  94  95
ATOM     95  S   UNL A   1      39.337  37.264  40.343  1.00  0.00     0.124 S 
ATOM     96  O   UNL A   1      40.732  37.606  40.599  1.00  0.00    -0.237 OA
ATOM     97  O   UNL A   1      38.535  38.305  39.707  1.00  0.00    -0.237 OA
ATOM     98  O   UNL A   1      38.665  36.529  41.411  1.00  0.00    -0.744 OA
ENDBRANCH  94  95
ENDBRANCH  62  87
ENDBRANCH  36  37
ENDBRANCH  29  31
ENDBRANCH  28  29
ENDBRANCH  27  28
ENDBRANCH  26  27
ENDBRANCH  25  26
ENDBRANCH  24  25
ENDBRANCH   1  24
TORSDOF 23
ENDMDL
MODEL 2
REMARK VINA RESULT:     -10.0      6.044     12.050
REMARK SMILES O=C(C[C@H]1CN(S(=O)(=O)N2CCCCC2)CCO1)OCCOCCOCCOC(=O)c1ccc(-c2c3nc(c(-c4c(F)cc(S(=O)(=O)[O-])cc4F)c4ccc([nH]4)c(-c4c(F)cc(S(=O)(=O)[O-])cc4F)c4nc(c(-c5c(F)cc(S(=O)(=O)[O-])cc5F)c5ccc2[nH]5)C=C4)C=C3)cc1
REMARK SMILES IDX 23 1 22 2 21 3 20 4 19 5 2 6 1 7 3 8 4 9 5 10 18 11 6 12
REMARK SMILES IDX 17 13 16 14 7 15 8 16 9 17 10 18 11 19 15 20 12 21 14 22
REMARK SMILES IDX 13 23 24 24 25 25 26 26 27 27 28 28 29 29 30 30 31 31 32 32
REMARK SMILES IDX 96 33 33 34 95 35 34 36 35 37 36 38 89 39 37 40 94 41 88 42
REMARK SMILES IDX 90 43 38 44 93 45 87 46 86 47 39 49 73 50 52 51 72 52 53 53
REMARK SMILES IDX 56 54 71 55 91 56 54 57 55 58 70 60 92 61 57 62 40 63 41 64
REMARK SMILES IDX 50 65 42 66 43 67 49 68 51 69 44 70 45 71 46 72 47 73 48 74
REMARK SMILES IDX 74 75 75 76 84 77 76 78 77 79 83 80 85 81 78 82 79 83 80 84
REMARK SMILES IDX 81 85 82 86 58 87 59 88 68 89 60 90 61 91 67 92 69 93 62 94
REMARK SMILES IDX 63 95 64 96 65 97 66 98
REMARK H PARENT 90 48 56 59
REMARK Flexibility Score: inf
ROOT
ATOM      1  C   UNL A   1      33.961  31.865  27.888  1.00  0.00     0.188 C 
ENDROOT
BRANCH   1   2
ATOM      2  O   UNL A   1      34.401  30.706  27.168  1.00  0.00    -0.376 OA
BRANCH   2   3
ATOM      3  C   UNL A   1      33.378  29.766  26.888  1.00  0.00     0.202 C 
BRANCH   3   4
ATOM      4  C   UNL A   1      33.962  28.418  26.479  1.00  0.00     0.261 C 
BRANCH   4   5
ATOM      5  O   UNL A   1      33.133  27.305  26.848  1.00  0.00    -0.463 OA
BRANCH   5   6
ATOM      6  C   UNL A   1      32.253  26.617  26.089  1.00  0.00     0.308 C 
ATOM      7  O   UNL A   1      31.235  27.210  25.726  1.00  0.00    -0.252 OA
BRANCH   6   8
ATOM      8  C   UNL A   1      32.418  25.144  25.763  1.00  0.00     0.156 C 
BRANCH   8   9
ATOM      9  C   UNL A   1      33.816  24.528  25.842  1.00  0.00     0.144 C 
ATOM     10  C   UNL A   1      33.842  22.991  26.074  1.00  0.00     0.136 C 
ATOM     11  O   UNL A   1      34.609  24.898  24.704  1.00  0.00    -0.375 OA
ATOM     12  N   UNL A   1      33.751  22.102  24.875  1.00  0.00    -0.184 NA
ATOM     13  C   UNL A   1      34.246  24.156  23.531  1.00  0.00     0.177 C 
ATOM     14  C   UNL A   1      34.545  22.672  23.735  1.00  0.00     0.132 C 
BRANCH  12  15
ATOM     15  S   UNL A   1      32.290  21.356  24.453  1.00  0.00     0.282 S 
ATOM     16  O   UNL A   1      31.406  21.471  25.584  1.00  0.00    -0.195 OA
ATOM     17  O   UNL A   1      31.901  21.871  23.157  1.00  0.00    -0.195 OA
BRANCH  15  18
ATOM     18  N   UNL A   1      32.675  19.721  24.229  1.00  0.00    -0.189 NA
ATOM     19  C   UNL A   1      32.812  18.847  25.404  1.00  0.00     0.103 C 
ATOM     20  C   UNL A   1      32.419  19.098  22.928  1.00  0.00     0.103 C 
ATOM     21  C   UNL A   1      33.677  17.632  25.066  1.00  0.00     0.017 C 
ATOM     22  C   UNL A   1      33.008  17.708  22.703  1.00  0.00     0.017 C 
ATOM     23  C   UNL A   1      33.036  16.840  23.941  1.00  0.00     0.003 C 
ENDBRANCH  15  18
ENDBRANCH  12  15
ENDBRANCH   8   9
ENDBRANCH   6   8
ENDBRANCH   5   6
ENDBRANCH   4   5
ENDBRANCH   3   4
ENDBRANCH   2   3
ENDBRANCH   1   2
BRANCH   1  24
ATOM     24  C   UNL A   1      34.805  32.051  29.142  1.00  0.00     0.188 C 
BRANCH  24  25
ATOM     25  O   UNL A   1      34.278  33.010  30.060  1.00  0.00    -0.376 OA
BRANCH  25  26
ATOM     26  C   UNL A   1      35.198  33.468  31.051  1.00  0.00     0.202 C 
BRANCH  26  27
ATOM     27  C   UNL A   1      35.320  32.586  32.308  1.00  0.00     0.261 C 
BRANCH  27  28
ATOM     28  O   UNL A   1      36.324  31.555  32.187  1.00  0.00    -0.460 OA
BRANCH  28  29
ATOM     29  C   UNL A   1      37.595  32.021  32.088  1.00  0.00     0.338 C 
ATOM     30  O   UNL A   1      38.056  32.985  32.680  1.00  0.00    -0.246 OA
BRANCH  29  31
ATOM     31  C   UNL A   1      38.462  31.124  31.299  1.00  0.00     0.060 A 
ATOM     32  C   UNL A   1      39.408  30.378  32.013  1.00  0.00     0.016 A 
ATOM     33  C   UNL A   1      38.493  31.146  29.903  1.00  0.00     0.016 A 
ATOM     34  C   UNL A   1      40.441  29.729  31.343  1.00  0.00     0.010 A 
ATOM     35  C   UNL A   1      39.535  30.488  29.229  1.00  0.00     0.010 A 
ATOM     36  C   UNL A   1      40.549  29.830  29.949  1.00  0.00    -0.014 A 
BRANCH  36  37
ATOM     37  C   UNL A   1      41.816  29.382  29.308  1.00  0.00     0.031 A 
ATOM     38  C   UNL A   1      42.979  30.340  29.218  1.00  0.00     0.074 A 
ATOM     39  C   UNL A   1      41.971  28.103  28.919  1.00  0.00     0.049 A 
ATOM     40  N   UNL A   1      44.197  30.133  28.784  1.00  0.00    -0.248 NA
ATOM     41  C   UNL A   1      42.740  31.716  29.685  1.00  0.00     0.031 C 
ATOM     42  C   UNL A   1      40.935  27.071  28.985  1.00  0.00     0.029 A 
ATOM     43  N   UNL A   1      43.065  27.448  28.407  1.00  0.00    -0.354 N 
ATOM     44  C   UNL A   1      44.870  31.341  28.936  1.00  0.00     0.074 A 
ATOM     45  C   UNL A   1      43.911  32.292  29.455  1.00  0.00     0.031 C 
ATOM     46  C   UNL A   1      41.444  25.914  28.531  1.00  0.00     0.029 A 
ATOM     47  C   UNL A   1      42.832  26.124  28.121  1.00  0.00     0.049 A 
ATOM     48  H   UNL A   1      43.934  27.886  28.260  1.00  0.00     0.167 HD
ATOM     49  C   UNL A   1      46.171  31.628  28.687  1.00  0.00     0.037 A 
ATOM     50  C   UNL A   1      43.641  25.192  27.578  1.00  0.00     0.037 A 
ATOM     51  C   UNL A   1      47.124  30.681  28.163  1.00  0.00     0.049 A 
ATOM     52  C   UNL A   1      45.069  25.551  27.255  1.00  0.00     0.074 A 
ATOM     53  C   UNL A   1      48.463  30.876  27.872  1.00  0.00     0.029 A 
ATOM     54  N   UNL A   1      46.839  29.360  27.850  1.00  0.00    -0.354 N 
ATOM     55  N   UNL A   1      45.694  26.693  27.422  1.00  0.00    -0.248 NA
ATOM     56  C   UNL A   1      45.907  24.488  26.684  1.00  0.00     0.031 C 
ATOM     57  C   UNL A   1      48.974  29.690  27.335  1.00  0.00     0.029 A 
ATOM     58  C   UNL A   1      47.970  28.735  27.348  1.00  0.00     0.049 A 
ATOM     59  H   UNL A   1      45.961  28.929  27.966  1.00  0.00     0.167 HD
ATOM     60  C   UNL A   1      47.001  26.480  26.996  1.00  0.00     0.074 A 
ATOM     61  C   UNL A   1      47.085  25.092  26.593  1.00  0.00     0.031 C 
ATOM     62  C   UNL A   1      48.039  27.353  26.940  1.00  0.00     0.037 A 
BRANCH  49  63
ATOM     63  C   UNL A   1      46.646  33.032  28.969  1.00  0.00     0.058 A 
ATOM     64  C   UNL A   1      46.580  34.044  27.998  1.00  0.00     0.135 A 
ATOM     65  C   UNL A   1      47.128  33.383  30.242  1.00  0.00     0.135 A 
ATOM     66  F   UNL A   1      46.143  33.764  26.759  1.00  0.00    -0.206 F 
ATOM     67  C   UNL A   1      46.993  35.345  28.269  1.00  0.00     0.059 A 
ATOM     68  C   UNL A   1      47.518  34.685  30.545  1.00  0.00     0.059 A 
ATOM     69  F   UNL A   1      47.214  32.459  31.211  1.00  0.00    -0.206 F 
ATOM     70  C   UNL A   1      47.458  35.657  29.548  1.00  0.00     0.060 A 
BRANCH  70  71
ATOM     71  S   UNL A   1      47.972  37.355  29.888  1.00  0.00     0.124 S 
ATOM     72  O   UNL A   1      47.221  38.097  28.881  1.00  0.00    -0.237 OA
ATOM     73  O   UNL A   1      47.537  37.541  31.269  1.00  0.00    -0.237 OA
ATOM     74  O   UNL A   1      49.418  37.320  29.690  1.00  0.00    -0.744 OA
ENDBRANCH  70  71
ENDBRANCH  49  63
BRANCH  50  75
ATOM     75  C   UNL A   1      43.111  23.831  27.282  1.00  0.00     0.058 A 
ATOM     76  C   UNL A   1      43.073  22.824  28.258  1.00  0.00     0.135 A 
ATOM     77  C   UNL A   1      42.641  23.510  25.998  1.00  0.00     0.135 A 
ATOM     78  F   UNL A   1      43.522  23.075  29.498  1.00  0.00    -0.206 F 
ATOM     79  C   UNL A   1      42.612  21.542  27.968  1.00  0.00     0.059 A 
ATOM     80  C   UNL A   1      42.146  22.247  25.693  1.00  0.00     0.059 A 
ATOM     81  F   UNL A   1      42.644  24.437  25.028  1.00  0.00    -0.206 F 
ATOM     82  C   UNL A   1      42.148  21.265  26.681  1.00  0.00     0.060 A 
BRANCH  82  83
ATOM     83  S   UNL A   1      41.517  19.613  26.320  1.00  0.00     0.124 S 
ATOM     84  O   UNL A   1      42.366  19.210  25.206  1.00  0.00    -0.237 OA
ATOM     85  O   UNL A   1      41.743  18.915  27.582  1.00  0.00    -0.237 OA
ATOM     86  O   UNL A   1      40.115  19.854  25.991  1.00  0.00    -0.744 OA
ENDBRANCH  82  83
ENDBRANCH  50  75
BRANCH  62  87
ATOM     87  C   UNL A   1      49.361  26.822  26.447  1.00  0.00     0.058 A 
ATOM     88  C   UNL A   1      50.228  26.098  27.282  1.00  0.00     0.135 A 
ATOM     89  C   UNL A   1      49.764  27.033  25.117  1.00  0.00     0.135 A 
ATOM     90  F   UNL A   1      49.895  25.865  28.562  1.00  0.00    -0.206 F 
ATOM     91  C   UNL A   1      51.468  25.650  26.834  1.00  0.00     0.059 A 
ATOM     92  C   UNL A   1      50.984  26.563  24.638  1.00  0.00     0.059 A 
ATOM     93  F   UNL A   1      48.970  27.702  24.267  1.00  0.00    -0.206 F 
ATOM     94  C   UNL A   1      51.839  25.894  25.511  1.00  0.00     0.060 A 
BRANCH  94  95
ATOM     95  S   UNL A   1      53.457  25.321  24.947  1.00  0.00     0.124 S 
ATOM     96  O   UNL A   1      53.444  23.929  25.383  1.00  0.00    -0.237 OA
ATOM     97  O   UNL A   1      53.378  25.534  23.504  1.00  0.00    -0.237 OA
ATOM     98  O   UNL A   1      54.392  26.192  25.653  1.00  0.00    -0.744 OA
ENDBRANCH  94  95
ENDBRANCH  62  87
ENDBRANCH  36  37
ENDBRANCH  29  31
ENDBRANCH  28  29
ENDBRANCH  27  28
ENDBRANCH  26  27
ENDBRANCH  25  26
ENDBRANCH  24  25
ENDBRANCH   1  24
TORSDOF 23
ENDMDL
MODEL 3
REMARK VINA RESULT:     -10.0      5.744     11.875
REMARK SMILES O=C(C[C@H]1CN(S(=O)(=O)N2CCCCC2)CCO1)OCCOCCOCCOC(=O)c1ccc(-c2c3nc(c(-c4c(F)cc(S(=O)(=O)[O-])cc4F)c4ccc([nH]4)c(-c4c(F)cc(S(=O)(=O)[O-])cc4F)c4nc(c(-c5c(F)cc(S(=O)(=O)[O-])cc5F)c5ccc2[nH]5)C=C4)C=C3)cc1
REMARK SMILES IDX 23 1 22 2 21 3 20 4 19 5 2 6 1 7 3 8 4 9 5 10 18 11 6 12
REMARK SMILES IDX 17 13 16 14 7 15 8 16 9 17 10 18 11 19 15 20 12 21 14 22
REMARK SMILES IDX 13 23 24 24 25 25 26 26 27 27 28 28 29 29 30 30 31 31 32 32
REMARK SMILES IDX 96 33 33 34 95 35 34 36 35 37 36 38 89 39 37 40 94 41 88 42
REMARK SMILES IDX 90 43 38 44 93 45 87 46 86 47 39 49 73 50 52 51 72 52 53 53
REMARK SMILES IDX 56 54 71 55 91 56 54 57 55 58 70 60 92 61 57 62 40 63 41 64
REMARK SMILES IDX 50 65 42 66 43 67 49 68 51 69 44 70 45 71 46 72 47 73 48 74
REMARK SMILES IDX 74 75 75 76 84 77 76 78 77 79 83 80 85 81 78 82 79 83 80 84
REMARK SMILES IDX 81 85 82 86 58 87 59 88 68 89 60 90 61 91 67 92 69 93 62 94
REMARK SMILES IDX 63 95 64 96 65 97 66 98
REMARK H PARENT 90 48 56 59
REMARK Flexibility Score: inf
ROOT
ATOM      1  C   UNL A   1      33.259  32.173  27.633  1.00  0.00     0.188 C 
ENDROOT
BRANCH   1   2
ATOM      2  O   UNL A   1      33.336  30.867  27.047  1.00  0.00    -0.376 OA
BRANCH   2   3
ATOM      3  C   UNL A   1      32.147  30.440  26.406  1.00  0.00     0.202 C 
BRANCH   3   4
ATOM      4  C   UNL A   1      32.453  29.522  25.226  1.00  0.00     0.261 C 
BRANCH   4   5
ATOM      5  O   UNL A   1      31.283  29.145  24.483  1.00  0.00    -0.463 OA
BRANCH   5   6
ATOM      6  C   UNL A   1      31.203  28.500  23.300  1.00  0.00     0.308 C 
ATOM      7  O   UNL A   1      30.743  29.127  22.344  1.00  0.00    -0.252 OA
BRANCH   6   8
ATOM      8  C   UNL A   1      31.554  27.032  23.134  1.00  0.00     0.156 C 
BRANCH   8   9
ATOM      9  C   UNL A   1      30.945  26.019  24.105  1.00  0.00     0.144 C 
ATOM     10  C   UNL A   1      31.095  24.532  23.678  1.00  0.00     0.136 C 
ATOM     11  O   UNL A   1      31.426  26.230  25.440  1.00  0.00    -0.375 OA
ATOM     12  N   UNL A   1      32.354  23.819  24.058  1.00  0.00    -0.184 NA
ATOM     13  C   UNL A   1      32.762  25.737  25.616  1.00  0.00     0.177 C 
ATOM     14  C   UNL A   1      32.790  24.221  25.439  1.00  0.00     0.132 C 
BRANCH  12  15
ATOM     15  S   UNL A   1      33.598  23.588  22.932  1.00  0.00     0.282 S 
ATOM     16  O   UNL A   1      33.066  22.786  21.862  1.00  0.00    -0.195 OA
ATOM     17  O   UNL A   1      34.182  24.886  22.663  1.00  0.00    -0.195 OA
BRANCH  15  18
ATOM     18  N   UNL A   1      34.777  22.688  23.752  1.00  0.00    -0.189 NA
ATOM     19  C   UNL A   1      34.424  21.367  24.295  1.00  0.00     0.103 C 
ATOM     20  C   UNL A   1      36.193  22.989  23.526  1.00  0.00     0.103 C 
ATOM     21  C   UNL A   1      35.376  20.986  25.430  1.00  0.00     0.017 C 
ATOM     22  C   UNL A   1      37.196  22.326  24.466  1.00  0.00     0.017 C 
ATOM     23  C   UNL A   1      36.802  20.936  24.911  1.00  0.00     0.003 C 
ENDBRANCH  15  18
ENDBRANCH  12  15
ENDBRANCH   8   9
ENDBRANCH   6   8
ENDBRANCH   5   6
ENDBRANCH   4   5
ENDBRANCH   3   4
ENDBRANCH   2   3
ENDBRANCH   1   2
BRANCH   1  24
ATOM     24  C   UNL A   1      34.372  32.351  28.657  1.00  0.00     0.188 C 
BRANCH  24  25
ATOM     25  O   UNL A   1      34.090  33.332  29.656  1.00  0.00    -0.376 OA
BRANCH  25  26
ATOM     26  C   UNL A   1      35.112  33.505  30.638  1.00  0.00     0.202 C 
BRANCH  26  27
ATOM     27  C   UNL A   1      34.957  32.662  31.919  1.00  0.00     0.261 C 
BRANCH  27  28
ATOM     28  O   UNL A   1      35.539  31.345  31.807  1.00  0.00    -0.460 OA
BRANCH  28  29
ATOM     29  C   UNL A   1      36.763  31.224  32.379  1.00  0.00     0.338 C 
ATOM     30  O   UNL A   1      37.067  31.571  33.511  1.00  0.00    -0.246 OA
BRANCH  29  31
ATOM     31  C   UNL A   1      37.701  30.449  31.542  1.00  0.00     0.060 A 
ATOM     32  C   UNL A   1      38.760  29.818  32.207  1.00  0.00     0.016 A 
ATOM     33  C   UNL A   1      37.670  30.488  30.147  1.00  0.00     0.016 A 
ATOM     34  C   UNL A   1      39.836  29.308  31.485  1.00  0.00     0.010 A 
ATOM     35  C   UNL A   1      38.755  29.970  29.421  1.00  0.00     0.010 A 
ATOM     36  C   UNL A   1      39.871  29.434  30.090  1.00  0.00    -0.014 A 
BRANCH  36  37
ATOM     37  C   UNL A   1      41.156  29.152  29.392  1.00  0.00     0.031 A 
ATOM     38  C   UNL A   1      42.192  30.245  29.278  1.00  0.00     0.074 A 
ATOM     39  C   UNL A   1      41.446  27.908  28.970  1.00  0.00     0.049 A 
ATOM     40  N   UNL A   1      43.408  30.192  28.794  1.00  0.00    -0.248 NA
ATOM     41  C   UNL A   1      41.810  31.573  29.783  1.00  0.00     0.031 C 
ATOM     42  C   UNL A   1      40.544  26.759  29.052  1.00  0.00     0.029 A 
ATOM     43  N   UNL A   1      42.589  27.398  28.403  1.00  0.00    -0.354 N 
ATOM     44  C   UNL A   1      43.938  31.469  28.947  1.00  0.00     0.074 A 
ATOM     45  C   UNL A   1      42.894  32.289  29.522  1.00  0.00     0.031 C 
ATOM     46  C   UNL A   1      41.168  25.678  28.554  1.00  0.00     0.029 A 
ATOM     47  C   UNL A   1      42.503  26.060  28.097  1.00  0.00     0.049 A 
ATOM     48  H   UNL A   1      43.393  27.939  28.232  1.00  0.00     0.167 HD
ATOM     49  C   UNL A   1      45.185  31.914  28.655  1.00  0.00     0.037 A 
ATOM     50  C   UNL A   1      43.394  25.241  27.503  1.00  0.00     0.037 A 
ATOM     51  C   UNL A   1      46.222  31.097  28.074  1.00  0.00     0.049 A 
ATOM     52  C   UNL A   1      44.756  25.773  27.134  1.00  0.00     0.074 A 
ATOM     53  C   UNL A   1      47.515  31.455  27.737  1.00  0.00     0.029 A 
ATOM     54  N   UNL A   1      46.083  29.757  27.743  1.00  0.00    -0.354 N 
ATOM     55  N   UNL A   1      45.247  26.979  27.302  1.00  0.00    -0.248 NA
ATOM     56  C   UNL A   1      45.691  24.828  26.509  1.00  0.00     0.031 C 
ATOM     57  C   UNL A   1      48.141  30.348  27.155  1.00  0.00     0.029 A 
ATOM     58  C   UNL A   1      47.259  29.280  27.186  1.00  0.00     0.049 A 
ATOM     59  H   UNL A   1      45.268  29.221  27.883  1.00  0.00     0.167 HD
ATOM     60  C   UNL A   1      46.552  26.932  26.822  1.00  0.00     0.074 A 
ATOM     61  C   UNL A   1      46.783  25.570  26.386  1.00  0.00     0.031 C 
ATOM     62  C   UNL A   1      47.476  27.923  26.746  1.00  0.00     0.037 A 
BRANCH  49  63
ATOM     63  C   UNL A   1      45.500  33.359  28.949  1.00  0.00     0.058 A 
ATOM     64  C   UNL A   1      45.272  34.373  28.004  1.00  0.00     0.135 A 
ATOM     65  C   UNL A   1      45.992  33.743  30.208  1.00  0.00     0.135 A 
ATOM     66  F   UNL A   1      44.817  34.065  26.779  1.00  0.00    -0.206 F 
ATOM     67  C   UNL A   1      45.537  35.710  28.287  1.00  0.00     0.059 A 
ATOM     68  C   UNL A   1      46.237  35.077  30.524  1.00  0.00     0.059 A 
ATOM     69  F   UNL A   1      46.230  32.819  31.151  1.00  0.00    -0.206 F 
ATOM     70  C   UNL A   1      46.017  36.052  29.553  1.00  0.00     0.060 A 
BRANCH  70  71
ATOM     71  S   UNL A   1      46.339  37.794  29.910  1.00  0.00     0.124 S 
ATOM     72  O   UNL A   1      45.002  38.368  29.807  1.00  0.00    -0.237 OA
ATOM     73  O   UNL A   1      46.902  37.736  31.256  1.00  0.00    -0.237 OA
ATOM     74  O   UNL A   1      47.273  38.190  28.860  1.00  0.00    -0.744 OA
ENDBRANCH  70  71
ENDBRANCH  49  63
BRANCH  50  75
ATOM     75  C   UNL A   1      43.019  23.831  27.198  1.00  0.00     0.058 A 
ATOM     76  C   UNL A   1      42.651  23.426  25.907  1.00  0.00     0.135 A 
ATOM     77  C   UNL A   1      43.008  22.859  28.213  1.00  0.00     0.135 A 
ATOM     78  F   UNL A   1      42.632  24.319  24.904  1.00  0.00    -0.206 F 
ATOM     79  C   UNL A   1      42.265  22.117  25.634  1.00  0.00     0.059 A 
ATOM     80  C   UNL A   1      42.657  21.538  27.958  1.00  0.00     0.059 A 
ATOM     81  F   UNL A   1      43.361  23.188  29.465  1.00  0.00    -0.206 F 
ATOM     82  C   UNL A   1      42.274  21.178  26.668  1.00  0.00     0.060 A 
BRANCH  82  83
ATOM     83  S   UNL A   1      41.807  19.474  26.302  1.00  0.00     0.124 S 
ATOM     84  O   UNL A   1      40.367  19.596  26.116  1.00  0.00    -0.237 OA
ATOM     85  O   UNL A   1      42.586  19.194  25.100  1.00  0.00    -0.237 OA
ATOM     86  O   UNL A   1      42.230  18.746  27.495  1.00  0.00    -0.744 OA
ENDBRANCH  82  83
ENDBRANCH  50  75
BRANCH  62  87
ATOM     87  C   UNL A   1      48.830  27.562  26.190  1.00  0.00     0.058 A 
ATOM     88  C   UNL A   1      49.917  27.258  27.027  1.00  0.00     0.135 A 
ATOM     89  C   UNL A   1      49.043  27.513  24.802  1.00  0.00     0.135 A 
ATOM     90  F   UNL A   1      49.773  27.289  28.361  1.00  0.00    -0.206 F 
ATOM     91  C   UNL A   1      51.177  26.971  26.509  1.00  0.00     0.059 A 
ATOM     92  C   UNL A   1      50.286  27.194  24.263  1.00  0.00     0.059 A 
ATOM     93  F   UNL A   1      48.038  27.776  23.953  1.00  0.00    -0.206 F 
ATOM     94  C   UNL A   1      51.353  26.948  25.125  1.00  0.00     0.060 A 
BRANCH  94  95
ATOM     95  S   UNL A   1      52.997  26.590  24.467  1.00  0.00     0.124 S 
ATOM     96  O   UNL A   1      52.791  26.793  23.036  1.00  0.00    -0.237 OA
ATOM     97  O   UNL A   1      53.826  27.588  25.136  1.00  0.00    -0.237 OA
ATOM     98  O   UNL A   1      53.234  25.209  24.877  1.00  0.00    -0.744 OA
ENDBRANCH  94  95
ENDBRANCH  62  87
ENDBRANCH  36  37
ENDBRANCH  29  31
ENDBRANCH  28  29
ENDBRANCH  27  28
ENDBRANCH  26  27
ENDBRANCH  25  26
ENDBRANCH  24  25
ENDBRANCH   1  24
TORSDOF 23
ENDMDL
