MODEL 1
REMARK VINA RESULT:      -8.5      0.000      0.000
REMARK SMILES O=C(OCCOCCOCCOC(=O)c1cc(NC(=O)c2cccnc2Cl)ccc1O)c1ccc(-c2c3nc(c(-c4c(F)cc(S(=O)(=O)[O-])cc4F)c4ccc([nH]4)c(-c4c(F)cc(S(=O)(=O)[O-])cc4F)c4nc(c(-c5c(F)cc(S(=O)(=O)[O-])cc5F)c5ccc2[nH]5)C=C4)C=C3)cc1
REMARK SMILES IDX 7 1 6 2 5 3 4 4 3 5 2 6 1 7 32 8 33 9 97 10 34 11 96 12
REMARK SMILES IDX 35 13 36 14 37 15 90 16 38 17 95 18 89 19 91 20 39 21 94 22
REMARK SMILES IDX 88 23 87 24 40 26 74 27 53 28 73 29 54 30 57 31 72 32 92 33
REMARK SMILES IDX 55 34 56 35 71 37 93 38 58 39 41 40 42 41 51 42 43 43 44 44
REMARK SMILES IDX 50 45 52 46 45 47 46 48 47 49 48 50 49 51 75 52 76 53 85 54
REMARK SMILES IDX 77 55 78 56 84 57 86 58 79 59 80 60 81 61 82 62 83 63 59 64
REMARK SMILES IDX 60 65 69 66 61 67 62 68 68 69 70 70 63 71 64 72 65 73 66 74
REMARK SMILES IDX 67 75 8 76 9 77 10 78 11 79 12 80 13 81 14 82 15 83 16 84
REMARK SMILES IDX 30 85 17 86 29 87 28 88 31 89 18 91 19 92 20 94 21 95 22 96
REMARK SMILES IDX 26 97 23 98 25 99 27 100 24 101
REMARK H PARENT 91 25 57 36 31 90 18 93
REMARK Flexibility Score: inf
ROOT
ATOM      1  C   UNL A   1      36.533  33.867  29.441  1.00  0.00     0.188 C 
ENDROOT
BRANCH   1   2
ATOM      2  O   UNL A   1      35.460  32.938  29.314  1.00  0.00    -0.376 OA
BRANCH   2   3
ATOM      3  C   UNL A   1      34.789  33.020  28.054  1.00  0.00     0.202 C 
BRANCH   3   4
ATOM      4  C   UNL A   1      33.574  32.087  27.907  1.00  0.00     0.261 C 
BRANCH   4   5
ATOM      5  O   UNL A   1      33.870  30.927  27.106  1.00  0.00    -0.460 OA
BRANCH   5   6
ATOM      6  C   UNL A   1      34.488  29.785  27.505  1.00  0.00     0.338 C 
ATOM      7  O   UNL A   1      33.792  28.781  27.651  1.00  0.00    -0.246 OA
BRANCH   6   8
ATOM      8  C   UNL A   1      35.955  29.705  27.827  1.00  0.00     0.060 A 
ATOM      9  C   UNL A   1      36.992  30.001  26.942  1.00  0.00     0.016 A 
ATOM     10  C   UNL A   1      36.314  29.333  29.135  1.00  0.00     0.016 A 
ATOM     11  C   UNL A   1      38.326  29.830  27.295  1.00  0.00     0.010 A 
ATOM     12  C   UNL A   1      37.660  29.226  29.520  1.00  0.00     0.010 A 
ATOM     13  C   UNL A   1      38.677  29.432  28.582  1.00  0.00    -0.014 A 
BRANCH  13  14
ATOM     14  C   UNL A   1      40.095  29.077  28.824  1.00  0.00     0.031 A 
ATOM     15  C   UNL A   1      40.924  30.003  29.669  1.00  0.00     0.074 A 
ATOM     16  C   UNL A   1      40.559  27.860  28.472  1.00  0.00     0.049 A 
ATOM     17  N   UNL A   1      42.141  29.848  30.120  1.00  0.00    -0.248 NA
ATOM     18  C   UNL A   1      40.291  31.269  30.079  1.00  0.00     0.031 C 
ATOM     19  C   UNL A   1      39.805  26.854  27.717  1.00  0.00     0.029 A 
ATOM     20  N   UNL A   1      41.746  27.235  28.759  1.00  0.00    -0.354 N 
ATOM     21  C   UNL A   1      42.415  30.994  30.858  1.00  0.00     0.074 A 
ATOM     22  C   UNL A   1      41.262  31.856  30.760  1.00  0.00     0.031 C 
ATOM     23  C   UNL A   1      40.526  25.723  27.655  1.00  0.00     0.029 A 
ATOM     24  C   UNL A   1      41.810  25.935  28.313  1.00  0.00     0.049 A 
ATOM     25  H   UNL A   1      42.485  27.676  29.239  1.00  0.00     0.167 HD
ATOM     26  C   UNL A   1      43.521  31.292  31.577  1.00  0.00     0.037 A 
ATOM     27  C   UNL A   1      42.795  25.022  28.422  1.00  0.00     0.037 A 
ATOM     28  C   UNL A   1      44.659  30.424  31.682  1.00  0.00     0.049 A 
ATOM     29  C   UNL A   1      44.040  25.400  29.181  1.00  0.00     0.074 A 
ATOM     30  C   UNL A   1      45.870  30.656  32.305  1.00  0.00     0.029 A 
ATOM     31  N   UNL A   1      44.712  29.141  31.155  1.00  0.00    -0.354 N 
ATOM     32  N   UNL A   1      44.306  26.517  29.819  1.00  0.00    -0.248 NA
ATOM     33  C   UNL A   1      45.117  24.403  29.236  1.00  0.00     0.031 C 
ATOM     34  C   UNL A   1      46.665  29.514  32.140  1.00  0.00     0.029 A 
ATOM     35  C   UNL A   1      45.934  28.564  31.442  1.00  0.00     0.049 A 
ATOM     36  H   UNL A   1      43.986  28.706  30.652  1.00  0.00     0.167 HD
ATOM     37  C   UNL A   1      45.577  26.353  30.357  1.00  0.00     0.074 A 
ATOM     38  C   UNL A   1      46.013  25.019  29.996  1.00  0.00     0.031 C 
ATOM     39  C   UNL A   1      46.326  27.228  31.072  1.00  0.00     0.037 A 
BRANCH  26  40
ATOM     40  C   UNL A   1      43.535  32.625  32.269  1.00  0.00     0.058 A 
ATOM     41  C   UNL A   1      42.960  32.798  33.538  1.00  0.00     0.135 A 
ATOM     42  C   UNL A   1      44.071  33.752  31.629  1.00  0.00     0.135 A 
ATOM     43  F   UNL A   1      42.400  31.758  34.175  1.00  0.00    -0.206 F 
ATOM     44  C   UNL A   1      42.883  34.052  34.134  1.00  0.00     0.059 A 
ATOM     45  C   UNL A   1      44.025  35.013  32.216  1.00  0.00     0.059 A 
ATOM     46  F   UNL A   1      44.619  33.641  30.410  1.00  0.00    -0.206 F 
ATOM     47  C   UNL A   1      43.410  35.156  33.460  1.00  0.00     0.060 A 
BRANCH  47  48
ATOM     48  S   UNL A   1      43.271  36.784  34.227  1.00  0.00     0.124 S 
ATOM     49  O   UNL A   1      44.492  36.833  35.028  1.00  0.00    -0.237 OA
ATOM     50  O   UNL A   1      43.236  37.674  33.071  1.00  0.00    -0.237 OA
ATOM     51  O   UNL A   1      42.028  36.698  34.985  1.00  0.00    -0.744 OA
ENDBRANCH  47  48
ENDBRANCH  26  40
BRANCH  27  52
ATOM     52  C   UNL A   1      42.669  23.686  27.774  1.00  0.00     0.058 A 
ATOM     53  C   UNL A   1      42.317  22.539  28.503  1.00  0.00     0.135 A 
ATOM     54  C   UNL A   1      42.939  23.525  26.405  1.00  0.00     0.135 A 
ATOM     55  F   UNL A   1      42.052  22.633  29.815  1.00  0.00    -0.206 F 
ATOM     56  C   UNL A   1      42.262  21.281  27.907  1.00  0.00     0.059 A 
ATOM     57  C   UNL A   1      42.867  22.284  25.782  1.00  0.00     0.059 A 
ATOM     58  F   UNL A   1      43.257  24.588  25.650  1.00  0.00    -0.206 F 
ATOM     59  C   UNL A   1      42.545  21.163  26.546  1.00  0.00     0.060 A 
BRANCH  59  60
ATOM     60  S   UNL A   1      42.444  19.540  25.762  1.00  0.00     0.124 S 
ATOM     61  O   UNL A   1      42.822  18.659  26.860  1.00  0.00    -0.237 OA
ATOM     62  O   UNL A   1      41.047  19.488  25.346  1.00  0.00    -0.237 OA
ATOM     63  O   UNL A   1      43.407  19.645  24.670  1.00  0.00    -0.744 OA
ENDBRANCH  59  60
ENDBRANCH  27  52
BRANCH  39  64
ATOM     64  C   UNL A   1      47.678  26.760  31.518  1.00  0.00     0.058 A 
ATOM     65  C   UNL A   1      48.824  26.994  30.742  1.00  0.00     0.135 A 
ATOM     66  C   UNL A   1      47.837  26.118  32.756  1.00  0.00     0.135 A 
ATOM     67  F   UNL A   1      48.718  27.600  29.548  1.00  0.00    -0.206 F 
ATOM     68  C   UNL A   1      50.081  26.587  31.168  1.00  0.00     0.059 A 
ATOM     69  C   UNL A   1      49.089  25.722  33.213  1.00  0.00     0.059 A 
ATOM     70  F   UNL A   1      46.772  25.882  33.538  1.00  0.00    -0.206 F 
ATOM     71  C   UNL A   1      50.204  25.950  32.405  1.00  0.00     0.060 A 
BRANCH  71  72
ATOM     72  S   UNL A   1      51.845  25.455  32.967  1.00  0.00     0.124 S 
ATOM     73  O   UNL A   1      52.703  26.154  32.015  1.00  0.00    -0.237 OA
ATOM     74  O   UNL A   1      51.875  25.959  34.336  1.00  0.00    -0.237 OA
ATOM     75  O   UNL A   1      51.820  24.001  32.842  1.00  0.00    -0.744 OA
ENDBRANCH  71  72
ENDBRANCH  39  64
ENDBRANCH  13  14
ENDBRANCH   6   8
ENDBRANCH   5   6
ENDBRANCH   4   5
ENDBRANCH   3   4
ENDBRANCH   2   3
ENDBRANCH   1   2
BRANCH   1  76
ATOM     76  C   UNL A   1      37.174  33.933  30.828  1.00  0.00     0.188 C 
BRANCH  76  77
ATOM     77  O   UNL A   1      38.409  34.628  30.942  1.00  0.00    -0.376 OA
BRANCH  77  78
ATOM     78  C   UNL A   1      39.185  34.372  32.113  1.00  0.00     0.202 C 
BRANCH  78  79
ATOM     79  C   UNL A   1      38.536  33.582  33.260  1.00  0.00     0.261 C 
BRANCH  79  80
ATOM     80  O   UNL A   1      39.290  32.460  33.746  1.00  0.00    -0.460 OA
BRANCH  80  81
ATOM     81  C   UNL A   1      38.546  31.494  34.347  1.00  0.00     0.342 C 
ATOM     82  O   UNL A   1      37.667  31.656  35.178  1.00  0.00    -0.246 OA
BRANCH  81  83
ATOM     83  C   UNL A   1      38.832  30.169  33.772  1.00  0.00     0.103 A 
ATOM     84  C   UNL A   1      40.167  29.719  33.767  1.00  0.00     0.045 A 
ATOM     85  C   UNL A   1      37.841  29.470  33.081  1.00  0.00     0.130 A 
ATOM     86  C   UNL A   1      40.505  28.560  33.067  1.00  0.00     0.042 A 
ATOM     87  C   UNL A   1      38.177  28.319  32.375  1.00  0.00     0.049 A 
ATOM     88  C   UNL A   1      39.505  27.877  32.362  1.00  0.00     0.030 A 
BRANCH  85  89
ATOM     89  O   UNL A   1      36.559  29.937  33.053  1.00  0.00    -0.507 OA
ATOM     90  H   UNL A   1      36.221  30.419  33.781  1.00  0.00     0.293 HD
ENDBRANCH  85  89
BRANCH  86  91
ATOM     91  N   UNL A   1      41.814  28.051  32.952  1.00  0.00    -0.322 N 
ATOM     92  C   UNL A   1      42.666  27.458  33.851  1.00  0.00     0.258 C 
ATOM     93  H   UNL A   1      42.192  28.138  32.047  1.00  0.00     0.170 HD
ATOM     94  O   UNL A   1      43.866  27.365  33.589  1.00  0.00    -0.269 OA
BRANCH  92  95
ATOM     95  C   UNL A   1      42.199  26.835  35.097  1.00  0.00     0.077 A 
ATOM     96  C   UNL A   1      41.741  25.512  35.061  1.00  0.00     0.018 A 
ATOM     97  C   UNL A   1      42.024  27.545  36.272  1.00  0.00     0.141 A 
ATOM     98  C   UNL A   1      41.185  24.943  36.205  1.00  0.00     0.021 A 
ATOM     99  N   UNL A   1      41.508  27.005  37.402  1.00  0.00    -0.244 NA
ATOM    100  Cl  UNL A   1      42.333  29.227  36.423  1.00  0.00    -0.061 Cl
ATOM    101  C   UNL A   1      41.092  25.723  37.344  1.00  0.00     0.113 A 
ENDBRANCH  92  95
ENDBRANCH  86  91
ENDBRANCH  81  83
ENDBRANCH  80  81
ENDBRANCH  79  80
ENDBRANCH  78  79
ENDBRANCH  77  78
ENDBRANCH  76  77
ENDBRANCH   1  76
TORSDOF 23
ENDMDL
MODEL 2
REMARK VINA RESULT:      -8.3      4.759     11.776
REMARK SMILES O=C(OCCOCCOCCOC(=O)c1cc(NC(=O)c2cccnc2Cl)ccc1O)c1ccc(-c2c3nc(c(-c4c(F)cc(S(=O)(=O)[O-])cc4F)c4ccc([nH]4)c(-c4c(F)cc(S(=O)(=O)[O-])cc4F)c4nc(c(-c5c(F)cc(S(=O)(=O)[O-])cc5F)c5ccc2[nH]5)C=C4)C=C3)cc1
REMARK SMILES IDX 7 1 6 2 5 3 4 4 3 5 2 6 1 7 32 8 33 9 97 10 34 11 96 12
REMARK SMILES IDX 35 13 36 14 37 15 90 16 38 17 95 18 89 19 91 20 39 21 94 22
REMARK SMILES IDX 88 23 87 24 40 26 74 27 53 28 73 29 54 30 57 31 72 32 92 33
REMARK SMILES IDX 55 34 56 35 71 37 93 38 58 39 41 40 42 41 51 42 43 43 44 44
REMARK SMILES IDX 50 45 52 46 45 47 46 48 47 49 48 50 49 51 75 52 76 53 85 54
REMARK SMILES IDX 77 55 78 56 84 57 86 58 79 59 80 60 81 61 82 62 83 63 59 64
REMARK SMILES IDX 60 65 69 66 61 67 62 68 68 69 70 70 63 71 64 72 65 73 66 74
REMARK SMILES IDX 67 75 8 76 9 77 10 78 11 79 12 80 13 81 14 82 15 83 16 84
REMARK SMILES IDX 30 85 17 86 29 87 28 88 31 89 18 91 19 92 20 94 21 95 22 96
REMARK SMILES IDX 26 97 23 98 25 99 27 100 24 101
REMARK H PARENT 91 25 57 36 31 90 18 93
REMARK Flexibility Score: inf
ROOT
ATOM      1  C   UNL A   1      40.699  21.674  27.555  1.00  0.00     0.188 C 
ENDROOT
BRANCH   1   2
ATOM      2  O   UNL A   1      42.017  22.116  27.242  1.00  0.00    -0.376 OA
BRANCH   2   3
ATOM      3  C   UNL A   1      42.103  22.783  25.980  1.00  0.00     0.202 C 
BRANCH   3   4
ATOM      4  C   UNL A   1      43.437  23.506  25.721  1.00  0.00     0.261 C 
BRANCH   4   5
ATOM      5  O   UNL A   1      43.266  24.928  25.566  1.00  0.00    -0.460 OA
BRANCH   5   6
ATOM      6  C   UNL A   1      42.166  25.665  25.872  1.00  0.00     0.338 C 
ATOM      7  O   UNL A   1      41.330  25.837  24.987  1.00  0.00    -0.246 OA
BRANCH   6   8
ATOM      8  C   UNL A   1      41.953  26.318  27.210  1.00  0.00     0.060 A 
ATOM      9  C   UNL A   1      41.066  25.876  28.192  1.00  0.00     0.016 A 
ATOM     10  C   UNL A   1      42.733  27.449  27.513  1.00  0.00     0.016 A 
ATOM     11  C   UNL A   1      40.873  26.581  29.374  1.00  0.00     0.010 A 
ATOM     12  C   UNL A   1      42.594  28.126  28.735  1.00  0.00     0.010 A 
ATOM     13  C   UNL A   1      41.626  27.717  29.658  1.00  0.00    -0.014 A 
BRANCH  13  14
ATOM     14  C   UNL A   1      41.225  28.525  30.834  1.00  0.00     0.031 A 
ATOM     15  C   UNL A   1      42.121  28.512  32.041  1.00  0.00     0.074 A 
ATOM     16  C   UNL A   1      40.206  29.403  30.739  1.00  0.00     0.049 A 
ATOM     17  N   UNL A   1      42.051  29.225  33.133  1.00  0.00    -0.248 NA
ATOM     18  C   UNL A   1      43.264  27.582  32.007  1.00  0.00     0.031 C 
ATOM     19  C   UNL A   1      39.323  29.551  29.577  1.00  0.00     0.029 A 
ATOM     20  N   UNL A   1      39.781  30.381  31.601  1.00  0.00    -0.354 N 
ATOM     21  C   UNL A   1      43.131  28.826  33.911  1.00  0.00     0.074 A 
ATOM     22  C   UNL A   1      43.816  27.778  33.193  1.00  0.00     0.031 C 
ATOM     23  C   UNL A   1      38.506  30.597  29.779  1.00  0.00     0.029 A 
ATOM     24  C   UNL A   1      38.764  31.160  31.099  1.00  0.00     0.049 A 
ATOM     25  H   UNL A   1      40.168  30.515  32.497  1.00  0.00     0.167 HD
ATOM     26  C   UNL A   1      43.535  29.307  35.109  1.00  0.00     0.037 A 
ATOM     27  C   UNL A   1      38.114  32.206  31.645  1.00  0.00     0.037 A 
ATOM     28  C   UNL A   1      42.858  30.358  35.813  1.00  0.00     0.049 A 
ATOM     29  C   UNL A   1      38.547  32.686  33.006  1.00  0.00     0.074 A 
ATOM     30  C   UNL A   1      43.118  30.867  37.070  1.00  0.00     0.029 A 
ATOM     31  N   UNL A   1      41.786  31.075  35.299  1.00  0.00    -0.354 N 
ATOM     32  N   UNL A   1      39.534  32.251  33.755  1.00  0.00    -0.248 NA
ATOM     33  C   UNL A   1      37.784  33.793  33.598  1.00  0.00     0.031 C 
ATOM     34  C   UNL A   1      42.189  31.883  37.325  1.00  0.00     0.029 A 
ATOM     35  C   UNL A   1      41.374  32.026  36.213  1.00  0.00     0.049 A 
ATOM     36  H   UNL A   1      41.379  30.928  34.415  1.00  0.00     0.167 HD
ATOM     37  C   UNL A   1      39.515  33.035  34.902  1.00  0.00     0.074 A 
ATOM     38  C   UNL A   1      38.439  33.992  34.734  1.00  0.00     0.031 C 
ATOM     39  C   UNL A   1      40.303  32.967  36.003  1.00  0.00     0.037 A 
BRANCH  26  40
ATOM     40  C   UNL A   1      44.747  28.664  35.719  1.00  0.00     0.058 A 
ATOM     41  C   UNL A   1      46.042  29.138  35.453  1.00  0.00     0.135 A 
ATOM     42  C   UNL A   1      44.616  27.523  36.526  1.00  0.00     0.135 A 
ATOM     43  F   UNL A   1      46.221  30.204  34.657  1.00  0.00    -0.206 F 
ATOM     44  C   UNL A   1      47.168  28.481  35.936  1.00  0.00     0.059 A 
ATOM     45  C   UNL A   1      45.729  26.862  37.038  1.00  0.00     0.059 A 
ATOM     46  F   UNL A   1      43.402  27.023  36.798  1.00  0.00    -0.206 F 
ATOM     47  C   UNL A   1      47.001  27.338  36.720  1.00  0.00     0.060 A 
BRANCH  47  48
ATOM     48  S   UNL A   1      48.472  26.473  37.311  1.00  0.00     0.124 S 
ATOM     49  O   UNL A   1      49.000  27.428  38.282  1.00  0.00    -0.237 OA
ATOM     50  O   UNL A   1      47.911  25.246  37.869  1.00  0.00    -0.237 OA
ATOM     51  O   UNL A   1      49.272  26.299  36.104  1.00  0.00    -0.744 OA
ENDBRANCH  47  48
ENDBRANCH  26  40
BRANCH  27  52
ATOM     52  C   UNL A   1      36.970  32.846  30.936  1.00  0.00     0.058 A 
ATOM     53  C   UNL A   1      35.638  32.609  31.313  1.00  0.00     0.135 A 
ATOM     54  C   UNL A   1      37.191  33.686  29.832  1.00  0.00     0.135 A 
ATOM     55  F   UNL A   1      35.368  31.813  32.358  1.00  0.00    -0.206 F 
ATOM     56  C   UNL A   1      34.569  33.159  30.607  1.00  0.00     0.059 A 
ATOM     57  C   UNL A   1      36.142  34.265  29.127  1.00  0.00     0.059 A 
ATOM     58  F   UNL A   1      38.442  33.969  29.438  1.00  0.00    -0.206 F 
ATOM     59  C   UNL A   1      34.832  33.981  29.512  1.00  0.00     0.060 A 
BRANCH  59  60
ATOM     60  S   UNL A   1      33.451  34.720  28.614  1.00  0.00     0.124 S 
ATOM     61  O   UNL A   1      34.063  35.928  28.075  1.00  0.00    -0.237 OA
ATOM     62  O   UNL A   1      33.122  33.678  27.647  1.00  0.00    -0.237 OA
ATOM     63  O   UNL A   1      32.454  34.924  29.661  1.00  0.00    -0.744 OA
ENDBRANCH  59  60
ENDBRANCH  27  52
BRANCH  39  64
ATOM     64  C   UNL A   1      40.035  33.959  37.094  1.00  0.00     0.058 A 
ATOM     65  C   UNL A   1      40.583  35.251  37.056  1.00  0.00     0.135 A 
ATOM     66  C   UNL A   1      39.182  33.632  38.160  1.00  0.00     0.135 A 
ATOM     67  F   UNL A   1      41.409  35.605  36.058  1.00  0.00    -0.206 F 
ATOM     68  C   UNL A   1      40.312  36.180  38.051  1.00  0.00     0.059 A 
ATOM     69  C   UNL A   1      38.879  34.555  39.154  1.00  0.00     0.059 A 
ATOM     70  F   UNL A   1      38.627  32.413  38.233  1.00  0.00    -0.206 F 
ATOM     71  C   UNL A   1      39.459  35.823  39.098  1.00  0.00     0.060 A 
BRANCH  71  72
ATOM     72  S   UNL A   1      39.085  37.048  40.368  1.00  0.00     0.124 S 
ATOM     73  O   UNL A   1      38.504  38.125  39.573  1.00  0.00    -0.237 OA
ATOM     74  O   UNL A   1      38.157  36.328  41.235  1.00  0.00    -0.237 OA
ATOM     75  O   UNL A   1      40.389  37.332  40.958  1.00  0.00    -0.744 OA
ENDBRANCH  71  72
ENDBRANCH  39  64
ENDBRANCH  13  14
ENDBRANCH   6   8
ENDBRANCH   5   6
ENDBRANCH   4   5
ENDBRANCH   3   4
ENDBRANCH   2   3
ENDBRANCH   1   2
BRANCH   1  76
ATOM     76  C   UNL A   1      39.797  21.418  26.346  1.00  0.00     0.188 C 
BRANCH  76  77
ATOM     77  O   UNL A   1      38.692  22.293  26.162  1.00  0.00    -0.376 OA
BRANCH  77  78
ATOM     78  C   UNL A   1      37.854  22.042  25.032  1.00  0.00     0.202 C 
BRANCH  78  79
ATOM     79  C   UNL A   1      36.653  22.969  24.795  1.00  0.00     0.261 C 
BRANCH  79  80
ATOM     80  O   UNL A   1      35.832  23.230  25.945  1.00  0.00    -0.460 OA
BRANCH  80  81
ATOM     81  C   UNL A   1      34.750  22.418  26.067  1.00  0.00     0.342 C 
ATOM     82  O   UNL A   1      34.723  21.300  26.558  1.00  0.00    -0.246 OA
BRANCH  81  83
ATOM     83  C   UNL A   1      33.519  23.105  25.642  1.00  0.00     0.103 A 
ATOM     84  C   UNL A   1      33.078  24.210  26.397  1.00  0.00     0.045 A 
ATOM     85  C   UNL A   1      32.715  22.559  24.641  1.00  0.00     0.130 A 
ATOM     86  C   UNL A   1      31.825  24.768  26.141  1.00  0.00     0.042 A 
ATOM     87  C   UNL A   1      31.462  23.107  24.390  1.00  0.00     0.049 A 
ATOM     88  C   UNL A   1      31.019  24.199  25.145  1.00  0.00     0.030 A 
BRANCH  85  89
ATOM     89  O   UNL A   1      33.130  21.460  23.945  1.00  0.00    -0.507 OA
ATOM     90  H   UNL A   1      34.008  21.415  23.622  1.00  0.00     0.293 HD
ENDBRANCH  85  89
BRANCH  86  91
ATOM     91  N   UNL A   1      31.264  25.837  26.868  1.00  0.00    -0.322 N 
ATOM     92  C   UNL A   1      31.345  27.202  26.732  1.00  0.00     0.258 C 
ATOM     93  H   UNL A   1      30.704  25.548  27.624  1.00  0.00     0.170 HD
ATOM     94  O   UNL A   1      31.009  27.932  27.664  1.00  0.00    -0.269 OA
BRANCH  92  95
ATOM     95  C   UNL A   1      31.736  27.852  25.474  1.00  0.00     0.077 A 
ATOM     96  C   UNL A   1      30.842  27.834  24.397  1.00  0.00     0.018 A 
ATOM     97  C   UNL A   1      33.014  28.331  25.242  1.00  0.00     0.141 A 
ATOM     98  C   UNL A   1      31.240  28.341  23.161  1.00  0.00     0.021 A 
ATOM     99  N   UNL A   1      33.414  28.850  24.057  1.00  0.00    -0.244 NA
ATOM    100  Cl  UNL A   1      34.290  28.232  26.386  1.00  0.00    -0.061 Cl
ATOM    101  C   UNL A   1      32.526  28.837  23.041  1.00  0.00     0.113 A 
ENDBRANCH  92  95
ENDBRANCH  86  91
ENDBRANCH  81  83
ENDBRANCH  80  81
ENDBRANCH  79  80
ENDBRANCH  78  79
ENDBRANCH  77  78
ENDBRANCH  76  77
ENDBRANCH   1  76
TORSDOF 23
ENDMDL
MODEL 3
REMARK VINA RESULT:      -8.2      5.080     11.691
REMARK SMILES O=C(OCCOCCOCCOC(=O)c1cc(NC(=O)c2cccnc2Cl)ccc1O)c1ccc(-c2c3nc(c(-c4c(F)cc(S(=O)(=O)[O-])cc4F)c4ccc([nH]4)c(-c4c(F)cc(S(=O)(=O)[O-])cc4F)c4nc(c(-c5c(F)cc(S(=O)(=O)[O-])cc5F)c5ccc2[nH]5)C=C4)C=C3)cc1
REMARK SMILES IDX 7 1 6 2 5 3 4 4 3 5 2 6 1 7 32 8 33 9 97 10 34 11 96 12
REMARK SMILES IDX 35 13 36 14 37 15 90 16 38 17 95 18 89 19 91 20 39 21 94 22
REMARK SMILES IDX 88 23 87 24 40 26 74 27 53 28 73 29 54 30 57 31 72 32 92 33
REMARK SMILES IDX 55 34 56 35 71 37 93 38 58 39 41 40 42 41 51 42 43 43 44 44
REMARK SMILES IDX 50 45 52 46 45 47 46 48 47 49 48 50 49 51 75 52 76 53 85 54
REMARK SMILES IDX 77 55 78 56 84 57 86 58 79 59 80 60 81 61 82 62 83 63 59 64
REMARK SMILES IDX 60 65 69 66 61 67 62 68 68 69 70 70 63 71 64 72 65 73 66 74
REMARK SMILES IDX 67 75 8 76 9 77 10 78 11 79 12 80 13 81 14 82 15 83 16 84
REMARK SMILES IDX 30 85 17 86 29 87 28 88 31 89 18 91 19 92 20 94 21 95 22 96
REMARK SMILES IDX 26 97 23 98 25 99 27 100 24 101
REMARK H PARENT 91 25 57 36 31 90 18 93
REMARK Flexibility Score: inf
ROOT
ATOM      1  C   UNL A   1      42.304  21.075  27.440  1.00  0.00     0.188 C 
ENDROOT
BRANCH   1   2
ATOM      2  O   UNL A   1      42.889  21.266  26.154  1.00  0.00    -0.376 OA
BRANCH   2   3
ATOM      3  C   UNL A   1      43.650  22.473  26.055  1.00  0.00     0.202 C 
BRANCH   3   4
ATOM      4  C   UNL A   1      42.922  23.641  25.366  1.00  0.00     0.261 C 
BRANCH   4   5
ATOM      5  O   UNL A   1      41.906  24.222  26.205  1.00  0.00    -0.460 OA
BRANCH   5   6
ATOM      6  C   UNL A   1      41.533  25.527  26.266  1.00  0.00     0.338 C 
ATOM      7  O   UNL A   1      41.179  26.069  25.219  1.00  0.00    -0.246 OA
BRANCH   6   8
ATOM      8  C   UNL A   1      41.585  26.346  27.526  1.00  0.00     0.060 A 
ATOM      9  C   UNL A   1      40.710  26.222  28.605  1.00  0.00     0.016 A 
ATOM     10  C   UNL A   1      42.619  27.292  27.644  1.00  0.00     0.016 A 
ATOM     11  C   UNL A   1      40.780  27.070  29.705  1.00  0.00     0.010 A 
ATOM     12  C   UNL A   1      42.738  28.105  28.783  1.00  0.00     0.010 A 
ATOM     13  C   UNL A   1      41.786  28.026  29.804  1.00  0.00    -0.014 A 
BRANCH  13  14
ATOM     14  C   UNL A   1      41.677  29.021  30.898  1.00  0.00     0.031 A 
ATOM     15  C   UNL A   1      40.530  29.991  30.861  1.00  0.00     0.074 A 
ATOM     16  C   UNL A   1      42.459  28.915  31.992  1.00  0.00     0.049 A 
ATOM     17  N   UNL A   1      40.154  30.865  31.757  1.00  0.00    -0.248 NA
ATOM     18  C   UNL A   1      39.677  29.964  29.660  1.00  0.00     0.031 C 
ATOM     19  C   UNL A   1      43.552  27.951  32.160  1.00  0.00     0.029 A 
ATOM     20  N   UNL A   1      42.414  29.574  33.194  1.00  0.00    -0.354 N 
ATOM     21  C   UNL A   1      39.031  31.487  31.226  1.00  0.00     0.074 A 
ATOM     22  C   UNL A   1      38.810  30.930  29.913  1.00  0.00     0.031 C 
ATOM     23  C   UNL A   1      44.029  28.045  33.411  1.00  0.00     0.029 A 
ATOM     24  C   UNL A   1      43.321  29.106  34.117  1.00  0.00     0.049 A 
ATOM     25  H   UNL A   1      41.791  30.314  33.380  1.00  0.00     0.167 HD
ATOM     26  C   UNL A   1      38.235  32.424  31.791  1.00  0.00     0.037 A 
ATOM     27  C   UNL A   1      43.553  29.494  35.387  1.00  0.00     0.037 A 
ATOM     28  C   UNL A   1      38.452  32.964  33.102  1.00  0.00     0.049 A 
ATOM     29  C   UNL A   1      42.689  30.580  35.973  1.00  0.00     0.074 A 
ATOM     30  C   UNL A   1      37.770  33.980  33.744  1.00  0.00     0.029 A 
ATOM     31  N   UNL A   1      39.427  32.512  33.980  1.00  0.00    -0.354 N 
ATOM     32  N   UNL A   1      41.669  31.202  35.428  1.00  0.00    -0.248 NA
ATOM     33  C   UNL A   1      43.001  31.017  37.339  1.00  0.00     0.031 C 
ATOM     34  C   UNL A   1      38.345  34.153  35.009  1.00  0.00     0.029 A 
ATOM     35  C   UNL A   1      39.363  33.225  35.162  1.00  0.00     0.049 A 
ATOM     36  H   UNL A   1      40.069  31.791  33.789  1.00  0.00     0.167 HD
ATOM     37  C   UNL A   1      41.215  32.099  36.387  1.00  0.00     0.074 A 
ATOM     38  C   UNL A   1      42.050  31.916  37.557  1.00  0.00     0.031 C 
ATOM     39  C   UNL A   1      40.208  33.004  36.308  1.00  0.00     0.037 A 
BRANCH  26  40
ATOM     40  C   UNL A   1      37.088  32.922  30.960  1.00  0.00     0.058 A 
ATOM     41  C   UNL A   1      37.287  33.817  29.896  1.00  0.00     0.135 A 
ATOM     42  C   UNL A   1      35.771  32.552  31.272  1.00  0.00     0.135 A 
ATOM     43  F   UNL A   1      38.524  34.231  29.583  1.00  0.00    -0.206 F 
ATOM     44  C   UNL A   1      36.215  34.357  29.193  1.00  0.00     0.059 A 
ATOM     45  C   UNL A   1      34.685  33.063  30.567  1.00  0.00     0.059 A 
ATOM     46  F   UNL A   1      35.528  31.711  32.288  1.00  0.00    -0.206 F 
ATOM     47  C   UNL A   1      34.917  33.980  29.543  1.00  0.00     0.060 A 
BRANCH  47  48
ATOM     48  S   UNL A   1      33.533  34.716  28.647  1.00  0.00     0.124 S 
ATOM     49  O   UNL A   1      32.535  34.840  29.706  1.00  0.00    -0.237 OA
ATOM     50  O   UNL A   1      34.102  35.969  28.163  1.00  0.00    -0.237 OA
ATOM     51  O   UNL A   1      33.233  33.728  27.615  1.00  0.00    -0.744 OA
ENDBRANCH  47  48
ENDBRANCH  26  40
BRANCH  27  52
ATOM     52  C   UNL A   1      44.663  28.889  36.176  1.00  0.00     0.058 A 
ATOM     53  C   UNL A   1      44.455  27.794  37.029  1.00  0.00     0.135 A 
ATOM     54  C   UNL A   1      45.960  29.426  36.116  1.00  0.00     0.135 A 
ATOM     55  F   UNL A   1      43.236  27.243  37.128  1.00  0.00    -0.206 F 
ATOM     56  C   UNL A   1      45.481  27.272  37.814  1.00  0.00     0.059 A 
ATOM     57  C   UNL A   1      47.006  28.907  36.871  1.00  0.00     0.059 A 
ATOM     58  F   UNL A   1      46.227  30.458  35.301  1.00  0.00    -0.206 F 
ATOM     59  C   UNL A   1      46.753  27.839  37.731  1.00  0.00     0.060 A 
BRANCH  59  60
ATOM     60  S   UNL A   1      48.093  27.145  38.722  1.00  0.00     0.124 S 
ATOM     61  O   UNL A   1      47.959  25.721  38.442  1.00  0.00    -0.237 OA
ATOM     62  O   UNL A   1      49.265  27.805  38.155  1.00  0.00    -0.237 OA
ATOM     63  O   UNL A   1      47.747  27.564  40.077  1.00  0.00    -0.744 OA
ENDBRANCH  59  60
ENDBRANCH  27  52
BRANCH  39  64
ATOM     64  C   UNL A   1      39.954  33.846  37.522  1.00  0.00     0.058 A 
ATOM     65  C   UNL A   1      40.664  35.035  37.747  1.00  0.00     0.135 A 
ATOM     66  C   UNL A   1      38.956  33.487  38.441  1.00  0.00     0.135 A 
ATOM     67  F   UNL A   1      41.632  35.415  36.897  1.00  0.00    -0.206 F 
ATOM     68  C   UNL A   1      40.409  35.831  38.856  1.00  0.00     0.059 A 
ATOM     69  C   UNL A   1      38.668  34.280  39.546  1.00  0.00     0.059 A 
ATOM     70  F   UNL A   1      38.244  32.363  38.262  1.00  0.00    -0.206 F 
ATOM     71  C   UNL A   1      39.409  35.445  39.751  1.00  0.00     0.060 A 
BRANCH  71  72
ATOM     72  S   UNL A   1      39.060  36.501  41.171  1.00  0.00     0.124 S 
ATOM     73  O   UNL A   1      38.629  37.734  40.519  1.00  0.00    -0.237 OA
ATOM     74  O   UNL A   1      38.018  35.756  41.870  1.00  0.00    -0.237 OA
ATOM     75  O   UNL A   1      40.343  36.571  41.864  1.00  0.00    -0.744 OA
ENDBRANCH  71  72
ENDBRANCH  39  64
ENDBRANCH  13  14
ENDBRANCH   6   8
ENDBRANCH   5   6
ENDBRANCH   4   5
ENDBRANCH   3   4
ENDBRANCH   2   3
ENDBRANCH   1   2
BRANCH   1  76
ATOM     76  C   UNL A   1      40.777  20.986  27.451  1.00  0.00     0.188 C 
BRANCH  76  77
ATOM     77  O   UNL A   1      40.111  21.081  26.198  1.00  0.00    -0.376 OA
BRANCH  77  78
ATOM     78  C   UNL A   1      39.004  21.981  26.126  1.00  0.00     0.202 C 
BRANCH  78  79
ATOM     79  C   UNL A   1      37.829  21.620  25.204  1.00  0.00     0.261 C 
BRANCH  79  80
ATOM     80  O   UNL A   1      36.528  22.006  25.675  1.00  0.00    -0.460 OA
BRANCH  80  81
ATOM     81  C   UNL A   1      36.258  23.334  25.571  1.00  0.00     0.342 C 
ATOM     82  O   UNL A   1      36.961  24.257  25.950  1.00  0.00    -0.246 OA
BRANCH  81  83
ATOM     83  C   UNL A   1      35.024  23.566  24.801  1.00  0.00     0.103 A 
ATOM     84  C   UNL A   1      33.826  23.784  25.509  1.00  0.00     0.045 A 
ATOM     85  C   UNL A   1      35.010  23.381  23.417  1.00  0.00     0.130 A 
ATOM     86  C   UNL A   1      32.612  23.820  24.824  1.00  0.00     0.042 A 
ATOM     87  C   UNL A   1      33.800  23.406  22.733  1.00  0.00     0.049 A 
ATOM     88  C   UNL A   1      32.609  23.615  23.437  1.00  0.00     0.030 A 
BRANCH  85  89
ATOM     89  O   UNL A   1      36.169  23.124  22.743  1.00  0.00    -0.507 OA
ATOM     90  H   UNL A   1      36.138  22.762  21.880  1.00  0.00     0.293 HD
ENDBRANCH  85  89
BRANCH  86  91
ATOM     91  N   UNL A   1      31.354  23.978  25.438  1.00  0.00    -0.322 N 
ATOM     92  C   UNL A   1      30.740  25.047  26.044  1.00  0.00     0.258 C 
ATOM     93  H   UNL A   1      30.807  23.160  25.431  1.00  0.00     0.170 HD
ATOM     94  O   UNL A   1      29.760  24.863  26.766  1.00  0.00    -0.269 OA
BRANCH  92  95
ATOM     95  C   UNL A   1      31.144  26.438  25.800  1.00  0.00     0.077 A 
ATOM     96  C   UNL A   1      31.810  27.137  26.814  1.00  0.00     0.018 A 
ATOM     97  C   UNL A   1      30.746  27.151  24.681  1.00  0.00     0.141 A 
ATOM     98  C   UNL A   1      32.096  28.490  26.647  1.00  0.00     0.021 A 
ATOM     99  N   UNL A   1      31.035  28.460  24.488  1.00  0.00    -0.244 NA
ATOM    100  Cl  UNL A   1      29.744  26.504  23.447  1.00  0.00    -0.061 Cl
ATOM    101  C   UNL A   1      31.694  29.103  25.473  1.00  0.00     0.113 A 
ENDBRANCH  92  95
ENDBRANCH  86  91
ENDBRANCH  81  83
ENDBRANCH  80  81
ENDBRANCH  79  80
ENDBRANCH  78  79
ENDBRANCH  77  78
ENDBRANCH  76  77
ENDBRANCH   1  76
TORSDOF 23
ENDMDL
