MODEL 1
REMARK VINA RESULT:      -9.5      0.000      0.000
REMARK SMILES CN(CCS(C)(=O)=O)S(=O)(=O)c1cc(C(=O)OCCOCCOCCOC(=O)c2ccc(-c3c4nc(c(-c5c(F)cc(S(=O)(=O)[O-])cc5F)c5ccc([nH]5)c(-c5c(F)cc(S(=O)(=O)[O-])cc5F)c5nc(c(-c6c(F)cc(S(=O)(=O)[O-])cc6F)c6ccc3[nH]6)C=C5)C=C4)cc2)ccc1F
REMARK SMILES IDX 21 1 20 2 19 3 18 4 17 5 15 6 16 7 14 8 12 9 13 10 97 11
REMARK SMILES IDX 96 12 98 13 95 14 9 15 10 16 11 17 2 18 1 19 3 20 4 21 5 22
REMARK SMILES IDX 6 23 7 24 8 25 22 26 23 27 24 28 25 29 26 30 27 31 28 32
REMARK SMILES IDX 29 33 30 34 94 35 31 36 93 37 32 38 33 39 34 40 87 41 35 42
REMARK SMILES IDX 92 43 86 44 88 45 36 46 91 47 85 48 84 49 37 51 71 52 50 53
REMARK SMILES IDX 70 54 51 55 54 56 69 57 89 58 52 59 53 60 68 62 90 63 55 64
REMARK SMILES IDX 38 65 39 66 48 67 40 68 41 69 47 70 49 71 42 72 43 73 44 74
REMARK SMILES IDX 45 75 46 76 72 77 73 78 82 79 74 80 75 81 81 82 83 83 76 84
REMARK SMILES IDX 77 85 78 86 79 87 80 88 56 89 57 90 66 91 58 92 59 93 65 94
REMARK SMILES IDX 67 95 60 96 61 97 62 98 63 99 64 100
REMARK H PARENT 88 50 54 61
REMARK Flexibility Score: inf
ROOT
ATOM      1  C   UNL A   1      35.491  31.688  27.645  1.00  0.00     0.188 C 
ENDROOT
BRANCH   1   2
ATOM      2  O   UNL A   1      34.809  30.541  28.139  1.00  0.00    -0.376 OA
BRANCH   2   3
ATOM      3  C   UNL A   1      34.845  29.320  27.414  1.00  0.00     0.202 C 
BRANCH   3   4
ATOM      4  C   UNL A   1      33.651  28.924  26.527  1.00  0.00     0.261 C 
BRANCH   4   5
ATOM      5  O   UNL A   1      33.764  27.635  25.906  1.00  0.00    -0.460 OA
BRANCH   5   6
ATOM      6  C   UNL A   1      33.734  27.617  24.551  1.00  0.00     0.338 C 
ATOM      7  O   UNL A   1      34.010  28.522  23.784  1.00  0.00    -0.246 OA
BRANCH   6   8
ATOM      8  C   UNL A   1      33.489  26.228  24.103  1.00  0.00     0.061 A 
ATOM      9  C   UNL A   1      32.779  23.983  24.672  1.00  0.00     0.119 A 
ATOM     10  C   UNL A   1      33.136  25.278  25.070  1.00  0.00     0.040 A 
ATOM     11  C   UNL A   1      32.770  23.646  23.325  1.00  0.00     0.143 A 
ATOM     12  C   UNL A   1      33.150  24.585  22.364  1.00  0.00     0.041 A 
ATOM     13  F   UNL A   1      32.390  22.437  22.901  1.00  0.00    -0.206 F 
ATOM     14  C   UNL A   1      33.510  25.880  22.749  1.00  0.00     0.019 A 
BRANCH   9  15
ATOM     15  S   UNL A   1      32.286  22.817  25.896  1.00  0.00     0.245 S 
ATOM     16  O   UNL A   1      31.041  22.193  25.521  1.00  0.00    -0.207 OA
ATOM     17  O   UNL A   1      32.436  23.506  27.157  1.00  0.00    -0.207 OA
BRANCH  15  18
ATOM     18  N   UNL A   1      33.475  21.601  25.818  1.00  0.00    -0.200 NA
ATOM     19  C   UNL A   1      34.597  21.810  26.776  1.00  0.00     0.124 C 
BRANCH  18  20
ATOM     20  C   UNL A   1      33.108  20.170  25.622  1.00  0.00     0.118 C 
BRANCH  20  21
ATOM     21  C   UNL A   1      33.540  19.490  24.336  1.00  0.00     0.153 C 
BRANCH  21  22
ATOM     22  S   UNL A   1      33.008  17.798  24.060  1.00  0.00     0.148 S 
ATOM     23  C   UNL A   1      34.349  16.707  24.468  1.00  0.00     0.158 C 
ATOM     24  O   UNL A   1      31.964  17.514  25.030  1.00  0.00    -0.229 OA
ATOM     25  O   UNL A   1      32.743  17.599  22.651  1.00  0.00    -0.229 OA
ENDBRANCH  21  22
ENDBRANCH  20  21
ENDBRANCH  18  20
ENDBRANCH  15  18
ENDBRANCH   9  15
ENDBRANCH   6   8
ENDBRANCH   5   6
ENDBRANCH   4   5
ENDBRANCH   3   4
ENDBRANCH   2   3
ENDBRANCH   1   2
BRANCH   1  26
ATOM     26  C   UNL A   1      35.186  33.082  28.231  1.00  0.00     0.188 C 
BRANCH  26  27
ATOM     27  O   UNL A   1      34.191  33.069  29.236  1.00  0.00    -0.376 OA
BRANCH  27  28
ATOM     28  C   UNL A   1      34.508  33.751  30.440  1.00  0.00     0.202 C 
BRANCH  28  29
ATOM     29  C   UNL A   1      34.612  32.922  31.732  1.00  0.00     0.261 C 
BRANCH  29  30
ATOM     30  O   UNL A   1      35.425  31.737  31.683  1.00  0.00    -0.460 OA
BRANCH  30  31
ATOM     31  C   UNL A   1      36.496  31.680  32.508  1.00  0.00     0.338 C 
ATOM     32  O   UNL A   1      36.503  31.923  33.702  1.00  0.00    -0.246 OA
BRANCH  31  33
ATOM     33  C   UNL A   1      37.629  31.093  31.753  1.00  0.00     0.060 A 
ATOM     34  C   UNL A   1      38.572  30.323  32.443  1.00  0.00     0.016 A 
ATOM     35  C   UNL A   1      37.766  31.300  30.377  1.00  0.00     0.016 A 
ATOM     36  C   UNL A   1      39.665  29.782  31.760  1.00  0.00     0.010 A 
ATOM     37  C   UNL A   1      38.872  30.767  29.698  1.00  0.00     0.010 A 
ATOM     38  C   UNL A   1      39.840  30.020  30.390  1.00  0.00    -0.014 A 
BRANCH  38  39
ATOM     39  C   UNL A   1      41.125  29.641  29.744  1.00  0.00     0.031 A 
ATOM     40  C   UNL A   1      42.208  30.682  29.640  1.00  0.00     0.074 A 
ATOM     41  C   UNL A   1      41.360  28.388  29.313  1.00  0.00     0.049 A 
ATOM     42  N   UNL A   1      43.405  30.589  29.121  1.00  0.00    -0.248 NA
ATOM     43  C   UNL A   1      41.899  32.006  30.207  1.00  0.00     0.031 C 
ATOM     44  C   UNL A   1      40.425  27.268  29.413  1.00  0.00     0.029 A 
ATOM     45  N   UNL A   1      42.469  27.844  28.706  1.00  0.00    -0.354 N 
ATOM     46  C   UNL A   1      43.995  31.833  29.308  1.00  0.00     0.074 A 
ATOM     47  C   UNL A   1      43.014  32.675  29.957  1.00  0.00     0.031 C 
ATOM     48  C   UNL A   1      40.996  26.173  28.879  1.00  0.00     0.029 A 
ATOM     49  C   UNL A   1      42.329  26.515  28.381  1.00  0.00     0.049 A 
ATOM     50  H   UNL A   1      43.287  28.360  28.521  1.00  0.00     0.167 HD
ATOM     51  C   UNL A   1      45.245  32.237  28.981  1.00  0.00     0.037 A 
ATOM     52  C   UNL A   1      43.175  25.675  27.747  1.00  0.00     0.037 A 
ATOM     53  C   UNL A   1      46.222  31.403  28.331  1.00  0.00     0.049 A 
ATOM     54  C   UNL A   1      44.532  26.171  27.313  1.00  0.00     0.074 A 
ATOM     55  C   UNL A   1      47.510  31.732  27.944  1.00  0.00     0.029 A 
ATOM     56  N   UNL A   1      46.022  30.080  27.971  1.00  0.00    -0.354 N 
ATOM     57  N   UNL A   1      45.073  27.353  27.487  1.00  0.00    -0.248 NA
ATOM     58  C   UNL A   1      45.396  25.217  26.600  1.00  0.00     0.031 C 
ATOM     59  C   UNL A   1      48.071  30.621  27.307  1.00  0.00     0.029 A 
ATOM     60  C   UNL A   1      47.155  29.583  27.348  1.00  0.00     0.049 A 
ATOM     61  H   UNL A   1      45.196  29.568  28.134  1.00  0.00     0.167 HD
ATOM     62  C   UNL A   1      46.348  27.277  26.932  1.00  0.00     0.074 A 
ATOM     63  C   UNL A   1      46.501  25.930  26.424  1.00  0.00     0.031 C 
ATOM     64  C   UNL A   1      47.304  28.236  26.853  1.00  0.00     0.037 A 
BRANCH  51  65
ATOM     65  C   UNL A   1      45.626  33.654  29.302  1.00  0.00     0.058 A 
ATOM     66  C   UNL A   1      45.355  34.685  28.391  1.00  0.00     0.135 A 
ATOM     67  C   UNL A   1      46.304  33.986  30.486  1.00  0.00     0.135 A 
ATOM     68  F   UNL A   1      44.698  34.426  27.249  1.00  0.00    -0.206 F 
ATOM     69  C   UNL A   1      45.759  35.994  28.632  1.00  0.00     0.059 A 
ATOM     70  C   UNL A   1      46.696  35.292  30.760  1.00  0.00     0.059 A 
ATOM     71  F   UNL A   1      46.563  33.040  31.403  1.00  0.00    -0.206 F 
ATOM     72  C   UNL A   1      46.433  36.288  29.819  1.00  0.00     0.060 A 
BRANCH  72  73
ATOM     73  S   UNL A   1      46.928  37.996  30.125  1.00  0.00     0.124 S 
ATOM     74  O   UNL A   1      47.222  38.469  28.777  1.00  0.00    -0.237 OA
ATOM     75  O   UNL A   1      45.731  38.554  30.750  1.00  0.00    -0.237 OA
ATOM     76  O   UNL A   1      48.081  37.862  31.011  1.00  0.00    -0.744 OA
ENDBRANCH  72  73
ENDBRANCH  51  65
BRANCH  52  77
ATOM     77  C   UNL A   1      42.764  24.268  27.482  1.00  0.00     0.058 A 
ATOM     78  C   UNL A   1      42.768  23.306  28.504  1.00  0.00     0.135 A 
ATOM     79  C   UNL A   1      42.360  23.857  26.202  1.00  0.00     0.135 A 
ATOM     80  F   UNL A   1      43.141  23.646  29.747  1.00  0.00    -0.206 F 
ATOM     81  C   UNL A   1      42.417  21.983  28.262  1.00  0.00     0.059 A 
ATOM     82  C   UNL A   1      41.978  22.544  25.941  1.00  0.00     0.059 A 
ATOM     83  F   UNL A   1      42.324  24.743  25.195  1.00  0.00    -0.206 F 
ATOM     84  C   UNL A   1      42.029  21.610  26.974  1.00  0.00     0.060 A 
BRANCH  84  85
ATOM     85  S   UNL A   1      41.605  19.881  26.671  1.00  0.00     0.124 S 
ATOM     86  O   UNL A   1      41.998  19.728  25.274  1.00  0.00    -0.237 OA
ATOM     87  O   UNL A   1      42.436  19.184  27.647  1.00  0.00    -0.237 OA
ATOM     88  O   UNL A   1      40.169  19.837  26.925  1.00  0.00    -0.744 OA
ENDBRANCH  84  85
ENDBRANCH  52  77
BRANCH  64  89
ATOM     89  C   UNL A   1      48.622  27.870  26.225  1.00  0.00     0.058 A 
ATOM     90  C   UNL A   1      48.729  27.725  24.831  1.00  0.00     0.135 A 
ATOM     91  C   UNL A   1      49.759  27.591  27.000  1.00  0.00     0.135 A 
ATOM     92  F   UNL A   1      47.671  27.970  24.042  1.00  0.00    -0.206 F 
ATOM     93  C   UNL A   1      49.910  27.303  24.231  1.00  0.00     0.059 A 
ATOM     94  C   UNL A   1      50.960  27.193  26.417  1.00  0.00     0.059 A 
ATOM     95  F   UNL A   1      49.714  27.721  28.335  1.00  0.00    -0.206 F 
ATOM     96  C   UNL A   1      51.021  27.038  25.032  1.00  0.00     0.060 A 
BRANCH  96  97
ATOM     97  S   UNL A   1      52.556  26.518  24.233  1.00  0.00     0.124 S 
ATOM     98  O   UNL A   1      52.204  26.607  22.822  1.00  0.00    -0.237 OA
ATOM     99  O   UNL A   1      53.508  27.516  24.715  1.00  0.00    -0.237 OA
ATOM    100  O   UNL A   1      52.763  25.167  24.746  1.00  0.00    -0.744 OA
ENDBRANCH  96  97
ENDBRANCH  64  89
ENDBRANCH  38  39
ENDBRANCH  31  33
ENDBRANCH  30  31
ENDBRANCH  29  30
ENDBRANCH  28  29
ENDBRANCH  27  28
ENDBRANCH  26  27
ENDBRANCH   1  26
TORSDOF 25
ENDMDL
MODEL 2
REMARK VINA RESULT:      -8.9      4.690      8.490
REMARK SMILES CN(CCS(C)(=O)=O)S(=O)(=O)c1cc(C(=O)OCCOCCOCCOC(=O)c2ccc(-c3c4nc(c(-c5c(F)cc(S(=O)(=O)[O-])cc5F)c5ccc([nH]5)c(-c5c(F)cc(S(=O)(=O)[O-])cc5F)c5nc(c(-c6c(F)cc(S(=O)(=O)[O-])cc6F)c6ccc3[nH]6)C=C5)C=C4)cc2)ccc1F
REMARK SMILES IDX 21 1 20 2 19 3 18 4 17 5 15 6 16 7 14 8 12 9 13 10 97 11
REMARK SMILES IDX 96 12 98 13 95 14 9 15 10 16 11 17 2 18 1 19 3 20 4 21 5 22
REMARK SMILES IDX 6 23 7 24 8 25 22 26 23 27 24 28 25 29 26 30 27 31 28 32
REMARK SMILES IDX 29 33 30 34 94 35 31 36 93 37 32 38 33 39 34 40 87 41 35 42
REMARK SMILES IDX 92 43 86 44 88 45 36 46 91 47 85 48 84 49 37 51 71 52 50 53
REMARK SMILES IDX 70 54 51 55 54 56 69 57 89 58 52 59 53 60 68 62 90 63 55 64
REMARK SMILES IDX 38 65 39 66 48 67 40 68 41 69 47 70 49 71 42 72 43 73 44 74
REMARK SMILES IDX 45 75 46 76 72 77 73 78 82 79 74 80 75 81 81 82 83 83 76 84
REMARK SMILES IDX 77 85 78 86 79 87 80 88 56 89 57 90 66 91 58 92 59 93 65 94
REMARK SMILES IDX 67 95 60 96 61 97 62 98 63 99 64 100
REMARK H PARENT 88 50 54 61
REMARK Flexibility Score: inf
ROOT
ATOM      1  C   UNL A   1      36.931  33.734  33.001  1.00  0.00     0.188 C 
ENDROOT
BRANCH   1   2
ATOM      2  O   UNL A   1      37.693  32.533  33.019  1.00  0.00    -0.376 OA
BRANCH   2   3
ATOM      3  C   UNL A   1      37.044  31.273  32.925  1.00  0.00     0.202 C 
BRANCH   3   4
ATOM      4  C   UNL A   1      37.797  29.994  33.332  1.00  0.00     0.261 C 
BRANCH   4   5
ATOM      5  O   UNL A   1      39.228  30.090  33.264  1.00  0.00    -0.460 OA
BRANCH   5   6
ATOM      6  C   UNL A   1      39.903  28.920  33.154  1.00  0.00     0.338 C 
ATOM      7  O   UNL A   1      39.795  28.073  32.286  1.00  0.00    -0.246 OA
BRANCH   6   8
ATOM      8  C   UNL A   1      40.973  28.896  34.175  1.00  0.00     0.061 A 
ATOM      9  C   UNL A   1      43.214  28.206  34.785  1.00  0.00     0.119 A 
ATOM     10  C   UNL A   1      42.130  28.156  33.898  1.00  0.00     0.040 A 
ATOM     11  C   UNL A   1      43.143  28.989  35.930  1.00  0.00     0.143 A 
ATOM     12  C   UNL A   1      41.978  29.703  36.219  1.00  0.00     0.041 A 
ATOM     13  F   UNL A   1      44.171  29.103  36.775  1.00  0.00    -0.206 F 
ATOM     14  C   UNL A   1      40.889  29.660  35.344  1.00  0.00     0.019 A 
BRANCH   9  15
ATOM     15  S   UNL A   1      44.681  27.314  34.394  1.00  0.00     0.245 S 
ATOM     16  O   UNL A   1      45.844  28.133  34.629  1.00  0.00    -0.207 OA
ATOM     17  O   UNL A   1      44.427  26.714  33.105  1.00  0.00    -0.207 OA
BRANCH  15  18
ATOM     18  N   UNL A   1      44.731  26.067  35.552  1.00  0.00    -0.200 NA
ATOM     19  C   UNL A   1      43.492  25.240  35.583  1.00  0.00     0.124 C 
BRANCH  18  20
ATOM     20  C   UNL A   1      45.979  25.290  35.801  1.00  0.00     0.118 C 
BRANCH  20  21
ATOM     21  C   UNL A   1      46.540  25.270  37.211  1.00  0.00     0.153 C 
BRANCH  21  22
ATOM     22  S   UNL A   1      47.360  23.775  37.769  1.00  0.00     0.148 S 
ATOM     23  C   UNL A   1      47.905  24.015  39.443  1.00  0.00     0.158 C 
ATOM     24  O   UNL A   1      46.352  22.731  37.831  1.00  0.00    -0.229 OA
ATOM     25  O   UNL A   1      48.558  23.560  36.985  1.00  0.00    -0.229 OA
ENDBRANCH  21  22
ENDBRANCH  20  21
ENDBRANCH  18  20
ENDBRANCH  15  18
ENDBRANCH   9  15
ENDBRANCH   6   8
ENDBRANCH   5   6
ENDBRANCH   4   5
ENDBRANCH   3   4
ENDBRANCH   2   3
ENDBRANCH   1   2
BRANCH   1  26
ATOM     26  C   UNL A   1      36.368  34.273  31.669  1.00  0.00     0.188 C 
BRANCH  26  27
ATOM     27  O   UNL A   1      35.004  33.961  31.463  1.00  0.00    -0.376 OA
BRANCH  27  28
ATOM     28  C   UNL A   1      34.738  32.822  30.660  1.00  0.00     0.202 C 
BRANCH  28  29
ATOM     29  C   UNL A   1      34.290  33.053  29.206  1.00  0.00     0.261 C 
BRANCH  29  30
ATOM     30  O   UNL A   1      34.977  32.307  28.187  1.00  0.00    -0.460 OA
BRANCH  30  31
ATOM     31  C   UNL A   1      34.798  30.966  28.166  1.00  0.00     0.338 C 
ATOM     32  O   UNL A   1      33.758  30.379  27.927  1.00  0.00    -0.246 OA
BRANCH  31  33
ATOM     33  C   UNL A   1      36.127  30.321  28.304  1.00  0.00     0.060 A 
ATOM     34  C   UNL A   1      36.466  29.730  29.526  1.00  0.00     0.016 A 
ATOM     35  C   UNL A   1      37.033  30.299  27.239  1.00  0.00     0.016 A 
ATOM     36  C   UNL A   1      37.723  29.142  29.691  1.00  0.00     0.010 A 
ATOM     37  C   UNL A   1      38.299  29.719  27.413  1.00  0.00     0.010 A 
ATOM     38  C   UNL A   1      38.659  29.154  28.648  1.00  0.00    -0.014 A 
BRANCH  38  39
ATOM     39  C   UNL A   1      40.061  28.740  28.924  1.00  0.00     0.031 A 
ATOM     40  C   UNL A   1      40.966  29.709  29.636  1.00  0.00     0.074 A 
ATOM     41  C   UNL A   1      40.514  27.511  28.611  1.00  0.00     0.049 A 
ATOM     42  N   UNL A   1      42.220  29.577  29.983  1.00  0.00    -0.248 NA
ATOM     43  C   UNL A   1      40.371  31.003  30.013  1.00  0.00     0.031 C 
ATOM     44  C   UNL A   1      39.726  26.453  27.980  1.00  0.00     0.029 A 
ATOM     45  N   UNL A   1      41.754  26.943  28.788  1.00  0.00    -0.354 N 
ATOM     46  C   UNL A   1      42.560  30.760  30.629  1.00  0.00     0.074 A 
ATOM     47  C   UNL A   1      41.392  31.613  30.596  1.00  0.00     0.031 C 
ATOM     48  C   UNL A   1      40.503  25.367  27.817  1.00  0.00     0.029 A 
ATOM     49  C   UNL A   1      41.850  25.656  28.312  1.00  0.00     0.049 A 
ATOM     50  H   UNL A   1      42.504  27.415  29.217  1.00  0.00     0.167 HD
ATOM     51  C   UNL A   1      43.734  31.102  31.210  1.00  0.00     0.037 A 
ATOM     52  C   UNL A   1      42.903  24.814  28.272  1.00  0.00     0.037 A 
ATOM     53  C   UNL A   1      44.899  30.258  31.241  1.00  0.00     0.049 A 
ATOM     54  C   UNL A   1      44.228  25.249  28.848  1.00  0.00     0.074 A 
ATOM     55  C   UNL A   1      46.140  30.528  31.791  1.00  0.00     0.029 A 
ATOM     56  N   UNL A   1      44.970  28.983  30.700  1.00  0.00    -0.354 N 
ATOM     57  N   UNL A   1      44.539  26.374  29.446  1.00  0.00    -0.248 NA
ATOM     58  C   UNL A   1      45.346  24.298  28.747  1.00  0.00     0.031 C 
ATOM     59  C   UNL A   1      46.976  29.434  31.542  1.00  0.00     0.029 A 
ATOM     60  C   UNL A   1      46.240  28.461  30.886  1.00  0.00     0.049 A 
ATOM     61  H   UNL A   1      44.228  28.518  30.251  1.00  0.00     0.167 HD
ATOM     62  C   UNL A   1      45.875  26.255  29.817  1.00  0.00     0.074 A 
ATOM     63  C   UNL A   1      46.313  24.945  29.383  1.00  0.00     0.031 C 
ATOM     64  C   UNL A   1      46.666  27.150  30.459  1.00  0.00     0.037 A 
BRANCH  51  65
ATOM     65  C   UNL A   1      43.827  32.460  31.844  1.00  0.00     0.058 A 
ATOM     66  C   UNL A   1      43.412  32.654  33.171  1.00  0.00     0.135 A 
ATOM     67  C   UNL A   1      44.278  33.580  31.127  1.00  0.00     0.135 A 
ATOM     68  F   UNL A   1      42.985  31.615  33.906  1.00  0.00    -0.206 F 
ATOM     69  C   UNL A   1      43.422  33.914  33.758  1.00  0.00     0.059 A 
ATOM     70  C   UNL A   1      44.319  34.846  31.703  1.00  0.00     0.059 A 
ATOM     71  F   UNL A   1      44.711  33.443  29.864  1.00  0.00    -0.206 F 
ATOM     72  C   UNL A   1      43.875  35.006  33.016  1.00  0.00     0.060 A 
BRANCH  72  73
ATOM     73  S   UNL A   1      43.902  36.629  33.805  1.00  0.00     0.124 S 
ATOM     74  O   UNL A   1      43.454  37.497  32.722  1.00  0.00    -0.237 OA
ATOM     75  O   UNL A   1      42.962  36.449  34.908  1.00  0.00    -0.237 OA
ATOM     76  O   UNL A   1      45.298  36.788  34.204  1.00  0.00    -0.744 OA
ENDBRANCH  72  73
ENDBRANCH  51  65
BRANCH  52  77
ATOM     77  C   UNL A   1      42.751  23.463  27.663  1.00  0.00     0.058 A 
ATOM     78  C   UNL A   1      42.370  22.356  28.437  1.00  0.00     0.135 A 
ATOM     79  C   UNL A   1      42.984  23.252  26.295  1.00  0.00     0.135 A 
ATOM     80  F   UNL A   1      42.131  22.502  29.749  1.00  0.00    -0.206 F 
ATOM     81  C   UNL A   1      42.255  21.085  27.886  1.00  0.00     0.059 A 
ATOM     82  C   UNL A   1      42.848  21.993  25.714  1.00  0.00     0.059 A 
ATOM     83  F   UNL A   1      43.334  24.281  25.509  1.00  0.00    -0.206 F 
ATOM     84  C   UNL A   1      42.503  20.912  26.523  1.00  0.00     0.060 A 
BRANCH  84  85
ATOM     85  S   UNL A   1      42.378  19.249  25.831  1.00  0.00     0.124 S 
ATOM     86  O   UNL A   1      40.935  19.121  25.649  1.00  0.00    -0.237 OA
ATOM     87  O   UNL A   1      43.166  19.364  24.608  1.00  0.00    -0.237 OA
ATOM     88  O   UNL A   1      42.954  18.406  26.872  1.00  0.00    -0.744 OA
ENDBRANCH  84  85
ENDBRANCH  52  77
BRANCH  64  89
ATOM     89  C   UNL A   1      48.082  26.746  30.772  1.00  0.00     0.058 A 
ATOM     90  C   UNL A   1      48.403  26.194  32.023  1.00  0.00     0.135 A 
ATOM     91  C   UNL A   1      49.133  26.972  29.869  1.00  0.00     0.135 A 
ATOM     92  F   UNL A   1      47.439  25.964  32.929  1.00  0.00    -0.206 F 
ATOM     93  C   UNL A   1      49.715  25.892  32.372  1.00  0.00     0.059 A 
ATOM     94  C   UNL A   1      50.451  26.653  30.187  1.00  0.00     0.059 A 
ATOM     95  F   UNL A   1      48.881  27.491  28.657  1.00  0.00    -0.206 F 
ATOM     96  C   UNL A   1      50.733  26.127  31.448  1.00  0.00     0.060 A 
BRANCH  96  97
ATOM     97  S   UNL A   1      52.428  25.704  31.908  1.00  0.00     0.124 S 
ATOM     98  O   UNL A   1      52.596  26.445  33.152  1.00  0.00    -0.237 OA
ATOM     99  O   UNL A   1      52.360  24.251  32.037  1.00  0.00    -0.237 OA
ATOM    100  O   UNL A   1      53.216  26.187  30.777  1.00  0.00    -0.744 OA
ENDBRANCH  96  97
ENDBRANCH  64  89
ENDBRANCH  38  39
ENDBRANCH  31  33
ENDBRANCH  30  31
ENDBRANCH  29  30
ENDBRANCH  28  29
ENDBRANCH  27  28
ENDBRANCH  26  27
ENDBRANCH   1  26
TORSDOF 25
ENDMDL
MODEL 3
REMARK VINA RESULT:      -8.7      4.313      7.770
REMARK SMILES CN(CCS(C)(=O)=O)S(=O)(=O)c1cc(C(=O)OCCOCCOCCOC(=O)c2ccc(-c3c4nc(c(-c5c(F)cc(S(=O)(=O)[O-])cc5F)c5ccc([nH]5)c(-c5c(F)cc(S(=O)(=O)[O-])cc5F)c5nc(c(-c6c(F)cc(S(=O)(=O)[O-])cc6F)c6ccc3[nH]6)C=C5)C=C4)cc2)ccc1F
REMARK SMILES IDX 21 1 20 2 19 3 18 4 17 5 15 6 16 7 14 8 12 9 13 10 97 11
REMARK SMILES IDX 96 12 98 13 95 14 9 15 10 16 11 17 2 18 1 19 3 20 4 21 5 22
REMARK SMILES IDX 6 23 7 24 8 25 22 26 23 27 24 28 25 29 26 30 27 31 28 32
REMARK SMILES IDX 29 33 30 34 94 35 31 36 93 37 32 38 33 39 34 40 87 41 35 42
REMARK SMILES IDX 92 43 86 44 88 45 36 46 91 47 85 48 84 49 37 51 71 52 50 53
REMARK SMILES IDX 70 54 51 55 54 56 69 57 89 58 52 59 53 60 68 62 90 63 55 64
REMARK SMILES IDX 38 65 39 66 48 67 40 68 41 69 47 70 49 71 42 72 43 73 44 74
REMARK SMILES IDX 45 75 46 76 72 77 73 78 82 79 74 80 75 81 81 82 83 83 76 84
REMARK SMILES IDX 77 85 78 86 79 87 80 88 56 89 57 90 66 91 58 92 59 93 65 94
REMARK SMILES IDX 67 95 60 96 61 97 62 98 63 99 64 100
REMARK H PARENT 88 50 54 61
REMARK Flexibility Score: inf
ROOT
ATOM      1  C   UNL A   1      38.736  33.297  34.570  1.00  0.00     0.188 C 
ENDROOT
BRANCH   1   2
ATOM      2  O   UNL A   1      39.441  32.260  33.897  1.00  0.00    -0.376 OA
BRANCH   2   3
ATOM      3  C   UNL A   1      39.733  31.042  34.569  1.00  0.00     0.202 C 
BRANCH   3   4
ATOM      4  C   UNL A   1      40.716  31.041  35.752  1.00  0.00     0.261 C 
BRANCH   4   5
ATOM      5  O   UNL A   1      41.869  30.204  35.577  1.00  0.00    -0.460 OA
BRANCH   5   6
ATOM      6  C   UNL A   1      41.645  28.867  35.574  1.00  0.00     0.338 C 
ATOM      7  O   UNL A   1      40.861  28.237  36.261  1.00  0.00    -0.246 OA
BRANCH   6   8
ATOM      8  C   UNL A   1      42.382  28.269  34.439  1.00  0.00     0.061 A 
ATOM      9  C   UNL A   1      43.638  26.390  33.568  1.00  0.00     0.119 A 
ATOM     10  C   UNL A   1      43.033  27.046  34.648  1.00  0.00     0.040 A 
ATOM     11  C   UNL A   1      43.588  26.946  32.297  1.00  0.00     0.143 A 
ATOM     12  C   UNL A   1      42.963  28.179  32.096  1.00  0.00     0.041 A 
ATOM     13  F   UNL A   1      44.110  26.329  31.233  1.00  0.00    -0.206 F 
ATOM     14  C   UNL A   1      42.358  28.845  33.165  1.00  0.00     0.019 A 
BRANCH   9  15
ATOM     15  S   UNL A   1      44.405  24.827  33.838  1.00  0.00     0.245 S 
ATOM     16  O   UNL A   1      44.387  24.045  32.627  1.00  0.00    -0.207 OA
ATOM     17  O   UNL A   1      43.831  24.332  35.067  1.00  0.00    -0.207 OA
BRANCH  15  18
ATOM     18  N   UNL A   1      46.037  25.210  34.138  1.00  0.00    -0.200 NA
ATOM     19  C   UNL A   1      46.599  24.507  35.325  1.00  0.00     0.124 C 
BRANCH  18  20
ATOM     20  C   UNL A   1      47.010  25.382  33.022  1.00  0.00     0.118 C 
BRANCH  20  21
ATOM     21  C   UNL A   1      48.263  26.197  33.284  1.00  0.00     0.153 C 
BRANCH  21  22
ATOM     22  S   UNL A   1      48.283  27.907  32.740  1.00  0.00     0.148 S 
ATOM     23  C   UNL A   1      47.573  27.994  31.114  1.00  0.00     0.158 C 
ATOM     24  O   UNL A   1      47.374  28.642  33.604  1.00  0.00    -0.229 OA
ATOM     25  O   UNL A   1      49.652  28.355  32.604  1.00  0.00    -0.229 OA
ENDBRANCH  21  22
ENDBRANCH  20  21
ENDBRANCH  18  20
ENDBRANCH  15  18
ENDBRANCH   9  15
ENDBRANCH   6   8
ENDBRANCH   5   6
ENDBRANCH   4   5
ENDBRANCH   3   4
ENDBRANCH   2   3
ENDBRANCH   1   2
BRANCH   1  26
ATOM     26  C   UNL A   1      38.210  34.513  33.779  1.00  0.00     0.188 C 
BRANCH  26  27
ATOM     27  O   UNL A   1      36.805  34.659  33.832  1.00  0.00    -0.376 OA
BRANCH  27  28
ATOM     28  C   UNL A   1      36.084  34.194  32.701  1.00  0.00     0.202 C 
BRANCH  28  29
ATOM     29  C   UNL A   1      35.541  32.754  32.734  1.00  0.00     0.261 C 
BRANCH  29  30
ATOM     30  O   UNL A   1      36.365  31.734  32.145  1.00  0.00    -0.460 OA
BRANCH  30  31
ATOM     31  C   UNL A   1      36.228  31.510  30.818  1.00  0.00     0.338 C 
ATOM     32  O   UNL A   1      35.329  31.918  30.104  1.00  0.00    -0.246 OA
BRANCH  31  33
ATOM     33  C   UNL A   1      37.457  30.835  30.335  1.00  0.00     0.060 A 
ATOM     34  C   UNL A   1      38.389  30.378  31.273  1.00  0.00     0.016 A 
ATOM     35  C   UNL A   1      37.693  30.653  28.968  1.00  0.00     0.016 A 
ATOM     36  C   UNL A   1      39.569  29.765  30.844  1.00  0.00     0.010 A 
ATOM     37  C   UNL A   1      38.884  30.048  28.541  1.00  0.00     0.010 A 
ATOM     38  C   UNL A   1      39.840  29.618  29.476  1.00  0.00    -0.014 A 
BRANCH  38  39
ATOM     39  C   UNL A   1      41.197  29.185  29.046  1.00  0.00     0.031 A 
ATOM     40  C   UNL A   1      42.315  30.192  29.089  1.00  0.00     0.074 A 
ATOM     41  C   UNL A   1      41.455  27.915  28.684  1.00  0.00     0.049 A 
ATOM     42  N   UNL A   1      43.575  30.051  28.764  1.00  0.00    -0.248 NA
ATOM     43  C   UNL A   1      41.965  31.539  29.572  1.00  0.00     0.031 C 
ATOM     44  C   UNL A   1      40.481  26.826  28.661  1.00  0.00     0.029 A 
ATOM     45  N   UNL A   1      42.627  27.324  28.268  1.00  0.00    -0.354 N 
ATOM     46  C   UNL A   1      44.168  31.283  29.014  1.00  0.00     0.074 A 
ATOM     47  C   UNL A   1      43.126  32.169  29.484  1.00  0.00     0.031 C 
ATOM     48  C   UNL A   1      41.092  25.701  28.246  1.00  0.00     0.029 A 
ATOM     49  C   UNL A   1      42.496  25.992  27.954  1.00  0.00     0.049 A 
ATOM     50  H   UNL A   1      43.479  27.811  28.202  1.00  0.00     0.167 HD
ATOM     51  C   UNL A   1      45.467  31.642  28.876  1.00  0.00     0.037 A 
ATOM     52  C   UNL A   1      43.402  25.112  27.478  1.00  0.00     0.037 A 
ATOM     53  C   UNL A   1      46.504  30.765  28.404  1.00  0.00     0.049 A 
ATOM     54  C   UNL A   1      44.825  25.557  27.250  1.00  0.00     0.074 A 
ATOM     55  C   UNL A   1      47.846  31.046  28.215  1.00  0.00     0.029 A 
ATOM     56  N   UNL A   1      46.320  29.438  28.046  1.00  0.00    -0.354 N 
ATOM     57  N   UNL A   1      45.371  26.727  27.479  1.00  0.00    -0.248 NA
ATOM     58  C   UNL A   1      45.758  24.561  26.700  1.00  0.00     0.031 C 
ATOM     59  C   UNL A   1      48.464  29.903  27.697  1.00  0.00     0.029 A 
ATOM     60  C   UNL A   1      47.519  28.893  27.618  1.00  0.00     0.049 A 
ATOM     61  H   UNL A   1      45.463  28.955  28.090  1.00  0.00     0.167 HD
ATOM     62  C   UNL A   1      46.712  26.601  27.131  1.00  0.00     0.074 A 
ATOM     63  C   UNL A   1      46.900  25.237  26.682  1.00  0.00     0.031 C 
ATOM     64  C   UNL A   1      47.700  27.530  27.181  1.00  0.00     0.037 A 
BRANCH  51  65
ATOM     65  C   UNL A   1      45.838  33.055  29.222  1.00  0.00     0.058 A 
ATOM     66  C   UNL A   1      45.675  34.083  28.280  1.00  0.00     0.135 A 
ATOM     67  C   UNL A   1      46.403  33.388  30.464  1.00  0.00     0.135 A 
ATOM     68  F   UNL A   1      45.129  33.824  27.082  1.00  0.00    -0.206 F 
ATOM     69  C   UNL A   1      46.076  35.387  28.550  1.00  0.00     0.059 A 
ATOM     70  C   UNL A   1      46.789  34.690  30.764  1.00  0.00     0.059 A 
ATOM     71  F   UNL A   1      46.556  32.446  31.409  1.00  0.00    -0.206 F 
ATOM     72  C   UNL A   1      46.636  35.681  29.795  1.00  0.00     0.060 A 
BRANCH  72  73
ATOM     73  S   UNL A   1      47.128  37.384  30.134  1.00  0.00     0.124 S 
ATOM     74  O   UNL A   1      48.563  37.337  29.882  1.00  0.00    -0.237 OA
ATOM     75  O   UNL A   1      46.333  38.131  29.163  1.00  0.00    -0.237 OA
ATOM     76  O   UNL A   1      46.739  37.578  31.528  1.00  0.00    -0.744 OA
ENDBRANCH  72  73
ENDBRANCH  51  65
BRANCH  52  77
ATOM     77  C   UNL A   1      42.992  23.711  27.183  1.00  0.00     0.058 A 
ATOM     78  C   UNL A   1      42.863  22.761  28.208  1.00  0.00     0.135 A 
ATOM     79  C   UNL A   1      42.722  23.293  25.870  1.00  0.00     0.135 A 
ATOM     80  F   UNL A   1      43.105  23.107  29.481  1.00  0.00    -0.206 F 
ATOM     81  C   UNL A   1      42.511  21.442  27.941  1.00  0.00     0.059 A 
ATOM     82  C   UNL A   1      42.342  21.985  25.581  1.00  0.00     0.059 A 
ATOM     83  F   UNL A   1      42.816  24.167  24.856  1.00  0.00    -0.206 F 
ATOM     84  C   UNL A   1      42.259  21.062  26.622  1.00  0.00     0.060 A 
BRANCH  84  85
ATOM     85  S   UNL A   1      41.833  19.339  26.291  1.00  0.00     0.124 S 
ATOM     86  O   UNL A   1      40.381  19.420  26.164  1.00  0.00    -0.237 OA
ATOM     87  O   UNL A   1      42.567  19.071  25.058  1.00  0.00    -0.237 OA
ATOM     88  O   UNL A   1      42.319  18.638  27.475  1.00  0.00    -0.744 OA
ENDBRANCH  84  85
ENDBRANCH  52  77
BRANCH  64  89
ATOM     89  C   UNL A   1      49.087  27.110  26.773  1.00  0.00     0.058 A 
ATOM     90  C   UNL A   1      49.514  27.264  25.444  1.00  0.00     0.135 A 
ATOM     91  C   UNL A   1      49.967  26.490  27.674  1.00  0.00     0.135 A 
ATOM     92  F   UNL A   1      48.710  27.843  24.537  1.00  0.00    -0.206 F 
ATOM     93  C   UNL A   1      50.756  26.807  25.019  1.00  0.00     0.059 A 
ATOM     94  C   UNL A   1      51.227  26.048  27.277  1.00  0.00     0.059 A 
ATOM     95  F   UNL A   1      49.612  26.324  28.958  1.00  0.00    -0.206 F 
ATOM     96  C   UNL A   1      51.606  26.198  25.942  1.00  0.00     0.060 A 
BRANCH  96  97
ATOM     97  S   UNL A   1      53.228  25.635  25.380  1.00  0.00     0.124 S 
ATOM     98  O   UNL A   1      53.174  24.211  25.690  1.00  0.00    -0.237 OA
ATOM     99  O   UNL A   1      53.200  25.979  23.961  1.00  0.00    -0.237 OA
ATOM    100  O   UNL A   1      54.157  26.419  26.188  1.00  0.00    -0.744 OA
ENDBRANCH  96  97
ENDBRANCH  64  89
ENDBRANCH  38  39
ENDBRANCH  31  33
ENDBRANCH  30  31
ENDBRANCH  29  30
ENDBRANCH  28  29
ENDBRANCH  27  28
ENDBRANCH  26  27
ENDBRANCH   1  26
TORSDOF 25
ENDMDL
