MODEL 1
REMARK VINA RESULT:     -10.5      0.000      0.000
REMARK SMILES C[C@@H]1[C@H](C(=O)OCCOCCOCCOC(=O)c2ccc(-c3c4nc(c(-c5c(F)cc(S(=O)(=O)[O-])cc5F)c5ccc([nH]5)c(-c5c(F)cc(S(=O)(=O)[O-])cc5F)c5nc(c(-c6c(F)cc(S(=O)(=O)[O-])cc6F)c6ccc3[nH]6)C=C5)C=C4)cc2)CCN1S(=O)(=O)c1cc(F)cc(F)c1
REMARK SMILES IDX 11 1 10 2 9 3 8 4 7 5 6 6 4 7 5 8 3 9 1 10 2 11 86 12 84 13
REMARK SMILES IDX 85 14 87 15 88 16 89 17 90 18 91 19 97 20 92 21 95 22 93 23
REMARK SMILES IDX 94 24 96 25 12 26 13 27 14 28 15 29 16 30 17 31 18 32 19 33
REMARK SMILES IDX 83 34 20 35 82 36 21 37 22 38 23 39 76 40 24 41 81 42 75 43
REMARK SMILES IDX 77 44 25 45 80 46 74 47 73 48 26 50 60 51 39 52 59 53 40 54
REMARK SMILES IDX 43 55 58 56 78 57 41 58 42 59 57 61 79 62 44 63 27 64 28 65
REMARK SMILES IDX 37 66 29 67 30 68 36 69 38 70 31 71 32 72 33 73 34 74 35 75
REMARK SMILES IDX 61 76 62 77 71 78 63 79 64 80 70 81 72 82 65 83 66 84 67 85
REMARK SMILES IDX 68 86 69 87 45 88 46 89 55 90 47 91 48 92 54 93 56 94 49 95
REMARK SMILES IDX 50 96 51 97 52 98 53 99
REMARK H PARENT 77 49 43 60
REMARK Flexibility Score: inf
ROOT
ATOM      1  C   UNL A   1      34.777  31.177  27.562  1.00  0.00     0.188 C 
ENDROOT
BRANCH   1   2
ATOM      2  C   UNL A   1      33.344  30.738  27.244  1.00  0.00     0.188 C 
BRANCH   2   3
ATOM      3  O   UNL A   1      33.095  30.119  25.996  1.00  0.00    -0.376 OA
BRANCH   3   4
ATOM      4  C   UNL A   1      31.814  29.519  25.802  1.00  0.00     0.202 C 
BRANCH   4   5
ATOM      5  C   UNL A   1      31.221  29.531  24.392  1.00  0.00     0.261 C 
BRANCH   5   6
ATOM      6  O   UNL A   1      30.341  28.399  24.248  1.00  0.00    -0.463 OA
BRANCH   6   7
ATOM      7  C   UNL A   1      30.270  27.868  23.005  1.00  0.00     0.310 C 
ATOM      8  O   UNL A   1      30.100  28.526  21.987  1.00  0.00    -0.252 OA
BRANCH   7   9
ATOM      9  C   UNL A   1      30.570  26.385  23.014  1.00  0.00     0.118 C 
ATOM     10  C   UNL A   1      33.072  26.833  22.556  1.00  0.00     0.027 C 
ATOM     11  C   UNL A   1      31.888  25.890  22.384  1.00  0.00     0.084 C 
ATOM     12  N   UNL A   1      32.088  24.535  23.016  1.00  0.00    -0.194 NA
ATOM     13  C   UNL A   1      30.664  25.863  24.435  1.00  0.00     0.034 C 
ATOM     14  C   UNL A   1      31.257  24.480  24.262  1.00  0.00     0.104 C 
BRANCH  12  15
ATOM     15  S   UNL A   1      33.568  23.722  23.162  1.00  0.00     0.243 S 
ATOM     16  O   UNL A   1      34.022  23.332  21.846  1.00  0.00    -0.207 OA
ATOM     17  O   UNL A   1      34.404  24.575  23.987  1.00  0.00    -0.207 OA
BRANCH  15  18
ATOM     18  C   UNL A   1      33.349  22.233  24.104  1.00  0.00     0.088 A 
ATOM     19  C   UNL A   1      33.871  22.233  25.409  1.00  0.00     0.061 A 
ATOM     20  C   UNL A   1      32.746  21.082  23.607  1.00  0.00     0.061 A 
ATOM     21  C   UNL A   1      33.800  21.081  26.185  1.00  0.00     0.127 A 
ATOM     22  C   UNL A   1      32.690  19.942  24.407  1.00  0.00     0.127 A 
ATOM     23  F   UNL A   1      34.329  21.082  27.415  1.00  0.00    -0.207 F 
ATOM     24  C   UNL A   1      33.214  19.926  25.693  1.00  0.00     0.078 A 
ATOM     25  F   UNL A   1      32.148  18.822  23.911  1.00  0.00    -0.207 F 
ENDBRANCH  15  18
ENDBRANCH  12  15
ENDBRANCH   7   9
ENDBRANCH   6   7
ENDBRANCH   5   6
ENDBRANCH   4   5
ENDBRANCH   3   4
ENDBRANCH   2   3
ENDBRANCH   1   2
BRANCH   1  26
ATOM     26  O   UNL A   1      35.118  32.514  27.872  1.00  0.00    -0.376 OA
BRANCH  26  27
ATOM     27  C   UNL A   1      34.671  33.131  29.074  1.00  0.00     0.202 C 
BRANCH  27  28
ATOM     28  C   UNL A   1      35.556  33.416  30.306  1.00  0.00     0.261 C 
BRANCH  28  29
ATOM     29  O   UNL A   1      36.850  32.829  30.329  1.00  0.00    -0.460 OA
BRANCH  29  30
ATOM     30  C   UNL A   1      36.911  31.594  30.891  1.00  0.00     0.338 C 
ATOM     31  O   UNL A   1      36.044  31.033  31.531  1.00  0.00    -0.246 OA
BRANCH  30  32
ATOM     32  C   UNL A   1      38.128  30.940  30.359  1.00  0.00     0.060 A 
ATOM     33  C   UNL A   1      39.004  30.345  31.277  1.00  0.00     0.016 A 
ATOM     34  C   UNL A   1      38.342  30.815  28.983  1.00  0.00     0.016 A 
ATOM     35  C   UNL A   1      40.115  29.638  30.819  1.00  0.00     0.010 A 
ATOM     36  C   UNL A   1      39.467  30.128  28.527  1.00  0.00     0.010 A 
ATOM     37  C   UNL A   1      40.369  29.561  29.443  1.00  0.00    -0.014 A 
BRANCH  37  38
ATOM     38  C   UNL A   1      41.690  29.093  28.966  1.00  0.00     0.031 A 
ATOM     39  C   UNL A   1      42.795  30.108  28.879  1.00  0.00     0.074 A 
ATOM     40  C   UNL A   1      41.908  27.812  28.620  1.00  0.00     0.049 A 
ATOM     41  N   UNL A   1      44.012  29.975  28.425  1.00  0.00    -0.248 NA
ATOM     42  C   UNL A   1      42.479  31.461  29.370  1.00  0.00     0.031 C 
ATOM     43  C   UNL A   1      40.928  26.730  28.704  1.00  0.00     0.029 A 
ATOM     44  N   UNL A   1      43.034  27.210  28.117  1.00  0.00    -0.354 N 
ATOM     45  C   UNL A   1      44.607  31.221  28.577  1.00  0.00     0.074 A 
ATOM     46  C   UNL A   1      43.611  32.106  29.137  1.00  0.00     0.031 C 
ATOM     47  C   UNL A   1      41.494  25.595  28.251  1.00  0.00     0.029 A 
ATOM     48  C   UNL A   1      42.862  25.879  27.818  1.00  0.00     0.049 A 
ATOM     49  H   UNL A   1      43.884  27.686  27.982  1.00  0.00     0.167 HD
ATOM     50  C   UNL A   1      45.874  31.593  28.285  1.00  0.00     0.037 A 
ATOM     51  C   UNL A   1      43.709  25.003  27.241  1.00  0.00     0.037 A 
ATOM     52  C   UNL A   1      46.857  30.717  27.713  1.00  0.00     0.049 A 
ATOM     53  C   UNL A   1      45.089  25.465  26.840  1.00  0.00     0.074 A 
ATOM     54  C   UNL A   1      48.165  31.000  27.364  1.00  0.00     0.029 A 
ATOM     55  N   UNL A   1      46.636  29.384  27.397  1.00  0.00    -0.354 N 
ATOM     56  N   UNL A   1      45.643  26.645  26.994  1.00  0.00    -0.248 NA
ATOM     57  C   UNL A   1      45.958  24.477  26.184  1.00  0.00     0.031 C 
ATOM     58  C   UNL A   1      48.726  29.848  26.803  1.00  0.00     0.029 A 
ATOM     59  C   UNL A   1      47.780  28.834  26.845  1.00  0.00     0.049 A 
ATOM     60  H   UNL A   1      45.792  28.900  27.546  1.00  0.00     0.167 HD
ATOM     61  C   UNL A   1      46.933  26.530  26.483  1.00  0.00     0.074 A 
ATOM     62  C   UNL A   1      47.080  25.167  26.021  1.00  0.00     0.031 C 
ATOM     63  C   UNL A   1      47.910  27.468  26.406  1.00  0.00     0.037 A 
BRANCH  50  64
ATOM     64  C   UNL A   1      46.251  33.019  28.561  1.00  0.00     0.058 A 
ATOM     65  C   UNL A   1      46.810  33.403  29.790  1.00  0.00     0.135 A 
ATOM     66  C   UNL A   1      46.060  34.009  27.585  1.00  0.00     0.135 A 
ATOM     67  F   UNL A   1      46.987  32.499  30.766  1.00  0.00    -0.206 F 
ATOM     68  C   UNL A   1      47.149  34.727  30.049  1.00  0.00     0.059 A 
ATOM     69  C   UNL A   1      46.413  35.335  27.814  1.00  0.00     0.059 A 
ATOM     70  F   UNL A   1      45.516  33.693  26.399  1.00  0.00    -0.206 F 
ATOM     71  C   UNL A   1      46.945  35.685  29.054  1.00  0.00     0.060 A 
BRANCH  71  72
ATOM     72  S   UNL A   1      47.394  37.398  29.403  1.00  0.00     0.124 S 
ATOM     73  O   UNL A   1      48.746  37.461  28.853  1.00  0.00    -0.237 OA
ATOM     74  O   UNL A   1      46.378  38.145  28.670  1.00  0.00    -0.237 OA
ATOM     75  O   UNL A   1      47.304  37.484  30.857  1.00  0.00    -0.744 OA
ENDBRANCH  71  72
ENDBRANCH  50  64
BRANCH  51  76
ATOM     76  C   UNL A   1      43.283  23.601  26.983  1.00  0.00     0.058 A 
ATOM     77  C   UNL A   1      42.955  23.170  25.689  1.00  0.00     0.135 A 
ATOM     78  C   UNL A   1      43.161  22.674  28.030  1.00  0.00     0.135 A 
ATOM     79  F   UNL A   1      43.042  24.024  24.657  1.00  0.00    -0.206 F 
ATOM     80  C   UNL A   1      42.502  21.878  25.443  1.00  0.00     0.059 A 
ATOM     81  C   UNL A   1      42.734  21.369  27.806  1.00  0.00     0.059 A 
ATOM     82  F   UNL A   1      43.469  23.033  29.286  1.00  0.00    -0.206 F 
ATOM     83  C   UNL A   1      42.393  20.984  26.509  1.00  0.00     0.060 A 
BRANCH  83  84
ATOM     84  S   UNL A   1      41.834  19.299  26.177  1.00  0.00     0.124 S 
ATOM     85  O   UNL A   1      40.405  19.501  25.966  1.00  0.00    -0.237 OA
ATOM     86  O   UNL A   1      42.612  18.945  24.993  1.00  0.00    -0.237 OA
ATOM     87  O   UNL A   1      42.199  18.581  27.395  1.00  0.00    -0.744 OA
ENDBRANCH  83  84
ENDBRANCH  51  76
BRANCH  63  88
ATOM     88  C   UNL A   1      49.238  27.047  25.843  1.00  0.00     0.058 A 
ATOM     89  C   UNL A   1      49.595  27.315  24.512  1.00  0.00     0.135 A 
ATOM     90  C   UNL A   1      50.193  26.428  26.667  1.00  0.00     0.135 A 
ATOM     91  F   UNL A   1      48.716  27.901  23.682  1.00  0.00    -0.206 F 
ATOM     92  C   UNL A   1      50.845  26.967  24.012  1.00  0.00     0.059 A 
ATOM     93  C   UNL A   1      51.458  26.094  26.194  1.00  0.00     0.059 A 
ATOM     94  F   UNL A   1      49.906  26.162  27.951  1.00  0.00    -0.206 F 
ATOM     95  C   UNL A   1      51.772  26.359  24.862  1.00  0.00     0.060 A 
BRANCH  95  96
ATOM     96  S   UNL A   1      53.407  25.951  24.215  1.00  0.00     0.124 S 
ATOM     97  O   UNL A   1      53.162  25.952  22.776  1.00  0.00    -0.237 OA
ATOM     98  O   UNL A   1      54.227  27.049  24.718  1.00  0.00    -0.237 OA
ATOM     99  O   UNL A   1      53.689  24.645  24.803  1.00  0.00    -0.744 OA
ENDBRANCH  95  96
ENDBRANCH  63  88
ENDBRANCH  37  38
ENDBRANCH  30  32
ENDBRANCH  29  30
ENDBRANCH  28  29
ENDBRANCH  27  28
ENDBRANCH  26  27
ENDBRANCH   1  26
TORSDOF 22
ENDMDL
MODEL 2
REMARK VINA RESULT:     -10.4      5.862     10.664
REMARK SMILES C[C@@H]1[C@H](C(=O)OCCOCCOCCOC(=O)c2ccc(-c3c4nc(c(-c5c(F)cc(S(=O)(=O)[O-])cc5F)c5ccc([nH]5)c(-c5c(F)cc(S(=O)(=O)[O-])cc5F)c5nc(c(-c6c(F)cc(S(=O)(=O)[O-])cc6F)c6ccc3[nH]6)C=C5)C=C4)cc2)CCN1S(=O)(=O)c1cc(F)cc(F)c1
REMARK SMILES IDX 11 1 10 2 9 3 8 4 7 5 6 6 4 7 5 8 3 9 1 10 2 11 86 12 84 13
REMARK SMILES IDX 85 14 87 15 88 16 89 17 90 18 91 19 97 20 92 21 95 22 93 23
REMARK SMILES IDX 94 24 96 25 12 26 13 27 14 28 15 29 16 30 17 31 18 32 19 33
REMARK SMILES IDX 83 34 20 35 82 36 21 37 22 38 23 39 76 40 24 41 81 42 75 43
REMARK SMILES IDX 77 44 25 45 80 46 74 47 73 48 26 50 60 51 39 52 59 53 40 54
REMARK SMILES IDX 43 55 58 56 78 57 41 58 42 59 57 61 79 62 44 63 27 64 28 65
REMARK SMILES IDX 37 66 29 67 30 68 36 69 38 70 31 71 32 72 33 73 34 74 35 75
REMARK SMILES IDX 61 76 62 77 71 78 63 79 64 80 70 81 72 82 65 83 66 84 67 85
REMARK SMILES IDX 68 86 69 87 45 88 46 89 55 90 47 91 48 92 54 93 56 94 49 95
REMARK SMILES IDX 50 96 51 97 52 98 53 99
REMARK H PARENT 77 49 43 60
REMARK Flexibility Score: inf
ROOT
ATOM      1  C   UNL A   1      35.007  30.110  27.477  1.00  0.00     0.188 C 
ENDROOT
BRANCH   1   2
ATOM      2  C   UNL A   1      34.013  29.022  27.055  1.00  0.00     0.188 C 
BRANCH   2   3
ATOM      3  O   UNL A   1      33.638  28.952  25.694  1.00  0.00    -0.376 OA
BRANCH   3   4
ATOM      4  C   UNL A   1      32.359  28.393  25.391  1.00  0.00     0.202 C 
BRANCH   4   5
ATOM      5  C   UNL A   1      32.291  27.278  24.346  1.00  0.00     0.261 C 
BRANCH   5   6
ATOM      6  O   UNL A   1      31.082  26.522  24.551  1.00  0.00    -0.463 OA
BRANCH   6   7
ATOM      7  C   UNL A   1      31.115  25.629  25.567  1.00  0.00     0.310 C 
ATOM      8  O   UNL A   1      30.859  25.904  26.731  1.00  0.00    -0.252 OA
BRANCH   7   9
ATOM      9  C   UNL A   1      31.368  24.224  25.065  1.00  0.00     0.118 C 
ATOM     10  C   UNL A   1      33.815  24.313  25.888  1.00  0.00     0.027 C 
ATOM     11  C   UNL A   1      32.825  23.755  24.873  1.00  0.00     0.084 C 
ATOM     12  N   UNL A   1      32.713  22.251  24.891  1.00  0.00    -0.194 NA
ATOM     13  C   UNL A   1      30.815  23.196  26.034  1.00  0.00     0.034 C 
ATOM     14  C   UNL A   1      31.413  21.894  25.545  1.00  0.00     0.104 C 
BRANCH  12  15
ATOM     15  S   UNL A   1      33.966  21.171  25.259  1.00  0.00     0.243 S 
ATOM     16  O   UNL A   1      35.205  21.688  24.721  1.00  0.00    -0.207 OA
ATOM     17  O   UNL A   1      33.854  20.910  26.682  1.00  0.00    -0.207 OA
BRANCH  15  18
ATOM     18  C   UNL A   1      33.666  19.607  24.474  1.00  0.00     0.088 A 
ATOM     19  C   UNL A   1      34.527  18.554  24.823  1.00  0.00     0.061 A 
ATOM     20  C   UNL A   1      32.676  19.395  23.519  1.00  0.00     0.061 A 
ATOM     21  C   UNL A   1      34.399  17.317  24.200  1.00  0.00     0.127 A 
ATOM     22  C   UNL A   1      32.572  18.145  22.910  1.00  0.00     0.127 A 
ATOM     23  F   UNL A   1      35.247  16.330  24.517  1.00  0.00    -0.207 F 
ATOM     24  C   UNL A   1      33.426  17.101  23.238  1.00  0.00     0.078 A 
ATOM     25  F   UNL A   1      31.647  17.956  21.961  1.00  0.00    -0.207 F 
ENDBRANCH  15  18
ENDBRANCH  12  15
ENDBRANCH   7   9
ENDBRANCH   6   7
ENDBRANCH   5   6
ENDBRANCH   4   5
ENDBRANCH   3   4
ENDBRANCH   2   3
ENDBRANCH   1   2
BRANCH   1  26
ATOM     26  O   UNL A   1      34.637  31.465  27.644  1.00  0.00    -0.376 OA
BRANCH  26  27
ATOM     27  C   UNL A   1      33.272  31.867  27.613  1.00  0.00     0.202 C 
BRANCH  27  28
ATOM     28  C   UNL A   1      32.781  33.323  27.465  1.00  0.00     0.261 C 
BRANCH  28  29
ATOM     29  O   UNL A   1      32.538  34.054  28.659  1.00  0.00    -0.460 OA
BRANCH  29  30
ATOM     30  C   UNL A   1      33.435  35.040  28.923  1.00  0.00     0.338 C 
ATOM     31  O   UNL A   1      33.255  36.238  28.843  1.00  0.00    -0.246 OA
BRANCH  30  32
ATOM     32  C   UNL A   1      34.595  34.400  29.582  1.00  0.00     0.060 A 
ATOM     33  C   UNL A   1      34.344  33.567  30.682  1.00  0.00     0.016 A 
ATOM     34  C   UNL A   1      35.886  34.523  29.061  1.00  0.00     0.016 A 
ATOM     35  C   UNL A   1      35.392  32.871  31.279  1.00  0.00     0.010 A 
ATOM     36  C   UNL A   1      36.939  33.844  29.675  1.00  0.00     0.010 A 
ATOM     37  C   UNL A   1      36.699  33.037  30.800  1.00  0.00    -0.014 A 
BRANCH  37  38
ATOM     38  C   UNL A   1      37.844  32.559  31.608  1.00  0.00     0.031 A 
ATOM     39  C   UNL A   1      38.618  31.382  31.084  1.00  0.00     0.074 A 
ATOM     40  C   UNL A   1      38.190  33.147  32.767  1.00  0.00     0.049 A 
ATOM     41  N   UNL A   1      39.606  30.728  31.632  1.00  0.00    -0.248 NA
ATOM     42  C   UNL A   1      38.216  30.873  29.761  1.00  0.00     0.031 C 
ATOM     43  C   UNL A   1      37.544  34.320  33.352  1.00  0.00     0.029 A 
ATOM     44  N   UNL A   1      39.175  32.820  33.664  1.00  0.00    -0.354 N 
ATOM     45  C   UNL A   1      39.946  29.734  30.723  1.00  0.00     0.074 A 
ATOM     46  C   UNL A   1      39.041  29.850  29.602  1.00  0.00     0.031 C 
ATOM     47  C   UNL A   1      38.143  34.607  34.523  1.00  0.00     0.029 A 
ATOM     48  C   UNL A   1      39.191  33.620  34.783  1.00  0.00     0.049 A 
ATOM     49  H   UNL A   1      39.811  32.083  33.522  1.00  0.00     0.167 HD
ATOM     50  C   UNL A   1      40.931  28.811  30.810  1.00  0.00     0.037 A 
ATOM     51  C   UNL A   1      39.951  33.544  35.893  1.00  0.00     0.037 A 
ATOM     52  C   UNL A   1      41.818  28.686  31.932  1.00  0.00     0.049 A 
ATOM     53  C   UNL A   1      40.984  32.449  36.007  1.00  0.00     0.074 A 
ATOM     54  C   UNL A   1      42.840  27.774  32.125  1.00  0.00     0.029 A 
ATOM     55  N   UNL A   1      41.783  29.496  33.058  1.00  0.00    -0.354 N 
ATOM     56  N   UNL A   1      41.300  31.518  35.138  1.00  0.00    -0.248 NA
ATOM     57  C   UNL A   1      41.761  32.394  37.255  1.00  0.00     0.031 C 
ATOM     58  C   UNL A   1      43.400  28.009  33.385  1.00  0.00     0.029 A 
ATOM     59  C   UNL A   1      42.757  29.096  33.957  1.00  0.00     0.049 A 
ATOM     60  H   UNL A   1      41.160  30.245  33.197  1.00  0.00     0.167 HD
ATOM     61  C   UNL A   1      42.333  30.788  35.722  1.00  0.00     0.074 A 
ATOM     62  C   UNL A   1      42.591  31.387  37.014  1.00  0.00     0.031 C 
ATOM     63  C   UNL A   1      43.009  29.718  35.232  1.00  0.00     0.037 A 
BRANCH  50  64
ATOM     64  C   UNL A   1      41.076  27.853  29.664  1.00  0.00     0.058 A 
ATOM     65  C   UNL A   1      40.155  26.815  29.456  1.00  0.00     0.135 A 
ATOM     66  C   UNL A   1      42.143  27.978  28.761  1.00  0.00     0.135 A 
ATOM     67  F   UNL A   1      39.134  26.636  30.309  1.00  0.00    -0.206 F 
ATOM     68  C   UNL A   1      40.296  25.921  28.400  1.00  0.00     0.059 A 
ATOM     69  C   UNL A   1      42.291  27.109  27.684  1.00  0.00     0.059 A 
ATOM     70  F   UNL A   1      43.058  28.947  28.925  1.00  0.00    -0.206 F 
ATOM     71  C   UNL A   1      41.369  26.076  27.521  1.00  0.00     0.060 A 
BRANCH  71  72
ATOM     72  S   UNL A   1      41.537  24.911  26.153  1.00  0.00     0.124 S 
ATOM     73  O   UNL A   1      41.348  25.789  25.000  1.00  0.00    -0.237 OA
ATOM     74  O   UNL A   1      42.890  24.398  26.342  1.00  0.00    -0.237 OA
ATOM     75  O   UNL A   1      40.465  23.950  26.391  1.00  0.00    -0.744 OA
ENDBRANCH  71  72
ENDBRANCH  50  64
BRANCH  51  76
ATOM     76  C   UNL A   1      39.762  34.516  37.004  1.00  0.00     0.058 A 
ATOM     77  C   UNL A   1      40.479  35.721  37.041  1.00  0.00     0.135 A 
ATOM     78  C   UNL A   1      38.887  34.244  38.067  1.00  0.00     0.135 A 
ATOM     79  F   UNL A   1      41.339  36.019  36.055  1.00  0.00    -0.206 F 
ATOM     80  C   UNL A   1      40.353  36.612  38.102  1.00  0.00     0.059 A 
ATOM     81  C   UNL A   1      38.724  35.131  39.126  1.00  0.00     0.059 A 
ATOM     82  F   UNL A   1      38.171  33.109  38.076  1.00  0.00    -0.206 F 
ATOM     83  C   UNL A   1      39.473  36.308  39.142  1.00  0.00     0.060 A 
BRANCH  83  84
ATOM     84  S   UNL A   1      39.292  37.485  40.500  1.00  0.00     0.124 S 
ATOM     85  O   UNL A   1      38.914  36.606  41.600  1.00  0.00    -0.237 OA
ATOM     86  O   UNL A   1      40.628  38.070  40.579  1.00  0.00    -0.237 OA
ATOM     87  O   UNL A   1      38.249  38.387  40.022  1.00  0.00    -0.744 OA
ENDBRANCH  83  84
ENDBRANCH  51  76
BRANCH  63  88
ATOM     88  C   UNL A   1      44.121  29.152  36.069  1.00  0.00     0.058 A 
ATOM     89  C   UNL A   1      43.930  28.030  36.890  1.00  0.00     0.135 A 
ATOM     90  C   UNL A   1      45.412  29.700  35.995  1.00  0.00     0.135 A 
ATOM     91  F   UNL A   1      42.714  27.471  36.998  1.00  0.00    -0.206 F 
ATOM     92  C   UNL A   1      44.977  27.481  37.623  1.00  0.00     0.059 A 
ATOM     93  C   UNL A   1      46.479  29.153  36.700  1.00  0.00     0.059 A 
ATOM     94  F   UNL A   1      45.650  30.766  35.214  1.00  0.00    -0.206 F 
ATOM     95  C   UNL A   1      46.249  28.048  37.520  1.00  0.00     0.060 A 
BRANCH  95  96
ATOM     96  S   UNL A   1      47.611  27.302  38.442  1.00  0.00     0.124 S 
ATOM     97  O   UNL A   1      47.838  26.074  37.686  1.00  0.00    -0.237 OA
ATOM     98  O   UNL A   1      48.656  28.315  38.332  1.00  0.00    -0.237 OA
ATOM     99  O   UNL A   1      47.057  27.123  39.780  1.00  0.00    -0.744 OA
ENDBRANCH  95  96
ENDBRANCH  63  88
ENDBRANCH  37  38
ENDBRANCH  30  32
ENDBRANCH  29  30
ENDBRANCH  28  29
ENDBRANCH  27  28
ENDBRANCH  26  27
ENDBRANCH   1  26
TORSDOF 22
ENDMDL
MODEL 3
REMARK VINA RESULT:     -10.4      6.061      8.247
REMARK SMILES C[C@@H]1[C@H](C(=O)OCCOCCOCCOC(=O)c2ccc(-c3c4nc(c(-c5c(F)cc(S(=O)(=O)[O-])cc5F)c5ccc([nH]5)c(-c5c(F)cc(S(=O)(=O)[O-])cc5F)c5nc(c(-c6c(F)cc(S(=O)(=O)[O-])cc6F)c6ccc3[nH]6)C=C5)C=C4)cc2)CCN1S(=O)(=O)c1cc(F)cc(F)c1
REMARK SMILES IDX 11 1 10 2 9 3 8 4 7 5 6 6 4 7 5 8 3 9 1 10 2 11 86 12 84 13
REMARK SMILES IDX 85 14 87 15 88 16 89 17 90 18 91 19 97 20 92 21 95 22 93 23
REMARK SMILES IDX 94 24 96 25 12 26 13 27 14 28 15 29 16 30 17 31 18 32 19 33
REMARK SMILES IDX 83 34 20 35 82 36 21 37 22 38 23 39 76 40 24 41 81 42 75 43
REMARK SMILES IDX 77 44 25 45 80 46 74 47 73 48 26 50 60 51 39 52 59 53 40 54
REMARK SMILES IDX 43 55 58 56 78 57 41 58 42 59 57 61 79 62 44 63 27 64 28 65
REMARK SMILES IDX 37 66 29 67 30 68 36 69 38 70 31 71 32 72 33 73 34 74 35 75
REMARK SMILES IDX 61 76 62 77 71 78 63 79 64 80 70 81 72 82 65 83 66 84 67 85
REMARK SMILES IDX 68 86 69 87 45 88 46 89 55 90 47 91 48 92 54 93 56 94 49 95
REMARK SMILES IDX 50 96 51 97 52 98 53 99
REMARK H PARENT 77 49 43 60
REMARK Flexibility Score: inf
ROOT
ATOM      1  C   UNL A   1      34.744  30.040  27.357  1.00  0.00     0.188 C 
ENDROOT
BRANCH   1   2
ATOM      2  C   UNL A   1      33.685  29.204  26.630  1.00  0.00     0.188 C 
BRANCH   2   3
ATOM      3  O   UNL A   1      33.243  29.641  25.360  1.00  0.00    -0.376 OA
BRANCH   3   4
ATOM      4  C   UNL A   1      31.856  29.488  25.057  1.00  0.00     0.202 C 
BRANCH   4   5
ATOM      5  C   UNL A   1      31.460  28.445  24.010  1.00  0.00     0.261 C 
BRANCH   5   6
ATOM      6  O   UNL A   1      30.029  28.283  24.033  1.00  0.00    -0.463 OA
BRANCH   6   7
ATOM      7  C   UNL A   1      29.583  27.009  23.935  1.00  0.00     0.310 C 
ATOM      8  O   UNL A   1      28.435  26.704  23.644  1.00  0.00    -0.252 OA
BRANCH   7   9
ATOM      9  C   UNL A   1      30.711  26.011  24.089  1.00  0.00     0.118 C 
ATOM     10  C   UNL A   1      29.718  25.152  26.314  1.00  0.00     0.027 C 
ATOM     11  C   UNL A   1      30.970  25.392  25.478  1.00  0.00     0.084 C 
ATOM     12  N   UNL A   1      31.743  24.137  25.160  1.00  0.00    -0.194 NA
ATOM     13  C   UNL A   1      30.474  24.790  23.220  1.00  0.00     0.034 C 
ATOM     14  C   UNL A   1      31.503  23.799  23.720  1.00  0.00     0.104 C 
BRANCH  12  15
ATOM     15  S   UNL A   1      31.863  22.771  26.157  1.00  0.00     0.243 S 
ATOM     16  O   UNL A   1      32.050  23.202  27.525  1.00  0.00    -0.207 OA
ATOM     17  O   UNL A   1      30.726  21.935  25.816  1.00  0.00    -0.207 OA
BRANCH  15  18
ATOM     18  C   UNL A   1      33.292  21.818  25.708  1.00  0.00     0.088 A 
ATOM     19  C   UNL A   1      33.054  20.610  25.032  1.00  0.00     0.061 A 
ATOM     20  C   UNL A   1      34.597  22.178  26.029  1.00  0.00     0.061 A 
ATOM     21  C   UNL A   1      34.117  19.775  24.707  1.00  0.00     0.127 A 
ATOM     22  C   UNL A   1      35.644  21.321  25.693  1.00  0.00     0.127 A 
ATOM     23  F   UNL A   1      33.876  18.610  24.092  1.00  0.00    -0.207 F 
ATOM     24  C   UNL A   1      35.419  20.118  25.036  1.00  0.00     0.078 A 
ATOM     25  F   UNL A   1      36.894  21.649  26.041  1.00  0.00    -0.207 F 
ENDBRANCH  15  18
ENDBRANCH  12  15
ENDBRANCH   7   9
ENDBRANCH   6   7
ENDBRANCH   5   6
ENDBRANCH   4   5
ENDBRANCH   3   4
ENDBRANCH   2   3
ENDBRANCH   1   2
BRANCH   1  26
ATOM     26  O   UNL A   1      34.562  31.409  27.662  1.00  0.00    -0.376 OA
BRANCH  26  27
ATOM     27  C   UNL A   1      33.262  31.974  27.782  1.00  0.00     0.202 C 
BRANCH  27  28
ATOM     28  C   UNL A   1      32.898  33.438  27.454  1.00  0.00     0.261 C 
BRANCH  28  29
ATOM     29  O   UNL A   1      32.488  34.266  28.534  1.00  0.00    -0.460 OA
BRANCH  29  30
ATOM     30  C   UNL A   1      33.364  35.248  28.869  1.00  0.00     0.338 C 
ATOM     31  O   UNL A   1      33.207  36.447  28.750  1.00  0.00    -0.246 OA
BRANCH  30  32
ATOM     32  C   UNL A   1      34.443  34.610  29.657  1.00  0.00     0.060 A 
ATOM     33  C   UNL A   1      35.741  34.639  29.129  1.00  0.00     0.016 A 
ATOM     34  C   UNL A   1      34.204  34.099  30.935  1.00  0.00     0.016 A 
ATOM     35  C   UNL A   1      36.805  34.133  29.873  1.00  0.00     0.010 A 
ATOM     36  C   UNL A   1      35.266  33.571  31.670  1.00  0.00     0.010 A 
ATOM     37  C   UNL A   1      36.564  33.563  31.131  1.00  0.00    -0.014 A 
BRANCH  37  38
ATOM     38  C   UNL A   1      37.616  32.753  31.784  1.00  0.00     0.031 A 
ATOM     39  C   UNL A   1      38.141  33.236  33.108  1.00  0.00     0.074 A 
ATOM     40  C   UNL A   1      38.093  31.626  31.227  1.00  0.00     0.049 A 
ATOM     41  N   UNL A   1      39.107  32.755  33.843  1.00  0.00    -0.248 NA
ATOM     42  C   UNL A   1      37.486  34.428  33.675  1.00  0.00     0.031 C 
ATOM     43  C   UNL A   1      37.631  31.035  29.972  1.00  0.00     0.029 A 
ATOM     44  N   UNL A   1      39.086  30.780  31.653  1.00  0.00    -0.354 N 
ATOM     45  C   UNL A   1      39.175  33.581  34.958  1.00  0.00     0.074 A 
ATOM     46  C   UNL A   1      38.174  34.611  34.790  1.00  0.00     0.031 C 
ATOM     47  C   UNL A   1      38.354  29.927  29.721  1.00  0.00     0.029 A 
ATOM     48  C   UNL A   1      39.347  29.750  30.780  1.00  0.00     0.049 A 
ATOM     49  H   UNL A   1      39.569  30.900  32.502  1.00  0.00     0.167 HD
ATOM     50  C   UNL A   1      39.993  33.486  36.031  1.00  0.00     0.037 A 
ATOM     51  C   UNL A   1      40.295  28.793  30.826  1.00  0.00     0.037 A 
ATOM     52  C   UNL A   1      40.998  32.472  36.187  1.00  0.00     0.049 A 
ATOM     53  C   UNL A   1      41.255  28.760  31.991  1.00  0.00     0.074 A 
ATOM     54  C   UNL A   1      41.889  32.296  37.230  1.00  0.00     0.029 A 
ATOM     55  N   UNL A   1      41.250  31.464  35.269  1.00  0.00    -0.354 N 
ATOM     56  N   UNL A   1      41.306  29.543  33.043  1.00  0.00    -0.248 NA
ATOM     57  C   UNL A   1      42.289  27.714  31.972  1.00  0.00     0.031 C 
ATOM     58  C   UNL A   1      42.706  31.203  36.926  1.00  0.00     0.029 A 
ATOM     59  C   UNL A   1      42.294  30.671  35.714  1.00  0.00     0.049 A 
ATOM     60  H   UNL A   1      40.760  31.331  34.426  1.00  0.00     0.167 HD
ATOM     61  C   UNL A   1      42.355  29.065  33.823  1.00  0.00     0.074 A 
ATOM     62  C   UNL A   1      42.908  27.923  33.127  1.00  0.00     0.031 C 
ATOM     63  C   UNL A   1      42.818  29.527  35.012  1.00  0.00     0.037 A 
BRANCH  50  64
ATOM     64  C   UNL A   1      39.841  34.524  37.103  1.00  0.00     0.058 A 
ATOM     65  C   UNL A   1      40.556  35.731  37.060  1.00  0.00     0.135 A 
ATOM     66  C   UNL A   1      38.966  34.315  38.180  1.00  0.00     0.135 A 
ATOM     67  F   UNL A   1      41.427  35.966  36.066  1.00  0.00    -0.206 F 
ATOM     68  C   UNL A   1      40.423  36.688  38.060  1.00  0.00     0.059 A 
ATOM     69  C   UNL A   1      38.799  35.268  39.179  1.00  0.00     0.059 A 
ATOM     70  F   UNL A   1      38.269  33.171  38.272  1.00  0.00    -0.206 F 
ATOM     71  C   UNL A   1      39.543  36.446  39.116  1.00  0.00     0.060 A 
BRANCH  71  72
ATOM     72  S   UNL A   1      39.377  37.700  40.404  1.00  0.00     0.124 S 
ATOM     73  O   UNL A   1      39.223  36.871  41.597  1.00  0.00    -0.237 OA
ATOM     74  O   UNL A   1      40.636  38.428  40.297  1.00  0.00    -0.237 OA
ATOM     75  O   UNL A   1      38.188  38.445  40.001  1.00  0.00    -0.744 OA
ENDBRANCH  71  72
ENDBRANCH  50  64
BRANCH  51  76
ATOM     76  C   UNL A   1      40.406  27.790  29.733  1.00  0.00     0.058 A 
ATOM     77  C   UNL A   1      41.376  27.919  28.728  1.00  0.00     0.135 A 
ATOM     78  C   UNL A   1      39.524  26.702  29.652  1.00  0.00     0.135 A 
ATOM     79  F   UNL A   1      42.234  28.951  28.754  1.00  0.00    -0.206 F 
ATOM     80  C   UNL A   1      41.456  27.019  27.670  1.00  0.00     0.059 A 
ATOM     81  C   UNL A   1      39.599  25.774  28.617  1.00  0.00     0.059 A 
ATOM     82  F   UNL A   1      38.582  26.527  30.592  1.00  0.00    -0.206 F 
ATOM     83  C   UNL A   1      40.561  25.950  27.622  1.00  0.00     0.060 A 
BRANCH  83  84
ATOM     84  S   UNL A   1      40.689  24.768  26.262  1.00  0.00     0.124 S 
ATOM     85  O   UNL A   1      41.236  25.603  25.199  1.00  0.00    -0.237 OA
ATOM     86  O   UNL A   1      41.594  23.763  26.813  1.00  0.00    -0.237 OA
ATOM     87  O   UNL A   1      39.311  24.324  26.074  1.00  0.00    -0.744 OA
ENDBRANCH  83  84
ENDBRANCH  51  76
BRANCH  63  88
ATOM     88  C   UNL A   1      43.948  28.777  35.660  1.00  0.00     0.058 A 
ATOM     89  C   UNL A   1      43.717  27.706  36.537  1.00  0.00     0.135 A 
ATOM     90  C   UNL A   1      45.280  29.093  35.345  1.00  0.00     0.135 A 
ATOM     91  F   UNL A   1      42.462  27.367  36.874  1.00  0.00    -0.206 F 
ATOM     92  C   UNL A   1      44.769  26.985  37.094  1.00  0.00     0.059 A 
ATOM     93  C   UNL A   1      46.345  28.370  35.870  1.00  0.00     0.059 A 
ATOM     94  F   UNL A   1      45.553  30.101  34.500  1.00  0.00    -0.206 F 
ATOM     95  C   UNL A   1      46.080  27.323  36.752  1.00  0.00     0.060 A 
BRANCH  95  96
ATOM     96  S   UNL A   1      47.436  26.353  37.445  1.00  0.00     0.124 S 
ATOM     97  O   UNL A   1      47.563  25.282  36.462  1.00  0.00    -0.237 OA
ATOM     98  O   UNL A   1      48.530  27.320  37.474  1.00  0.00    -0.237 OA
ATOM     99  O   UNL A   1      46.930  25.949  38.753  1.00  0.00    -0.744 OA
ENDBRANCH  95  96
ENDBRANCH  63  88
ENDBRANCH  37  38
ENDBRANCH  30  32
ENDBRANCH  29  30
ENDBRANCH  28  29
ENDBRANCH  27  28
ENDBRANCH  26  27
ENDBRANCH   1  26
TORSDOF 22
ENDMDL
