MODEL 1
REMARK VINA RESULT:      -9.4      0.000      0.000
REMARK SMILES COCC[C@@H](C)NC(=O)N[C@@H]1C=C[C@@H](C(=O)OCCOCCOCCOC(=O)c2ccc(-c3c4nc(c(-c5c(F)cc(S(=O)(=O)[O-])cc5F)c5ccc([nH]5)c(-c5c(F)cc(S(=O)(=O)[O-])cc5F)c5nc(c(-c6c(F)cc(S(=O)(=O)[O-])cc6F)c6ccc3[nH]6)C=C5)C=C4)cc2)C1
REMARK SMILES IDX 21 1 20 2 19 3 18 4 17 5 15 6 16 7 14 8 11 9 12 10 95 11
REMARK SMILES IDX 13 12 10 13 7 14 8 15 9 17 5 19 6 20 4 21 3 22 2 23 1 24
REMARK SMILES IDX 22 25 23 26 24 27 25 28 26 29 27 30 28 31 29 32 30 33 94 34
REMARK SMILES IDX 31 35 93 36 32 37 33 38 34 39 87 40 35 41 92 42 86 43 88 44
REMARK SMILES IDX 36 45 91 46 85 47 84 48 37 50 71 51 50 52 70 53 51 54 54 55
REMARK SMILES IDX 69 56 89 57 52 58 53 59 68 61 90 62 55 63 38 64 39 65 48 66
REMARK SMILES IDX 40 67 41 68 47 69 49 70 42 71 43 72 44 73 45 74 46 75 72 76
REMARK SMILES IDX 73 77 82 78 74 79 75 80 81 81 83 82 76 83 77 84 78 85 79 86
REMARK SMILES IDX 80 87 56 88 57 89 66 90 58 91 59 92 65 93 67 94 60 95 61 96
REMARK SMILES IDX 62 97 63 98 64 99
REMARK H PARENT 7 16 10 18 88 49 54 60
REMARK Flexibility Score: inf
ROOT
ATOM      1  C   UNL A   1      33.743  34.087  28.197  1.00  0.00     0.188 C 
ENDROOT
BRANCH   1   2
ATOM      2  O   UNL A   1      34.962  33.564  27.688  1.00  0.00    -0.376 OA
BRANCH   2   3
ATOM      3  C   UNL A   1      35.205  32.167  27.785  1.00  0.00     0.202 C 
BRANCH   3   4
ATOM      4  C   UNL A   1      34.024  31.201  28.006  1.00  0.00     0.261 C 
BRANCH   4   5
ATOM      5  O   UNL A   1      33.201  30.942  26.845  1.00  0.00    -0.463 OA
BRANCH   5   6
ATOM      6  C   UNL A   1      33.057  29.634  26.498  1.00  0.00     0.312 C 
ATOM      7  O   UNL A   1      33.031  28.719  27.317  1.00  0.00    -0.252 OA
BRANCH   6   8
ATOM      8  C   UNL A   1      32.874  29.370  24.993  1.00  0.00     0.124 C 
ATOM      9  C   UNL A   1      32.521  27.215  23.828  1.00  0.00     0.107 C 
ATOM     10  C   UNL A   1      31.243  27.888  24.146  1.00  0.00    -0.006 C 
ATOM     11  C   UNL A   1      33.585  28.201  24.293  1.00  0.00     0.048 C 
ATOM     12  C   UNL A   1      31.426  29.056  24.762  1.00  0.00    -0.014 C 
BRANCH   9  13
ATOM     13  N   UNL A   1      32.531  26.824  22.445  1.00  0.00    -0.332 N 
ATOM     14  N   UNL A   1      31.931  24.522  22.515  1.00  0.00    -0.336 N 
ATOM     15  C   UNL A   1      32.174  25.669  21.851  1.00  0.00     0.315 C 
ATOM     16  H   UNL A   1      31.478  23.846  21.958  1.00  0.00     0.165 HD
ATOM     17  O   UNL A   1      32.040  25.656  20.625  1.00  0.00    -0.249 OA
ATOM     18  H   UNL A   1      32.856  27.518  21.826  1.00  0.00     0.165 HD
BRANCH  14  19
ATOM     19  C   UNL A   1      32.189  24.058  23.874  1.00  0.00     0.083 C 
ATOM     20  C   UNL A   1      33.135  22.863  23.869  1.00  0.00     0.031 C 
BRANCH  19  21
ATOM     21  C   UNL A   1      30.904  23.832  24.675  1.00  0.00     0.053 C 
BRANCH  21  22
ATOM     22  C   UNL A   1      30.799  24.760  25.894  1.00  0.00     0.162 C 
BRANCH  22  23
ATOM     23  O   UNL A   1      30.650  24.016  27.104  1.00  0.00    -0.385 OA
ATOM     24  C   UNL A   1      29.954  22.784  26.963  1.00  0.00     0.194 C 
ENDBRANCH  22  23
ENDBRANCH  21  22
ENDBRANCH  19  21
ENDBRANCH  14  19
ENDBRANCH   9  13
ENDBRANCH   6   8
ENDBRANCH   5   6
ENDBRANCH   4   5
ENDBRANCH   3   4
ENDBRANCH   2   3
ENDBRANCH   1   2
BRANCH   1  25
ATOM     25  C   UNL A   1      33.784  34.944  29.468  1.00  0.00     0.188 C 
BRANCH  25  26
ATOM     26  O   UNL A   1      33.735  34.246  30.686  1.00  0.00    -0.376 OA
BRANCH  26  27
ATOM     27  C   UNL A   1      34.943  33.740  31.225  1.00  0.00     0.202 C 
BRANCH  27  28
ATOM     28  C   UNL A   1      35.139  32.247  31.570  1.00  0.00     0.261 C 
BRANCH  28  29
ATOM     29  O   UNL A   1      36.319  31.586  31.088  1.00  0.00    -0.460 OA
BRANCH  29  30
ATOM     30  C   UNL A   1      37.249  31.216  32.002  1.00  0.00     0.338 C 
ATOM     31  O   UNL A   1      37.078  31.103  33.207  1.00  0.00    -0.246 OA
BRANCH  30  32
ATOM     32  C   UNL A   1      38.432  30.707  31.262  1.00  0.00     0.060 A 
ATOM     33  C   UNL A   1      39.535  30.217  31.982  1.00  0.00     0.016 A 
ATOM     34  C   UNL A   1      38.438  30.679  29.868  1.00  0.00     0.016 A 
ATOM     35  C   UNL A   1      40.650  29.709  31.307  1.00  0.00     0.010 A 
ATOM     36  C   UNL A   1      39.568  30.202  29.196  1.00  0.00     0.010 A 
ATOM     37  C   UNL A   1      40.689  29.736  29.908  1.00  0.00    -0.014 A 
BRANCH  37  38
ATOM     38  C   UNL A   1      41.956  29.465  29.182  1.00  0.00     0.031 A 
ATOM     39  C   UNL A   1      42.194  28.071  28.667  1.00  0.00     0.074 A 
ATOM     40  C   UNL A   1      42.889  30.418  28.999  1.00  0.00     0.049 A 
ATOM     41  N   UNL A   1      43.267  27.552  28.133  1.00  0.00    -0.248 NA
ATOM     42  C   UNL A   1      41.064  27.134  28.782  1.00  0.00     0.031 C 
ATOM     43  C   UNL A   1      42.760  31.818  29.398  1.00  0.00     0.029 A 
ATOM     44  N   UNL A   1      44.145  30.339  28.445  1.00  0.00    -0.354 N 
ATOM     45  C   UNL A   1      42.950  26.225  27.862  1.00  0.00     0.074 A 
ATOM     46  C   UNL A   1      41.592  26.013  28.312  1.00  0.00     0.031 C 
ATOM     47  C   UNL A   1      43.904  32.462  29.100  1.00  0.00     0.029 A 
ATOM     48  C   UNL A   1      44.859  31.511  28.530  1.00  0.00     0.049 A 
ATOM     49  H   UNL A   1      44.499  29.522  28.028  1.00  0.00     0.167 HD
ATOM     50  C   UNL A   1      43.722  25.271  27.290  1.00  0.00     0.037 A 
ATOM     51  C   UNL A   1      46.146  31.775  28.220  1.00  0.00     0.037 A 
ATOM     52  C   UNL A   1      45.075  25.486  26.847  1.00  0.00     0.049 A 
ATOM     53  C   UNL A   1      47.016  30.673  27.665  1.00  0.00     0.074 A 
ATOM     54  C   UNL A   1      45.934  24.588  26.240  1.00  0.00     0.029 A 
ATOM     55  N   UNL A   1      45.772  26.679  26.974  1.00  0.00    -0.354 N 
ATOM     56  N   UNL A   1      46.704  29.426  27.400  1.00  0.00    -0.248 NA
ATOM     57  C   UNL A   1      48.417  31.012  27.371  1.00  0.00     0.031 C 
ATOM     58  C   UNL A   1      47.168  25.218  26.055  1.00  0.00     0.029 A 
ATOM     59  C   UNL A   1      47.059  26.531  26.487  1.00  0.00     0.049 A 
ATOM     60  H   UNL A   1      45.405  27.510  27.355  1.00  0.00     0.167 HD
ATOM     61  C   UNL A   1      47.858  28.844  26.882  1.00  0.00     0.074 A 
ATOM     62  C   UNL A   1      48.872  29.876  26.860  1.00  0.00     0.031 C 
ATOM     63  C   UNL A   1      48.060  27.568  26.463  1.00  0.00     0.037 A 
BRANCH  50  64
ATOM     64  C   UNL A   1      43.133  23.895  27.140  1.00  0.00     0.058 A 
ATOM     65  C   UNL A   1      42.630  23.431  25.914  1.00  0.00     0.135 A 
ATOM     66  C   UNL A   1      43.100  23.016  28.234  1.00  0.00     0.135 A 
ATOM     67  F   UNL A   1      42.617  24.237  24.840  1.00  0.00    -0.206 F 
ATOM     68  C   UNL A   1      42.094  22.155  25.784  1.00  0.00     0.059 A 
ATOM     69  C   UNL A   1      42.598  21.723  28.121  1.00  0.00     0.059 A 
ATOM     70  F   UNL A   1      43.563  23.409  29.433  1.00  0.00    -0.206 F 
ATOM     71  C   UNL A   1      42.084  21.306  26.894  1.00  0.00     0.060 A 
BRANCH  71  72
ATOM     72  S   UNL A   1      41.393  19.650  26.706  1.00  0.00     0.124 S 
ATOM     73  O   UNL A   1      42.550  18.905  26.221  1.00  0.00    -0.237 OA
ATOM     74  O   UNL A   1      40.963  19.337  28.065  1.00  0.00    -0.237 OA
ATOM     75  O   UNL A   1      40.317  19.836  25.738  1.00  0.00    -0.744 OA
ENDBRANCH  71  72
ENDBRANCH  50  64
BRANCH  51  76
ATOM     76  C   UNL A   1      46.709  33.135  28.453  1.00  0.00     0.058 A 
ATOM     77  C   UNL A   1      46.684  34.112  27.448  1.00  0.00     0.135 A 
ATOM     78  C   UNL A   1      47.298  33.479  29.681  1.00  0.00     0.135 A 
ATOM     79  F   UNL A   1      46.151  33.827  26.250  1.00  0.00    -0.206 F 
ATOM     80  C   UNL A   1      47.232  35.376  27.643  1.00  0.00     0.059 A 
ATOM     81  C   UNL A   1      47.826  34.746  29.911  1.00  0.00     0.059 A 
ATOM     82  F   UNL A   1      47.347  32.584  30.679  1.00  0.00    -0.206 F 
ATOM     83  C   UNL A   1      47.797  35.685  28.882  1.00  0.00     0.060 A 
BRANCH  83  84
ATOM     84  S   UNL A   1      48.462  37.346  29.139  1.00  0.00     0.124 S 
ATOM     85  O   UNL A   1      48.600  37.823  27.768  1.00  0.00    -0.237 OA
ATOM     86  O   UNL A   1      47.412  37.975  29.932  1.00  0.00    -0.237 OA
ATOM     87  O   UNL A   1      49.713  37.100  29.850  1.00  0.00    -0.744 OA
ENDBRANCH  83  84
ENDBRANCH  51  76
BRANCH  63  88
ATOM     88  C   UNL A   1      49.417  27.218  25.909  1.00  0.00     0.058 A 
ATOM     89  C   UNL A   1      50.437  26.694  26.719  1.00  0.00     0.135 A 
ATOM     90  C   UNL A   1      49.678  27.346  24.534  1.00  0.00     0.135 A 
ATOM     91  F   UNL A   1      50.245  26.556  28.041  1.00  0.00    -0.206 F 
ATOM     92  C   UNL A   1      51.672  26.331  26.191  1.00  0.00     0.059 A 
ATOM     93  C   UNL A   1      50.894  26.959  23.979  1.00  0.00     0.059 A 
ATOM     94  F   UNL A   1      48.735  27.829  23.709  1.00  0.00    -0.206 F 
ATOM     95  C   UNL A   1      51.890  26.462  24.818  1.00  0.00     0.060 A 
BRANCH  95  96
ATOM     96  S   UNL A   1      53.483  25.948  24.141  1.00  0.00     0.124 S 
ATOM     97  O   UNL A   1      53.698  24.678  24.825  1.00  0.00    -0.237 OA
ATOM     98  O   UNL A   1      53.199  25.858  22.712  1.00  0.00    -0.237 OA
ATOM     99  O   UNL A   1      54.383  27.030  24.528  1.00  0.00    -0.744 OA
ENDBRANCH  95  96
ENDBRANCH  63  88
ENDBRANCH  37  38
ENDBRANCH  30  32
ENDBRANCH  29  30
ENDBRANCH  28  29
ENDBRANCH  27  28
ENDBRANCH  26  27
ENDBRANCH  25  26
ENDBRANCH   1  25
TORSDOF 25
ENDMDL
MODEL 2
REMARK VINA RESULT:      -9.4      1.139      2.060
REMARK SMILES COCC[C@@H](C)NC(=O)N[C@@H]1C=C[C@@H](C(=O)OCCOCCOCCOC(=O)c2ccc(-c3c4nc(c(-c5c(F)cc(S(=O)(=O)[O-])cc5F)c5ccc([nH]5)c(-c5c(F)cc(S(=O)(=O)[O-])cc5F)c5nc(c(-c6c(F)cc(S(=O)(=O)[O-])cc6F)c6ccc3[nH]6)C=C5)C=C4)cc2)C1
REMARK SMILES IDX 21 1 20 2 19 3 18 4 17 5 15 6 16 7 14 8 11 9 12 10 95 11
REMARK SMILES IDX 13 12 10 13 7 14 8 15 9 17 5 19 6 20 4 21 3 22 2 23 1 24
REMARK SMILES IDX 22 25 23 26 24 27 25 28 26 29 27 30 28 31 29 32 30 33 94 34
REMARK SMILES IDX 31 35 93 36 32 37 33 38 34 39 87 40 35 41 92 42 86 43 88 44
REMARK SMILES IDX 36 45 91 46 85 47 84 48 37 50 71 51 50 52 70 53 51 54 54 55
REMARK SMILES IDX 69 56 89 57 52 58 53 59 68 61 90 62 55 63 38 64 39 65 48 66
REMARK SMILES IDX 40 67 41 68 47 69 49 70 42 71 43 72 44 73 45 74 46 75 72 76
REMARK SMILES IDX 73 77 82 78 74 79 75 80 81 81 83 82 76 83 77 84 78 85 79 86
REMARK SMILES IDX 80 87 56 88 57 89 66 90 58 91 59 92 65 93 67 94 60 95 61 96
REMARK SMILES IDX 62 97 63 98 64 99
REMARK H PARENT 7 16 10 18 88 49 54 60
REMARK Flexibility Score: inf
ROOT
ATOM      1  C   UNL A   1      33.394  35.602  30.320  1.00  0.00     0.188 C 
ENDROOT
BRANCH   1   2
ATOM      2  O   UNL A   1      32.836  34.597  29.485  1.00  0.00    -0.376 OA
BRANCH   2   3
ATOM      3  C   UNL A   1      33.657  33.992  28.494  1.00  0.00     0.202 C 
BRANCH   3   4
ATOM      4  C   UNL A   1      33.278  32.608  27.931  1.00  0.00     0.261 C 
BRANCH   4   5
ATOM      5  O   UNL A   1      34.383  31.788  27.485  1.00  0.00    -0.463 OA
BRANCH   5   6
ATOM      6  C   UNL A   1      34.143  30.451  27.417  1.00  0.00     0.312 C 
ATOM      7  O   UNL A   1      34.976  29.600  27.719  1.00  0.00    -0.252 OA
BRANCH   6   8
ATOM      8  C   UNL A   1      32.721  30.061  26.978  1.00  0.00     0.124 C 
ATOM      9  C   UNL A   1      32.018  28.335  25.349  1.00  0.00     0.107 C 
ATOM     10  C   UNL A   1      32.031  27.815  26.733  1.00  0.00    -0.006 C 
ATOM     11  C   UNL A   1      32.379  29.807  25.502  1.00  0.00     0.048 C 
ATOM     12  C   UNL A   1      32.396  28.744  27.619  1.00  0.00    -0.014 C 
BRANCH   9  13
ATOM     13  N   UNL A   1      30.764  28.015  24.723  1.00  0.00    -0.332 N 
ATOM     14  N   UNL A   1      31.292  26.149  23.344  1.00  0.00    -0.336 N 
ATOM     15  C   UNL A   1      30.414  26.994  23.919  1.00  0.00     0.315 C 
ATOM     16  H   UNL A   1      30.862  25.344  22.971  1.00  0.00     0.165 HD
ATOM     17  O   UNL A   1      29.215  26.799  23.706  1.00  0.00    -0.249 OA
ATOM     18  H   UNL A   1      30.038  28.653  24.914  1.00  0.00     0.165 HD
BRANCH  14  19
ATOM     19  C   UNL A   1      32.739  26.162  23.148  1.00  0.00     0.083 C 
ATOM     20  C   UNL A   1      33.086  26.143  21.664  1.00  0.00     0.031 C 
BRANCH  19  21
ATOM     21  C   UNL A   1      33.455  25.087  23.971  1.00  0.00     0.053 C 
BRANCH  21  22
ATOM     22  C   UNL A   1      32.490  24.282  24.854  1.00  0.00     0.162 C 
BRANCH  22  23
ATOM     23  O   UNL A   1      31.636  23.449  24.069  1.00  0.00    -0.385 OA
ATOM     24  C   UNL A   1      32.286  22.347  23.448  1.00  0.00     0.194 C 
ENDBRANCH  22  23
ENDBRANCH  21  22
ENDBRANCH  19  21
ENDBRANCH  14  19
ENDBRANCH   9  13
ENDBRANCH   6   8
ENDBRANCH   5   6
ENDBRANCH   4   5
ENDBRANCH   3   4
ENDBRANCH   2   3
ENDBRANCH   1   2
BRANCH   1  25
ATOM     25  C   UNL A   1      33.732  35.246  31.773  1.00  0.00     0.188 C 
BRANCH  25  26
ATOM     26  O   UNL A   1      33.707  33.880  32.097  1.00  0.00    -0.376 OA
BRANCH  26  27
ATOM     27  C   UNL A   1      34.918  33.149  32.042  1.00  0.00     0.202 C 
BRANCH  27  28
ATOM     28  C   UNL A   1      35.130  31.962  31.077  1.00  0.00     0.261 C 
BRANCH  28  29
ATOM     29  O   UNL A   1      36.473  31.626  30.695  1.00  0.00    -0.460 OA
BRANCH  29  30
ATOM     30  C   UNL A   1      36.987  30.462  31.164  1.00  0.00     0.338 C 
ATOM     31  O   UNL A   1      36.373  29.580  31.747  1.00  0.00    -0.246 OA
BRANCH  30  32
ATOM     32  C   UNL A   1      38.356  30.317  30.609  1.00  0.00     0.060 A 
ATOM     33  C   UNL A   1      38.577  30.573  29.244  1.00  0.00     0.016 A 
ATOM     34  C   UNL A   1      39.424  29.968  31.436  1.00  0.00     0.016 A 
ATOM     35  C   UNL A   1      39.862  30.469  28.703  1.00  0.00     0.010 A 
ATOM     36  C   UNL A   1      40.703  29.830  30.885  1.00  0.00     0.010 A 
ATOM     37  C   UNL A   1      40.926  30.057  29.514  1.00  0.00    -0.014 A 
BRANCH  37  38
ATOM     38  C   UNL A   1      42.229  29.672  28.913  1.00  0.00     0.031 A 
ATOM     39  C   UNL A   1      42.409  28.248  28.461  1.00  0.00     0.074 A 
ATOM     40  C   UNL A   1      43.242  30.550  28.789  1.00  0.00     0.049 A 
ATOM     41  N   UNL A   1      43.484  27.636  28.041  1.00  0.00    -0.248 NA
ATOM     42  C   UNL A   1      41.207  27.398  28.499  1.00  0.00     0.031 C 
ATOM     43  C   UNL A   1      43.182  31.968  29.136  1.00  0.00     0.029 A 
ATOM     44  N   UNL A   1      44.533  30.364  28.353  1.00  0.00    -0.354 N 
ATOM     45  C   UNL A   1      43.096  26.327  27.780  1.00  0.00     0.074 A 
ATOM     46  C   UNL A   1      41.692  26.227  28.110  1.00  0.00     0.031 C 
ATOM     47  C   UNL A   1      44.391  32.520  28.925  1.00  0.00     0.029 A 
ATOM     48  C   UNL A   1      45.321  31.485  28.470  1.00  0.00     0.049 A 
ATOM     49  H   UNL A   1      44.861  29.510  27.993  1.00  0.00     0.167 HD
ATOM     50  C   UNL A   1      43.843  25.302  27.306  1.00  0.00     0.037 A 
ATOM     51  C   UNL A   1      46.646  31.646  28.271  1.00  0.00     0.037 A 
ATOM     52  C   UNL A   1      45.242  25.405  26.982  1.00  0.00     0.049 A 
ATOM     53  C   UNL A   1      47.479  30.467  27.828  1.00  0.00     0.074 A 
ATOM     54  C   UNL A   1      46.083  24.428  26.480  1.00  0.00     0.029 A 
ATOM     55  N   UNL A   1      46.010  26.550  27.138  1.00  0.00    -0.354 N 
ATOM     56  N   UNL A   1      47.101  29.237  27.570  1.00  0.00    -0.248 NA
ATOM     57  C   UNL A   1      48.921  30.697  27.652  1.00  0.00     0.031 C 
ATOM     58  C   UNL A   1      47.371  24.963  26.390  1.00  0.00     0.029 A 
ATOM     59  C   UNL A   1      47.322  26.294  26.774  1.00  0.00     0.049 A 
ATOM     60  H   UNL A   1      45.673  27.417  27.461  1.00  0.00     0.167 HD
ATOM     61  C   UNL A   1      48.250  28.557  27.176  1.00  0.00     0.074 A 
ATOM     62  C   UNL A   1      49.335  29.514  27.216  1.00  0.00     0.031 C 
ATOM     63  C   UNL A   1      48.394  27.257  26.812  1.00  0.00     0.037 A 
BRANCH  50  64
ATOM     64  C   UNL A   1      43.170  23.967  27.142  1.00  0.00     0.058 A 
ATOM     65  C   UNL A   1      43.183  22.997  28.157  1.00  0.00     0.135 A 
ATOM     66  C   UNL A   1      42.473  23.665  25.960  1.00  0.00     0.135 A 
ATOM     67  F   UNL A   1      43.851  23.224  29.299  1.00  0.00    -0.206 F 
ATOM     68  C   UNL A   1      42.551  21.769  27.999  1.00  0.00     0.059 A 
ATOM     69  C   UNL A   1      41.807  22.455  25.791  1.00  0.00     0.059 A 
ATOM     70  F   UNL A   1      42.432  24.553  24.953  1.00  0.00    -0.206 F 
ATOM     71  C   UNL A   1      41.863  21.508  26.812  1.00  0.00     0.060 A 
BRANCH  71  72
ATOM     72  S   UNL A   1      41.042  19.912  26.625  1.00  0.00     0.124 S 
ATOM     73  O   UNL A   1      39.830  20.291  25.904  1.00  0.00    -0.237 OA
ATOM     74  O   UNL A   1      42.020  19.147  25.859  1.00  0.00    -0.237 OA
ATOM     75  O   UNL A   1      40.840  19.468  28.000  1.00  0.00    -0.744 OA
ENDBRANCH  71  72
ENDBRANCH  50  64
BRANCH  51  76
ATOM     76  C   UNL A   1      47.284  32.970  28.516  1.00  0.00     0.058 A 
ATOM     77  C   UNL A   1      47.799  33.305  29.775  1.00  0.00     0.135 A 
ATOM     78  C   UNL A   1      47.377  33.934  27.498  1.00  0.00     0.135 A 
ATOM     79  F   UNL A   1      47.719  32.427  30.787  1.00  0.00    -0.206 F 
ATOM     80  C   UNL A   1      48.372  34.549  30.025  1.00  0.00     0.059 A 
ATOM     81  C   UNL A   1      47.971  35.174  27.714  1.00  0.00     0.059 A 
ATOM     82  F   UNL A   1      46.901  33.666  26.271  1.00  0.00    -0.206 F 
ATOM     83  C   UNL A   1      48.457  35.476  28.985  1.00  0.00     0.060 A 
BRANCH  83  84
ATOM     84  S   UNL A   1      49.245  37.069  29.308  1.00  0.00     0.124 S 
ATOM     85  O   UNL A   1      50.643  36.771  29.016  1.00  0.00    -0.237 OA
ATOM     86  O   UNL A   1      48.566  37.944  28.358  1.00  0.00    -0.237 OA
ATOM     87  O   UNL A   1      48.934  37.319  30.712  1.00  0.00    -0.744 OA
ENDBRANCH  83  84
ENDBRANCH  51  76
BRANCH  63  88
ATOM     88  C   UNL A   1      49.765  26.793  26.393  1.00  0.00     0.058 A 
ATOM     89  C   UNL A   1      50.639  26.157  27.289  1.00  0.00     0.135 A 
ATOM     90  C   UNL A   1      50.185  26.928  25.058  1.00  0.00     0.135 A 
ATOM     91  F   UNL A   1      50.293  26.006  28.578  1.00  0.00    -0.206 F 
ATOM     92  C   UNL A   1      51.886  25.691  26.882  1.00  0.00     0.059 A 
ATOM     93  C   UNL A   1      51.412  26.441  24.623  1.00  0.00     0.059 A 
ATOM     94  F   UNL A   1      49.385  27.517  24.155  1.00  0.00    -0.206 F 
ATOM     95  C   UNL A   1      52.262  25.833  25.545  1.00  0.00     0.060 A 
BRANCH  95  96
ATOM     96  S   UNL A   1      53.865  25.186  25.024  1.00  0.00     0.124 S 
ATOM     97  O   UNL A   1      53.600  23.753  24.961  1.00  0.00    -0.237 OA
ATOM     98  O   UNL A   1      54.066  25.851  23.739  1.00  0.00    -0.237 OA
ATOM     99  O   UNL A   1      54.768  25.612  26.090  1.00  0.00    -0.744 OA
ENDBRANCH  95  96
ENDBRANCH  63  88
ENDBRANCH  37  38
ENDBRANCH  30  32
ENDBRANCH  29  30
ENDBRANCH  28  29
ENDBRANCH  27  28
ENDBRANCH  26  27
ENDBRANCH  25  26
ENDBRANCH   1  25
TORSDOF 25
ENDMDL
MODEL 3
REMARK VINA RESULT:      -9.1      2.031      8.698
REMARK SMILES COCC[C@@H](C)NC(=O)N[C@@H]1C=C[C@@H](C(=O)OCCOCCOCCOC(=O)c2ccc(-c3c4nc(c(-c5c(F)cc(S(=O)(=O)[O-])cc5F)c5ccc([nH]5)c(-c5c(F)cc(S(=O)(=O)[O-])cc5F)c5nc(c(-c6c(F)cc(S(=O)(=O)[O-])cc6F)c6ccc3[nH]6)C=C5)C=C4)cc2)C1
REMARK SMILES IDX 21 1 20 2 19 3 18 4 17 5 15 6 16 7 14 8 11 9 12 10 95 11
REMARK SMILES IDX 13 12 10 13 7 14 8 15 9 17 5 19 6 20 4 21 3 22 2 23 1 24
REMARK SMILES IDX 22 25 23 26 24 27 25 28 26 29 27 30 28 31 29 32 30 33 94 34
REMARK SMILES IDX 31 35 93 36 32 37 33 38 34 39 87 40 35 41 92 42 86 43 88 44
REMARK SMILES IDX 36 45 91 46 85 47 84 48 37 50 71 51 50 52 70 53 51 54 54 55
REMARK SMILES IDX 69 56 89 57 52 58 53 59 68 61 90 62 55 63 38 64 39 65 48 66
REMARK SMILES IDX 40 67 41 68 47 69 49 70 42 71 43 72 44 73 45 74 46 75 72 76
REMARK SMILES IDX 73 77 82 78 74 79 75 80 81 81 83 82 76 83 77 84 78 85 79 86
REMARK SMILES IDX 80 87 56 88 57 89 66 90 58 91 59 92 65 93 67 94 60 95 61 96
REMARK SMILES IDX 62 97 63 98 64 99
REMARK H PARENT 7 16 10 18 88 49 54 60
REMARK Flexibility Score: inf
ROOT
ATOM      1  C   UNL A   1      32.458  29.185  24.649  1.00  0.00     0.188 C 
ENDROOT
BRANCH   1   2
ATOM      2  O   UNL A   1      32.029  29.246  23.295  1.00  0.00    -0.376 OA
BRANCH   2   3
ATOM      3  C   UNL A   1      30.694  28.872  22.979  1.00  0.00     0.202 C 
BRANCH   3   4
ATOM      4  C   UNL A   1      30.390  27.423  22.549  1.00  0.00     0.261 C 
BRANCH   4   5
ATOM      5  O   UNL A   1      31.536  26.629  22.165  1.00  0.00    -0.463 OA
BRANCH   5   6
ATOM      6  C   UNL A   1      31.707  25.463  22.844  1.00  0.00     0.312 C 
ATOM      7  O   UNL A   1      30.796  24.666  23.054  1.00  0.00    -0.252 OA
BRANCH   6   8
ATOM      8  C   UNL A   1      33.148  25.174  23.300  1.00  0.00     0.124 C 
ATOM      9  C   UNL A   1      34.016  23.225  24.554  1.00  0.00     0.107 C 
ATOM     10  C   UNL A   1      34.148  23.044  23.092  1.00  0.00    -0.006 C 
ATOM     11  C   UNL A   1      33.450  24.631  24.705  1.00  0.00     0.048 C 
ATOM     12  C   UNL A   1      33.694  24.097  22.410  1.00  0.00    -0.014 C 
BRANCH   9  13
ATOM     13  N   UNL A   1      35.271  22.938  25.193  1.00  0.00    -0.332 N 
ATOM     14  N   UNL A   1      35.336  20.559  25.246  1.00  0.00    -0.336 N 
ATOM     15  C   UNL A   1      35.906  21.769  25.409  1.00  0.00     0.315 C 
ATOM     16  H   UNL A   1      35.993  19.824  25.236  1.00  0.00     0.165 HD
ATOM     17  O   UNL A   1      37.087  21.798  25.760  1.00  0.00    -0.249 OA
ATOM     18  H   UNL A   1      35.749  23.730  25.531  1.00  0.00     0.165 HD
BRANCH  14  19
ATOM     19  C   UNL A   1      33.962  20.094  25.082  1.00  0.00     0.083 C 
ATOM     20  C   UNL A   1      33.186  20.224  26.387  1.00  0.00     0.031 C 
BRANCH  19  21
ATOM     21  C   UNL A   1      33.882  18.704  24.444  1.00  0.00     0.053 C 
BRANCH  21  22
ATOM     22  C   UNL A   1      32.507  18.048  24.634  1.00  0.00     0.162 C 
BRANCH  22  23
ATOM     23  O   UNL A   1      32.586  16.908  25.491  1.00  0.00    -0.385 OA
ATOM     24  C   UNL A   1      33.801  16.175  25.394  1.00  0.00     0.194 C 
ENDBRANCH  22  23
ENDBRANCH  21  22
ENDBRANCH  19  21
ENDBRANCH  14  19
ENDBRANCH   9  13
ENDBRANCH   6   8
ENDBRANCH   5   6
ENDBRANCH   4   5
ENDBRANCH   3   4
ENDBRANCH   2   3
ENDBRANCH   1   2
BRANCH   1  25
ATOM     25  C   UNL A   1      31.839  30.158  25.660  1.00  0.00     0.188 C 
BRANCH  25  26
ATOM     26  O   UNL A   1      32.698  30.636  26.663  1.00  0.00    -0.376 OA
BRANCH  26  27
ATOM     27  C   UNL A   1      33.306  29.700  27.535  1.00  0.00     0.202 C 
BRANCH  27  28
ATOM     28  C   UNL A   1      34.829  29.668  27.789  1.00  0.00     0.261 C 
BRANCH  28  29
ATOM     29  O   UNL A   1      35.520  30.917  27.952  1.00  0.00    -0.460 OA
BRANCH  29  30
ATOM     30  C   UNL A   1      36.220  31.102  29.098  1.00  0.00     0.338 C 
ATOM     31  O   UNL A   1      35.787  31.549  30.150  1.00  0.00    -0.246 OA
BRANCH  30  32
ATOM     32  C   UNL A   1      37.528  30.414  28.943  1.00  0.00     0.060 A 
ATOM     33  C   UNL A   1      38.333  30.204  30.076  1.00  0.00     0.016 A 
ATOM     34  C   UNL A   1      37.940  29.947  27.696  1.00  0.00     0.016 A 
ATOM     35  C   UNL A   1      39.557  29.537  29.960  1.00  0.00     0.010 A 
ATOM     36  C   UNL A   1      39.180  29.310  27.576  1.00  0.00     0.010 A 
ATOM     37  C   UNL A   1      40.006  29.122  28.700  1.00  0.00    -0.014 A 
BRANCH  37  38
ATOM     38  C   UNL A   1      41.407  28.667  28.510  1.00  0.00     0.031 A 
ATOM     39  C   UNL A   1      42.499  29.702  28.547  1.00  0.00     0.074 A 
ATOM     40  C   UNL A   1      41.711  27.376  28.285  1.00  0.00     0.049 A 
ATOM     41  N   UNL A   1      43.771  29.581  28.271  1.00  0.00    -0.248 NA
ATOM     42  C   UNL A   1      42.094  31.061  28.943  1.00  0.00     0.031 C 
ATOM     43  C   UNL A   1      40.757  26.269  28.278  1.00  0.00     0.029 A 
ATOM     44  N   UNL A   1      42.917  26.782  27.995  1.00  0.00    -0.354 N 
ATOM     45  C   UNL A   1      44.316  30.849  28.442  1.00  0.00     0.074 A 
ATOM     46  C   UNL A   1      43.233  31.728  28.824  1.00  0.00     0.031 C 
ATOM     47  C   UNL A   1      41.410  25.133  27.972  1.00  0.00     0.029 A 
ATOM     48  C   UNL A   1      42.819  25.439  27.718  1.00  0.00     0.049 A 
ATOM     49  H   UNL A   1      43.770  27.273  27.986  1.00  0.00     0.167 HD
ATOM     50  C   UNL A   1      45.603  31.243  28.295  1.00  0.00     0.037 A 
ATOM     51  C   UNL A   1      43.749  24.568  27.274  1.00  0.00     0.037 A 
ATOM     52  C   UNL A   1      46.677  30.365  27.911  1.00  0.00     0.049 A 
ATOM     53  C   UNL A   1      45.160  25.048  27.031  1.00  0.00     0.074 A 
ATOM     54  C   UNL A   1      48.018  30.665  27.751  1.00  0.00     0.029 A 
ATOM     55  N   UNL A   1      46.532  29.017  27.614  1.00  0.00    -0.354 N 
ATOM     56  N   UNL A   1      45.669  26.245  27.209  1.00  0.00    -0.248 NA
ATOM     57  C   UNL A   1      46.123  24.060  26.522  1.00  0.00     0.031 C 
ATOM     58  C   UNL A   1      48.673  29.515  27.300  1.00  0.00     0.029 A 
ATOM     59  C   UNL A   1      47.753  28.480  27.241  1.00  0.00     0.049 A 
ATOM     60  H   UNL A   1      45.686  28.515  27.661  1.00  0.00     0.167 HD
ATOM     61  C   UNL A   1      47.013  26.145  26.862  1.00  0.00     0.074 A 
ATOM     62  C   UNL A   1      47.243  24.769  26.475  1.00  0.00     0.031 C 
ATOM     63  C   UNL A   1      47.973  27.106  26.864  1.00  0.00     0.037 A 
BRANCH  50  64
ATOM     64  C   UNL A   1      45.916  32.698  28.517  1.00  0.00     0.058 A 
ATOM     65  C   UNL A   1      45.839  33.641  27.481  1.00  0.00     0.135 A 
ATOM     66  C   UNL A   1      46.268  33.159  29.796  1.00  0.00     0.135 A 
ATOM     67  F   UNL A   1      45.527  33.253  26.234  1.00  0.00    -0.206 F 
ATOM     68  C   UNL A   1      46.123  34.985  27.699  1.00  0.00     0.059 A 
ATOM     69  C   UNL A   1      46.526  34.504  30.045  1.00  0.00     0.059 A 
ATOM     70  F   UNL A   1      46.362  32.299  30.824  1.00  0.00    -0.206 F 
ATOM     71  C   UNL A   1      46.464  35.407  28.985  1.00  0.00     0.060 A 
BRANCH  71  72
ATOM     72  S   UNL A   1      46.822  37.156  29.252  1.00  0.00     0.124 S 
ATOM     73  O   UNL A   1      46.639  37.698  27.909  1.00  0.00    -0.237 OA
ATOM     74  O   UNL A   1      45.808  37.534  30.231  1.00  0.00    -0.237 OA
ATOM     75  O   UNL A   1      48.195  37.153  29.745  1.00  0.00    -0.744 OA
ENDBRANCH  71  72
ENDBRANCH  50  64
BRANCH  51  76
ATOM     76  C   UNL A   1      43.377  23.152  26.997  1.00  0.00     0.058 A 
ATOM     77  C   UNL A   1      43.240  22.681  25.684  1.00  0.00     0.135 A 
ATOM     78  C   UNL A   1      43.134  22.245  28.042  1.00  0.00     0.135 A 
ATOM     79  F   UNL A   1      43.441  23.511  24.650  1.00  0.00    -0.206 F 
ATOM     80  C   UNL A   1      42.864  21.368  25.413  1.00  0.00     0.059 A 
ATOM     81  C   UNL A   1      42.787  20.920  27.798  1.00  0.00     0.059 A 
ATOM     82  F   UNL A   1      43.253  22.641  29.319  1.00  0.00    -0.206 F 
ATOM     83  C   UNL A   1      42.644  20.493  26.478  1.00  0.00     0.060 A 
BRANCH  83  84
ATOM     84  S   UNL A   1      42.205  18.779  26.113  1.00  0.00     0.124 S 
ATOM     85  O   UNL A   1      40.798  18.906  25.751  1.00  0.00    -0.237 OA
ATOM     86  O   UNL A   1      43.119  18.455  25.024  1.00  0.00    -0.237 OA
ATOM     87  O   UNL A   1      42.471  18.089  27.372  1.00  0.00    -0.744 OA
ENDBRANCH  83  84
ENDBRANCH  51  76
BRANCH  63  88
ATOM     88  C   UNL A   1      49.370  26.704  26.469  1.00  0.00     0.058 A 
ATOM     89  C   UNL A   1      50.217  26.006  27.345  1.00  0.00     0.135 A 
ATOM     90  C   UNL A   1      49.845  26.962  25.171  1.00  0.00     0.135 A 
ATOM     91  F   UNL A   1      49.818  25.738  28.599  1.00  0.00    -0.206 F 
ATOM     92  C   UNL A   1      51.490  25.599  26.957  1.00  0.00     0.059 A 
ATOM     93  C   UNL A   1      51.100  26.536  24.752  1.00  0.00     0.059 A 
ATOM     94  F   UNL A   1      49.073  27.614  24.287  1.00  0.00    -0.206 F 
ATOM     95  C   UNL A   1      51.921  25.864  25.656  1.00  0.00     0.060 A 
BRANCH  95  96
ATOM     96  S   UNL A   1      53.559  25.292  25.154  1.00  0.00     0.124 S 
ATOM     97  O   UNL A   1      54.428  26.132  25.971  1.00  0.00    -0.237 OA
ATOM     98  O   UNL A   1      53.519  23.879  25.517  1.00  0.00    -0.237 OA
ATOM     99  O   UNL A   1      53.590  25.564  23.720  1.00  0.00    -0.744 OA
ENDBRANCH  95  96
ENDBRANCH  63  88
ENDBRANCH  37  38
ENDBRANCH  30  32
ENDBRANCH  29  30
ENDBRANCH  28  29
ENDBRANCH  27  28
ENDBRANCH  26  27
ENDBRANCH  25  26
ENDBRANCH   1  25
TORSDOF 25
ENDMDL
