MODEL 1
REMARK VINA RESULT:     -11.0      0.000      0.000
REMARK SMILES O=C(OCCOCCOCCOC(=O)c1cc(F)c(F)cc1NS(=O)(=O)c1ccc2c(c1)CCC2)c1ccc(-c2c3nc(c(-c4c(F)cc(S(=O)(=O)[O-])cc4F)c4ccc([nH]4)c(-c4c(F)cc(S(=O)(=O)[O-])cc4F)c4nc(c(-c5c(F)cc(S(=O)(=O)[O-])cc5F)c5ccc2[nH]5)C=C4)C=C3)cc1
REMARK SMILES IDX 7 1 6 2 5 3 4 4 3 5 2 6 1 7 36 8 37 9 101 10 38 11 100 12
REMARK SMILES IDX 39 13 40 14 41 15 94 16 42 17 99 18 93 19 95 20 43 21 98 22
REMARK SMILES IDX 92 23 91 24 44 26 78 27 57 28 77 29 58 30 61 31 76 32 96 33
REMARK SMILES IDX 59 34 60 35 75 37 97 38 62 39 45 40 46 41 55 42 47 43 48 44
REMARK SMILES IDX 54 45 56 46 49 47 50 48 51 49 52 50 53 51 79 52 80 53 89 54
REMARK SMILES IDX 81 55 82 56 88 57 90 58 83 59 84 60 85 61 86 62 87 63 63 64
REMARK SMILES IDX 64 65 73 66 65 67 66 68 72 69 74 70 67 71 68 72 69 73 70 74
REMARK SMILES IDX 71 75 8 76 9 77 10 78 11 79 12 80 13 81 14 82 15 83 16 84
REMARK SMILES IDX 22 85 17 86 21 87 18 88 19 89 20 90 23 91 24 93 25 94 26 95
REMARK SMILES IDX 27 96 28 97 32 98 29 99 31 100 30 101 33 102 35 103 34 104
REMARK H PARENT 95 25 61 36 23 92
REMARK Flexibility Score: inf
ROOT
ATOM      1  C   UNL A   1      38.577  22.763  26.242  1.00  0.00     0.188 C 
ENDROOT
BRANCH   1   2
ATOM      2  O   UNL A   1      39.423  21.648  26.545  1.00  0.00    -0.376 OA
BRANCH   2   3
ATOM      3  C   UNL A   1      40.665  22.017  27.147  1.00  0.00     0.202 C 
BRANCH   3   4
ATOM      4  C   UNL A   1      41.678  22.640  26.178  1.00  0.00     0.261 C 
BRANCH   4   5
ATOM      5  O   UNL A   1      42.468  23.659  26.807  1.00  0.00    -0.460 OA
BRANCH   5   6
ATOM      6  C   UNL A   1      42.481  24.991  26.535  1.00  0.00     0.338 C 
ATOM      7  O   UNL A   1      42.775  25.338  25.391  1.00  0.00    -0.246 OA
BRANCH   6   8
ATOM      8  C   UNL A   1      42.110  26.048  27.536  1.00  0.00     0.060 A 
ATOM      9  C   UNL A   1      42.745  27.284  27.685  1.00  0.00     0.016 A 
ATOM     10  C   UNL A   1      41.009  25.785  28.367  1.00  0.00     0.016 A 
ATOM     11  C   UNL A   1      42.408  28.157  28.716  1.00  0.00     0.010 A 
ATOM     12  C   UNL A   1      40.603  26.699  29.347  1.00  0.00     0.010 A 
ATOM     13  C   UNL A   1      41.344  27.867  29.566  1.00  0.00    -0.014 A 
BRANCH  13  14
ATOM     14  C   UNL A   1      41.117  28.712  30.760  1.00  0.00     0.031 A 
ATOM     15  C   UNL A   1      40.025  29.739  30.711  1.00  0.00     0.074 A 
ATOM     16  C   UNL A   1      41.795  28.502  31.903  1.00  0.00     0.049 A 
ATOM     17  N   UNL A   1      39.675  30.616  31.613  1.00  0.00    -0.248 NA
ATOM     18  C   UNL A   1      39.196  29.761  29.494  1.00  0.00     0.031 C 
ATOM     19  C   UNL A   1      42.770  27.434  32.114  1.00  0.00     0.029 A 
ATOM     20  N   UNL A   1      41.767  29.165  33.103  1.00  0.00    -0.354 N 
ATOM     21  C   UNL A   1      38.590  31.292  31.073  1.00  0.00     0.074 A 
ATOM     22  C   UNL A   1      38.361  30.755  29.752  1.00  0.00     0.031 C 
ATOM     23  C   UNL A   1      43.271  27.538  33.355  1.00  0.00     0.029 A 
ATOM     24  C   UNL A   1      42.703  28.708  34.000  1.00  0.00     0.049 A 
ATOM     25  H   UNL A   1      41.138  29.896  33.303  1.00  0.00     0.167 HD
ATOM     26  C   UNL A   1      37.839  32.262  31.643  1.00  0.00     0.037 A 
ATOM     27  C   UNL A   1      43.097  29.195  35.192  1.00  0.00     0.037 A 
ATOM     28  C   UNL A   1      38.081  32.786  32.959  1.00  0.00     0.049 A 
ATOM     29  C   UNL A   1      42.352  30.367  35.752  1.00  0.00     0.074 A 
ATOM     30  C   UNL A   1      37.406  33.789  33.628  1.00  0.00     0.029 A 
ATOM     31  N   UNL A   1      39.091  32.345  33.805  1.00  0.00    -0.354 N 
ATOM     32  N   UNL A   1      41.344  31.017  35.222  1.00  0.00    -0.248 NA
ATOM     33  C   UNL A   1      42.767  30.857  37.070  1.00  0.00     0.031 C 
ATOM     34  C   UNL A   1      38.033  33.983  34.864  1.00  0.00     0.029 A 
ATOM     35  C   UNL A   1      39.074  33.074  34.981  1.00  0.00     0.049 A 
ATOM     36  H   UNL A   1      39.725  31.621  33.598  1.00  0.00     0.167 HD
ATOM     37  C   UNL A   1      40.981  31.977  36.154  1.00  0.00     0.074 A 
ATOM     38  C   UNL A   1      41.881  31.822  37.281  1.00  0.00     0.031 C 
ATOM     39  C   UNL A   1      39.985  32.894  36.086  1.00  0.00     0.037 A 
BRANCH  26  40
ATOM     40  C   UNL A   1      36.733  32.833  30.804  1.00  0.00     0.058 A 
ATOM     41  C   UNL A   1      36.980  33.774  29.791  1.00  0.00     0.135 A 
ATOM     42  C   UNL A   1      35.398  32.489  31.069  1.00  0.00     0.135 A 
ATOM     43  F   UNL A   1      38.238  34.160  29.521  1.00  0.00    -0.206 F 
ATOM     44  C   UNL A   1      35.940  34.388  29.101  1.00  0.00     0.059 A 
ATOM     45  C   UNL A   1      34.344  33.075  30.376  1.00  0.00     0.059 A 
ATOM     46  F   UNL A   1      35.107  31.603  32.035  1.00  0.00    -0.206 F 
ATOM     47  C   UNL A   1      34.624  34.041  29.412  1.00  0.00     0.060 A 
BRANCH  47  48
ATOM     48  S   UNL A   1      33.280  34.889  28.555  1.00  0.00     0.124 S 
ATOM     49  O   UNL A   1      32.483  35.376  29.677  1.00  0.00    -0.237 OA
ATOM     50  O   UNL A   1      33.989  35.911  27.791  1.00  0.00    -0.237 OA
ATOM     51  O   UNL A   1      32.665  33.831  27.760  1.00  0.00    -0.744 OA
ENDBRANCH  47  48
ENDBRANCH  26  40
BRANCH  27  52
ATOM     52  C   UNL A   1      44.268  28.598  35.890  1.00  0.00     0.058 A 
ATOM     53  C   UNL A   1      44.129  27.545  36.803  1.00  0.00     0.135 A 
ATOM     54  C   UNL A   1      45.570  29.053  35.615  1.00  0.00     0.135 A 
ATOM     55  F   UNL A   1      42.908  27.079  37.106  1.00  0.00    -0.206 F 
ATOM     56  C   UNL A   1      45.234  26.964  37.421  1.00  0.00     0.059 A 
ATOM     57  C   UNL A   1      46.691  28.474  36.202  1.00  0.00     0.059 A 
ATOM     58  F   UNL A   1      45.759  30.059  34.747  1.00  0.00    -0.206 F 
ATOM     59  C   UNL A   1      46.514  27.432  37.108  1.00  0.00     0.060 A 
BRANCH  59  60
ATOM     60  S   UNL A   1      47.944  26.628  37.867  1.00  0.00     0.124 S 
ATOM     61  O   UNL A   1      47.505  25.238  37.924  1.00  0.00    -0.237 OA
ATOM     62  O   UNL A   1      49.007  26.920  36.911  1.00  0.00    -0.237 OA
ATOM     63  O   UNL A   1      48.068  27.302  39.156  1.00  0.00    -0.744 OA
ENDBRANCH  59  60
ENDBRANCH  27  52
BRANCH  39  64
ATOM     64  C   UNL A   1      39.804  33.784  37.277  1.00  0.00     0.058 A 
ATOM     65  C   UNL A   1      40.441  35.030  37.361  1.00  0.00     0.135 A 
ATOM     66  C   UNL A   1      38.933  33.410  38.312  1.00  0.00     0.135 A 
ATOM     67  F   UNL A   1      41.291  35.421  36.399  1.00  0.00    -0.206 F 
ATOM     68  C   UNL A   1      40.224  35.879  38.439  1.00  0.00     0.059 A 
ATOM     69  C   UNL A   1      38.684  34.252  39.388  1.00  0.00     0.059 A 
ATOM     70  F   UNL A   1      38.301  32.226  38.270  1.00  0.00    -0.206 F 
ATOM     71  C   UNL A   1      39.340  35.482  39.446  1.00  0.00     0.060 A 
BRANCH  71  72
ATOM     72  S   UNL A   1      39.018  36.616  40.811  1.00  0.00     0.124 S 
ATOM     73  O   UNL A   1      38.040  35.864  41.591  1.00  0.00    -0.237 OA
ATOM     74  O   UNL A   1      40.338  36.761  41.418  1.00  0.00    -0.237 OA
ATOM     75  O   UNL A   1      38.508  37.810  40.145  1.00  0.00    -0.744 OA
ENDBRANCH  71  72
ENDBRANCH  39  64
ENDBRANCH  13  14
ENDBRANCH   6   8
ENDBRANCH   5   6
ENDBRANCH   4   5
ENDBRANCH   3   4
ENDBRANCH   2   3
ENDBRANCH   1   2
BRANCH   1  76
ATOM     76  C   UNL A   1      37.450  22.354  25.292  1.00  0.00     0.188 C 
BRANCH  76  77
ATOM     77  O   UNL A   1      36.636  21.273  25.749  1.00  0.00    -0.376 OA
BRANCH  77  78
ATOM     78  C   UNL A   1      35.531  20.907  24.926  1.00  0.00     0.202 C 
BRANCH  78  79
ATOM     79  C   UNL A   1      34.288  21.801  25.015  1.00  0.00     0.261 C 
BRANCH  79  80
ATOM     80  O   UNL A   1      33.087  21.272  24.428  1.00  0.00    -0.460 OA
BRANCH  80  81
ATOM     81  C   UNL A   1      32.458  22.084  23.542  1.00  0.00     0.340 C 
ATOM     82  O   UNL A   1      32.531  22.078  22.326  1.00  0.00    -0.246 OA
BRANCH  81  83
ATOM     83  C   UNL A   1      31.684  23.084  24.285  1.00  0.00     0.087 A 
ATOM     84  C   UNL A   1      31.049  22.625  25.446  1.00  0.00     0.060 A 
ATOM     85  C   UNL A   1      31.651  24.443  23.915  1.00  0.00     0.066 A 
ATOM     86  C   UNL A   1      30.374  23.531  26.244  1.00  0.00     0.159 A 
ATOM     87  C   UNL A   1      30.800  25.282  24.638  1.00  0.00     0.070 A 
ATOM     88  F   UNL A   1      29.827  23.116  27.391  1.00  0.00    -0.204 F 
ATOM     89  C   UNL A   1      30.228  24.845  25.830  1.00  0.00     0.160 A 
ATOM     90  F   UNL A   1      29.538  25.718  26.575  1.00  0.00    -0.204 F 
BRANCH  85  91
ATOM     91  N   UNL A   1      32.636  24.958  23.008  1.00  0.00    -0.279 N 
ATOM     92  H   UNL A   1      33.474  24.446  22.943  1.00  0.00     0.180 HD
BRANCH  91  93
ATOM     93  S   UNL A   1      32.529  26.327  22.048  1.00  0.00     0.261 S 
ATOM     94  O   UNL A   1      33.760  26.377  21.286  1.00  0.00    -0.201 OA
ATOM     95  O   UNL A   1      31.242  26.281  21.397  1.00  0.00    -0.201 OA
BRANCH  93  96
ATOM     96  C   UNL A   1      32.535  27.739  23.136  1.00  0.00     0.088 A 
ATOM     97  C   UNL A   1      31.375  28.545  23.172  1.00  0.00     0.022 A 
ATOM     98  C   UNL A   1      33.542  27.875  24.099  1.00  0.00     0.026 A 
ATOM     99  C   UNL A   1      31.173  29.446  24.219  1.00  0.00     0.005 A 
ATOM    100  C   UNL A   1      33.291  28.724  25.166  1.00  0.00    -0.043 A 
ATOM    101  C   UNL A   1      32.118  29.489  25.230  1.00  0.00    -0.045 A 
ATOM    102  C   UNL A   1      34.108  28.910  26.409  1.00  0.00     0.036 C 
ATOM    103  C   UNL A   1      32.056  30.264  26.512  1.00  0.00     0.036 C 
ATOM    104  C   UNL A   1      33.054  29.477  27.372  1.00  0.00     0.010 C 
ENDBRANCH  93  96
ENDBRANCH  91  93
ENDBRANCH  85  91
ENDBRANCH  81  83
ENDBRANCH  80  81
ENDBRANCH  79  80
ENDBRANCH  78  79
ENDBRANCH  77  78
ENDBRANCH  76  77
ENDBRANCH   1  76
TORSDOF 23
ENDMDL
MODEL 2
REMARK VINA RESULT:     -11.0      5.989     11.675
REMARK SMILES O=C(OCCOCCOCCOC(=O)c1cc(F)c(F)cc1NS(=O)(=O)c1ccc2c(c1)CCC2)c1ccc(-c2c3nc(c(-c4c(F)cc(S(=O)(=O)[O-])cc4F)c4ccc([nH]4)c(-c4c(F)cc(S(=O)(=O)[O-])cc4F)c4nc(c(-c5c(F)cc(S(=O)(=O)[O-])cc5F)c5ccc2[nH]5)C=C4)C=C3)cc1
REMARK SMILES IDX 7 1 6 2 5 3 4 4 3 5 2 6 1 7 36 8 37 9 101 10 38 11 100 12
REMARK SMILES IDX 39 13 40 14 41 15 94 16 42 17 99 18 93 19 95 20 43 21 98 22
REMARK SMILES IDX 92 23 91 24 44 26 78 27 57 28 77 29 58 30 61 31 76 32 96 33
REMARK SMILES IDX 59 34 60 35 75 37 97 38 62 39 45 40 46 41 55 42 47 43 48 44
REMARK SMILES IDX 54 45 56 46 49 47 50 48 51 49 52 50 53 51 79 52 80 53 89 54
REMARK SMILES IDX 81 55 82 56 88 57 90 58 83 59 84 60 85 61 86 62 87 63 63 64
REMARK SMILES IDX 64 65 73 66 65 67 66 68 72 69 74 70 67 71 68 72 69 73 70 74
REMARK SMILES IDX 71 75 8 76 9 77 10 78 11 79 12 80 13 81 14 82 15 83 16 84
REMARK SMILES IDX 22 85 17 86 21 87 18 88 19 89 20 90 23 91 24 93 25 94 26 95
REMARK SMILES IDX 27 96 28 97 32 98 29 99 31 100 30 101 33 102 35 103 34 104
REMARK H PARENT 95 25 61 36 23 92
REMARK Flexibility Score: inf
ROOT
ATOM      1  C   UNL A   1      34.334  33.190  28.007  1.00  0.00     0.188 C 
ENDROOT
BRANCH   1   2
ATOM      2  O   UNL A   1      34.844  33.918  29.130  1.00  0.00    -0.376 OA
BRANCH   2   3
ATOM      3  C   UNL A   1      36.249  33.752  29.332  1.00  0.00     0.202 C 
BRANCH   3   4
ATOM      4  C   UNL A   1      36.631  33.235  30.725  1.00  0.00     0.261 C 
BRANCH   4   5
ATOM      5  O   UNL A   1      36.097  31.929  30.980  1.00  0.00    -0.460 OA
BRANCH   5   6
ATOM      6  C   UNL A   1      36.771  30.750  31.048  1.00  0.00     0.338 C 
ATOM      7  O   UNL A   1      36.217  29.807  31.612  1.00  0.00    -0.246 OA
BRANCH   6   8
ATOM      8  C   UNL A   1      38.124  30.528  30.432  1.00  0.00     0.060 A 
ATOM      9  C   UNL A   1      38.377  30.367  29.068  1.00  0.00     0.016 A 
ATOM     10  C   UNL A   1      39.228  30.517  31.299  1.00  0.00     0.016 A 
ATOM     11  C   UNL A   1      39.649  30.051  28.595  1.00  0.00     0.010 A 
ATOM     12  C   UNL A   1      40.525  30.293  30.821  1.00  0.00     0.010 A 
ATOM     13  C   UNL A   1      40.732  29.996  29.468  1.00  0.00    -0.014 A 
BRANCH  13  14
ATOM     14  C   UNL A   1      42.033  29.484  28.980  1.00  0.00     0.031 A 
ATOM     15  C   UNL A   1      43.180  30.444  28.864  1.00  0.00     0.074 A 
ATOM     16  C   UNL A   1      42.223  28.174  28.746  1.00  0.00     0.049 A 
ATOM     17  N   UNL A   1      44.390  30.234  28.421  1.00  0.00    -0.248 NA
ATOM     18  C   UNL A   1      42.940  31.817  29.338  1.00  0.00     0.031 C 
ATOM     19  C   UNL A   1      41.226  27.129  28.971  1.00  0.00     0.029 A 
ATOM     20  N   UNL A   1      43.315  27.490  28.275  1.00  0.00    -0.354 N 
ATOM     21  C   UNL A   1      45.053  31.445  28.562  1.00  0.00     0.074 A 
ATOM     22  C   UNL A   1      44.104  32.396  29.093  1.00  0.00     0.031 C 
ATOM     23  C   UNL A   1      41.742  25.945  28.605  1.00  0.00     0.029 A 
ATOM     24  C   UNL A   1      43.074  26.154  28.065  1.00  0.00     0.049 A 
ATOM     25  H   UNL A   1      44.187  27.916  28.105  1.00  0.00     0.167 HD
ATOM     26  C   UNL A   1      46.347  31.728  28.291  1.00  0.00     0.037 A 
ATOM     27  C   UNL A   1      43.817  25.204  27.467  1.00  0.00     0.037 A 
ATOM     28  C   UNL A   1      47.278  30.770  27.763  1.00  0.00     0.049 A 
ATOM     29  C   UNL A   1      45.204  25.568  27.035  1.00  0.00     0.074 A 
ATOM     30  C   UNL A   1      48.604  30.951  27.420  1.00  0.00     0.029 A 
ATOM     31  N   UNL A   1      46.968  29.442  27.493  1.00  0.00    -0.354 N 
ATOM     32  N   UNL A   1      45.813  26.724  27.148  1.00  0.00    -0.248 NA
ATOM     33  C   UNL A   1      46.014  24.510  26.424  1.00  0.00     0.031 C 
ATOM     34  C   UNL A   1      49.087  29.742  26.905  1.00  0.00     0.029 A 
ATOM     35  C   UNL A   1      48.072  28.798  26.963  1.00  0.00     0.049 A 
ATOM     36  H   UNL A   1      46.093  29.023  27.654  1.00  0.00     0.167 HD
ATOM     37  C   UNL A   1      47.092  26.528  26.650  1.00  0.00     0.074 A 
ATOM     38  C   UNL A   1      47.166  25.140  26.232  1.00  0.00     0.031 C 
ATOM     39  C   UNL A   1      48.114  27.413  26.558  1.00  0.00     0.037 A 
BRANCH  26  40
ATOM     40  C   UNL A   1      46.785  33.146  28.521  1.00  0.00     0.058 A 
ATOM     41  C   UNL A   1      46.655  34.132  27.528  1.00  0.00     0.135 A 
ATOM     42  C   UNL A   1      47.412  33.504  29.724  1.00  0.00     0.135 A 
ATOM     43  F   UNL A   1      46.091  33.831  26.347  1.00  0.00    -0.206 F 
ATOM     44  C   UNL A   1      47.173  35.411  27.704  1.00  0.00     0.059 A 
ATOM     45  C   UNL A   1      47.918  34.784  29.929  1.00  0.00     0.059 A 
ATOM     46  F   UNL A   1      47.572  32.596  30.699  1.00  0.00    -0.206 F 
ATOM     47  C   UNL A   1      47.816  35.722  28.904  1.00  0.00     0.060 A 
BRANCH  47  48
ATOM     48  S   UNL A   1      48.540  37.364  29.097  1.00  0.00     0.124 S 
ATOM     49  O   UNL A   1      49.801  37.049  29.760  1.00  0.00    -0.237 OA
ATOM     50  O   UNL A   1      48.647  37.826  27.717  1.00  0.00    -0.237 OA
ATOM     51  O   UNL A   1      47.559  38.071  29.916  1.00  0.00    -0.744 OA
ENDBRANCH  47  48
ENDBRANCH  26  40
BRANCH  27  52
ATOM     52  C   UNL A   1      43.240  23.855  27.214  1.00  0.00     0.058 A 
ATOM     53  C   UNL A   1      42.715  23.496  25.967  1.00  0.00     0.135 A 
ATOM     54  C   UNL A   1      43.248  22.877  28.224  1.00  0.00     0.135 A 
ATOM     55  F   UNL A   1      42.678  24.394  24.972  1.00  0.00    -0.206 F 
ATOM     56  C   UNL A   1      42.215  22.218  25.727  1.00  0.00     0.059 A 
ATOM     57  C   UNL A   1      42.774  21.587  28.003  1.00  0.00     0.059 A 
ATOM     58  F   UNL A   1      43.740  23.170  29.438  1.00  0.00    -0.206 F 
ATOM     59  C   UNL A   1      42.255  21.267  26.751  1.00  0.00     0.060 A 
BRANCH  59  60
ATOM     60  S   UNL A   1      41.662  19.594  26.409  1.00  0.00     0.124 S 
ATOM     61  O   UNL A   1      42.465  19.229  25.246  1.00  0.00    -0.237 OA
ATOM     62  O   UNL A   1      41.984  18.892  27.648  1.00  0.00    -0.237 OA
ATOM     63  O   UNL A   1      40.237  19.783  26.156  1.00  0.00    -0.744 OA
ENDBRANCH  59  60
ENDBRANCH  27  52
BRANCH  39  64
ATOM     64  C   UNL A   1      49.407  26.898  26.007  1.00  0.00     0.058 A 
ATOM     65  C   UNL A   1      49.706  26.987  24.640  1.00  0.00     0.135 A 
ATOM     66  C   UNL A   1      50.381  26.369  26.868  1.00  0.00     0.135 A 
ATOM     67  F   UNL A   1      48.798  27.474  23.780  1.00  0.00    -0.206 F 
ATOM     68  C   UNL A   1      50.930  26.563  24.141  1.00  0.00     0.059 A 
ATOM     69  C   UNL A   1      51.621  25.959  26.394  1.00  0.00     0.059 A 
ATOM     70  F   UNL A   1      50.138  26.269  28.185  1.00  0.00    -0.206 F 
ATOM     71  C   UNL A   1      51.883  26.054  25.027  1.00  0.00     0.060 A 
BRANCH  71  72
ATOM     72  S   UNL A   1      53.493  25.561  24.378  1.00  0.00     0.124 S 
ATOM     73  O   UNL A   1      53.377  25.956  22.978  1.00  0.00    -0.237 OA
ATOM     74  O   UNL A   1      54.414  26.354  25.188  1.00  0.00    -0.237 OA
ATOM     75  O   UNL A   1      53.531  24.123  24.627  1.00  0.00    -0.744 OA
ENDBRANCH  71  72
ENDBRANCH  39  64
ENDBRANCH  13  14
ENDBRANCH   6   8
ENDBRANCH   5   6
ENDBRANCH   4   5
ENDBRANCH   3   4
ENDBRANCH   2   3
ENDBRANCH   1   2
BRANCH   1  76
ATOM     76  C   UNL A   1      34.332  31.685  28.284  1.00  0.00     0.188 C 
BRANCH  76  77
ATOM     77  O   UNL A   1      33.771  30.880  27.245  1.00  0.00    -0.376 OA
BRANCH  77  78
ATOM     78  C   UNL A   1      34.292  29.560  27.103  1.00  0.00     0.202 C 
BRANCH  78  79
ATOM     79  C   UNL A   1      33.263  28.433  26.952  1.00  0.00     0.261 C 
BRANCH  79  80
ATOM     80  O   UNL A   1      33.597  27.396  26.014  1.00  0.00    -0.460 OA
BRANCH  80  81
ATOM     81  C   UNL A   1      33.304  27.660  24.716  1.00  0.00     0.340 C 
ATOM     82  O   UNL A   1      34.030  28.132  23.858  1.00  0.00    -0.246 OA
BRANCH  81  83
ATOM     83  C   UNL A   1      31.891  27.352  24.479  1.00  0.00     0.087 A 
ATOM     84  C   UNL A   1      31.204  28.238  23.639  1.00  0.00     0.060 A 
ATOM     85  C   UNL A   1      31.275  26.189  24.985  1.00  0.00     0.066 A 
ATOM     86  C   UNL A   1      29.892  27.961  23.301  1.00  0.00     0.159 A 
ATOM     87  C   UNL A   1      29.901  26.053  24.780  1.00  0.00     0.070 A 
ATOM     88  F   UNL A   1      29.252  28.761  22.443  1.00  0.00    -0.204 F 
ATOM     89  C   UNL A   1      29.236  26.891  23.888  1.00  0.00     0.160 A 
ATOM     90  F   UNL A   1      27.952  26.643  23.601  1.00  0.00    -0.204 F 
BRANCH  85  91
ATOM     91  N   UNL A   1      32.085  25.103  25.457  1.00  0.00    -0.279 N 
ATOM     92  H   UNL A   1      33.050  25.282  25.529  1.00  0.00     0.180 HD
BRANCH  91  93
ATOM     93  S   UNL A   1      31.582  23.568  25.902  1.00  0.00     0.261 S 
ATOM     94  O   UNL A   1      31.069  23.691  27.251  1.00  0.00    -0.201 OA
ATOM     95  O   UNL A   1      30.760  23.070  24.826  1.00  0.00    -0.201 OA
BRANCH  93  96
ATOM     96  C   UNL A   1      33.037  22.540  25.992  1.00  0.00     0.088 A 
ATOM     97  C   UNL A   1      32.897  21.175  25.657  1.00  0.00     0.022 A 
ATOM     98  C   UNL A   1      34.300  23.128  26.129  1.00  0.00     0.026 A 
ATOM     99  C   UNL A   1      34.022  20.398  25.378  1.00  0.00     0.005 A 
ATOM    100  C   UNL A   1      35.399  22.358  25.781  1.00  0.00    -0.043 A 
ATOM    101  C   UNL A   1      35.260  21.016  25.400  1.00  0.00    -0.045 A 
ATOM    102  C   UNL A   1      36.829  22.793  25.660  1.00  0.00     0.036 C 
ATOM    103  C   UNL A   1      36.584  20.433  25.007  1.00  0.00     0.036 C 
ATOM    104  C   UNL A   1      37.388  21.710  24.726  1.00  0.00     0.010 C 
ENDBRANCH  93  96
ENDBRANCH  91  93
ENDBRANCH  85  91
ENDBRANCH  81  83
ENDBRANCH  80  81
ENDBRANCH  79  80
ENDBRANCH  78  79
ENDBRANCH  77  78
ENDBRANCH  76  77
ENDBRANCH   1  76
TORSDOF 23
ENDMDL
MODEL 3
REMARK VINA RESULT:     -11.0      6.193     11.047
REMARK SMILES O=C(OCCOCCOCCOC(=O)c1cc(F)c(F)cc1NS(=O)(=O)c1ccc2c(c1)CCC2)c1ccc(-c2c3nc(c(-c4c(F)cc(S(=O)(=O)[O-])cc4F)c4ccc([nH]4)c(-c4c(F)cc(S(=O)(=O)[O-])cc4F)c4nc(c(-c5c(F)cc(S(=O)(=O)[O-])cc5F)c5ccc2[nH]5)C=C4)C=C3)cc1
REMARK SMILES IDX 7 1 6 2 5 3 4 4 3 5 2 6 1 7 36 8 37 9 101 10 38 11 100 12
REMARK SMILES IDX 39 13 40 14 41 15 94 16 42 17 99 18 93 19 95 20 43 21 98 22
REMARK SMILES IDX 92 23 91 24 44 26 78 27 57 28 77 29 58 30 61 31 76 32 96 33
REMARK SMILES IDX 59 34 60 35 75 37 97 38 62 39 45 40 46 41 55 42 47 43 48 44
REMARK SMILES IDX 54 45 56 46 49 47 50 48 51 49 52 50 53 51 79 52 80 53 89 54
REMARK SMILES IDX 81 55 82 56 88 57 90 58 83 59 84 60 85 61 86 62 87 63 63 64
REMARK SMILES IDX 64 65 73 66 65 67 66 68 72 69 74 70 67 71 68 72 69 73 70 74
REMARK SMILES IDX 71 75 8 76 9 77 10 78 11 79 12 80 13 81 14 82 15 83 16 84
REMARK SMILES IDX 22 85 17 86 21 87 18 88 19 89 20 90 23 91 24 93 25 94 26 95
REMARK SMILES IDX 27 96 28 97 32 98 29 99 31 100 30 101 33 102 35 103 34 104
REMARK H PARENT 95 25 61 36 23 92
REMARK Flexibility Score: inf
ROOT
ATOM      1  C   UNL A   1      40.234  21.625  26.604  1.00  0.00     0.188 C 
ENDROOT
BRANCH   1   2
ATOM      2  O   UNL A   1      40.879  20.431  27.058  1.00  0.00    -0.376 OA
BRANCH   2   3
ATOM      3  C   UNL A   1      41.070  19.455  26.031  1.00  0.00     0.202 C 
BRANCH   3   4
ATOM      4  C   UNL A   1      42.292  18.550  26.238  1.00  0.00     0.261 C 
BRANCH   4   5
ATOM      5  O   UNL A   1      43.155  18.541  25.092  1.00  0.00    -0.460 OA
BRANCH   5   6
ATOM      6  C   UNL A   1      44.209  19.360  24.835  1.00  0.00     0.338 C 
ATOM      7  O   UNL A   1      45.196  18.866  24.291  1.00  0.00    -0.246 OA
BRANCH   6   8
ATOM      8  C   UNL A   1      44.211  20.833  25.132  1.00  0.00     0.060 A 
ATOM      9  C   UNL A   1      44.213  21.853  24.178  1.00  0.00     0.016 A 
ATOM     10  C   UNL A   1      44.170  21.213  26.483  1.00  0.00     0.016 A 
ATOM     11  C   UNL A   1      44.331  23.192  24.542  1.00  0.00     0.010 A 
ATOM     12  C   UNL A   1      44.194  22.562  26.859  1.00  0.00     0.010 A 
ATOM     13  C   UNL A   1      44.337  23.559  25.886  1.00  0.00    -0.014 A 
BRANCH  13  14
ATOM     14  C   UNL A   1      44.643  24.960  26.254  1.00  0.00     0.031 A 
ATOM     15  C   UNL A   1      46.059  25.438  26.128  1.00  0.00     0.074 A 
ATOM     16  C   UNL A   1      43.667  25.821  26.592  1.00  0.00     0.049 A 
ATOM     17  N   UNL A   1      46.567  26.602  26.432  1.00  0.00    -0.248 NA
ATOM     18  C   UNL A   1      47.026  24.488  25.553  1.00  0.00     0.031 C 
ATOM     19  C   UNL A   1      42.239  25.508  26.600  1.00  0.00     0.029 A 
ATOM     20  N   UNL A   1      43.719  27.134  26.986  1.00  0.00    -0.354 N 
ATOM     21  C   UNL A   1      47.909  26.523  26.088  1.00  0.00     0.074 A 
ATOM     22  C   UNL A   1      48.149  25.188  25.590  1.00  0.00     0.031 C 
ATOM     23  C   UNL A   1      41.557  26.588  27.013  1.00  0.00     0.029 A 
ATOM     24  C   UNL A   1      42.496  27.641  27.357  1.00  0.00     0.049 A 
ATOM     25  H   UNL A   1      44.550  27.662  27.001  1.00  0.00     0.167 HD
ATOM     26  C   UNL A   1      48.852  27.490  26.164  1.00  0.00     0.037 A 
ATOM     27  C   UNL A   1      42.164  28.804  27.948  1.00  0.00     0.037 A 
ATOM     28  C   UNL A   1      48.597  28.813  26.663  1.00  0.00     0.049 A 
ATOM     29  C   UNL A   1      43.245  29.816  28.162  1.00  0.00     0.074 A 
ATOM     30  C   UNL A   1      49.480  29.865  26.815  1.00  0.00     0.029 A 
ATOM     31  N   UNL A   1      47.356  29.260  27.101  1.00  0.00    -0.354 N 
ATOM     32  N   UNL A   1      44.518  29.722  27.858  1.00  0.00    -0.248 NA
ATOM     33  C   UNL A   1      42.857  31.094  28.768  1.00  0.00     0.031 C 
ATOM     34  C   UNL A   1      48.782  30.937  27.383  1.00  0.00     0.029 A 
ATOM     35  C   UNL A   1      47.455  30.566  27.548  1.00  0.00     0.049 A 
ATOM     36  H   UNL A   1      46.530  28.727  27.094  1.00  0.00     0.167 HD
ATOM     37  C   UNL A   1      45.081  30.940  28.207  1.00  0.00     0.074 A 
ATOM     38  C   UNL A   1      44.008  31.754  28.749  1.00  0.00     0.031 C 
ATOM     39  C   UNL A   1      46.367  31.349  28.081  1.00  0.00     0.037 A 
BRANCH  26  40
ATOM     40  C   UNL A   1      50.240  27.107  25.740  1.00  0.00     0.058 A 
ATOM     41  C   UNL A   1      51.196  26.647  26.662  1.00  0.00     0.135 A 
ATOM     42  C   UNL A   1      50.642  27.274  24.406  1.00  0.00     0.135 A 
ATOM     43  F   UNL A   1      50.870  26.501  27.957  1.00  0.00    -0.206 F 
ATOM     44  C   UNL A   1      52.513  26.410  26.284  1.00  0.00     0.059 A 
ATOM     45  C   UNL A   1      51.949  27.021  24.002  1.00  0.00     0.059 A 
ATOM     46  F   UNL A   1      49.770  27.721  23.489  1.00  0.00    -0.206 F 
ATOM     47  C   UNL A   1      52.883  26.615  24.953  1.00  0.00     0.060 A 
BRANCH  47  48
ATOM     48  S   UNL A   1      54.609  26.365  24.486  1.00  0.00     0.124 S 
ATOM     49  O   UNL A   1      54.824  24.982  24.899  1.00  0.00    -0.237 OA
ATOM     50  O   UNL A   1      54.582  26.598  23.045  1.00  0.00    -0.237 OA
ATOM     51  O   UNL A   1      55.319  27.373  25.267  1.00  0.00    -0.744 OA
ENDBRANCH  47  48
ENDBRANCH  26  40
BRANCH  27  52
ATOM     52  C   UNL A   1      40.766  29.034  28.404  1.00  0.00     0.058 A 
ATOM     53  C   UNL A   1      40.411  28.986  29.758  1.00  0.00     0.135 A 
ATOM     54  C   UNL A   1      39.757  29.355  27.478  1.00  0.00     0.135 A 
ATOM     55  F   UNL A   1      41.333  28.678  30.681  1.00  0.00    -0.206 F 
ATOM     56  C   UNL A   1      39.108  29.244  30.181  1.00  0.00     0.059 A 
ATOM     57  C   UNL A   1      38.454  29.638  27.877  1.00  0.00     0.059 A 
ATOM     58  F   UNL A   1      40.044  29.414  26.168  1.00  0.00    -0.206 F 
ATOM     59  C   UNL A   1      38.137  29.576  29.232  1.00  0.00     0.060 A 
BRANCH  59  60
ATOM     60  S   UNL A   1      36.467  29.971  29.798  1.00  0.00     0.124 S 
ATOM     61  O   UNL A   1      35.657  29.495  28.682  1.00  0.00    -0.237 OA
ATOM     62  O   UNL A   1      36.367  29.196  31.031  1.00  0.00    -0.237 OA
ATOM     63  O   UNL A   1      36.502  31.419  29.978  1.00  0.00    -0.744 OA
ENDBRANCH  59  60
ENDBRANCH  27  52
BRANCH  39  64
ATOM     64  C   UNL A   1      46.676  32.750  28.512  1.00  0.00     0.058 A 
ATOM     65  C   UNL A   1      47.099  33.035  29.818  1.00  0.00     0.135 A 
ATOM     66  C   UNL A   1      46.607  33.805  27.588  1.00  0.00     0.135 A 
ATOM     67  F   UNL A   1      47.166  32.058  30.736  1.00  0.00    -0.206 F 
ATOM     68  C   UNL A   1      47.442  34.326  30.198  1.00  0.00     0.059 A 
ATOM     69  C   UNL A   1      46.967  35.099  27.941  1.00  0.00     0.059 A 
ATOM     70  F   UNL A   1      46.210  33.575  26.327  1.00  0.00    -0.206 F 
ATOM     71  C   UNL A   1      47.376  35.351  29.251  1.00  0.00     0.060 A 
BRANCH  71  72
ATOM     72  S   UNL A   1      47.881  37.013  29.737  1.00  0.00     0.124 S 
ATOM     73  O   UNL A   1      46.622  37.573  30.217  1.00  0.00    -0.237 OA
ATOM     74  O   UNL A   1      48.889  36.749  30.759  1.00  0.00    -0.237 OA
ATOM     75  O   UNL A   1      48.393  37.587  28.496  1.00  0.00    -0.744 OA
ENDBRANCH  71  72
ENDBRANCH  39  64
ENDBRANCH  13  14
ENDBRANCH   6   8
ENDBRANCH   5   6
ENDBRANCH   4   5
ENDBRANCH   3   4
ENDBRANCH   2   3
ENDBRANCH   1   2
BRANCH   1  76
ATOM     76  C   UNL A   1      39.094  21.300  25.637  1.00  0.00     0.188 C 
BRANCH  76  77
ATOM     77  O   UNL A   1      37.811  21.796  26.025  1.00  0.00    -0.376 OA
BRANCH  77  78
ATOM     78  C   UNL A   1      37.570  23.186  25.819  1.00  0.00     0.202 C 
BRANCH  78  79
ATOM     79  C   UNL A   1      36.673  23.554  24.632  1.00  0.00     0.261 C 
BRANCH  79  80
ATOM     80  O   UNL A   1      35.533  24.376  24.933  1.00  0.00    -0.460 OA
BRANCH  80  81
ATOM     81  C   UNL A   1      34.660  24.570  23.913  1.00  0.00     0.340 C 
ATOM     82  O   UNL A   1      34.677  24.076  22.799  1.00  0.00    -0.246 OA
BRANCH  81  83
ATOM     83  C   UNL A   1      33.669  25.570  24.323  1.00  0.00     0.087 A 
ATOM     84  C   UNL A   1      33.649  26.753  23.574  1.00  0.00     0.060 A 
ATOM     85  C   UNL A   1      32.731  25.329  25.347  1.00  0.00     0.066 A 
ATOM     86  C   UNL A   1      32.683  27.704  23.849  1.00  0.00     0.159 A 
ATOM     87  C   UNL A   1      31.905  26.391  25.719  1.00  0.00     0.070 A 
ATOM     88  F   UNL A   1      32.609  28.804  23.092  1.00  0.00    -0.204 F 
ATOM     89  C   UNL A   1      31.834  27.537  24.931  1.00  0.00     0.160 A 
ATOM     90  F   UNL A   1      30.925  28.474  25.230  1.00  0.00    -0.204 F 
BRANCH  85  91
ATOM     91  N   UNL A   1      32.488  23.986  25.788  1.00  0.00    -0.279 N 
ATOM     92  H   UNL A   1      32.928  23.720  26.628  1.00  0.00     0.180 HD
BRANCH  91  93
ATOM     93  S   UNL A   1      31.545  22.818  25.045  1.00  0.00     0.261 S 
ATOM     94  O   UNL A   1      30.672  22.294  26.075  1.00  0.00    -0.201 OA
ATOM     95  O   UNL A   1      31.017  23.411  23.840  1.00  0.00    -0.201 OA
BRANCH  93  96
ATOM     96  C   UNL A   1      32.632  21.489  24.562  1.00  0.00     0.088 A 
ATOM     97  C   UNL A   1      33.801  21.287  25.328  1.00  0.00     0.022 A 
ATOM     98  C   UNL A   1      32.198  20.534  23.635  1.00  0.00     0.026 A 
ATOM     99  C   UNL A   1      34.512  20.089  25.231  1.00  0.00     0.005 A 
ATOM    100  C   UNL A   1      32.878  19.325  23.603  1.00  0.00    -0.043 A 
ATOM    101  C   UNL A   1      34.010  19.103  24.398  1.00  0.00    -0.045 A 
ATOM    102  C   UNL A   1      32.514  18.082  22.847  1.00  0.00     0.036 C 
ATOM    103  C   UNL A   1      34.512  17.700  24.233  1.00  0.00     0.036 C 
ATOM    104  C   UNL A   1      33.265  17.015  23.658  1.00  0.00     0.010 C 
ENDBRANCH  93  96
ENDBRANCH  91  93
ENDBRANCH  85  91
ENDBRANCH  81  83
ENDBRANCH  80  81
ENDBRANCH  79  80
ENDBRANCH  78  79
ENDBRANCH  77  78
ENDBRANCH  76  77
ENDBRANCH   1  76
TORSDOF 23
ENDMDL
