MODEL 1
REMARK VINA RESULT:     -12.1      0.000      0.000
REMARK SMILES O=C(OCCOCCOCCOC(=O)[C@H](NC(=O)[C@H]1CC[C@@H](CNC(=O)[C@@H]2Cc3ccccc3C[NH2+]2)CC1)c1ccccc1)c1ccc(-c2c3nc(c(-c4c(F)cc(S(=O)(=O)[O-])cc4F)c4ccc([nH]4)c(-c4c(F)cc(S(=O)(=O)[O-])cc4F)c4nc(c(-c5c(F)cc(S(=O)(=O)[O-])cc5F)c5ccc2[nH]5)C=C4)C=C3)cc1
REMARK SMILES IDX 8 1 7 2 6 3 5 4 4 5 3 6 2 7 1 8 45 9 46 10 110 11 47 12
REMARK SMILES IDX 109 13 48 14 49 15 50 16 103 17 51 18 108 19 102 20 104 21
REMARK SMILES IDX 52 22 107 23 101 24 100 25 53 27 87 28 66 29 86 30 67 31
REMARK SMILES IDX 70 32 85 33 105 34 68 35 69 36 84 38 106 39 71 40 54 41
REMARK SMILES IDX 55 42 64 43 56 44 57 45 63 46 65 47 58 48 59 49 60 50 61 51
REMARK SMILES IDX 62 52 88 53 89 54 98 55 90 56 91 57 97 58 99 59 92 60 93 61
REMARK SMILES IDX 94 62 95 63 96 64 72 65 73 66 82 67 74 68 75 69 81 70 83 71
REMARK SMILES IDX 76 72 77 73 78 74 79 75 80 76 9 77 10 78 11 79 12 80 13 81
REMARK SMILES IDX 14 82 15 83 39 84 40 85 44 86 41 87 43 88 42 89 16 90 17 91
REMARK SMILES IDX 18 93 19 94 38 95 20 96 37 97 21 98 22 99 23 100 24 101
REMARK SMILES IDX 25 102 26 104 27 105 28 106 36 107 29 108 35 109 30 112
REMARK SMILES IDX 34 113 31 114 33 115 32 116
REMARK H PARENT 104 26 70 37 16 92 24 103 36 110 36 111
REMARK Flexibility Score: inf
ROOT
ATOM      1  C   UNL A   1      33.318  31.197  27.443  1.00  0.00     0.188 C 
ENDROOT
BRANCH   1   2
ATOM      2  C   UNL A   1      34.107  32.187  28.290  1.00  0.00     0.188 C 
BRANCH   2   3
ATOM      3  O   UNL A   1      35.081  32.929  27.562  1.00  0.00    -0.376 OA
BRANCH   3   4
ATOM      4  C   UNL A   1      36.319  33.164  28.221  1.00  0.00     0.202 C 
BRANCH   4   5
ATOM      5  C   UNL A   1      36.208  33.558  29.699  1.00  0.00     0.261 C 
BRANCH   5   6
ATOM      6  O   UNL A   1      36.949  32.706  30.584  1.00  0.00    -0.460 OA
BRANCH   6   7
ATOM      7  C   UNL A   1      37.057  31.353  30.496  1.00  0.00     0.338 C 
ATOM      8  O   UNL A   1      36.108  30.668  30.873  1.00  0.00    -0.246 OA
BRANCH   7   9
ATOM      9  C   UNL A   1      38.345  30.656  30.151  1.00  0.00     0.060 A 
ATOM     10  C   UNL A   1      39.347  30.302  31.057  1.00  0.00     0.016 A 
ATOM     11  C   UNL A   1      38.559  30.334  28.795  1.00  0.00     0.016 A 
ATOM     12  C   UNL A   1      40.494  29.628  30.660  1.00  0.00     0.010 A 
ATOM     13  C   UNL A   1      39.743  29.713  28.371  1.00  0.00     0.010 A 
ATOM     14  C   UNL A   1      40.722  29.384  29.309  1.00  0.00    -0.014 A 
BRANCH  14  15
ATOM     15  C   UNL A   1      42.117  29.088  28.933  1.00  0.00     0.031 A 
ATOM     16  C   UNL A   1      42.403  27.689  28.465  1.00  0.00     0.074 A 
ATOM     17  C   UNL A   1      43.028  30.070  28.833  1.00  0.00     0.049 A 
ATOM     18  N   UNL A   1      43.502  27.185  27.976  1.00  0.00    -0.248 NA
ATOM     19  C   UNL A   1      41.277  26.737  28.519  1.00  0.00     0.031 C 
ATOM     20  C   UNL A   1      42.785  31.479  29.137  1.00  0.00     0.029 A 
ATOM     21  N   UNL A   1      44.332  30.033  28.419  1.00  0.00    -0.354 N 
ATOM     22  C   UNL A   1      43.197  25.866  27.659  1.00  0.00     0.074 A 
ATOM     23  C   UNL A   1      41.815  25.643  28.010  1.00  0.00     0.031 C 
ATOM     24  C   UNL A   1      43.912  32.176  28.907  1.00  0.00     0.029 A 
ATOM     25  C   UNL A   1      44.962  31.255  28.474  1.00  0.00     0.049 A 
ATOM     26  H   UNL A   1      44.778  29.211  28.112  1.00  0.00     0.167 HD
ATOM     27  C   UNL A   1      44.008  24.921  27.133  1.00  0.00     0.037 A 
ATOM     28  C   UNL A   1      46.248  31.569  28.224  1.00  0.00     0.037 A 
ATOM     29  C   UNL A   1      45.397  25.155  26.853  1.00  0.00     0.049 A 
ATOM     30  C   UNL A   1      47.172  30.468  27.766  1.00  0.00     0.074 A 
ATOM     31  C   UNL A   1      46.353  24.260  26.412  1.00  0.00     0.029 A 
ATOM     32  N   UNL A   1      46.030  26.381  27.010  1.00  0.00    -0.354 N 
ATOM     33  N   UNL A   1      46.890  29.209  27.512  1.00  0.00    -0.248 NA
ATOM     34  C   UNL A   1      48.584  30.818  27.568  1.00  0.00     0.031 C 
ATOM     35  C   UNL A   1      47.577  24.936  26.355  1.00  0.00     0.029 A 
ATOM     36  C   UNL A   1      47.370  26.265  26.699  1.00  0.00     0.049 A 
ATOM     37  H   UNL A   1      45.587  27.212  27.301  1.00  0.00     0.167 HD
ATOM     38  C   UNL A   1      48.084  28.623  27.104  1.00  0.00     0.074 A 
ATOM     39  C   UNL A   1      49.087  29.669  27.135  1.00  0.00     0.031 C 
ATOM     40  C   UNL A   1      48.333  27.340  26.736  1.00  0.00     0.037 A 
BRANCH  27  41
ATOM     41  C   UNL A   1      43.421  23.553  26.937  1.00  0.00     0.058 A 
ATOM     42  C   UNL A   1      43.143  22.700  28.017  1.00  0.00     0.135 A 
ATOM     43  C   UNL A   1      43.197  23.062  25.640  1.00  0.00     0.135 A 
ATOM     44  F   UNL A   1      43.374  23.104  29.277  1.00  0.00    -0.206 F 
ATOM     45  C   UNL A   1      42.696  21.396  27.818  1.00  0.00     0.059 A 
ATOM     46  C   UNL A   1      42.728  21.771  25.418  1.00  0.00     0.059 A 
ATOM     47  F   UNL A   1      43.465  23.829  24.572  1.00  0.00    -0.206 F 
ATOM     48  C   UNL A   1      42.500  20.938  26.513  1.00  0.00     0.060 A 
BRANCH  48  49
ATOM     49  S   UNL A   1      41.963  19.233  26.266  1.00  0.00     0.124 S 
ATOM     50  O   UNL A   1      40.512  19.380  26.269  1.00  0.00    -0.237 OA
ATOM     51  O   UNL A   1      42.563  18.901  24.977  1.00  0.00    -0.237 OA
ATOM     52  O   UNL A   1      42.525  18.530  27.415  1.00  0.00    -0.744 OA
ENDBRANCH  48  49
ENDBRANCH  27  41
BRANCH  28  53
ATOM     53  C   UNL A   1      46.736  32.960  28.441  1.00  0.00     0.058 A 
ATOM     54  C   UNL A   1      46.743  33.910  27.410  1.00  0.00     0.135 A 
ATOM     55  C   UNL A   1      47.204  33.369  29.702  1.00  0.00     0.135 A 
ATOM     56  F   UNL A   1      46.319  33.572  26.184  1.00  0.00    -0.206 F 
ATOM     57  C   UNL A   1      47.199  35.211  27.617  1.00  0.00     0.059 A 
ATOM     58  C   UNL A   1      47.639  34.670  29.941  1.00  0.00     0.059 A 
ATOM     59  F   UNL A   1      47.220  32.503  30.727  1.00  0.00    -0.206 F 
ATOM     60  C   UNL A   1      47.639  35.583  28.889  1.00  0.00     0.060 A 
BRANCH  60  61
ATOM     61  S   UNL A   1      48.175  37.287  29.161  1.00  0.00     0.124 S 
ATOM     62  O   UNL A   1      47.704  37.531  30.520  1.00  0.00    -0.237 OA
ATOM     63  O   UNL A   1      49.621  37.180  28.995  1.00  0.00    -0.237 OA
ATOM     64  O   UNL A   1      47.485  38.031  28.111  1.00  0.00    -0.744 OA
ENDBRANCH  60  61
ENDBRANCH  28  53
BRANCH  40  65
ATOM     65  C   UNL A   1      49.731  27.006  26.302  1.00  0.00     0.058 A 
ATOM     66  C   UNL A   1      50.701  26.567  27.215  1.00  0.00     0.135 A 
ATOM     67  C   UNL A   1      50.071  27.038  24.940  1.00  0.00     0.135 A 
ATOM     68  F   UNL A   1      50.424  26.523  28.527  1.00  0.00    -0.206 F 
ATOM     69  C   UNL A   1      51.969  26.182  26.792  1.00  0.00     0.059 A 
ATOM     70  C   UNL A   1      51.323  26.631  24.492  1.00  0.00     0.059 A 
ATOM     71  F   UNL A   1      49.171  27.437  24.027  1.00  0.00    -0.206 F 
ATOM     72  C   UNL A   1      52.267  26.213  25.428  1.00  0.00     0.060 A 
BRANCH  72  73
ATOM     73  S   UNL A   1      53.896  25.658  24.886  1.00  0.00     0.124 S 
ATOM     74  O   UNL A   1      53.702  24.214  24.806  1.00  0.00    -0.237 OA
ATOM     75  O   UNL A   1      54.054  26.349  23.610  1.00  0.00    -0.237 OA
ATOM     76  O   UNL A   1      54.782  26.115  25.954  1.00  0.00    -0.744 OA
ENDBRANCH  72  73
ENDBRANCH  40  65
ENDBRANCH  14  15
ENDBRANCH   7   9
ENDBRANCH   6   7
ENDBRANCH   5   6
ENDBRANCH   4   5
ENDBRANCH   3   4
ENDBRANCH   2   3
ENDBRANCH   1   2
BRANCH   1  77
ATOM     77  O   UNL A   1      34.032  30.018  27.085  1.00  0.00    -0.376 OA
BRANCH  77  78
ATOM     78  C   UNL A   1      33.342  28.788  27.291  1.00  0.00     0.202 C 
BRANCH  78  79
ATOM     79  C   UNL A   1      33.304  27.865  26.064  1.00  0.00     0.261 C 
BRANCH  79  80
ATOM     80  O   UNL A   1      32.115  27.973  25.256  1.00  0.00    -0.461 OA
BRANCH  80  81
ATOM     81  C   UNL A   1      32.289  28.467  24.002  1.00  0.00     0.333 C 
ATOM     82  O   UNL A   1      33.116  29.337  23.743  1.00  0.00    -0.249 OA
BRANCH  81  83
ATOM     83  C   UNL A   1      31.342  27.781  22.967  1.00  0.00     0.223 C 
BRANCH  83  84
ATOM     84  C   UNL A   1      30.083  28.623  22.756  1.00  0.00    -0.014 A 
ATOM     85  C   UNL A   1      28.837  28.309  23.321  1.00  0.00     0.006 A 
ATOM     86  C   UNL A   1      30.170  29.763  21.933  1.00  0.00     0.006 A 
ATOM     87  C   UNL A   1      27.702  29.059  23.002  1.00  0.00     0.000 A 
ATOM     88  C   UNL A   1      29.037  30.507  21.614  1.00  0.00     0.000 A 
ATOM     89  C   UNL A   1      27.801  30.145  22.137  1.00  0.00     0.000 A 
ENDBRANCH  83  84
BRANCH  83  90
ATOM     90  N   UNL A   1      31.913  27.270  21.701  1.00  0.00    -0.339 N 
ATOM     91  C   UNL A   1      32.493  26.075  21.385  1.00  0.00     0.224 C 
ATOM     92  H   UNL A   1      31.865  27.906  20.951  1.00  0.00     0.164 HD
ATOM     93  O   UNL A   1      33.305  26.032  20.460  1.00  0.00    -0.275 OA
BRANCH  91  94
ATOM     94  C   UNL A   1      32.041  24.826  22.109  1.00  0.00     0.078 C 
ATOM     95  C   UNL A   1      33.203  23.861  22.412  1.00  0.00     0.014 C 
ATOM     96  C   UNL A   1      31.255  25.104  23.382  1.00  0.00     0.014 C 
ATOM     97  C   UNL A   1      32.710  22.555  23.056  1.00  0.00     0.006 C 
ATOM     98  C   UNL A   1      30.654  23.779  23.848  1.00  0.00     0.006 C 
ATOM     99  C   UNL A   1      31.756  22.780  24.242  1.00  0.00     0.008 C 
BRANCH  99 100
ATOM    100  C   UNL A   1      32.533  23.225  25.497  1.00  0.00     0.119 C 
BRANCH 100 101
ATOM    101  N   UNL A   1      33.960  23.132  25.268  1.00  0.00    -0.351 N 
ATOM    102  C   UNL A   1      34.876  22.321  25.851  1.00  0.00     0.278 C 
ATOM    103  H   UNL A   1      34.318  23.749  24.590  1.00  0.00     0.163 HD
ATOM    104  O   UNL A   1      35.968  22.815  26.157  1.00  0.00    -0.268 OA
BRANCH 102 105
ATOM    105  C   UNL A   1      34.654  20.797  25.905  1.00  0.00     0.277 C 
ATOM    106  C   UNL A   1      34.929  20.023  24.597  1.00  0.00     0.111 C 
ATOM    107  N   UNL A   1      33.291  20.588  26.508  1.00  0.00    -0.332 N 
ATOM    108  C   UNL A   1      34.381  18.620  24.730  1.00  0.00    -0.033 A 
ATOM    109  C   UNL A   1      32.411  19.792  25.662  1.00  0.00     0.298 C 
ATOM    110  H   UNL A   1      32.860  21.500  26.661  1.00  0.00     0.347 HD
ATOM    111  H   UNL A   1      33.419  20.078  27.382  1.00  0.00     0.347 HD
ATOM    112  C   UNL A   1      35.118  17.478  24.418  1.00  0.00     0.004 A 
ATOM    113  C   UNL A   1      33.104  18.506  25.304  1.00  0.00     0.010 A 
ATOM    114  C   UNL A   1      34.595  16.222  24.727  1.00  0.00     0.000 A 
ATOM    115  C   UNL A   1      32.583  17.248  25.603  1.00  0.00     0.010 A 
ATOM    116  C   UNL A   1      33.337  16.108  25.326  1.00  0.00     0.001 A 
ENDBRANCH 102 105
ENDBRANCH 100 101
ENDBRANCH  99 100
ENDBRANCH  91  94
ENDBRANCH  83  90
ENDBRANCH  81  83
ENDBRANCH  80  81
ENDBRANCH  79  80
ENDBRANCH  78  79
ENDBRANCH  77  78
ENDBRANCH   1  77
TORSDOF 26
ENDMDL
MODEL 2
REMARK VINA RESULT:     -11.1      4.332     11.050
REMARK SMILES O=C(OCCOCCOCCOC(=O)[C@H](NC(=O)[C@H]1CC[C@@H](CNC(=O)[C@@H]2Cc3ccccc3C[NH2+]2)CC1)c1ccccc1)c1ccc(-c2c3nc(c(-c4c(F)cc(S(=O)(=O)[O-])cc4F)c4ccc([nH]4)c(-c4c(F)cc(S(=O)(=O)[O-])cc4F)c4nc(c(-c5c(F)cc(S(=O)(=O)[O-])cc5F)c5ccc2[nH]5)C=C4)C=C3)cc1
REMARK SMILES IDX 8 1 7 2 6 3 5 4 4 5 3 6 2 7 1 8 45 9 46 10 110 11 47 12
REMARK SMILES IDX 109 13 48 14 49 15 50 16 103 17 51 18 108 19 102 20 104 21
REMARK SMILES IDX 52 22 107 23 101 24 100 25 53 27 87 28 66 29 86 30 67 31
REMARK SMILES IDX 70 32 85 33 105 34 68 35 69 36 84 38 106 39 71 40 54 41
REMARK SMILES IDX 55 42 64 43 56 44 57 45 63 46 65 47 58 48 59 49 60 50 61 51
REMARK SMILES IDX 62 52 88 53 89 54 98 55 90 56 91 57 97 58 99 59 92 60 93 61
REMARK SMILES IDX 94 62 95 63 96 64 72 65 73 66 82 67 74 68 75 69 81 70 83 71
REMARK SMILES IDX 76 72 77 73 78 74 79 75 80 76 9 77 10 78 11 79 12 80 13 81
REMARK SMILES IDX 14 82 15 83 39 84 40 85 44 86 41 87 43 88 42 89 16 90 17 91
REMARK SMILES IDX 18 93 19 94 38 95 20 96 37 97 21 98 22 99 23 100 24 101
REMARK SMILES IDX 25 102 26 104 27 105 28 106 36 107 29 108 35 109 30 112
REMARK SMILES IDX 34 113 31 114 33 115 32 116
REMARK H PARENT 104 26 70 37 16 92 24 103 36 110 36 111
REMARK Flexibility Score: inf
ROOT
ATOM      1  C   UNL A   1      31.940  30.707  25.633  1.00  0.00     0.188 C 
ENDROOT
BRANCH   1   2
ATOM      2  C   UNL A   1      31.159  29.583  24.965  1.00  0.00     0.188 C 
BRANCH   2   3
ATOM      3  O   UNL A   1      31.234  28.336  25.650  1.00  0.00    -0.376 OA
BRANCH   3   4
ATOM      4  C   UNL A   1      32.487  27.663  25.601  1.00  0.00     0.202 C 
BRANCH   4   5
ATOM      5  C   UNL A   1      33.371  27.835  26.842  1.00  0.00     0.261 C 
BRANCH   5   6
ATOM      6  O   UNL A   1      34.430  28.788  26.672  1.00  0.00    -0.460 OA
BRANCH   6   7
ATOM      7  C   UNL A   1      35.007  29.533  27.652  1.00  0.00     0.338 C 
ATOM      8  O   UNL A   1      34.315  30.369  28.232  1.00  0.00    -0.246 OA
BRANCH   7   9
ATOM      9  C   UNL A   1      36.487  29.525  27.923  1.00  0.00     0.060 A 
ATOM     10  C   UNL A   1      37.487  29.792  26.985  1.00  0.00     0.016 A 
ATOM     11  C   UNL A   1      36.899  29.220  29.236  1.00  0.00     0.016 A 
ATOM     12  C   UNL A   1      38.833  29.797  27.326  1.00  0.00     0.010 A 
ATOM     13  C   UNL A   1      38.258  29.156  29.578  1.00  0.00     0.010 A 
ATOM     14  C   UNL A   1      39.226  29.421  28.606  1.00  0.00    -0.014 A 
BRANCH  14  15
ATOM     15  C   UNL A   1      40.636  29.020  28.759  1.00  0.00     0.031 A 
ATOM     16  C   UNL A   1      41.554  30.023  29.400  1.00  0.00     0.074 A 
ATOM     17  C   UNL A   1      41.025  27.759  28.513  1.00  0.00     0.049 A 
ATOM     18  N   UNL A   1      42.804  29.899  29.752  1.00  0.00    -0.248 NA
ATOM     19  C   UNL A   1      40.964  31.336  29.725  1.00  0.00     0.031 C 
ATOM     20  C   UNL A   1      40.157  26.690  28.020  1.00  0.00     0.029 A 
ATOM     21  N   UNL A   1      42.244  27.157  28.672  1.00  0.00    -0.354 N 
ATOM     22  C   UNL A   1      43.143  31.109  30.346  1.00  0.00     0.074 A 
ATOM     23  C   UNL A   1      41.976  31.957  30.306  1.00  0.00     0.031 C 
ATOM     24  C   UNL A   1      40.877  25.559  27.908  1.00  0.00     0.029 A 
ATOM     25  C   UNL A   1      42.261  25.836  28.289  1.00  0.00     0.049 A 
ATOM     26  H   UNL A   1      43.034  27.624  29.028  1.00  0.00     0.167 HD
ATOM     27  C   UNL A   1      44.334  31.483  30.865  1.00  0.00     0.037 A 
ATOM     28  C   UNL A   1      43.294  24.973  28.233  1.00  0.00     0.037 A 
ATOM     29  C   UNL A   1      45.497  30.641  30.833  1.00  0.00     0.049 A 
ATOM     30  C   UNL A   1      44.648  25.454  28.692  1.00  0.00     0.074 A 
ATOM     31  C   UNL A   1      46.787  30.931  31.234  1.00  0.00     0.029 A 
ATOM     32  N   UNL A   1      45.505  29.339  30.348  1.00  0.00    -0.354 N 
ATOM     33  N   UNL A   1      44.977  26.617  29.209  1.00  0.00    -0.248 NA
ATOM     34  C   UNL A   1      45.772  24.519  28.557  1.00  0.00     0.031 C 
ATOM     35  C   UNL A   1      47.585  29.820  30.941  1.00  0.00     0.029 A 
ATOM     36  C   UNL A   1      46.782  28.818  30.417  1.00  0.00     0.049 A 
ATOM     37  H   UNL A   1      44.716  28.859  30.007  1.00  0.00     0.167 HD
ATOM     38  C   UNL A   1      46.339  26.546  29.480  1.00  0.00     0.074 A 
ATOM     39  C   UNL A   1      46.769  25.221  29.079  1.00  0.00     0.031 C 
ATOM     40  C   UNL A   1      47.163  27.484  30.013  1.00  0.00     0.037 A 
BRANCH  27  41
ATOM     41  C   UNL A   1      44.433  32.882  31.403  1.00  0.00     0.058 A 
ATOM     42  C   UNL A   1      44.326  33.160  32.776  1.00  0.00     0.135 A 
ATOM     43  C   UNL A   1      44.568  33.968  30.523  1.00  0.00     0.135 A 
ATOM     44  F   UNL A   1      44.157  32.162  33.658  1.00  0.00    -0.206 F 
ATOM     45  C   UNL A   1      44.315  34.468  33.253  1.00  0.00     0.059 A 
ATOM     46  C   UNL A   1      44.583  35.282  30.981  1.00  0.00     0.059 A 
ATOM     47  F   UNL A   1      44.654  33.758  29.201  1.00  0.00    -0.206 F 
ATOM     48  C   UNL A   1      44.436  35.523  32.346  1.00  0.00     0.060 A 
BRANCH  48  49
ATOM     49  S   UNL A   1      44.375  37.214  32.973  1.00  0.00     0.124 S 
ATOM     50  O   UNL A   1      44.524  37.987  31.743  1.00  0.00    -0.237 OA
ATOM     51  O   UNL A   1      43.058  37.268  33.599  1.00  0.00    -0.237 OA
ATOM     52  O   UNL A   1      45.506  37.277  33.893  1.00  0.00    -0.744 OA
ENDBRANCH  48  49
ENDBRANCH  27  41
BRANCH  28  53
ATOM     53  C   UNL A   1      43.094  23.600  27.689  1.00  0.00     0.058 A 
ATOM     54  C   UNL A   1      42.656  22.541  28.497  1.00  0.00     0.135 A 
ATOM     55  C   UNL A   1      43.336  23.321  26.333  1.00  0.00     0.135 A 
ATOM     56  F   UNL A   1      42.421  22.746  29.802  1.00  0.00    -0.206 F 
ATOM     57  C   UNL A   1      42.469  21.258  27.985  1.00  0.00     0.059 A 
ATOM     58  C   UNL A   1      43.131  22.055  25.791  1.00  0.00     0.059 A 
ATOM     59  F   UNL A   1      43.756  24.296  25.511  1.00  0.00    -0.206 F 
ATOM     60  C   UNL A   1      42.703  21.027  26.628  1.00  0.00     0.060 A 
BRANCH  60  61
ATOM     61  S   UNL A   1      42.404  19.374  25.963  1.00  0.00     0.124 S 
ATOM     62  O   UNL A   1      42.952  18.528  27.017  1.00  0.00    -0.237 OA
ATOM     63  O   UNL A   1      40.951  19.361  25.824  1.00  0.00    -0.237 OA
ATOM     64  O   UNL A   1      43.145  19.376  24.705  1.00  0.00    -0.744 OA
ENDBRANCH  60  61
ENDBRANCH  28  53
BRANCH  40  65
ATOM     65  C   UNL A   1      48.599  27.102  30.226  1.00  0.00     0.058 A 
ATOM     66  C   UNL A   1      49.568  27.294  29.231  1.00  0.00     0.135 A 
ATOM     67  C   UNL A   1      49.020  26.624  31.477  1.00  0.00     0.135 A 
ATOM     68  F   UNL A   1      49.213  27.745  28.019  1.00  0.00    -0.206 F 
ATOM     69  C   UNL A   1      50.910  27.012  29.467  1.00  0.00     0.059 A 
ATOM     70  C   UNL A   1      50.359  26.362  31.743  1.00  0.00     0.059 A 
ATOM     71  F   UNL A   1      48.130  26.438  32.466  1.00  0.00    -0.206 F 
ATOM     72  C   UNL A   1      51.295  26.552  30.728  1.00  0.00     0.060 A 
BRANCH  72  73
ATOM     73  S   UNL A   1      53.045  26.243  31.038  1.00  0.00     0.124 S 
ATOM     74  O   UNL A   1      52.998  24.960  31.730  1.00  0.00    -0.237 OA
ATOM     75  O   UNL A   1      53.602  26.216  29.689  1.00  0.00    -0.237 OA
ATOM     76  O   UNL A   1      53.452  27.384  31.855  1.00  0.00    -0.744 OA
ENDBRANCH  72  73
ENDBRANCH  40  65
ENDBRANCH  14  15
ENDBRANCH   7   9
ENDBRANCH   6   7
ENDBRANCH   5   6
ENDBRANCH   4   5
ENDBRANCH   3   4
ENDBRANCH   2   3
ENDBRANCH   1   2
BRANCH   1  77
ATOM     77  O   UNL A   1      31.147  31.615  26.389  1.00  0.00    -0.376 OA
BRANCH  77  78
ATOM     78  C   UNL A   1      31.726  32.897  26.624  1.00  0.00     0.202 C 
BRANCH  78  79
ATOM     79  C   UNL A   1      32.585  32.986  27.894  1.00  0.00     0.261 C 
BRANCH  79  80
ATOM     80  O   UNL A   1      33.413  34.163  27.988  1.00  0.00    -0.461 OA
BRANCH  80  81
ATOM     81  C   UNL A   1      33.169  34.981  29.045  1.00  0.00     0.333 C 
ATOM     82  O   UNL A   1      32.276  35.824  29.036  1.00  0.00    -0.249 OA
BRANCH  81  83
ATOM     83  C   UNL A   1      34.131  34.694  30.241  1.00  0.00     0.223 C 
BRANCH  83  84
ATOM     84  C   UNL A   1      33.927  35.727  31.350  1.00  0.00    -0.014 A 
ATOM     85  C   UNL A   1      33.651  37.081  31.106  1.00  0.00     0.006 A 
ATOM     86  C   UNL A   1      34.044  35.304  32.689  1.00  0.00     0.006 A 
ATOM     87  C   UNL A   1      33.581  37.994  32.161  1.00  0.00     0.000 A 
ATOM     88  C   UNL A   1      33.978  36.217  33.738  1.00  0.00     0.000 A 
ATOM     89  C   UNL A   1      33.762  37.564  33.472  1.00  0.00     0.000 A 
ENDBRANCH  83  84
BRANCH  83  90
ATOM     90  N   UNL A   1      34.244  33.310  30.755  1.00  0.00    -0.339 N 
ATOM     91  C   UNL A   1      35.326  32.572  31.142  1.00  0.00     0.224 C 
ATOM     92  H   UNL A   1      33.384  32.838  30.833  1.00  0.00     0.164 HD
ATOM     93  O   UNL A   1      35.265  31.344  31.074  1.00  0.00    -0.275 OA
BRANCH  91  94
ATOM     94  C   UNL A   1      36.520  33.280  31.743  1.00  0.00     0.078 C 
ATOM     95  C   UNL A   1      36.723  32.943  33.232  1.00  0.00     0.014 C 
ATOM     96  C   UNL A   1      37.817  33.052  30.980  1.00  0.00     0.014 C 
ATOM     97  C   UNL A   1      37.879  33.749  33.849  1.00  0.00     0.006 C 
ATOM     98  C   UNL A   1      38.855  34.023  31.541  1.00  0.00     0.006 C 
ATOM     99  C   UNL A   1      39.170  33.704  33.013  1.00  0.00     0.008 C 
BRANCH  99 100
ATOM    100  C   UNL A   1      39.888  32.350  33.182  1.00  0.00     0.119 C 
BRANCH 100 101
ATOM    101  N   UNL A   1      39.590  31.777  34.479  1.00  0.00    -0.351 N 
ATOM    102  C   UNL A   1      39.534  30.476  34.855  1.00  0.00     0.278 C 
ATOM    103  H   UNL A   1      39.398  32.429  35.192  1.00  0.00     0.163 HD
ATOM    104  O   UNL A   1      38.611  30.135  35.604  1.00  0.00    -0.268 OA
BRANCH 102 105
ATOM    105  C   UNL A   1      40.708  29.522  34.559  1.00  0.00     0.277 C 
ATOM    106  C   UNL A   1      42.032  30.187  34.124  1.00  0.00     0.111 C 
ATOM    107  N   UNL A   1      40.173  28.469  33.627  1.00  0.00    -0.332 N 
ATOM    108  C   UNL A   1      42.964  29.124  33.589  1.00  0.00    -0.033 A 
ATOM    109  C   UNL A   1      40.938  28.364  32.390  1.00  0.00     0.298 C 
ATOM    110  H   UNL A   1      39.207  28.701  33.394  1.00  0.00     0.347 HD
ATOM    111  H   UNL A   1      40.243  27.572  34.107  1.00  0.00     0.347 HD
ATOM    112  C   UNL A   1      44.292  28.996  33.996  1.00  0.00     0.004 A 
ATOM    113  C   UNL A   1      42.392  28.175  32.725  1.00  0.00     0.010 A 
ATOM    114  C   UNL A   1      45.030  27.889  33.578  1.00  0.00     0.000 A 
ATOM    115  C   UNL A   1      43.137  27.076  32.305  1.00  0.00     0.010 A 
ATOM    116  C   UNL A   1      44.452  26.928  32.744  1.00  0.00     0.001 A 
ENDBRANCH 102 105
ENDBRANCH 100 101
ENDBRANCH  99 100
ENDBRANCH  91  94
ENDBRANCH  83  90
ENDBRANCH  81  83
ENDBRANCH  80  81
ENDBRANCH  79  80
ENDBRANCH  78  79
ENDBRANCH  77  78
ENDBRANCH   1  77
TORSDOF 26
ENDMDL
MODEL 3
REMARK VINA RESULT:     -10.6      5.446      9.327
REMARK SMILES O=C(OCCOCCOCCOC(=O)[C@H](NC(=O)[C@H]1CC[C@@H](CNC(=O)[C@@H]2Cc3ccccc3C[NH2+]2)CC1)c1ccccc1)c1ccc(-c2c3nc(c(-c4c(F)cc(S(=O)(=O)[O-])cc4F)c4ccc([nH]4)c(-c4c(F)cc(S(=O)(=O)[O-])cc4F)c4nc(c(-c5c(F)cc(S(=O)(=O)[O-])cc5F)c5ccc2[nH]5)C=C4)C=C3)cc1
REMARK SMILES IDX 8 1 7 2 6 3 5 4 4 5 3 6 2 7 1 8 45 9 46 10 110 11 47 12
REMARK SMILES IDX 109 13 48 14 49 15 50 16 103 17 51 18 108 19 102 20 104 21
REMARK SMILES IDX 52 22 107 23 101 24 100 25 53 27 87 28 66 29 86 30 67 31
REMARK SMILES IDX 70 32 85 33 105 34 68 35 69 36 84 38 106 39 71 40 54 41
REMARK SMILES IDX 55 42 64 43 56 44 57 45 63 46 65 47 58 48 59 49 60 50 61 51
REMARK SMILES IDX 62 52 88 53 89 54 98 55 90 56 91 57 97 58 99 59 92 60 93 61
REMARK SMILES IDX 94 62 95 63 96 64 72 65 73 66 82 67 74 68 75 69 81 70 83 71
REMARK SMILES IDX 76 72 77 73 78 74 79 75 80 76 9 77 10 78 11 79 12 80 13 81
REMARK SMILES IDX 14 82 15 83 39 84 40 85 44 86 41 87 43 88 42 89 16 90 17 91
REMARK SMILES IDX 18 93 19 94 38 95 20 96 37 97 21 98 22 99 23 100 24 101
REMARK SMILES IDX 25 102 26 104 27 105 28 106 36 107 29 108 35 109 30 112
REMARK SMILES IDX 34 113 31 114 33 115 32 116
REMARK H PARENT 104 26 70 37 16 92 24 103 36 110 36 111
REMARK Flexibility Score: inf
ROOT
ATOM      1  C   UNL A   1      37.877  32.689  40.019  1.00  0.00     0.188 C 
ENDROOT
BRANCH   1   2
ATOM      2  C   UNL A   1      38.521  34.055  40.217  1.00  0.00     0.188 C 
BRANCH   2   3
ATOM      3  O   UNL A   1      39.026  34.275  41.531  1.00  0.00    -0.376 OA
BRANCH   3   4
ATOM      4  C   UNL A   1      40.265  34.968  41.624  1.00  0.00     0.202 C 
BRANCH   4   5
ATOM      5  C   UNL A   1      41.029  35.120  40.303  1.00  0.00     0.261 C 
BRANCH   5   6
ATOM      6  O   UNL A   1      40.978  36.443  39.752  1.00  0.00    -0.460 OA
BRANCH   6   7
ATOM      7  C   UNL A   1      40.479  36.790  38.535  1.00  0.00     0.338 C 
ATOM      8  O   UNL A   1      39.364  37.307  38.489  1.00  0.00    -0.246 OA
BRANCH   7   9
ATOM      9  C   UNL A   1      41.134  36.394  37.239  1.00  0.00     0.060 A 
ATOM     10  C   UNL A   1      40.467  35.963  36.090  1.00  0.00     0.016 A 
ATOM     11  C   UNL A   1      42.541  36.465  37.182  1.00  0.00     0.016 A 
ATOM     12  C   UNL A   1      41.147  35.647  34.921  1.00  0.00     0.010 A 
ATOM     13  C   UNL A   1      43.243  36.085  36.028  1.00  0.00     0.010 A 
ATOM     14  C   UNL A   1      42.538  35.651  34.904  1.00  0.00    -0.014 A 
BRANCH  14  15
ATOM     15  C   UNL A   1      43.173  34.892  33.811  1.00  0.00     0.031 A 
ATOM     16  C   UNL A   1      43.186  33.395  33.952  1.00  0.00     0.074 A 
ATOM     17  C   UNL A   1      43.542  35.500  32.672  1.00  0.00     0.049 A 
ATOM     18  N   UNL A   1      43.577  32.485  33.104  1.00  0.00    -0.248 NA
ATOM     19  C   UNL A   1      42.642  32.852  35.211  1.00  0.00     0.031 C 
ATOM     20  C   UNL A   1      43.430  36.935  32.409  1.00  0.00     0.029 A 
ATOM     21  N   UNL A   1      44.057  34.983  31.515  1.00  0.00    -0.354 N 
ATOM     22  C   UNL A   1      43.319  31.267  33.723  1.00  0.00     0.074 A 
ATOM     23  C   UNL A   1      42.742  31.549  35.015  1.00  0.00     0.031 C 
ATOM     24  C   UNL A   1      43.876  37.185  31.164  1.00  0.00     0.029 A 
ATOM     25  C   UNL A   1      44.333  35.935  30.561  1.00  0.00     0.049 A 
ATOM     26  H   UNL A   1      44.215  34.021  31.377  1.00  0.00     0.167 HD
ATOM     27  C   UNL A   1      43.559  30.022  33.255  1.00  0.00     0.037 A 
ATOM     28  C   UNL A   1      44.914  35.795  29.353  1.00  0.00     0.037 A 
ATOM     29  C   UNL A   1      44.192  29.773  31.991  1.00  0.00     0.049 A 
ATOM     30  C   UNL A   1      45.298  34.407  28.906  1.00  0.00     0.074 A 
ATOM     31  C   UNL A   1      44.582  28.567  31.440  1.00  0.00     0.029 A 
ATOM     32  N   UNL A   1      44.548  30.766  31.087  1.00  0.00    -0.354 N 
ATOM     33  N   UNL A   1      45.096  33.260  29.515  1.00  0.00    -0.248 NA
ATOM     34  C   UNL A   1      45.994  34.287  27.618  1.00  0.00     0.031 C 
ATOM     35  C   UNL A   1      45.222  28.839  30.226  1.00  0.00     0.029 A 
ATOM     36  C   UNL A   1      45.175  30.206  29.991  1.00  0.00     0.049 A 
ATOM     37  H   UNL A   1      44.378  31.728  31.210  1.00  0.00     0.167 HD
ATOM     38  C   UNL A   1      45.619  32.281  28.677  1.00  0.00     0.074 A 
ATOM     39  C   UNL A   1      46.137  32.973  27.512  1.00  0.00     0.031 C 
ATOM     40  C   UNL A   1      45.668  30.935  28.847  1.00  0.00     0.037 A 
BRANCH  27  41
ATOM     41  C   UNL A   1      43.221  28.876  34.165  1.00  0.00     0.058 A 
ATOM     42  C   UNL A   1      44.078  28.470  35.201  1.00  0.00     0.135 A 
ATOM     43  C   UNL A   1      42.051  28.129  33.952  1.00  0.00     0.135 A 
ATOM     44  F   UNL A   1      45.229  29.125  35.424  1.00  0.00    -0.206 F 
ATOM     45  C   UNL A   1      43.804  27.342  35.971  1.00  0.00     0.059 A 
ATOM     46  C   UNL A   1      41.746  27.013  34.726  1.00  0.00     0.059 A 
ATOM     47  F   UNL A   1      41.207  28.462  32.964  1.00  0.00    -0.206 F 
ATOM     48  C   UNL A   1      42.639  26.616  35.720  1.00  0.00     0.060 A 
BRANCH  48  49
ATOM     49  S   UNL A   1      42.317  25.131  36.695  1.00  0.00     0.124 S 
ATOM     50  O   UNL A   1      41.327  25.619  37.651  1.00  0.00    -0.237 OA
ATOM     51  O   UNL A   1      41.820  24.198  35.689  1.00  0.00    -0.237 OA
ATOM     52  O   UNL A   1      43.624  24.805  37.258  1.00  0.00    -0.744 OA
ENDBRANCH  48  49
ENDBRANCH  27  41
BRANCH  28  53
ATOM     53  C   UNL A   1      45.202  36.995  28.517  1.00  0.00     0.058 A 
ATOM     54  C   UNL A   1      46.436  37.658  28.577  1.00  0.00     0.135 A 
ATOM     55  C   UNL A   1      44.237  37.501  27.629  1.00  0.00     0.135 A 
ATOM     56  F   UNL A   1      47.390  37.226  29.415  1.00  0.00    -0.206 F 
ATOM     57  C   UNL A   1      46.703  38.779  27.793  1.00  0.00     0.059 A 
ATOM     58  C   UNL A   1      44.489  38.603  26.816  1.00  0.00     0.059 A 
ATOM     59  F   UNL A   1      43.038  36.906  27.528  1.00  0.00    -0.206 F 
ATOM     60  C   UNL A   1      45.724  39.240  26.910  1.00  0.00     0.060 A 
BRANCH  60  61
ATOM     61  S   UNL A   1      46.100  40.660  25.858  1.00  0.00     0.124 S 
ATOM     62  O   UNL A   1      47.224  40.158  25.075  1.00  0.00    -0.237 OA
ATOM     63  O   UNL A   1      44.846  40.841  25.133  1.00  0.00    -0.237 OA
ATOM     64  O   UNL A   1      46.419  41.716  26.815  1.00  0.00    -0.744 OA
ENDBRANCH  60  61
ENDBRANCH  28  53
BRANCH  40  65
ATOM     65  C   UNL A   1      46.267  30.121  27.737  1.00  0.00     0.058 A 
ATOM     66  C   UNL A   1      47.641  29.847  27.682  1.00  0.00     0.135 A 
ATOM     67  C   UNL A   1      45.436  29.531  26.771  1.00  0.00     0.135 A 
ATOM     68  F   UNL A   1      48.475  30.391  28.582  1.00  0.00    -0.206 F 
ATOM     69  C   UNL A   1      48.175  29.024  26.697  1.00  0.00     0.059 A 
ATOM     70  C   UNL A   1      45.945  28.683  25.794  1.00  0.00     0.059 A 
ATOM     71  F   UNL A   1      44.112  29.751  26.791  1.00  0.00    -0.206 F 
ATOM     72  C   UNL A   1      47.317  28.443  25.761  1.00  0.00     0.060 A 
BRANCH  72  73
ATOM     73  S   UNL A   1      48.015  27.333  24.521  1.00  0.00     0.124 S 
ATOM     74  O   UNL A   1      49.366  27.866  24.378  1.00  0.00    -0.237 OA
ATOM     75  O   UNL A   1      47.912  26.031  25.174  1.00  0.00    -0.237 OA
ATOM     76  O   UNL A   1      47.139  27.520  23.367  1.00  0.00    -0.744 OA
ENDBRANCH  72  73
ENDBRANCH  40  65
ENDBRANCH  14  15
ENDBRANCH   7   9
ENDBRANCH   6   7
ENDBRANCH   5   6
ENDBRANCH   4   5
ENDBRANCH   3   4
ENDBRANCH   2   3
ENDBRANCH   1   2
BRANCH   1  77
ATOM     77  O   UNL A   1      37.379  32.450  38.707  1.00  0.00    -0.376 OA
BRANCH  77  78
ATOM     78  C   UNL A   1      38.108  33.065  37.646  1.00  0.00     0.202 C 
BRANCH  78  79
ATOM     79  C   UNL A   1      38.790  32.079  36.687  1.00  0.00     0.261 C 
BRANCH  79  80
ATOM     80  O   UNL A   1      39.164  32.631  35.408  1.00  0.00    -0.461 OA
BRANCH  80  81
ATOM     81  C   UNL A   1      38.302  32.399  34.384  1.00  0.00     0.333 C 
ATOM     82  O   UNL A   1      37.546  31.432  34.362  1.00  0.00    -0.249 OA
BRANCH  81  83
ATOM     83  C   UNL A   1      38.388  33.507  33.286  1.00  0.00     0.223 C 
BRANCH  83  84
ATOM     84  C   UNL A   1      39.525  33.204  32.310  1.00  0.00    -0.014 A 
ATOM     85  C   UNL A   1      40.138  34.179  31.507  1.00  0.00     0.006 A 
ATOM     86  C   UNL A   1      39.969  31.872  32.191  1.00  0.00     0.006 A 
ATOM     87  C   UNL A   1      41.098  33.818  30.559  1.00  0.00     0.000 A 
ATOM     88  C   UNL A   1      40.923  31.515  31.242  1.00  0.00     0.000 A 
ATOM     89  C   UNL A   1      41.476  32.487  30.416  1.00  0.00     0.000 A 
ENDBRANCH  83  84
BRANCH  83  90
ATOM     90  N   UNL A   1      37.146  33.942  32.608  1.00  0.00    -0.339 N 
ATOM     91  C   UNL A   1      36.638  33.654  31.374  1.00  0.00     0.224 C 
ATOM     92  H   UNL A   1      36.585  34.547  33.144  1.00  0.00     0.164 HD
ATOM     93  O   UNL A   1      35.880  34.462  30.837  1.00  0.00    -0.275 OA
BRANCH  91  94
ATOM     94  C   UNL A   1      36.936  32.306  30.754  1.00  0.00     0.078 C 
ATOM     95  C   UNL A   1      35.681  31.423  30.621  1.00  0.00     0.014 C 
ATOM     96  C   UNL A   1      37.653  32.391  29.415  1.00  0.00     0.014 C 
ATOM     97  C   UNL A   1      36.020  30.023  30.083  1.00  0.00     0.006 C 
ATOM     98  C   UNL A   1      38.111  30.979  29.050  1.00  0.00     0.006 C 
ATOM     99  C   UNL A   1      36.906  30.048  28.826  1.00  0.00     0.008 C 
BRANCH  99 100
ATOM    100  C   UNL A   1      36.085  30.438  27.581  1.00  0.00     0.119 C 
BRANCH 100 101
ATOM    101  N   UNL A   1      34.693  30.631  27.934  1.00  0.00    -0.351 N 
ATOM    102  C   UNL A   1      33.583  30.056  27.409  1.00  0.00     0.278 C 
ATOM    103  H   UNL A   1      34.528  31.274  28.661  1.00  0.00     0.163 HD
ATOM    104  O   UNL A   1      32.599  30.781  27.218  1.00  0.00    -0.268 OA
BRANCH 102 105
ATOM    105  C   UNL A   1      33.474  28.524  27.286  1.00  0.00     0.277 C 
ATOM    106  C   UNL A   1      33.885  27.920  25.925  1.00  0.00     0.111 C 
ATOM    107  N   UNL A   1      32.097  28.157  27.770  1.00  0.00    -0.332 N 
ATOM    108  C   UNL A   1      33.438  26.477  25.872  1.00  0.00    -0.033 A 
ATOM    109  C   UNL A   1      31.332  27.400  26.786  1.00  0.00     0.298 C 
ATOM    110  H   UNL A   1      31.590  29.014  27.988  1.00  0.00     0.347 HD
ATOM    111  H   UNL A   1      32.210  27.564  28.592  1.00  0.00     0.347 HD
ATOM    112  C   UNL A   1      34.276  25.430  25.491  1.00  0.00     0.004 A 
ATOM    113  C   UNL A   1      32.140  26.213  26.342  1.00  0.00     0.010 A 
ATOM    114  C   UNL A   1      33.833  24.115  25.629  1.00  0.00     0.000 A 
ATOM    115  C   UNL A   1      31.700  24.897  26.470  1.00  0.00     0.010 A 
ATOM    116  C   UNL A   1      32.553  23.850  26.125  1.00  0.00     0.001 A 
ENDBRANCH 102 105
ENDBRANCH 100 101
ENDBRANCH  99 100
ENDBRANCH  91  94
ENDBRANCH  83  90
ENDBRANCH  81  83
ENDBRANCH  80  81
ENDBRANCH  79  80
ENDBRANCH  78  79
ENDBRANCH  77  78
ENDBRANCH   1  77
TORSDOF 26
ENDMDL
