MODEL 1
REMARK VINA RESULT:      -9.4      0.000      0.000
REMARK SMILES CCC(CC)(CC)NC(=O)NC[C@@H]1CC[C@H](C(=O)OCCOCCOCCOC(=O)c2ccc(-c3c4nc(c(-c5c(F)cc(S(=O)(=O)[O-])cc5F)c5ccc([nH]5)c(-c5c(F)cc(S(=O)(=O)[O-])cc5F)c5nc(c(-c6c(F)cc(S(=O)(=O)[O-])cc6F)c6ccc3[nH]6)C=C5)C=C4)cc2)O1
REMARK SMILES IDX 23 1 22 2 21 3 20 4 19 5 17 6 18 7 16 8 13 9 14 10 97 11
REMARK SMILES IDX 15 12 12 13 11 14 8 15 9 16 10 18 3 20 2 21 1 22 4 23 5 24
REMARK SMILES IDX 6 25 7 26 24 27 25 28 26 29 27 30 28 31 29 32 30 33 31 34
REMARK SMILES IDX 32 35 96 36 33 37 95 38 34 39 35 40 36 41 89 42 37 43 94 44
REMARK SMILES IDX 88 45 90 46 38 47 93 48 87 49 86 50 39 52 73 53 52 54 72 55
REMARK SMILES IDX 53 56 56 57 71 58 91 59 54 60 55 61 70 63 92 64 57 65 40 66
REMARK SMILES IDX 41 67 50 68 42 69 43 70 49 71 51 72 44 73 45 74 46 75 47 76
REMARK SMILES IDX 48 77 74 78 75 79 84 80 76 81 77 82 83 83 85 84 78 85 79 86
REMARK SMILES IDX 80 87 81 88 82 89 58 90 59 91 68 92 60 93 61 94 67 95 69 96
REMARK SMILES IDX 62 97 63 98 64 99 65 100 66 101
REMARK H PARENT 8 17 11 19 90 51 56 62
REMARK Flexibility Score: inf
ROOT
ATOM      1  C   UNL A   1      39.246  20.208  25.685  1.00  0.00     0.188 C 
ENDROOT
BRANCH   1   2
ATOM      2  O   UNL A   1      39.024  21.608  25.566  1.00  0.00    -0.376 OA
BRANCH   2   3
ATOM      3  C   UNL A   1      37.698  22.026  25.238  1.00  0.00     0.202 C 
BRANCH   3   4
ATOM      4  C   UNL A   1      37.182  23.310  25.909  1.00  0.00     0.261 C 
BRANCH   4   5
ATOM      5  O   UNL A   1      35.835  23.682  25.527  1.00  0.00    -0.461 OA
BRANCH   5   6
ATOM      6  C   UNL A   1      34.831  22.906  26.032  1.00  0.00     0.335 C 
ATOM      7  O   UNL A   1      34.249  23.131  27.089  1.00  0.00    -0.249 OA
BRANCH   6   8
ATOM      8  C   UNL A   1      34.489  21.689  25.161  1.00  0.00     0.228 C 
ATOM      9  C   UNL A   1      32.719  22.235  23.754  1.00  0.00     0.138 C 
ATOM     10  C   UNL A   1      32.140  21.417  24.903  1.00  0.00     0.037 C 
ATOM     11  O   UNL A   1      34.137  22.101  23.842  1.00  0.00    -0.361 OA
ATOM     12  C   UNL A   1      33.347  20.786  25.559  1.00  0.00     0.047 C 
BRANCH   9  13
ATOM     13  C   UNL A   1      32.262  23.714  23.677  1.00  0.00     0.149 C 
BRANCH  13  14
ATOM     14  N   UNL A   1      32.581  24.459  22.469  1.00  0.00    -0.336 N 
ATOM     15  N   UNL A   1      32.508  26.847  22.738  1.00  0.00    -0.333 N 
ATOM     16  C   UNL A   1      32.795  25.719  22.093  1.00  0.00     0.315 C 
ATOM     17  H   UNL A   1      32.834  27.609  22.207  1.00  0.00     0.165 HD
ATOM     18  O   UNL A   1      33.348  25.853  20.991  1.00  0.00    -0.249 OA
ATOM     19  H   UNL A   1      32.664  23.851  21.699  1.00  0.00     0.165 HD
BRANCH  15  20
ATOM     20  C   UNL A   1      31.869  27.362  23.980  1.00  0.00     0.041 C 
BRANCH  20  21
ATOM     21  C   UNL A   1      32.345  26.626  25.249  1.00  0.00     0.025 C 
ATOM     22  C   UNL A   1      33.857  26.710  25.480  1.00  0.00     0.006 C 
ENDBRANCH  20  21
BRANCH  20  23
ATOM     23  C   UNL A   1      30.312  27.088  23.848  1.00  0.00     0.025 C 
ATOM     24  C   UNL A   1      29.734  26.062  24.829  1.00  0.00     0.006 C 
ENDBRANCH  20  23
BRANCH  20  25
ATOM     25  C   UNL A   1      32.015  28.918  24.072  1.00  0.00     0.025 C 
ATOM     26  C   UNL A   1      31.699  29.609  25.390  1.00  0.00     0.006 C 
ENDBRANCH  20  25
ENDBRANCH  15  20
ENDBRANCH  13  14
ENDBRANCH   9  13
ENDBRANCH   6   8
ENDBRANCH   5   6
ENDBRANCH   4   5
ENDBRANCH   3   4
ENDBRANCH   2   3
ENDBRANCH   1   2
BRANCH   1  27
ATOM     27  C   UNL A   1      40.618  19.801  26.229  1.00  0.00     0.188 C 
BRANCH  27  28
ATOM     28  O   UNL A   1      41.686  20.622  25.773  1.00  0.00    -0.376 OA
BRANCH  28  29
ATOM     29  C   UNL A   1      42.323  21.482  26.714  1.00  0.00     0.202 C 
BRANCH  29  30
ATOM     30  C   UNL A   1      42.842  22.824  26.175  1.00  0.00     0.261 C 
BRANCH  30  31
ATOM     31  O   UNL A   1      42.029  23.964  26.513  1.00  0.00    -0.460 OA
BRANCH  31  32
ATOM     32  C   UNL A   1      42.529  25.197  26.239  1.00  0.00     0.338 C 
ATOM     33  O   UNL A   1      43.026  25.560  25.196  1.00  0.00    -0.246 OA
BRANCH  32  34
ATOM     34  C   UNL A   1      42.119  26.110  27.343  1.00  0.00     0.060 A 
ATOM     35  C   UNL A   1      42.807  27.323  27.485  1.00  0.00     0.016 A 
ATOM     36  C   UNL A   1      41.025  25.829  28.170  1.00  0.00     0.016 A 
ATOM     37  C   UNL A   1      42.435  28.231  28.480  1.00  0.00     0.010 A 
ATOM     38  C   UNL A   1      40.656  26.735  29.167  1.00  0.00     0.010 A 
ATOM     39  C   UNL A   1      41.382  27.924  29.352  1.00  0.00    -0.014 A 
BRANCH  39  40
ATOM     40  C   UNL A   1      41.186  28.724  30.587  1.00  0.00     0.031 A 
ATOM     41  C   UNL A   1      40.087  29.753  30.591  1.00  0.00     0.074 A 
ATOM     42  C   UNL A   1      41.939  28.540  31.688  1.00  0.00     0.049 A 
ATOM     43  N   UNL A   1      39.741  30.598  31.527  1.00  0.00    -0.248 NA
ATOM     44  C   UNL A   1      39.269  29.839  29.369  1.00  0.00     0.031 C 
ATOM     45  C   UNL A   1      43.008  27.554  31.832  1.00  0.00     0.029 A 
ATOM     46  N   UNL A   1      41.916  29.191  32.898  1.00  0.00    -0.354 N 
ATOM     47  C   UNL A   1      38.669  31.314  31.008  1.00  0.00     0.074 A 
ATOM     48  C   UNL A   1      38.445  30.831  29.663  1.00  0.00     0.031 C 
ATOM     49  C   UNL A   1      43.545  27.671  33.061  1.00  0.00     0.029 A 
ATOM     50  C   UNL A   1      42.879  28.759  33.779  1.00  0.00     0.049 A 
ATOM     51  H   UNL A   1      41.269  29.901  33.114  1.00  0.00     0.167 HD
ATOM     52  C   UNL A   1      37.928  32.281  31.599  1.00  0.00     0.037 A 
ATOM     53  C   UNL A   1      43.198  29.204  35.012  1.00  0.00     0.037 A 
ATOM     54  C   UNL A   1      38.152  32.768  32.934  1.00  0.00     0.049 A 
ATOM     55  C   UNL A   1      42.409  30.339  35.622  1.00  0.00     0.074 A 
ATOM     56  C   UNL A   1      37.447  33.741  33.621  1.00  0.00     0.029 A 
ATOM     57  N   UNL A   1      39.159  32.329  33.780  1.00  0.00    -0.354 N 
ATOM     58  N   UNL A   1      41.384  30.994  35.130  1.00  0.00    -0.248 NA
ATOM     59  C   UNL A   1      42.821  30.795  36.959  1.00  0.00     0.031 C 
ATOM     60  C   UNL A   1      38.061  33.925  34.865  1.00  0.00     0.029 A 
ATOM     61  C   UNL A   1      39.110  33.028  34.974  1.00  0.00     0.049 A 
ATOM     62  H   UNL A   1      39.812  31.625  33.562  1.00  0.00     0.167 HD
ATOM     63  C   UNL A   1      41.011  31.913  36.107  1.00  0.00     0.074 A 
ATOM     64  C   UNL A   1      41.915  31.727  37.222  1.00  0.00     0.031 C 
ATOM     65  C   UNL A   1      40.009  32.826  36.084  1.00  0.00     0.037 A 
BRANCH  52  66
ATOM     66  C   UNL A   1      36.819  32.891  30.790  1.00  0.00     0.058 A 
ATOM     67  C   UNL A   1      37.054  33.939  29.887  1.00  0.00     0.135 A 
ATOM     68  C   UNL A   1      35.506  32.407  30.906  1.00  0.00     0.135 A 
ATOM     69  F   UNL A   1      38.287  34.455  29.756  1.00  0.00    -0.206 F 
ATOM     70  C   UNL A   1      36.022  34.504  29.146  1.00  0.00     0.059 A 
ATOM     71  C   UNL A   1      34.463  32.938  30.154  1.00  0.00     0.059 A 
ATOM     72  F   UNL A   1      35.226  31.410  31.761  1.00  0.00    -0.206 F 
ATOM     73  C   UNL A   1      34.729  33.997  29.287  1.00  0.00     0.060 A 
BRANCH  73  74
ATOM     74  S   UNL A   1      33.401  34.741  28.318  1.00  0.00     0.124 S 
ATOM     75  O   UNL A   1      34.157  35.499  27.325  1.00  0.00    -0.237 OA
ATOM     76  O   UNL A   1      32.690  33.571  27.814  1.00  0.00    -0.237 OA
ATOM     77  O   UNL A   1      32.673  35.541  29.297  1.00  0.00    -0.744 OA
ENDBRANCH  73  74
ENDBRANCH  52  66
BRANCH  53  78
ATOM     78  C   UNL A   1      44.329  28.590  35.761  1.00  0.00     0.058 A 
ATOM     79  C   UNL A   1      44.114  27.546  36.676  1.00  0.00     0.135 A 
ATOM     80  C   UNL A   1      45.645  29.049  35.597  1.00  0.00     0.135 A 
ATOM     81  F   UNL A   1      42.872  27.083  36.884  1.00  0.00    -0.206 F 
ATOM     82  C   UNL A   1      45.158  26.993  37.411  1.00  0.00     0.059 A 
ATOM     83  C   UNL A   1      46.710  28.495  36.301  1.00  0.00     0.059 A 
ATOM     84  F   UNL A   1      45.906  30.044  34.733  1.00  0.00    -0.206 F 
ATOM     85  C   UNL A   1      46.453  27.474  37.215  1.00  0.00     0.060 A 
BRANCH  85  86
ATOM     86  S   UNL A   1      47.807  26.723  38.147  1.00  0.00     0.124 S 
ATOM     87  O   UNL A   1      47.204  25.468  38.580  1.00  0.00    -0.237 OA
ATOM     88  O   UNL A   1      48.852  26.614  37.136  1.00  0.00    -0.237 OA
ATOM     89  O   UNL A   1      48.066  27.696  39.205  1.00  0.00    -0.744 OA
ENDBRANCH  85  86
ENDBRANCH  53  78
BRANCH  65  90
ATOM     90  C   UNL A   1      39.798  33.672  37.313  1.00  0.00     0.058 A 
ATOM     91  C   UNL A   1      40.413  34.923  37.467  1.00  0.00     0.135 A 
ATOM     92  C   UNL A   1      38.911  33.251  38.318  1.00  0.00     0.135 A 
ATOM     93  F   UNL A   1      41.270  35.373  36.537  1.00  0.00    -0.206 F 
ATOM     94  C   UNL A   1      40.175  35.718  38.585  1.00  0.00     0.059 A 
ATOM     95  C   UNL A   1      38.637  34.040  39.430  1.00  0.00     0.059 A 
ATOM     96  F   UNL A   1      38.283  32.068  38.215  1.00  0.00    -0.206 F 
ATOM     97  C   UNL A   1      39.283  35.269  39.560  1.00  0.00     0.060 A 
BRANCH  97  98
ATOM     98  S   UNL A   1      38.952  36.327  40.987  1.00  0.00     0.124 S 
ATOM     99  O   UNL A   1      40.237  36.298  41.678  1.00  0.00    -0.237 OA
ATOM    100  O   UNL A   1      38.597  37.596  40.360  1.00  0.00    -0.237 OA
ATOM    101  O   UNL A   1      37.857  35.645  41.670  1.00  0.00    -0.744 OA
ENDBRANCH  97  98
ENDBRANCH  65  90
ENDBRANCH  39  40
ENDBRANCH  32  34
ENDBRANCH  31  32
ENDBRANCH  30  31
ENDBRANCH  29  30
ENDBRANCH  28  29
ENDBRANCH  27  28
ENDBRANCH   1  27
TORSDOF 26
ENDMDL
MODEL 2
REMARK VINA RESULT:      -9.3      1.455      2.584
REMARK SMILES CCC(CC)(CC)NC(=O)NC[C@@H]1CC[C@H](C(=O)OCCOCCOCCOC(=O)c2ccc(-c3c4nc(c(-c5c(F)cc(S(=O)(=O)[O-])cc5F)c5ccc([nH]5)c(-c5c(F)cc(S(=O)(=O)[O-])cc5F)c5nc(c(-c6c(F)cc(S(=O)(=O)[O-])cc6F)c6ccc3[nH]6)C=C5)C=C4)cc2)O1
REMARK SMILES IDX 23 1 22 2 21 3 20 4 19 5 17 6 18 7 16 8 13 9 14 10 97 11
REMARK SMILES IDX 15 12 12 13 11 14 8 15 9 16 10 18 3 20 2 21 1 22 4 23 5 24
REMARK SMILES IDX 6 25 7 26 24 27 25 28 26 29 27 30 28 31 29 32 30 33 31 34
REMARK SMILES IDX 32 35 96 36 33 37 95 38 34 39 35 40 36 41 89 42 37 43 94 44
REMARK SMILES IDX 88 45 90 46 38 47 93 48 87 49 86 50 39 52 73 53 52 54 72 55
REMARK SMILES IDX 53 56 56 57 71 58 91 59 54 60 55 61 70 63 92 64 57 65 40 66
REMARK SMILES IDX 41 67 50 68 42 69 43 70 49 71 51 72 44 73 45 74 46 75 47 76
REMARK SMILES IDX 48 77 74 78 75 79 84 80 76 81 77 82 83 83 85 84 78 85 79 86
REMARK SMILES IDX 80 87 81 88 82 89 58 90 59 91 68 92 60 93 61 94 67 95 69 96
REMARK SMILES IDX 62 97 63 98 64 99 65 100 66 101
REMARK H PARENT 8 17 11 19 90 51 56 62
REMARK Flexibility Score: inf
ROOT
ATOM      1  C   UNL A   1      36.698  21.041  25.033  1.00  0.00     0.188 C 
ENDROOT
BRANCH   1   2
ATOM      2  O   UNL A   1      35.380  21.572  24.992  1.00  0.00    -0.376 OA
BRANCH   2   3
ATOM      3  C   UNL A   1      34.588  21.428  26.173  1.00  0.00     0.202 C 
BRANCH   3   4
ATOM      4  C   UNL A   1      34.448  22.665  27.076  1.00  0.00     0.261 C 
BRANCH   4   5
ATOM      5  O   UNL A   1      33.146  23.300  27.020  1.00  0.00    -0.461 OA
BRANCH   5   6
ATOM      6  C   UNL A   1      32.898  24.066  25.917  1.00  0.00     0.335 C 
ATOM      7  O   UNL A   1      31.794  24.185  25.394  1.00  0.00    -0.249 OA
BRANCH   6   8
ATOM      8  C   UNL A   1      34.142  24.771  25.357  1.00  0.00     0.228 C 
ATOM      9  C   UNL A   1      33.631  27.002  24.946  1.00  0.00     0.138 C 
ATOM     10  C   UNL A   1      33.590  26.280  23.604  1.00  0.00     0.037 C 
ATOM     11  O   UNL A   1      34.237  26.098  25.869  1.00  0.00    -0.361 OA
ATOM     12  C   UNL A   1      34.282  24.961  23.866  1.00  0.00     0.047 C 
BRANCH   9  13
ATOM     13  C   UNL A   1      32.278  27.559  25.457  1.00  0.00     0.149 C 
BRANCH  13  14
ATOM     14  N   UNL A   1      32.193  28.985  25.733  1.00  0.00    -0.336 N 
ATOM     15  N   UNL A   1      30.574  30.151  24.392  1.00  0.00    -0.333 N 
ATOM     16  C   UNL A   1      31.440  30.030  25.397  1.00  0.00     0.315 C 
ATOM     17  H   UNL A   1      30.148  31.037  24.445  1.00  0.00     0.165 HD
ATOM     18  O   UNL A   1      31.556  31.022  26.130  1.00  0.00    -0.249 OA
ATOM     19  H   UNL A   1      32.907  29.259  26.354  1.00  0.00     0.165 HD
BRANCH  15  20
ATOM     20  C   UNL A   1      30.024  29.420  23.219  1.00  0.00     0.041 C 
BRANCH  20  21
ATOM     21  C   UNL A   1      31.122  28.836  22.307  1.00  0.00     0.025 C 
ATOM     22  C   UNL A   1      30.983  27.329  22.063  1.00  0.00     0.006 C 
ENDBRANCH  20  21
BRANCH  20  23
ATOM     23  C   UNL A   1      29.221  30.477  22.349  1.00  0.00     0.025 C 
ATOM     24  C   UNL A   1      28.924  31.813  23.038  1.00  0.00     0.006 C 
ENDBRANCH  20  23
BRANCH  20  25
ATOM     25  C   UNL A   1      28.966  28.361  23.674  1.00  0.00     0.025 C 
ATOM     26  C   UNL A   1      27.560  28.431  23.099  1.00  0.00     0.006 C 
ENDBRANCH  20  25
ENDBRANCH  15  20
ENDBRANCH  13  14
ENDBRANCH   9  13
ENDBRANCH   6   8
ENDBRANCH   5   6
ENDBRANCH   4   5
ENDBRANCH   3   4
ENDBRANCH   2   3
ENDBRANCH   1   2
BRANCH   1  27
ATOM     27  C   UNL A   1      37.800  22.038  25.400  1.00  0.00     0.188 C 
BRANCH  27  28
ATOM     28  O   UNL A   1      38.997  21.429  25.869  1.00  0.00    -0.376 OA
BRANCH  28  29
ATOM     29  C   UNL A   1      39.816  22.166  26.774  1.00  0.00     0.202 C 
BRANCH  29  30
ATOM     30  C   UNL A   1      40.607  23.341  26.181  1.00  0.00     0.261 C 
BRANCH  30  31
ATOM     31  O   UNL A   1      40.089  24.644  26.510  1.00  0.00    -0.460 OA
BRANCH  31  32
ATOM     32  C   UNL A   1      40.907  25.712  26.325  1.00  0.00     0.338 C 
ATOM     33  O   UNL A   1      41.338  26.117  25.268  1.00  0.00    -0.246 OA
BRANCH  32  34
ATOM     34  C   UNL A   1      40.968  26.468  27.608  1.00  0.00     0.060 A 
ATOM     35  C   UNL A   1      39.982  26.211  28.571  1.00  0.00     0.016 A 
ATOM     36  C   UNL A   1      42.017  27.345  27.903  1.00  0.00     0.016 A 
ATOM     37  C   UNL A   1      40.017  26.864  29.805  1.00  0.00     0.010 A 
ATOM     38  C   UNL A   1      42.050  28.001  29.136  1.00  0.00     0.010 A 
ATOM     39  C   UNL A   1      41.029  27.793  30.079  1.00  0.00    -0.014 A 
BRANCH  39  40
ATOM     40  C   UNL A   1      40.901  28.708  31.241  1.00  0.00     0.031 A 
ATOM     41  C   UNL A   1      39.863  29.796  31.168  1.00  0.00     0.074 A 
ATOM     42  C   UNL A   1      41.662  28.578  32.344  1.00  0.00     0.049 A 
ATOM     43  N   UNL A   1      39.582  30.739  32.030  1.00  0.00    -0.248 NA
ATOM     44  C   UNL A   1      39.029  29.822  29.953  1.00  0.00     0.031 C 
ATOM     45  C   UNL A   1      42.675  27.548  32.562  1.00  0.00     0.029 A 
ATOM     46  N   UNL A   1      41.698  29.333  33.492  1.00  0.00    -0.354 N 
ATOM     47  C   UNL A   1      38.544  31.468  31.462  1.00  0.00     0.074 A 
ATOM     48  C   UNL A   1      38.268  30.882  30.169  1.00  0.00     0.031 C 
ATOM     49  C   UNL A   1      43.240  27.741  33.768  1.00  0.00     0.029 A 
ATOM     50  C   UNL A   1      42.651  28.925  34.395  1.00  0.00     0.049 A 
ATOM     51  H   UNL A   1      41.096  30.096  33.653  1.00  0.00     0.167 HD
ATOM     52  C   UNL A   1      37.870  32.524  31.976  1.00  0.00     0.037 A 
ATOM     53  C   UNL A   1      43.016  29.456  35.580  1.00  0.00     0.037 A 
ATOM     54  C   UNL A   1      38.145  33.113  33.258  1.00  0.00     0.049 A 
ATOM     55  C   UNL A   1      42.304  30.685  36.097  1.00  0.00     0.074 A 
ATOM     56  C   UNL A   1      37.510  34.182  33.866  1.00  0.00     0.029 A 
ATOM     57  N   UNL A   1      39.141  32.692  34.127  1.00  0.00    -0.354 N 
ATOM     58  N   UNL A   1      41.310  31.352  35.561  1.00  0.00    -0.248 NA
ATOM     59  C   UNL A   1      42.766  31.231  37.382  1.00  0.00     0.031 C 
ATOM     60  C   UNL A   1      38.155  34.438  35.080  1.00  0.00     0.029 A 
ATOM     61  C   UNL A   1      39.153  33.495  35.255  1.00  0.00     0.049 A 
ATOM     62  H   UNL A   1      39.748  31.934  33.965  1.00  0.00     0.167 HD
ATOM     63  C   UNL A   1      41.007  32.374  36.458  1.00  0.00     0.074 A 
ATOM     64  C   UNL A   1      41.919  32.234  37.574  1.00  0.00     0.031 C 
ATOM     65  C   UNL A   1      40.058  33.339  36.367  1.00  0.00     0.037 A 
BRANCH  52  66
ATOM     66  C   UNL A   1      36.783  33.125  31.130  1.00  0.00     0.058 A 
ATOM     67  C   UNL A   1      37.072  33.981  30.056  1.00  0.00     0.135 A 
ATOM     68  C   UNL A   1      35.436  32.823  31.385  1.00  0.00     0.135 A 
ATOM     69  F   UNL A   1      38.342  34.321  29.784  1.00  0.00    -0.206 F 
ATOM     70  C   UNL A   1      36.061  34.539  29.281  1.00  0.00     0.059 A 
ATOM     71  C   UNL A   1      34.410  33.348  30.606  1.00  0.00     0.059 A 
ATOM     72  F   UNL A   1      35.106  32.015  32.405  1.00  0.00    -0.206 F 
ATOM     73  C   UNL A   1      34.732  34.217  29.565  1.00  0.00     0.060 A 
BRANCH  73  74
ATOM     74  S   UNL A   1      33.433  34.949  28.549  1.00  0.00     0.124 S 
ATOM     75  O   UNL A   1      32.530  35.475  29.569  1.00  0.00    -0.237 OA
ATOM     76  O   UNL A   1      34.165  35.947  27.777  1.00  0.00    -0.237 OA
ATOM     77  O   UNL A   1      32.921  33.817  27.783  1.00  0.00    -0.744 OA
ENDBRANCH  73  74
ENDBRANCH  52  66
BRANCH  53  78
ATOM     78  C   UNL A   1      44.123  28.845  36.366  1.00  0.00     0.058 A 
ATOM     79  C   UNL A   1      43.906  27.717  37.173  1.00  0.00     0.135 A 
ATOM     80  C   UNL A   1      45.417  29.392  36.347  1.00  0.00     0.135 A 
ATOM     81  F   UNL A   1      42.684  27.168  37.241  1.00  0.00    -0.206 F 
ATOM     82  C   UNL A   1      44.924  27.163  37.943  1.00  0.00     0.059 A 
ATOM     83  C   UNL A   1      46.457  28.840  37.087  1.00  0.00     0.059 A 
ATOM     84  F   UNL A   1      45.679  30.469  35.591  1.00  0.00    -0.206 F 
ATOM     85  C   UNL A   1      46.198  27.732  37.892  1.00  0.00     0.060 A 
BRANCH  85  86
ATOM     86  S   UNL A   1      47.521  26.982  38.867  1.00  0.00     0.124 S 
ATOM     87  O   UNL A   1      46.797  26.539  40.053  1.00  0.00    -0.237 OA
ATOM     88  O   UNL A   1      47.997  25.927  37.979  1.00  0.00    -0.237 OA
ATOM     89  O   UNL A   1      48.453  28.087  39.074  1.00  0.00    -0.744 OA
ENDBRANCH  85  86
ENDBRANCH  53  78
BRANCH  65  90
ATOM     90  C   UNL A   1      39.918  34.300  37.519  1.00  0.00     0.058 A 
ATOM     91  C   UNL A   1      39.120  34.008  38.635  1.00  0.00     0.135 A 
ATOM     92  C   UNL A   1      40.649  35.500  37.533  1.00  0.00     0.135 A 
ATOM     93  F   UNL A   1      38.400  32.876  38.672  1.00  0.00    -0.206 F 
ATOM     94  C   UNL A   1      39.033  34.881  39.715  1.00  0.00     0.059 A 
ATOM     95  C   UNL A   1      40.599  36.375  38.614  1.00  0.00     0.059 A 
ATOM     96  F   UNL A   1      41.440  35.823  36.497  1.00  0.00    -0.206 F 
ATOM     97  C   UNL A   1      39.779  36.061  39.697  1.00  0.00     0.060 A 
BRANCH  97  98
ATOM     98  S   UNL A   1      39.688  37.167  41.122  1.00  0.00     0.124 S 
ATOM     99  O   UNL A   1      41.096  37.486  41.338  1.00  0.00    -0.237 OA
ATOM    100  O   UNL A   1      38.860  38.259  40.619  1.00  0.00    -0.237 OA
ATOM    101  O   UNL A   1      39.066  36.343  42.154  1.00  0.00    -0.744 OA
ENDBRANCH  97  98
ENDBRANCH  65  90
ENDBRANCH  39  40
ENDBRANCH  32  34
ENDBRANCH  31  32
ENDBRANCH  30  31
ENDBRANCH  29  30
ENDBRANCH  28  29
ENDBRANCH  27  28
ENDBRANCH   1  27
TORSDOF 26
ENDMDL
MODEL 3
REMARK VINA RESULT:      -9.0      1.153      8.178
REMARK SMILES CCC(CC)(CC)NC(=O)NC[C@@H]1CC[C@H](C(=O)OCCOCCOCCOC(=O)c2ccc(-c3c4nc(c(-c5c(F)cc(S(=O)(=O)[O-])cc5F)c5ccc([nH]5)c(-c5c(F)cc(S(=O)(=O)[O-])cc5F)c5nc(c(-c6c(F)cc(S(=O)(=O)[O-])cc6F)c6ccc3[nH]6)C=C5)C=C4)cc2)O1
REMARK SMILES IDX 23 1 22 2 21 3 20 4 19 5 17 6 18 7 16 8 13 9 14 10 97 11
REMARK SMILES IDX 15 12 12 13 11 14 8 15 9 16 10 18 3 20 2 21 1 22 4 23 5 24
REMARK SMILES IDX 6 25 7 26 24 27 25 28 26 29 27 30 28 31 29 32 30 33 31 34
REMARK SMILES IDX 32 35 96 36 33 37 95 38 34 39 35 40 36 41 89 42 37 43 94 44
REMARK SMILES IDX 88 45 90 46 38 47 93 48 87 49 86 50 39 52 73 53 52 54 72 55
REMARK SMILES IDX 53 56 56 57 71 58 91 59 54 60 55 61 70 63 92 64 57 65 40 66
REMARK SMILES IDX 41 67 50 68 42 69 43 70 49 71 51 72 44 73 45 74 46 75 47 76
REMARK SMILES IDX 48 77 74 78 75 79 84 80 76 81 77 82 83 83 85 84 78 85 79 86
REMARK SMILES IDX 80 87 81 88 82 89 58 90 59 91 68 92 60 93 61 94 67 95 69 96
REMARK SMILES IDX 62 97 63 98 64 99 65 100 66 101
REMARK H PARENT 8 17 11 19 90 51 56 62
REMARK Flexibility Score: inf
ROOT
ATOM      1  C   UNL A   1      38.217  20.790  25.106  1.00  0.00     0.188 C 
ENDROOT
BRANCH   1   2
ATOM      2  O   UNL A   1      38.376  22.191  25.294  1.00  0.00    -0.376 OA
BRANCH   2   3
ATOM      3  C   UNL A   1      37.376  23.037  24.722  1.00  0.00     0.202 C 
BRANCH   3   4
ATOM      4  C   UNL A   1      36.346  22.374  23.793  1.00  0.00     0.261 C 
BRANCH   4   5
ATOM      5  O   UNL A   1      35.020  22.956  23.862  1.00  0.00    -0.461 OA
BRANCH   5   6
ATOM      6  C   UNL A   1      34.542  23.216  25.114  1.00  0.00     0.335 C 
ATOM      7  O   UNL A   1      34.588  24.317  25.655  1.00  0.00    -0.249 OA
BRANCH   6   8
ATOM      8  C   UNL A   1      33.941  21.991  25.818  1.00  0.00     0.228 C 
ATOM      9  C   UNL A   1      31.912  22.587  26.785  1.00  0.00     0.138 C 
ATOM     10  C   UNL A   1      32.949  22.564  27.902  1.00  0.00     0.037 C 
ATOM     11  O   UNL A   1      32.526  21.966  25.656  1.00  0.00    -0.361 OA
ATOM     12  C   UNL A   1      34.126  21.823  27.306  1.00  0.00     0.047 C 
BRANCH   9  13
ATOM     13  C   UNL A   1      31.310  23.976  26.448  1.00  0.00     0.149 C 
BRANCH  13  14
ATOM     14  N   UNL A   1      30.619  24.123  25.177  1.00  0.00    -0.336 N 
ATOM     15  N   UNL A   1      30.912  26.273  24.142  1.00  0.00    -0.333 N 
ATOM     16  C   UNL A   1      30.532  24.998  24.176  1.00  0.00     0.315 C 
ATOM     17  H   UNL A   1      30.749  26.629  23.239  1.00  0.00     0.165 HD
ATOM     18  O   UNL A   1      30.037  24.554  23.130  1.00  0.00    -0.249 OA
ATOM     19  H   UNL A   1      30.042  23.344  25.005  1.00  0.00     0.165 HD
BRANCH  15  20
ATOM     20  C   UNL A   1      31.497  27.349  24.986  1.00  0.00     0.041 C 
BRANCH  20  21
ATOM     21  C   UNL A   1      31.175  28.765  24.463  1.00  0.00     0.025 C 
ATOM     22  C   UNL A   1      30.214  28.776  23.270  1.00  0.00     0.006 C 
ENDBRANCH  20  21
BRANCH  20  23
ATOM     23  C   UNL A   1      33.074  27.185  24.920  1.00  0.00     0.025 C 
ATOM     24  C   UNL A   1      33.864  28.472  24.657  1.00  0.00     0.006 C 
ENDBRANCH  20  23
BRANCH  20  25
ATOM     25  C   UNL A   1      31.116  27.141  26.490  1.00  0.00     0.025 C 
ATOM     26  C   UNL A   1      31.551  28.182  27.510  1.00  0.00     0.006 C 
ENDBRANCH  20  25
ENDBRANCH  15  20
ENDBRANCH  13  14
ENDBRANCH   9  13
ENDBRANCH   6   8
ENDBRANCH   5   6
ENDBRANCH   4   5
ENDBRANCH   3   4
ENDBRANCH   2   3
ENDBRANCH   1   2
BRANCH   1  27
ATOM     27  C   UNL A   1      39.233  19.907  25.835  1.00  0.00     0.188 C 
BRANCH  27  28
ATOM     28  O   UNL A   1      40.554  20.432  25.841  1.00  0.00    -0.376 OA
BRANCH  28  29
ATOM     29  C   UNL A   1      40.918  21.327  26.889  1.00  0.00     0.202 C 
BRANCH  29  30
ATOM     30  C   UNL A   1      41.766  22.544  26.487  1.00  0.00     0.261 C 
BRANCH  30  31
ATOM     31  O   UNL A   1      41.064  23.802  26.512  1.00  0.00    -0.460 OA
BRANCH  31  32
ATOM     32  C   UNL A   1      41.776  24.926  26.238  1.00  0.00     0.338 C 
ATOM     33  O   UNL A   1      42.212  25.259  25.159  1.00  0.00    -0.246 OA
BRANCH  32  34
ATOM     34  C   UNL A   1      41.700  25.815  27.431  1.00  0.00     0.060 A 
ATOM     35  C   UNL A   1      40.594  25.684  28.282  1.00  0.00     0.016 A 
ATOM     36  C   UNL A   1      42.732  26.701  27.763  1.00  0.00     0.016 A 
ATOM     37  C   UNL A   1      40.495  26.467  29.435  1.00  0.00     0.010 A 
ATOM     38  C   UNL A   1      42.630  27.487  28.913  1.00  0.00     0.010 A 
ATOM     39  C   UNL A   1      41.494  27.402  29.736  1.00  0.00    -0.014 A 
BRANCH  39  40
ATOM     40  C   UNL A   1      41.251  28.441  30.768  1.00  0.00     0.031 A 
ATOM     41  C   UNL A   1      42.124  28.432  31.994  1.00  0.00     0.074 A 
ATOM     42  C   UNL A   1      40.300  29.384  30.627  1.00  0.00     0.049 A 
ATOM     43  N   UNL A   1      42.088  29.204  33.048  1.00  0.00    -0.248 NA
ATOM     44  C   UNL A   1      43.182  27.407  32.034  1.00  0.00     0.031 C 
ATOM     45  C   UNL A   1      39.413  29.531  29.475  1.00  0.00     0.029 A 
ATOM     46  N   UNL A   1      39.923  30.398  31.473  1.00  0.00    -0.354 N 
ATOM     47  C   UNL A   1      43.113  28.759  33.875  1.00  0.00     0.074 A 
ATOM     48  C   UNL A   1      43.731  27.629  33.217  1.00  0.00     0.031 C 
ATOM     49  C   UNL A   1      38.587  30.571  29.692  1.00  0.00     0.029 A 
ATOM     50  C   UNL A   1      38.866  31.145  31.010  1.00  0.00     0.049 A 
ATOM     51  H   UNL A   1      40.368  30.573  32.335  1.00  0.00     0.167 HD
ATOM     52  C   UNL A   1      43.516  29.255  35.069  1.00  0.00     0.037 A 
ATOM     53  C   UNL A   1      38.192  32.159  31.589  1.00  0.00     0.037 A 
ATOM     54  C   UNL A   1      42.901  30.375  35.728  1.00  0.00     0.049 A 
ATOM     55  C   UNL A   1      38.607  32.644  32.958  1.00  0.00     0.074 A 
ATOM     56  C   UNL A   1      43.244  30.953  36.938  1.00  0.00     0.029 A 
ATOM     57  N   UNL A   1      41.811  31.081  35.241  1.00  0.00    -0.354 N 
ATOM     58  N   UNL A   1      39.592  32.229  33.720  1.00  0.00    -0.248 NA
ATOM     59  C   UNL A   1      37.817  33.736  33.547  1.00  0.00     0.031 C 
ATOM     60  C   UNL A   1      42.330  31.978  37.206  1.00  0.00     0.029 A 
ATOM     61  C   UNL A   1      41.454  32.075  36.137  1.00  0.00     0.049 A 
ATOM     62  H   UNL A   1      41.360  30.903  34.385  1.00  0.00     0.167 HD
ATOM     63  C   UNL A   1      39.558  33.030  34.859  1.00  0.00     0.074 A 
ATOM     64  C   UNL A   1      38.461  33.958  34.685  1.00  0.00     0.031 C 
ATOM     65  C   UNL A   1      40.366  33.002  35.949  1.00  0.00     0.037 A 
BRANCH  52  66
ATOM     66  C   UNL A   1      44.664  28.565  35.749  1.00  0.00     0.058 A 
ATOM     67  C   UNL A   1      44.461  27.507  36.649  1.00  0.00     0.135 A 
ATOM     68  C   UNL A   1      45.986  28.954  35.482  1.00  0.00     0.135 A 
ATOM     69  F   UNL A   1      43.216  27.111  36.959  1.00  0.00    -0.206 F 
ATOM     70  C   UNL A   1      45.528  26.877  37.281  1.00  0.00     0.059 A 
ATOM     71  C   UNL A   1      47.070  28.320  36.080  1.00  0.00     0.059 A 
ATOM     72  F   UNL A   1      46.234  29.965  34.634  1.00  0.00    -0.206 F 
ATOM     73  C   UNL A   1      46.829  27.292  36.990  1.00  0.00     0.060 A 
BRANCH  73  74
ATOM     74  S   UNL A   1      48.202  26.464  37.817  1.00  0.00     0.124 S 
ATOM     75  O   UNL A   1      47.511  25.381  38.512  1.00  0.00    -0.237 OA
ATOM     76  O   UNL A   1      49.045  26.061  36.696  1.00  0.00    -0.237 OA
ATOM     77  O   UNL A   1      48.759  27.504  38.676  1.00  0.00    -0.744 OA
ENDBRANCH  73  74
ENDBRANCH  52  66
BRANCH  53  78
ATOM     78  C   UNL A   1      37.038  32.789  30.889  1.00  0.00     0.058 A 
ATOM     79  C   UNL A   1      37.221  33.867  30.009  1.00  0.00     0.135 A 
ATOM     80  C   UNL A   1      35.725  32.341  31.105  1.00  0.00     0.135 A 
ATOM     81  F   UNL A   1      38.454  34.345  29.783  1.00  0.00    -0.206 F 
ATOM     82  C   UNL A   1      36.146  34.488  29.382  1.00  0.00     0.059 A 
ATOM     83  C   UNL A   1      34.636  32.928  30.469  1.00  0.00     0.059 A 
ATOM     84  F   UNL A   1      35.495  31.312  31.936  1.00  0.00    -0.206 F 
ATOM     85  C   UNL A   1      34.856  34.010  29.618  1.00  0.00     0.060 A 
BRANCH  85  86
ATOM     86  S   UNL A   1      33.470  34.800  28.770  1.00  0.00     0.124 S 
ATOM     87  O   UNL A   1      34.101  35.998  28.229  1.00  0.00    -0.237 OA
ATOM     88  O   UNL A   1      33.088  33.785  27.794  1.00  0.00    -0.237 OA
ATOM     89  O   UNL A   1      32.504  35.025  29.842  1.00  0.00    -0.744 OA
ENDBRANCH  85  86
ENDBRANCH  53  78
BRANCH  65  90
ATOM     90  C   UNL A   1      40.130  34.027  37.027  1.00  0.00     0.058 A 
ATOM     91  C   UNL A   1      40.785  35.268  37.026  1.00  0.00     0.135 A 
ATOM     92  C   UNL A   1      39.183  33.789  38.036  1.00  0.00     0.135 A 
ATOM     93  F   UNL A   1      41.701  35.547  36.085  1.00  0.00    -0.206 F 
ATOM     94  C   UNL A   1      40.526  36.228  38.000  1.00  0.00     0.059 A 
ATOM     95  C   UNL A   1      38.888  34.745  39.004  1.00  0.00     0.059 A 
ATOM     96  F   UNL A   1      38.515  32.624  38.077  1.00  0.00    -0.206 F 
ATOM     97  C   UNL A   1      39.573  35.958  38.984  1.00  0.00     0.060 A 
BRANCH  97  98
ATOM     98  S   UNL A   1      39.218  37.227  40.220  1.00  0.00     0.124 S 
ATOM     99  O   UNL A   1      40.554  37.734  40.512  1.00  0.00    -0.237 OA
ATOM    100  O   UNL A   1      38.339  38.136  39.491  1.00  0.00    -0.237 OA
ATOM    101  O   UNL A   1      38.580  36.481  41.300  1.00  0.00    -0.744 OA
ENDBRANCH  97  98
ENDBRANCH  65  90
ENDBRANCH  39  40
ENDBRANCH  32  34
ENDBRANCH  31  32
ENDBRANCH  30  31
ENDBRANCH  29  30
ENDBRANCH  28  29
ENDBRANCH  27  28
ENDBRANCH   1  27
TORSDOF 26
ENDMDL
