MODEL 1
REMARK VINA RESULT:     -10.3      0.000      0.000
REMARK SMILES COc1ccc(-c2cc([C@@H]3CC[N@@H+](CC(=O)OCCOCCOCCOC(=O)c4ccc(-c5c6nc(c(-c7c(F)cc(S(=O)(=O)[O-])cc7F)c7ccc([nH]7)c(-c7c(F)cc(S(=O)(=O)[O-])cc7F)c7nc(c(-c8c(F)cc(S(=O)(=O)[O-])cc8F)c8ccc5[nH]8)C=C7)C=C6)cc4)C3)ccn2)c2ccc(C)nc12
REMARK SMILES IDX 21 1 20 2 19 3 18 4 17 5 15 6 16 7 14 8 13 9 10 10 11 11
REMARK SMILES IDX 95 12 12 13 9 15 7 16 8 17 98 18 97 19 96 20 6 21 3 22 4 23
REMARK SMILES IDX 105 24 5 25 99 26 104 27 100 28 102 29 101 30 103 31 2 32
REMARK SMILES IDX 1 33 22 34 23 35 24 36 25 37 26 38 27 39 28 40 29 41 30 42
REMARK SMILES IDX 94 43 31 44 93 45 32 46 33 47 34 48 87 49 35 50 92 51 86 52
REMARK SMILES IDX 88 53 36 54 91 55 85 56 84 57 37 59 71 60 50 61 70 62 51 63
REMARK SMILES IDX 54 64 69 65 89 66 52 67 53 68 68 70 90 71 55 72 38 73 39 74
REMARK SMILES IDX 48 75 40 76 41 77 47 78 49 79 42 80 43 81 44 82 45 83 46 84
REMARK SMILES IDX 72 85 73 86 82 87 74 88 75 89 81 90 83 91 76 92 77 93 78 94
REMARK SMILES IDX 79 95 80 96 56 97 57 98 66 99 58 100 59 101 65 102 67 103
REMARK SMILES IDX 60 104 61 105 62 106 63 107 64 108
REMARK H PARENT 13 14 88 58 54 69
REMARK Flexibility Score: inf
ROOT
ATOM      1  C   UNL A   1      36.534  21.268  24.639  1.00  0.00     0.188 C 
ENDROOT
BRANCH   1   2
ATOM      2  O   UNL A   1      36.462  20.031  25.335  1.00  0.00    -0.376 OA
BRANCH   2   3
ATOM      3  C   UNL A   1      36.685  18.831  24.602  1.00  0.00     0.202 C 
BRANCH   3   4
ATOM      4  C   UNL A   1      35.750  17.660  24.908  1.00  0.00     0.261 C 
BRANCH   4   5
ATOM      5  O   UNL A   1      34.919  17.281  23.788  1.00  0.00    -0.459 OA
BRANCH   5   6
ATOM      6  C   UNL A   1      33.708  17.892  23.694  1.00  0.00     0.361 C 
ATOM      7  O   UNL A   1      32.794  17.476  22.990  1.00  0.00    -0.245 OA
BRANCH   6   8
ATOM      8  C   UNL A   1      33.532  19.099  24.625  1.00  0.00     0.386 C 
BRANCH   8   9
ATOM      9  N   UNL A   1      32.399  20.026  24.433  1.00  0.00    -0.325 N 
ATOM     10  C   UNL A   1      32.191  22.137  25.577  1.00  0.00     0.080 C 
ATOM     11  C   UNL A   1      32.854  22.326  24.200  1.00  0.00     0.075 C 
ATOM     12  C   UNL A   1      31.812  20.646  25.628  1.00  0.00     0.271 C 
ATOM     13  C   UNL A   1      32.522  21.060  23.425  1.00  0.00     0.263 C 
ATOM     14  H   UNL A   1      31.762  19.311  24.084  1.00  0.00     0.348 HD
BRANCH  10  15
ATOM     15  C   UNL A   1      31.137  23.205  25.728  1.00  0.00    -0.035 A 
ATOM     16  C   UNL A   1      30.508  25.489  25.369  1.00  0.00     0.071 A 
ATOM     17  C   UNL A   1      31.288  24.387  25.032  1.00  0.00     0.033 A 
ATOM     18  N   UNL A   1      29.593  25.495  26.359  1.00  0.00    -0.256 NA
ATOM     19  C   UNL A   1      29.415  24.321  26.993  1.00  0.00     0.112 A 
ATOM     20  C   UNL A   1      30.139  23.171  26.706  1.00  0.00     0.024 A 
BRANCH  16  21
ATOM     21  C   UNL A   1      30.650  26.678  24.549  1.00  0.00     0.010 A 
ATOM     22  C   UNL A   1      30.482  29.058  23.169  1.00  0.00     0.145 A 
ATOM     23  C   UNL A   1      30.027  27.879  22.566  1.00  0.00     0.049 A 
ATOM     24  C   UNL A   1      30.993  29.102  24.482  1.00  0.00     0.113 A 
ATOM     25  C   UNL A   1      30.112  26.685  23.257  1.00  0.00     0.015 A 
ATOM     26  C   UNL A   1      31.122  27.879  25.153  1.00  0.00     0.013 A 
ATOM     27  N   UNL A   1      31.327  30.266  25.097  1.00  0.00    -0.249 NA
ATOM     28  C   UNL A   1      31.684  27.900  26.451  1.00  0.00     0.013 A 
ATOM     29  C   UNL A   1      31.794  30.254  26.371  1.00  0.00     0.038 A 
ATOM     30  C   UNL A   1      32.006  29.089  27.074  1.00  0.00     0.024 A 
ATOM     31  C   UNL A   1      32.104  31.576  27.000  1.00  0.00     0.067 C 
BRANCH  22  32
ATOM     32  O   UNL A   1      30.368  30.183  22.381  1.00  0.00    -0.494 OA
ATOM     33  C   UNL A   1      28.994  30.453  22.105  1.00  0.00     0.278 C 
ENDBRANCH  22  32
ENDBRANCH  16  21
ENDBRANCH  10  15
ENDBRANCH   8   9
ENDBRANCH   6   8
ENDBRANCH   5   6
ENDBRANCH   4   5
ENDBRANCH   3   4
ENDBRANCH   2   3
ENDBRANCH   1   2
BRANCH   1  34
ATOM     34  C   UNL A   1      37.457  22.354  25.208  1.00  0.00     0.188 C 
BRANCH  34  35
ATOM     35  O   UNL A   1      38.346  21.843  26.189  1.00  0.00    -0.376 OA
BRANCH  35  36
ATOM     36  C   UNL A   1      39.612  21.370  25.764  1.00  0.00     0.202 C 
BRANCH  36  37
ATOM     37  C   UNL A   1      39.925  19.958  26.253  1.00  0.00     0.261 C 
BRANCH  37  38
ATOM     38  O   UNL A   1      41.082  19.361  25.647  1.00  0.00    -0.460 OA
BRANCH  38  39
ATOM     39  C   UNL A   1      42.226  19.316  26.365  1.00  0.00     0.338 C 
ATOM     40  O   UNL A   1      42.855  18.316  26.677  1.00  0.00    -0.246 OA
BRANCH  39  41
ATOM     41  C   UNL A   1      42.730  20.697  26.519  1.00  0.00     0.060 A 
ATOM     42  C   UNL A   1      42.736  21.277  27.796  1.00  0.00     0.016 A 
ATOM     43  C   UNL A   1      43.258  21.391  25.428  1.00  0.00     0.016 A 
ATOM     44  C   UNL A   1      43.246  22.565  27.979  1.00  0.00     0.010 A 
ATOM     45  C   UNL A   1      43.762  22.679  25.612  1.00  0.00     0.010 A 
ATOM     46  C   UNL A   1      43.733  23.284  26.881  1.00  0.00    -0.014 A 
BRANCH  46  47
ATOM     47  C   UNL A   1      44.063  24.726  26.996  1.00  0.00     0.031 A 
ATOM     48  C   UNL A   1      45.496  25.143  26.796  1.00  0.00     0.074 A 
ATOM     49  C   UNL A   1      43.123  25.638  27.309  1.00  0.00     0.049 A 
ATOM     50  N   UNL A   1      46.057  26.305  26.990  1.00  0.00    -0.248 NA
ATOM     51  C   UNL A   1      46.422  24.098  26.323  1.00  0.00     0.031 C 
ATOM     52  C   UNL A   1      41.699  25.363  27.488  1.00  0.00     0.029 A 
ATOM     53  N   UNL A   1      43.237  26.985  27.555  1.00  0.00    -0.354 N 
ATOM     54  C   UNL A   1      47.406  26.126  26.701  1.00  0.00     0.074 A 
ATOM     55  C   UNL A   1      47.581  24.740  26.326  1.00  0.00     0.031 C 
ATOM     56  C   UNL A   1      41.072  26.503  27.832  1.00  0.00     0.029 A 
ATOM     57  C   UNL A   1      42.058  27.577  27.946  1.00  0.00     0.049 A 
ATOM     58  H   UNL A   1      44.082  27.480  27.461  1.00  0.00     0.167 HD
ATOM     59  C   UNL A   1      48.404  27.037  26.747  1.00  0.00     0.037 A 
ATOM     60  C   UNL A   1      41.814  28.830  28.380  1.00  0.00     0.037 A 
ATOM     61  C   UNL A   1      48.213  28.419  27.096  1.00  0.00     0.049 A 
ATOM     62  C   UNL A   1      42.960  29.811  28.472  1.00  0.00     0.074 A 
ATOM     63  C   UNL A   1      49.152  29.435  27.121  1.00  0.00     0.029 A 
ATOM     64  N   UNL A   1      47.007  28.979  27.487  1.00  0.00    -0.354 N 
ATOM     65  N   UNL A   1      44.223  29.639  28.159  1.00  0.00    -0.248 NA
ATOM     66  C   UNL A   1      42.648  31.155  28.979  1.00  0.00     0.031 C 
ATOM     67  C   UNL A   1      48.529  30.592  27.592  1.00  0.00     0.029 A 
ATOM     68  C   UNL A   1      47.186  30.317  27.790  1.00  0.00     0.049 A 
ATOM     69  H   UNL A   1      46.151  28.497  27.541  1.00  0.00     0.167 HD
ATOM     70  C   UNL A   1      44.843  30.865  28.392  1.00  0.00     0.074 A 
ATOM     71  C   UNL A   1      43.816  31.770  28.862  1.00  0.00     0.031 C 
ATOM     72  C   UNL A   1      46.145  31.212  28.231  1.00  0.00     0.037 A 
BRANCH  59  73
ATOM     73  C   UNL A   1      49.803  26.575  26.447  1.00  0.00     0.058 A 
ATOM     74  C   UNL A   1      50.645  26.049  27.438  1.00  0.00     0.135 A 
ATOM     75  C   UNL A   1      50.276  26.584  25.123  1.00  0.00     0.135 A 
ATOM     76  F   UNL A   1      50.255  26.038  28.723  1.00  0.00    -0.206 F 
ATOM     77  C   UNL A   1      51.907  25.551  27.129  1.00  0.00     0.059 A 
ATOM     78  C   UNL A   1      51.522  26.065  24.787  1.00  0.00     0.059 A 
ATOM     79  F   UNL A   1      49.514  27.086  24.139  1.00  0.00    -0.206 F 
ATOM     80  C   UNL A   1      52.332  25.554  25.798  1.00  0.00     0.060 A 
BRANCH  80  81
ATOM     81  S   UNL A   1      53.950  24.854  25.408  1.00  0.00     0.124 S 
ATOM     82  O   UNL A   1      54.492  25.864  24.502  1.00  0.00    -0.237 OA
ATOM     83  O   UNL A   1      54.579  24.779  26.722  1.00  0.00    -0.237 OA
ATOM     84  O   UNL A   1      53.628  23.570  24.794  1.00  0.00    -0.744 OA
ENDBRANCH  80  81
ENDBRANCH  59  73
BRANCH  60  85
ATOM     85  C   UNL A   1      40.442  29.241  28.795  1.00  0.00     0.058 A 
ATOM     86  C   UNL A   1      39.460  29.554  27.841  1.00  0.00     0.135 A 
ATOM     87  C   UNL A   1      40.100  29.387  30.149  1.00  0.00     0.135 A 
ATOM     88  F   UNL A   1      39.738  29.443  26.532  1.00  0.00    -0.206 F 
ATOM     89  C   UNL A   1      38.207  30.033  28.210  1.00  0.00     0.059 A 
ATOM     90  C   UNL A   1      38.842  29.831  30.544  1.00  0.00     0.059 A 
ATOM     91  F   UNL A   1      40.995  29.093  31.105  1.00  0.00    -0.206 F 
ATOM     92  C   UNL A   1      37.909  30.173  29.567  1.00  0.00     0.060 A 
BRANCH  92  93
ATOM     93  S   UNL A   1      36.280  30.798  30.034  1.00  0.00     0.124 S 
ATOM     94  O   UNL A   1      36.534  32.231  30.130  1.00  0.00    -0.237 OA
ATOM     95  O   UNL A   1      35.453  30.369  28.911  1.00  0.00    -0.237 OA
ATOM     96  O   UNL A   1      36.011  30.118  31.298  1.00  0.00    -0.744 OA
ENDBRANCH  92  93
ENDBRANCH  60  85
BRANCH  72  97
ATOM     97  C   UNL A   1      46.527  32.644  28.499  1.00  0.00     0.058 A 
ATOM     98  C   UNL A   1      46.415  33.642  27.519  1.00  0.00     0.135 A 
ATOM     99  C   UNL A   1      46.957  33.030  29.780  1.00  0.00     0.135 A 
ATOM    100  F   UNL A   1      46.012  33.328  26.277  1.00  0.00    -0.206 F 
ATOM    101  C   UNL A   1      46.740  34.967  27.791  1.00  0.00     0.059 A 
ATOM    102  C   UNL A   1      47.254  34.354  30.085  1.00  0.00     0.059 A 
ATOM    103  F   UNL A   1      47.069  32.118  30.760  1.00  0.00    -0.206 F 
ATOM    104  C   UNL A   1      47.155  35.314  29.078  1.00  0.00     0.060 A 
BRANCH 104 105
ATOM    105  S   UNL A   1      47.541  37.043  29.427  1.00  0.00     0.124 S 
ATOM    106  O   UNL A   1      46.634  37.735  28.518  1.00  0.00    -0.237 OA
ATOM    107  O   UNL A   1      47.221  37.151  30.848  1.00  0.00    -0.237 OA
ATOM    108  O   UNL A   1      48.959  37.148  29.100  1.00  0.00    -0.744 OA
ENDBRANCH 104 105
ENDBRANCH  72  97
ENDBRANCH  46  47
ENDBRANCH  39  41
ENDBRANCH  38  39
ENDBRANCH  37  38
ENDBRANCH  36  37
ENDBRANCH  35  36
ENDBRANCH  34  35
ENDBRANCH   1  34
TORSDOF 24
ENDMDL
MODEL 2
REMARK VINA RESULT:      -9.6      5.755     11.807
REMARK SMILES COc1ccc(-c2cc([C@@H]3CC[N@@H+](CC(=O)OCCOCCOCCOC(=O)c4ccc(-c5c6nc(c(-c7c(F)cc(S(=O)(=O)[O-])cc7F)c7ccc([nH]7)c(-c7c(F)cc(S(=O)(=O)[O-])cc7F)c7nc(c(-c8c(F)cc(S(=O)(=O)[O-])cc8F)c8ccc5[nH]8)C=C7)C=C6)cc4)C3)ccn2)c2ccc(C)nc12
REMARK SMILES IDX 21 1 20 2 19 3 18 4 17 5 15 6 16 7 14 8 13 9 10 10 11 11
REMARK SMILES IDX 95 12 12 13 9 15 7 16 8 17 98 18 97 19 96 20 6 21 3 22 4 23
REMARK SMILES IDX 105 24 5 25 99 26 104 27 100 28 102 29 101 30 103 31 2 32
REMARK SMILES IDX 1 33 22 34 23 35 24 36 25 37 26 38 27 39 28 40 29 41 30 42
REMARK SMILES IDX 94 43 31 44 93 45 32 46 33 47 34 48 87 49 35 50 92 51 86 52
REMARK SMILES IDX 88 53 36 54 91 55 85 56 84 57 37 59 71 60 50 61 70 62 51 63
REMARK SMILES IDX 54 64 69 65 89 66 52 67 53 68 68 70 90 71 55 72 38 73 39 74
REMARK SMILES IDX 48 75 40 76 41 77 47 78 49 79 42 80 43 81 44 82 45 83 46 84
REMARK SMILES IDX 72 85 73 86 82 87 74 88 75 89 81 90 83 91 76 92 77 93 78 94
REMARK SMILES IDX 79 95 80 96 56 97 57 98 66 99 58 100 59 101 65 102 67 103
REMARK SMILES IDX 60 104 61 105 62 106 63 107 64 108
REMARK H PARENT 13 14 88 58 54 69
REMARK Flexibility Score: inf
ROOT
ATOM      1  C   UNL A   1      42.329  18.401  26.063  1.00  0.00     0.188 C 
ENDROOT
BRANCH   1   2
ATOM      2  O   UNL A   1      41.566  19.463  25.505  1.00  0.00    -0.376 OA
BRANCH   2   3
ATOM      3  C   UNL A   1      40.178  19.530  25.813  1.00  0.00     0.202 C 
BRANCH   3   4
ATOM      4  C   UNL A   1      39.549  20.924  25.834  1.00  0.00     0.261 C 
BRANCH   4   5
ATOM      5  O   UNL A   1      39.535  21.528  27.146  1.00  0.00    -0.459 OA
BRANCH   5   6
ATOM      6  C   UNL A   1      40.517  22.430  27.413  1.00  0.00     0.361 C 
ATOM      7  O   UNL A   1      41.689  22.119  27.595  1.00  0.00    -0.245 OA
BRANCH   6   8
ATOM      8  C   UNL A   1      40.062  23.895  27.369  1.00  0.00     0.386 C 
BRANCH   8   9
ATOM      9  N   UNL A   1      41.007  24.977  27.712  1.00  0.00    -0.325 N 
ATOM     10  C   UNL A   1      41.568  26.784  26.219  1.00  0.00     0.080 C 
ATOM     11  C   UNL A   1      40.425  27.193  27.167  1.00  0.00     0.075 C 
ATOM     12  C   UNL A   1      41.984  25.380  26.693  1.00  0.00     0.271 C 
ATOM     13  C   UNL A   1      40.477  26.187  28.306  1.00  0.00     0.263 C 
ATOM     14  H   UNL A   1      41.485  24.444  28.438  1.00  0.00     0.348 HD
BRANCH  10  15
ATOM     15  C   UNL A   1      42.565  27.914  26.190  1.00  0.00    -0.035 A 
ATOM     16  C   UNL A   1      44.861  28.588  26.308  1.00  0.00     0.071 A 
ATOM     17  C   UNL A   1      43.903  27.613  26.046  1.00  0.00     0.033 A 
ATOM     18  N   UNL A   1      44.575  29.841  26.712  1.00  0.00    -0.256 NA
ATOM     19  C   UNL A   1      43.265  30.141  26.796  1.00  0.00     0.112 A 
ATOM     20  C   UNL A   1      42.248  29.232  26.534  1.00  0.00     0.024 A 
BRANCH  16  21
ATOM     21  C   UNL A   1      46.248  28.240  26.058  1.00  0.00     0.010 A 
ATOM     22  C   UNL A   1      48.910  28.020  25.378  1.00  0.00     0.145 A 
ATOM     23  C   UNL A   1      47.933  27.552  24.492  1.00  0.00     0.049 A 
ATOM     24  C   UNL A   1      48.601  28.646  26.603  1.00  0.00     0.113 A 
ATOM     25  C   UNL A   1      46.597  27.660  24.834  1.00  0.00     0.015 A 
ATOM     26  C   UNL A   1      47.248  28.704  26.961  1.00  0.00     0.013 A 
ATOM     27  N   UNL A   1      49.552  29.197  27.402  1.00  0.00    -0.249 NA
ATOM     28  C   UNL A   1      46.926  29.280  28.212  1.00  0.00     0.013 A 
ATOM     29  C   UNL A   1      49.197  29.808  28.560  1.00  0.00     0.038 A 
ATOM     30  C   UNL A   1      47.896  29.852  29.010  1.00  0.00     0.024 A 
ATOM     31  C   UNL A   1      50.292  30.427  29.371  1.00  0.00     0.067 C 
BRANCH  22  32
ATOM     32  O   UNL A   1      50.206  27.841  24.945  1.00  0.00    -0.494 OA
ATOM     33  C   UNL A   1      50.547  26.455  24.974  1.00  0.00     0.278 C 
ENDBRANCH  22  32
ENDBRANCH  16  21
ENDBRANCH  10  15
ENDBRANCH   8   9
ENDBRANCH   6   8
ENDBRANCH   5   6
ENDBRANCH   4   5
ENDBRANCH   3   4
ENDBRANCH   2   3
ENDBRANCH   1   2
BRANCH   1  34
ATOM     34  C   UNL A   1      43.833  18.631  26.262  1.00  0.00     0.188 C 
BRANCH  34  35
ATOM     35  O   UNL A   1      44.603  18.102  25.194  1.00  0.00    -0.376 OA
BRANCH  35  36
ATOM     36  C   UNL A   1      44.602  18.796  23.960  1.00  0.00     0.202 C 
BRANCH  36  37
ATOM     37  C   UNL A   1      45.845  19.655  23.748  1.00  0.00     0.261 C 
BRANCH  37  38
ATOM     38  O   UNL A   1      46.004  20.719  24.702  1.00  0.00    -0.460 OA
BRANCH  38  39
ATOM     39  C   UNL A   1      45.407  21.903  24.442  1.00  0.00     0.338 C 
ATOM     40  O   UNL A   1      44.605  22.137  23.551  1.00  0.00    -0.246 OA
BRANCH  39  41
ATOM     41  C   UNL A   1      45.703  22.825  25.559  1.00  0.00     0.060 A 
ATOM     42  C   UNL A   1      46.552  23.918  25.328  1.00  0.00     0.016 A 
ATOM     43  C   UNL A   1      45.094  22.658  26.804  1.00  0.00     0.016 A 
ATOM     44  C   UNL A   1      46.814  24.830  26.352  1.00  0.00     0.010 A 
ATOM     45  C   UNL A   1      45.361  23.567  27.827  1.00  0.00     0.010 A 
ATOM     46  C   UNL A   1      46.244  24.641  27.617  1.00  0.00    -0.014 A 
BRANCH  46  47
ATOM     47  C   UNL A   1      46.682  25.449  28.782  1.00  0.00     0.031 A 
ATOM     48  C   UNL A   1      45.629  26.178  29.574  1.00  0.00     0.074 A 
ATOM     49  C   UNL A   1      47.984  25.566  29.106  1.00  0.00     0.049 A 
ATOM     50  N   UNL A   1      45.768  27.057  30.528  1.00  0.00    -0.248 NA
ATOM     51  C   UNL A   1      44.227  25.880  29.229  1.00  0.00     0.031 C 
ATOM     52  C   UNL A   1      49.090  24.880  28.441  1.00  0.00     0.029 A 
ATOM     53  N   UNL A   1      48.595  26.330  30.070  1.00  0.00    -0.354 N 
ATOM     54  C   UNL A   1      44.478  27.446  30.874  1.00  0.00     0.074 A 
ATOM     55  C   UNL A   1      43.568  26.714  30.021  1.00  0.00     0.031 C 
ATOM     56  C   UNL A   1      50.248  25.267  29.006  1.00  0.00     0.029 A 
ATOM     57  C   UNL A   1      49.970  26.264  30.038  1.00  0.00     0.049 A 
ATOM     58  H   UNL A   1      48.098  26.875  30.722  1.00  0.00     0.167 HD
ATOM     59  C   UNL A   1      44.091  28.335  31.817  1.00  0.00     0.037 A 
ATOM     60  C   UNL A   1      50.892  26.957  30.736  1.00  0.00     0.037 A 
ATOM     61  C   UNL A   1      45.004  29.038  32.678  1.00  0.00     0.049 A 
ATOM     62  C   UNL A   1      50.431  27.983  31.746  1.00  0.00     0.074 A 
ATOM     63  C   UNL A   1      44.710  29.921  33.702  1.00  0.00     0.029 A 
ATOM     64  N   UNL A   1      46.386  28.946  32.614  1.00  0.00    -0.354 N 
ATOM     65  N   UNL A   1      49.208  28.313  32.090  1.00  0.00    -0.248 NA
ATOM     66  C   UNL A   1      51.475  28.732  32.459  1.00  0.00     0.031 C 
ATOM     67  C   UNL A   1      45.913  30.414  34.211  1.00  0.00     0.029 A 
ATOM     68  C   UNL A   1      46.958  29.783  33.556  1.00  0.00     0.049 A 
ATOM     69  H   UNL A   1      46.886  28.371  31.991  1.00  0.00     0.167 HD
ATOM     70  C   UNL A   1      49.339  29.276  33.088  1.00  0.00     0.074 A 
ATOM     71  C   UNL A   1      50.759  29.467  33.298  1.00  0.00     0.031 C 
ATOM     72  C   UNL A   1      48.374  29.941  33.770  1.00  0.00     0.037 A 
BRANCH  59  73
ATOM     73  C   UNL A   1      42.625  28.632  31.956  1.00  0.00     0.058 A 
ATOM     74  C   UNL A   1      41.945  29.477  31.065  1.00  0.00     0.135 A 
ATOM     75  C   UNL A   1      41.870  27.991  32.954  1.00  0.00     0.135 A 
ATOM     76  F   UNL A   1      42.619  30.134  30.108  1.00  0.00    -0.206 F 
ATOM     77  C   UNL A   1      40.572  29.678  31.159  1.00  0.00     0.059 A 
ATOM     78  C   UNL A   1      40.492  28.154  33.049  1.00  0.00     0.059 A 
ATOM     79  F   UNL A   1      42.473  27.181  33.838  1.00  0.00    -0.206 F 
ATOM     80  C   UNL A   1      39.852  29.003  32.148  1.00  0.00     0.060 A 
BRANCH  80  81
ATOM     81  S   UNL A   1      38.063  29.232  32.222  1.00  0.00     0.124 S 
ATOM     82  O   UNL A   1      37.965  30.552  32.840  1.00  0.00    -0.237 OA
ATOM     83  O   UNL A   1      37.685  29.162  30.815  1.00  0.00    -0.237 OA
ATOM     84  O   UNL A   1      37.609  28.118  33.048  1.00  0.00    -0.744 OA
ENDBRANCH  80  81
ENDBRANCH  59  73
BRANCH  60  85
ATOM     85  C   UNL A   1      52.348  26.742  30.499  1.00  0.00     0.058 A 
ATOM     86  C   UNL A   1      52.984  27.274  29.366  1.00  0.00     0.135 A 
ATOM     87  C   UNL A   1      53.122  25.954  31.366  1.00  0.00     0.135 A 
ATOM     88  F   UNL A   1      52.288  28.026  28.499  1.00  0.00    -0.206 F 
ATOM     89  C   UNL A   1      54.318  27.002  29.079  1.00  0.00     0.059 A 
ATOM     90  C   UNL A   1      54.467  25.695  31.118  1.00  0.00     0.059 A 
ATOM     91  F   UNL A   1      52.571  25.427  32.470  1.00  0.00    -0.206 F 
ATOM     92  C   UNL A   1      55.051  26.206  29.961  1.00  0.00     0.060 A 
BRANCH  92  93
ATOM     93  S   UNL A   1      56.780  25.856  29.576  1.00  0.00     0.124 S 
ATOM     94  O   UNL A   1      57.283  27.186  29.254  1.00  0.00    -0.237 OA
ATOM     95  O   UNL A   1      57.261  25.276  30.826  1.00  0.00    -0.237 OA
ATOM     96  O   UNL A   1      56.692  24.925  28.455  1.00  0.00    -0.744 OA
ENDBRANCH  92  93
ENDBRANCH  60  85
BRANCH  72  97
ATOM     97  C   UNL A   1      48.811  30.891  34.855  1.00  0.00     0.058 A 
ATOM     98  C   UNL A   1      49.031  32.254  34.608  1.00  0.00     0.135 A 
ATOM     99  C   UNL A   1      48.951  30.434  36.177  1.00  0.00     0.135 A 
ATOM    100  F   UNL A   1      48.915  32.743  33.363  1.00  0.00    -0.206 F 
ATOM    101  C   UNL A   1      49.402  33.127  35.627  1.00  0.00     0.059 A 
ATOM    102  C   UNL A   1      49.285  31.294  37.217  1.00  0.00     0.059 A 
ATOM    103  F   UNL A   1      48.738  29.142  36.472  1.00  0.00    -0.206 F 
ATOM    104  C   UNL A   1      49.522  32.638  36.929  1.00  0.00     0.060 A 
BRANCH 104 105
ATOM    105  S   UNL A   1      49.969  33.787  38.248  1.00  0.00     0.124 S 
ATOM    106  O   UNL A   1      50.045  35.050  37.523  1.00  0.00    -0.237 OA
ATOM    107  O   UNL A   1      48.847  33.651  39.171  1.00  0.00    -0.237 OA
ATOM    108  O   UNL A   1      51.242  33.266  38.736  1.00  0.00    -0.744 OA
ENDBRANCH 104 105
ENDBRANCH  72  97
ENDBRANCH  46  47
ENDBRANCH  39  41
ENDBRANCH  38  39
ENDBRANCH  37  38
ENDBRANCH  36  37
ENDBRANCH  35  36
ENDBRANCH  34  35
ENDBRANCH   1  34
TORSDOF 24
ENDMDL
MODEL 3
REMARK VINA RESULT:      -9.5      6.469     11.935
REMARK SMILES COc1ccc(-c2cc([C@@H]3CC[N@@H+](CC(=O)OCCOCCOCCOC(=O)c4ccc(-c5c6nc(c(-c7c(F)cc(S(=O)(=O)[O-])cc7F)c7ccc([nH]7)c(-c7c(F)cc(S(=O)(=O)[O-])cc7F)c7nc(c(-c8c(F)cc(S(=O)(=O)[O-])cc8F)c8ccc5[nH]8)C=C7)C=C6)cc4)C3)ccn2)c2ccc(C)nc12
REMARK SMILES IDX 21 1 20 2 19 3 18 4 17 5 15 6 16 7 14 8 13 9 10 10 11 11
REMARK SMILES IDX 95 12 12 13 9 15 7 16 8 17 98 18 97 19 96 20 6 21 3 22 4 23
REMARK SMILES IDX 105 24 5 25 99 26 104 27 100 28 102 29 101 30 103 31 2 32
REMARK SMILES IDX 1 33 22 34 23 35 24 36 25 37 26 38 27 39 28 40 29 41 30 42
REMARK SMILES IDX 94 43 31 44 93 45 32 46 33 47 34 48 87 49 35 50 92 51 86 52
REMARK SMILES IDX 88 53 36 54 91 55 85 56 84 57 37 59 71 60 50 61 70 62 51 63
REMARK SMILES IDX 54 64 69 65 89 66 52 67 53 68 68 70 90 71 55 72 38 73 39 74
REMARK SMILES IDX 48 75 40 76 41 77 47 78 49 79 42 80 43 81 44 82 45 83 46 84
REMARK SMILES IDX 72 85 73 86 82 87 74 88 75 89 81 90 83 91 76 92 77 93 78 94
REMARK SMILES IDX 79 95 80 96 56 97 57 98 66 99 58 100 59 101 65 102 67 103
REMARK SMILES IDX 60 104 61 105 62 106 63 107 64 108
REMARK H PARENT 13 14 88 58 54 69
REMARK Flexibility Score: inf
ROOT
ATOM      1  C   UNL A   1      48.045  26.240  26.111  1.00  0.00     0.188 C 
ENDROOT
BRANCH   1   2
ATOM      2  O   UNL A   1      49.119  26.578  26.978  1.00  0.00    -0.376 OA
BRANCH   2   3
ATOM      3  C   UNL A   1      48.832  26.795  28.355  1.00  0.00     0.202 C 
BRANCH   3   4
ATOM      4  C   UNL A   1      48.559  28.240  28.777  1.00  0.00     0.261 C 
BRANCH   4   5
ATOM      5  O   UNL A   1      48.203  29.102  27.674  1.00  0.00    -0.459 OA
BRANCH   5   6
ATOM      6  C   UNL A   1      46.874  29.281  27.444  1.00  0.00     0.361 C 
ATOM      7  O   UNL A   1      45.995  28.685  28.058  1.00  0.00    -0.245 OA
BRANCH   6   8
ATOM      8  C   UNL A   1      46.550  30.375  26.417  1.00  0.00     0.386 C 
BRANCH   8   9
ATOM      9  N   UNL A   1      45.921  31.639  26.852  1.00  0.00    -0.325 N 
ATOM     10  C   UNL A   1      44.081  31.751  28.404  1.00  0.00     0.080 C 
ATOM     11  C   UNL A   1      45.425  31.921  29.137  1.00  0.00     0.075 C 
ATOM     12  C   UNL A   1      44.455  31.687  26.913  1.00  0.00     0.271 C 
ATOM     13  C   UNL A   1      46.426  32.279  28.050  1.00  0.00     0.263 C 
ATOM     14  H   UNL A   1      46.238  32.173  26.043  1.00  0.00     0.348 HD
BRANCH  10  15
ATOM     15  C   UNL A   1      43.142  32.813  28.918  1.00  0.00    -0.035 A 
ATOM     16  C   UNL A   1      42.652  35.149  29.129  1.00  0.00     0.071 A 
ATOM     17  C   UNL A   1      43.294  34.107  28.466  1.00  0.00     0.033 A 
ATOM     18  N   UNL A   1      41.875  34.988  30.217  1.00  0.00    -0.256 NA
ATOM     19  C   UNL A   1      41.689  33.716  30.616  1.00  0.00     0.112 A 
ATOM     20  C   UNL A   1      42.277  32.620  29.999  1.00  0.00     0.024 A 
BRANCH  16  21
ATOM     21  C   UNL A   1      42.780  36.478  28.558  1.00  0.00     0.010 A 
ATOM     22  C   UNL A   1      42.611  39.096  27.716  1.00  0.00     0.145 A 
ATOM     23  C   UNL A   1      42.045  38.083  26.932  1.00  0.00     0.049 A 
ATOM     24  C   UNL A   1      43.238  38.851  28.954  1.00  0.00     0.113 A 
ATOM     25  C   UNL A   1      42.131  36.769  27.353  1.00  0.00     0.015 A 
ATOM     26  C   UNL A   1      43.365  37.511  29.346  1.00  0.00     0.013 A 
ATOM     27  N   UNL A   1      43.684  39.851  29.758  1.00  0.00    -0.249 NA
ATOM     28  C   UNL A   1      44.040  37.245  30.559  1.00  0.00     0.013 A 
ATOM     29  C   UNL A   1      44.261  39.560  30.951  1.00  0.00     0.038 A 
ATOM     30  C   UNL A   1      44.476  38.268  31.378  1.00  0.00     0.024 A 
ATOM     31  C   UNL A   1      44.692  40.711  31.803  1.00  0.00     0.067 C 
BRANCH  22  32
ATOM     32  O   UNL A   1      42.484  40.364  27.189  1.00  0.00    -0.494 OA
ATOM     33  C   UNL A   1      43.377  40.529  26.087  1.00  0.00     0.278 C 
ENDBRANCH  22  32
ENDBRANCH  16  21
ENDBRANCH  10  15
ENDBRANCH   8   9
ENDBRANCH   6   8
ENDBRANCH   5   6
ENDBRANCH   4   5
ENDBRANCH   3   4
ENDBRANCH   2   3
ENDBRANCH   1   2
BRANCH   1  34
ATOM     34  C   UNL A   1      46.842  25.508  26.719  1.00  0.00     0.188 C 
BRANCH  34  35
ATOM     35  O   UNL A   1      45.642  25.763  26.006  1.00  0.00    -0.376 OA
BRANCH  35  36
ATOM     36  C   UNL A   1      45.258  24.850  24.993  1.00  0.00     0.202 C 
BRANCH  36  37
ATOM     37  C   UNL A   1      43.895  24.208  25.242  1.00  0.00     0.261 C 
BRANCH  37  38
ATOM     38  O   UNL A   1      42.823  25.144  25.443  1.00  0.00    -0.460 OA
BRANCH  38  39
ATOM     39  C   UNL A   1      41.791  24.771  26.231  1.00  0.00     0.338 C 
ATOM     40  O   UNL A   1      41.156  23.730  26.161  1.00  0.00    -0.246 OA
BRANCH  39  41
ATOM     41  C   UNL A   1      41.698  25.729  27.354  1.00  0.00     0.060 A 
ATOM     42  C   UNL A   1      40.696  25.546  28.318  1.00  0.00     0.016 A 
ATOM     43  C   UNL A   1      42.633  26.757  27.496  1.00  0.00     0.016 A 
ATOM     44  C   UNL A   1      40.612  26.409  29.414  1.00  0.00     0.010 A 
ATOM     45  C   UNL A   1      42.543  27.621  28.587  1.00  0.00     0.010 A 
ATOM     46  C   UNL A   1      41.517  27.471  29.536  1.00  0.00    -0.014 A 
BRANCH  46  47
ATOM     47  C   UNL A   1      41.314  28.535  30.549  1.00  0.00     0.031 A 
ATOM     48  C   UNL A   1      42.177  28.512  31.783  1.00  0.00     0.074 A 
ATOM     49  C   UNL A   1      40.363  29.477  30.398  1.00  0.00     0.049 A 
ATOM     50  N   UNL A   1      42.093  29.231  32.869  1.00  0.00    -0.248 NA
ATOM     51  C   UNL A   1      43.277  27.531  31.795  1.00  0.00     0.031 C 
ATOM     52  C   UNL A   1      39.494  29.627  29.233  1.00  0.00     0.029 A 
ATOM     53  N   UNL A   1      39.955  30.475  31.250  1.00  0.00    -0.354 N 
ATOM     54  C   UNL A   1      43.101  28.768  33.707  1.00  0.00     0.074 A 
ATOM     55  C   UNL A   1      43.780  27.699  33.009  1.00  0.00     0.031 C 
ATOM     56  C   UNL A   1      38.642  30.646  29.450  1.00  0.00     0.029 A 
ATOM     57  C   UNL A   1      38.874  31.189  30.787  1.00  0.00     0.049 A 
ATOM     58  H   UNL A   1      40.394  30.661  32.111  1.00  0.00     0.167 HD
ATOM     59  C   UNL A   1      43.428  29.198  34.948  1.00  0.00     0.037 A 
ATOM     60  C   UNL A   1      38.137  32.143  31.391  1.00  0.00     0.037 A 
ATOM     61  C   UNL A   1      42.762  30.280  35.622  1.00  0.00     0.049 A 
ATOM     62  C   UNL A   1      38.492  32.564  32.798  1.00  0.00     0.074 A 
ATOM     63  C   UNL A   1      43.052  30.827  36.860  1.00  0.00     0.029 A 
ATOM     64  N   UNL A   1      41.673  30.977  35.122  1.00  0.00    -0.354 N 
ATOM     65  N   UNL A   1      39.471  32.145  33.565  1.00  0.00    -0.248 NA
ATOM     66  C   UNL A   1      37.640  33.587  33.423  1.00  0.00     0.031 C 
ATOM     67  C   UNL A   1      42.096  31.806  37.138  1.00  0.00     0.029 A 
ATOM     68  C   UNL A   1      41.256  31.922  36.042  1.00  0.00     0.049 A 
ATOM     69  H   UNL A   1      41.256  30.821  34.244  1.00  0.00     0.167 HD
ATOM     70  C   UNL A   1      39.376  32.883  34.742  1.00  0.00     0.074 A 
ATOM     71  C   UNL A   1      38.251  33.780  34.583  1.00  0.00     0.031 C 
ATOM     72  C   UNL A   1      40.149  32.826  35.855  1.00  0.00     0.037 A 
BRANCH  59  73
ATOM     73  C   UNL A   1      44.529  28.484  35.680  1.00  0.00     0.058 A 
ATOM     74  C   UNL A   1      45.868  28.895  35.602  1.00  0.00     0.135 A 
ATOM     75  C   UNL A   1      44.221  27.417  36.543  1.00  0.00     0.135 A 
ATOM     76  F   UNL A   1      46.223  29.893  34.777  1.00  0.00    -0.206 F 
ATOM     77  C   UNL A   1      46.863  28.274  36.351  1.00  0.00     0.059 A 
ATOM     78  C   UNL A   1      45.194  26.800  37.321  1.00  0.00     0.059 A 
ATOM     79  F   UNL A   1      42.957  26.978  36.646  1.00  0.00    -0.206 F 
ATOM     80  C   UNL A   1      46.514  27.234  37.216  1.00  0.00     0.060 A 
BRANCH  80  81
ATOM     81  S   UNL A   1      47.808  26.475  38.219  1.00  0.00     0.124 S 
ATOM     82  O   UNL A   1      48.966  26.591  37.336  1.00  0.00    -0.237 OA
ATOM     83  O   UNL A   1      47.825  27.332  39.400  1.00  0.00    -0.237 OA
ATOM     84  O   UNL A   1      47.320  25.118  38.438  1.00  0.00    -0.744 OA
ENDBRANCH  80  81
ENDBRANCH  59  73
BRANCH  60  85
ATOM     85  C   UNL A   1      36.967  32.755  30.699  1.00  0.00     0.058 A 
ATOM     86  C   UNL A   1      37.137  33.798  29.773  1.00  0.00     0.135 A 
ATOM     87  C   UNL A   1      35.653  32.355  30.989  1.00  0.00     0.135 A 
ATOM     88  F   UNL A   1      38.372  34.227  29.468  1.00  0.00    -0.206 F 
ATOM     89  C   UNL A   1      36.052  34.446  29.193  1.00  0.00     0.059 A 
ATOM     90  C   UNL A   1      34.552  32.965  30.396  1.00  0.00     0.059 A 
ATOM     91  F   UNL A   1      35.429  31.357  31.858  1.00  0.00    -0.206 F 
ATOM     92  C   UNL A   1      34.760  34.025  29.515  1.00  0.00     0.060 A 
BRANCH  92  93
ATOM     93  S   UNL A   1      33.359  34.876  28.758  1.00  0.00     0.124 S 
ATOM     94  O   UNL A   1      32.928  33.902  27.762  1.00  0.00    -0.237 OA
ATOM     95  O   UNL A   1      32.465  35.065  29.896  1.00  0.00    -0.237 OA
ATOM     96  O   UNL A   1      33.956  36.099  28.229  1.00  0.00    -0.744 OA
ENDBRANCH  92  93
ENDBRANCH  60  85
BRANCH  72  97
ATOM     97  C   UNL A   1      39.853  33.800  36.966  1.00  0.00     0.058 A 
ATOM     98  C   UNL A   1      39.030  33.466  38.052  1.00  0.00     0.135 A 
ATOM     99  C   UNL A   1      40.455  35.070  36.968  1.00  0.00     0.135 A 
ATOM    100  F   UNL A   1      38.426  32.267  38.098  1.00  0.00    -0.206 F 
ATOM    101  C   UNL A   1      38.792  34.364  39.087  1.00  0.00     0.059 A 
ATOM    102  C   UNL A   1      40.261  35.971  38.010  1.00  0.00     0.059 A 
ATOM    103  F   UNL A   1      41.264  35.437  35.961  1.00  0.00    -0.206 F 
ATOM    104  C   UNL A   1      39.415  35.613  39.059  1.00  0.00     0.060 A 
BRANCH 104 105
ATOM    105  S   UNL A   1      39.126  36.756  40.426  1.00  0.00     0.124 S 
ATOM    106  O   UNL A   1      38.491  37.876  39.743  1.00  0.00    -0.237 OA
ATOM    107  O   UNL A   1      38.261  35.975  41.306  1.00  0.00    -0.237 OA
ATOM    108  O   UNL A   1      40.466  37.014  40.943  1.00  0.00    -0.744 OA
ENDBRANCH 104 105
ENDBRANCH  72  97
ENDBRANCH  46  47
ENDBRANCH  39  41
ENDBRANCH  38  39
ENDBRANCH  37  38
ENDBRANCH  36  37
ENDBRANCH  35  36
ENDBRANCH  34  35
ENDBRANCH   1  34
TORSDOF 24
ENDMDL
