MODEL 1
REMARK VINA RESULT:     -10.3      0.000      0.000
REMARK SMILES CCN1CCN([C@H](C)c2ccc(C(=O)OCCOCCOCCOC(=O)c3ccc(-c4c5nc(c(-c6c(F)cc(S(=O)(=O)[O-])cc6F)c6ccc([nH]6)c(-c6c(F)cc(S(=O)(=O)[O-])cc6F)c6nc(c(-c7c(F)cc(S(=O)(=O)[O-])cc7F)c7ccc4[nH]7)C=C6)C=C5)cc3)o2)C(=O)C1=O
REMARK SMILES IDX 19 1 18 2 17 3 16 4 15 5 13 6 14 7 12 8 9 9 10 10 93 11
REMARK SMILES IDX 11 12 7 13 8 14 6 15 3 16 4 17 96 18 5 19 94 20 97 21 95 22
REMARK SMILES IDX 2 23 1 24 20 25 21 26 22 27 23 28 24 29 25 30 26 31 27 32
REMARK SMILES IDX 28 33 92 34 29 35 91 36 30 37 31 38 32 39 85 40 33 41 90 42
REMARK SMILES IDX 84 43 86 44 34 45 89 46 83 47 82 48 35 50 69 51 48 52 68 53
REMARK SMILES IDX 49 54 52 55 67 56 87 57 50 58 51 59 66 61 88 62 53 63 36 64
REMARK SMILES IDX 37 65 46 66 38 67 39 68 45 69 47 70 40 71 41 72 42 73 43 74
REMARK SMILES IDX 44 75 70 76 71 77 80 78 72 79 73 80 79 81 81 82 74 83 75 84
REMARK SMILES IDX 76 85 77 86 78 87 54 88 55 89 64 90 56 91 57 92 63 93 65 94
REMARK SMILES IDX 58 95 59 96 60 97 61 98 62 99
REMARK H PARENT 86 49 52 60
REMARK Flexibility Score: inf
ROOT
ATOM      1  C   UNL A   1      37.920  20.779  25.148  1.00  0.00     0.188 C 
ENDROOT
BRANCH   1   2
ATOM      2  O   UNL A   1      36.656  20.288  24.739  1.00  0.00    -0.376 OA
BRANCH   2   3
ATOM      3  C   UNL A   1      35.479  20.956  25.182  1.00  0.00     0.202 C 
BRANCH   3   4
ATOM      4  C   UNL A   1      34.176  20.160  25.225  1.00  0.00     0.261 C 
BRANCH   4   5
ATOM      5  O   UNL A   1      33.054  21.040  25.412  1.00  0.00    -0.457 OA
BRANCH   5   6
ATOM      6  C   UNL A   1      33.084  21.815  26.537  1.00  0.00     0.374 C 
ATOM      7  O   UNL A   1      33.583  21.470  27.600  1.00  0.00    -0.242 OA
BRANCH   6   8
ATOM      8  C   UNL A   1      32.542  23.118  26.231  1.00  0.00     0.211 A 
ATOM      9  C   UNL A   1      32.561  25.104  25.266  1.00  0.00     0.127 A 
ATOM     10  C   UNL A   1      31.310  24.955  25.833  1.00  0.00     0.049 A 
ATOM     11  O   UNL A   1      33.317  23.998  25.520  1.00  0.00    -0.452 OA
ATOM     12  C   UNL A   1      31.299  23.685  26.456  1.00  0.00     0.058 A 
BRANCH   9  13
ATOM     13  C   UNL A   1      33.170  26.237  24.489  1.00  0.00     0.149 C 
ATOM     14  C   UNL A   1      34.086  25.683  23.394  1.00  0.00     0.040 C 
BRANCH  13  15
ATOM     15  N   UNL A   1      32.177  27.242  24.083  1.00  0.00    -0.323 N 
ATOM     16  N   UNL A   1      29.866  28.786  23.353  1.00  0.00    -0.333 N 
ATOM     17  C   UNL A   1      30.109  27.474  22.780  1.00  0.00     0.141 C 
ATOM     18  C   UNL A   1      30.741  29.308  24.314  1.00  0.00     0.312 C 
ATOM     19  C   UNL A   1      31.600  27.154  22.748  1.00  0.00     0.142 C 
ATOM     20  C   UNL A   1      31.842  28.352  24.869  1.00  0.00     0.312 C 
ATOM     21  O   UNL A   1      30.671  30.453  24.745  1.00  0.00    -0.263 OA
ATOM     22  O   UNL A   1      32.310  28.582  25.977  1.00  0.00    -0.263 OA
BRANCH  16  23
ATOM     23  C   UNL A   1      28.759  29.620  22.882  1.00  0.00     0.116 C 
ATOM     24  C   UNL A   1      27.364  29.041  23.078  1.00  0.00     0.027 C 
ENDBRANCH  16  23
ENDBRANCH  13  15
ENDBRANCH   9  13
ENDBRANCH   6   8
ENDBRANCH   5   6
ENDBRANCH   4   5
ENDBRANCH   3   4
ENDBRANCH   2   3
ENDBRANCH   1   2
BRANCH   1  25
ATOM     25  C   UNL A   1      38.033  22.195  25.748  1.00  0.00     0.188 C 
BRANCH  25  26
ATOM     26  O   UNL A   1      39.198  22.629  26.423  1.00  0.00    -0.376 OA
BRANCH  26  27
ATOM     27  C   UNL A   1      40.405  21.887  26.323  1.00  0.00     0.202 C 
BRANCH  27  28
ATOM     28  C   UNL A   1      41.760  22.585  26.176  1.00  0.00     0.261 C 
BRANCH  28  29
ATOM     29  O   UNL A   1      41.981  23.670  27.082  1.00  0.00    -0.460 OA
BRANCH  29  30
ATOM     30  C   UNL A   1      41.977  24.896  26.504  1.00  0.00     0.338 C 
ATOM     31  O   UNL A   1      42.212  25.168  25.339  1.00  0.00    -0.246 OA
BRANCH  30  32
ATOM     32  C   UNL A   1      41.473  25.886  27.467  1.00  0.00     0.060 A 
ATOM     33  C   UNL A   1      42.151  27.106  27.569  1.00  0.00     0.016 A 
ATOM     34  C   UNL A   1      40.399  25.589  28.309  1.00  0.00     0.016 A 
ATOM     35  C   UNL A   1      41.765  28.028  28.536  1.00  0.00     0.010 A 
ATOM     36  C   UNL A   1      40.026  26.510  29.291  1.00  0.00     0.010 A 
ATOM     37  C   UNL A   1      40.722  27.722  29.421  1.00  0.00    -0.014 A 
BRANCH  37  38
ATOM     38  C   UNL A   1      40.476  28.616  30.575  1.00  0.00     0.031 A 
ATOM     39  C   UNL A   1      41.439  28.585  31.728  1.00  0.00     0.074 A 
ATOM     40  C   UNL A   1      39.445  29.479  30.565  1.00  0.00     0.049 A 
ATOM     41  N   UNL A   1      41.470  29.332  32.799  1.00  0.00    -0.248 NA
ATOM     42  C   UNL A   1      42.513  27.581  31.658  1.00  0.00     0.031 C 
ATOM     43  C   UNL A   1      38.481  29.630  29.476  1.00  0.00     0.029 A 
ATOM     44  N   UNL A   1      39.064  30.422  31.487  1.00  0.00    -0.354 N 
ATOM     45  C   UNL A   1      42.546  28.868  33.549  1.00  0.00     0.074 A 
ATOM     46  C   UNL A   1      43.154  27.791  32.799  1.00  0.00     0.031 C 
ATOM     47  C   UNL A   1      37.647  30.643  29.771  1.00  0.00     0.029 A 
ATOM     48  C   UNL A   1      38.011  31.204  31.071  1.00  0.00     0.049 A 
ATOM     49  H   UNL A   1      39.501  30.528  32.362  1.00  0.00     0.167 HD
ATOM     50  C   UNL A   1      42.972  29.289  34.763  1.00  0.00     0.037 A 
ATOM     51  C   UNL A   1      37.443  32.276  31.658  1.00  0.00     0.037 A 
ATOM     52  C   UNL A   1      42.354  30.348  35.513  1.00  0.00     0.049 A 
ATOM     53  C   UNL A   1      37.947  32.733  33.004  1.00  0.00     0.074 A 
ATOM     54  C   UNL A   1      42.687  30.819  36.772  1.00  0.00     0.029 A 
ATOM     55  N   UNL A   1      41.272  31.097  35.078  1.00  0.00    -0.354 N 
ATOM     56  N   UNL A   1      38.969  32.290  33.699  1.00  0.00    -0.248 NA
ATOM     57  C   UNL A   1      37.212  33.829  33.651  1.00  0.00     0.031 C 
ATOM     58  C   UNL A   1      41.779  31.828  37.113  1.00  0.00     0.029 A 
ATOM     59  C   UNL A   1      40.911  32.015  36.050  1.00  0.00     0.049 A 
ATOM     60  H   UNL A   1      40.826  30.992  34.206  1.00  0.00     0.167 HD
ATOM     61  C   UNL A   1      38.998  33.054  34.862  1.00  0.00     0.074 A 
ATOM     62  C   UNL A   1      37.916  34.012  34.760  1.00  0.00     0.031 C 
ATOM     63  C   UNL A   1      39.831  32.963  35.928  1.00  0.00     0.037 A 
BRANCH  50  64
ATOM     64  C   UNL A   1      44.122  28.549  35.382  1.00  0.00     0.058 A 
ATOM     65  C   UNL A   1      45.453  28.938  35.174  1.00  0.00     0.135 A 
ATOM     66  C   UNL A   1      43.879  27.437  36.205  1.00  0.00     0.135 A 
ATOM     67  F   UNL A   1      45.737  29.977  34.374  1.00  0.00    -0.206 F 
ATOM     68  C   UNL A   1      46.509  28.236  35.747  1.00  0.00     0.059 A 
ATOM     69  C   UNL A   1      44.919  26.734  36.805  1.00  0.00     0.059 A 
ATOM     70  F   UNL A   1      42.623  27.021  36.426  1.00  0.00    -0.206 F 
ATOM     71  C   UNL A   1      46.231  27.133  36.558  1.00  0.00     0.060 A 
BRANCH  71  72
ATOM     72  S   UNL A   1      47.610  26.225  37.289  1.00  0.00     0.124 S 
ATOM     73  O   UNL A   1      48.749  27.021  36.839  1.00  0.00    -0.237 OA
ATOM     74  O   UNL A   1      47.312  26.297  38.715  1.00  0.00    -0.237 OA
ATOM     75  O   UNL A   1      47.496  24.899  36.693  1.00  0.00    -0.744 OA
ENDBRANCH  71  72
ENDBRANCH  50  64
BRANCH  51  76
ATOM     76  C   UNL A   1      36.378  33.043  30.960  1.00  0.00     0.058 A 
ATOM     77  C   UNL A   1      36.699  33.867  29.870  1.00  0.00     0.135 A 
ATOM     78  C   UNL A   1      35.037  32.993  31.368  1.00  0.00     0.135 A 
ATOM     79  F   UNL A   1      37.971  33.952  29.451  1.00  0.00    -0.206 F 
ATOM     80  C   UNL A   1      35.736  34.637  29.225  1.00  0.00     0.059 A 
ATOM     81  C   UNL A   1      34.052  33.737  30.726  1.00  0.00     0.059 A 
ATOM     82  F   UNL A   1      34.676  32.210  32.396  1.00  0.00    -0.206 F 
ATOM     83  C   UNL A   1      34.414  34.572  29.667  1.00  0.00     0.060 A 
BRANCH  83  84
ATOM     84  S   UNL A   1      33.158  35.573  28.840  1.00  0.00     0.124 S 
ATOM     85  O   UNL A   1      33.984  36.524  28.105  1.00  0.00    -0.237 OA
ATOM     86  O   UNL A   1      32.446  34.590  28.033  1.00  0.00    -0.237 OA
ATOM     87  O   UNL A   1      32.395  36.130  29.954  1.00  0.00    -0.744 OA
ENDBRANCH  83  84
ENDBRANCH  51  76
BRANCH  63  88
ATOM     88  C   UNL A   1      39.609  33.910  37.076  1.00  0.00     0.058 A 
ATOM     89  C   UNL A   1      38.833  33.539  38.186  1.00  0.00     0.135 A 
ATOM     90  C   UNL A   1      40.239  35.165  37.104  1.00  0.00     0.135 A 
ATOM     91  F   UNL A   1      38.211  32.350  38.208  1.00  0.00    -0.206 F 
ATOM     92  C   UNL A   1      38.678  34.386  39.278  1.00  0.00     0.059 A 
ATOM     93  C   UNL A   1      40.116  36.018  38.197  1.00  0.00     0.059 A 
ATOM     94  F   UNL A   1      41.003  35.561  36.074  1.00  0.00    -0.206 F 
ATOM     95  C   UNL A   1      39.326  35.623  39.277  1.00  0.00     0.060 A 
BRANCH  95  96
ATOM     96  S   UNL A   1      39.160  36.689  40.724  1.00  0.00     0.124 S 
ATOM     97  O   UNL A   1      38.291  35.890  41.581  1.00  0.00    -0.237 OA
ATOM     98  O   UNL A   1      40.543  36.825  41.175  1.00  0.00    -0.237 OA
ATOM     99  O   UNL A   1      38.563  37.906  40.182  1.00  0.00    -0.744 OA
ENDBRANCH  95  96
ENDBRANCH  63  88
ENDBRANCH  37  38
ENDBRANCH  30  32
ENDBRANCH  29  30
ENDBRANCH  28  29
ENDBRANCH  27  28
ENDBRANCH  26  27
ENDBRANCH  25  26
ENDBRANCH   1  25
TORSDOF 23
ENDMDL
MODEL 2
REMARK VINA RESULT:     -10.0      1.190      2.066
REMARK SMILES CCN1CCN([C@H](C)c2ccc(C(=O)OCCOCCOCCOC(=O)c3ccc(-c4c5nc(c(-c6c(F)cc(S(=O)(=O)[O-])cc6F)c6ccc([nH]6)c(-c6c(F)cc(S(=O)(=O)[O-])cc6F)c6nc(c(-c7c(F)cc(S(=O)(=O)[O-])cc7F)c7ccc4[nH]7)C=C6)C=C5)cc3)o2)C(=O)C1=O
REMARK SMILES IDX 19 1 18 2 17 3 16 4 15 5 13 6 14 7 12 8 9 9 10 10 93 11
REMARK SMILES IDX 11 12 7 13 8 14 6 15 3 16 4 17 96 18 5 19 94 20 97 21 95 22
REMARK SMILES IDX 2 23 1 24 20 25 21 26 22 27 23 28 24 29 25 30 26 31 27 32
REMARK SMILES IDX 28 33 92 34 29 35 91 36 30 37 31 38 32 39 85 40 33 41 90 42
REMARK SMILES IDX 84 43 86 44 34 45 89 46 83 47 82 48 35 50 69 51 48 52 68 53
REMARK SMILES IDX 49 54 52 55 67 56 87 57 50 58 51 59 66 61 88 62 53 63 36 64
REMARK SMILES IDX 37 65 46 66 38 67 39 68 45 69 47 70 40 71 41 72 42 73 43 74
REMARK SMILES IDX 44 75 70 76 71 77 80 78 72 79 73 80 79 81 81 82 74 83 75 84
REMARK SMILES IDX 76 85 77 86 78 87 54 88 55 89 64 90 56 91 57 92 63 93 65 94
REMARK SMILES IDX 58 95 59 96 60 97 61 98 62 99
REMARK H PARENT 86 49 52 60
REMARK Flexibility Score: inf
ROOT
ATOM      1  C   UNL A   1      37.067  23.114  24.690  1.00  0.00     0.188 C 
ENDROOT
BRANCH   1   2
ATOM      2  O   UNL A   1      35.728  23.031  24.236  1.00  0.00    -0.376 OA
BRANCH   2   3
ATOM      3  C   UNL A   1      34.728  23.804  24.892  1.00  0.00     0.202 C 
BRANCH   3   4
ATOM      4  C   UNL A   1      33.899  23.127  25.982  1.00  0.00     0.261 C 
BRANCH   4   5
ATOM      5  O   UNL A   1      32.503  23.138  25.635  1.00  0.00    -0.457 OA
BRANCH   5   6
ATOM      6  C   UNL A   1      31.690  23.871  26.453  1.00  0.00     0.374 C 
ATOM      7  O   UNL A   1      31.208  23.457  27.499  1.00  0.00    -0.242 OA
BRANCH   6   8
ATOM      8  C   UNL A   1      31.593  25.218  25.943  1.00  0.00     0.211 A 
ATOM      9  C   UNL A   1      31.329  26.731  24.355  1.00  0.00     0.127 A 
ATOM     10  C   UNL A   1      31.305  27.413  25.556  1.00  0.00     0.049 A 
ATOM     11  O   UNL A   1      31.520  25.400  24.586  1.00  0.00    -0.452 OA
ATOM     12  C   UNL A   1      31.480  26.446  26.573  1.00  0.00     0.058 A 
BRANCH   9  13
ATOM     13  C   UNL A   1      31.209  27.212  22.937  1.00  0.00     0.149 C 
ATOM     14  C   UNL A   1      31.028  26.018  21.996  1.00  0.00     0.040 C 
BRANCH  13  15
ATOM     15  N   UNL A   1      30.257  28.323  22.796  1.00  0.00    -0.323 N 
ATOM     16  N   UNL A   1      28.507  30.447  21.968  1.00  0.00    -0.333 N 
ATOM     17  C   UNL A   1      29.870  30.357  21.476  1.00  0.00     0.141 C 
ATOM     18  C   UNL A   1      28.004  29.465  22.831  1.00  0.00     0.312 C 
ATOM     19  C   UNL A   1      30.774  29.649  22.480  1.00  0.00     0.142 C 
ATOM     20  C   UNL A   1      28.888  28.202  23.065  1.00  0.00     0.312 C 
ATOM     21  O   UNL A   1      26.913  29.542  23.384  1.00  0.00    -0.263 OA
ATOM     22  O   UNL A   1      28.341  27.162  23.412  1.00  0.00    -0.263 OA
BRANCH  16  23
ATOM     23  C   UNL A   1      27.664  31.600  21.645  1.00  0.00     0.116 C 
ATOM     24  C   UNL A   1      27.857  32.191  20.255  1.00  0.00     0.027 C 
ENDBRANCH  16  23
ENDBRANCH  13  15
ENDBRANCH   9  13
ENDBRANCH   6   8
ENDBRANCH   5   6
ENDBRANCH   4   5
ENDBRANCH   3   4
ENDBRANCH   2   3
ENDBRANCH   1   2
BRANCH   1  25
ATOM     25  C   UNL A   1      37.394  23.910  25.969  1.00  0.00     0.188 C 
BRANCH  25  26
ATOM     26  O   UNL A   1      38.583  23.688  26.703  1.00  0.00    -0.376 OA
BRANCH  26  27
ATOM     27  C   UNL A   1      39.393  22.554  26.435  1.00  0.00     0.202 C 
BRANCH  27  28
ATOM     28  C   UNL A   1      40.873  22.699  26.068  1.00  0.00     0.261 C 
BRANCH  28  29
ATOM     29  O   UNL A   1      41.636  23.521  26.956  1.00  0.00    -0.460 OA
BRANCH  29  30
ATOM     30  C   UNL A   1      41.917  24.758  26.477  1.00  0.00     0.338 C 
ATOM     31  O   UNL A   1      42.355  25.044  25.376  1.00  0.00    -0.246 OA
BRANCH  30  32
ATOM     32  C   UNL A   1      41.454  25.768  27.438  1.00  0.00     0.060 A 
ATOM     33  C   UNL A   1      42.120  26.999  27.468  1.00  0.00     0.016 A 
ATOM     34  C   UNL A   1      40.433  25.483  28.347  1.00  0.00     0.016 A 
ATOM     35  C   UNL A   1      41.776  27.944  28.429  1.00  0.00     0.010 A 
ATOM     36  C   UNL A   1      40.102  26.427  29.323  1.00  0.00     0.010 A 
ATOM     37  C   UNL A   1      40.789  27.651  29.380  1.00  0.00    -0.014 A 
BRANCH  37  38
ATOM     38  C   UNL A   1      40.595  28.574  30.520  1.00  0.00     0.031 A 
ATOM     39  C   UNL A   1      41.592  28.549  31.644  1.00  0.00     0.074 A 
ATOM     40  C   UNL A   1      39.581  29.457  30.522  1.00  0.00     0.049 A 
ATOM     41  N   UNL A   1      41.671  29.319  32.697  1.00  0.00    -0.248 NA
ATOM     42  C   UNL A   1      42.645  27.523  31.564  1.00  0.00     0.031 C 
ATOM     43  C   UNL A   1      38.587  29.603  29.460  1.00  0.00     0.029 A 
ATOM     44  N   UNL A   1      39.246  30.427  31.433  1.00  0.00    -0.354 N 
ATOM     45  C   UNL A   1      42.760  28.851  33.423  1.00  0.00     0.074 A 
ATOM     46  C   UNL A   1      43.324  27.746  32.679  1.00  0.00     0.031 C 
ATOM     47  C   UNL A   1      37.782  30.638  29.757  1.00  0.00     0.029 A 
ATOM     48  C   UNL A   1      38.196  31.220  31.033  1.00  0.00     0.049 A 
ATOM     49  H   UNL A   1      39.712  30.544  32.293  1.00  0.00     0.167 HD
ATOM     50  C   UNL A   1      43.231  29.289  34.614  1.00  0.00     0.037 A 
ATOM     51  C   UNL A   1      37.667  32.315  31.612  1.00  0.00     0.037 A 
ATOM     52  C   UNL A   1      42.657  30.376  35.359  1.00  0.00     0.049 A 
ATOM     53  C   UNL A   1      38.221  32.792  32.932  1.00  0.00     0.074 A 
ATOM     54  C   UNL A   1      43.037  30.868  36.596  1.00  0.00     0.029 A 
ATOM     55  N   UNL A   1      41.576  31.137  34.940  1.00  0.00    -0.354 N 
ATOM     56  N   UNL A   1      39.255  32.344  33.605  1.00  0.00    -0.248 NA
ATOM     57  C   UNL A   1      37.527  33.917  33.576  1.00  0.00     0.031 C 
ATOM     58  C   UNL A   1      42.159  31.902  36.941  1.00  0.00     0.029 A 
ATOM     59  C   UNL A   1      41.262  32.083  35.901  1.00  0.00     0.049 A 
ATOM     60  H   UNL A   1      41.101  31.022  34.085  1.00  0.00     0.167 HD
ATOM     61  C   UNL A   1      39.334  33.134  34.749  1.00  0.00     0.074 A 
ATOM     62  C   UNL A   1      38.268  34.110  34.658  1.00  0.00     0.031 C 
ATOM     63  C   UNL A   1      40.198  33.049  35.791  1.00  0.00     0.037 A 
BRANCH  50  64
ATOM     64  C   UNL A   1      44.385  28.541  35.214  1.00  0.00     0.058 A 
ATOM     65  C   UNL A   1      45.681  29.077  35.250  1.00  0.00     0.135 A 
ATOM     66  C   UNL A   1      44.182  27.268  35.771  1.00  0.00     0.135 A 
ATOM     67  F   UNL A   1      45.930  30.279  34.706  1.00  0.00    -0.206 F 
ATOM     68  C   UNL A   1      46.742  28.367  35.801  1.00  0.00     0.059 A 
ATOM     69  C   UNL A   1      45.225  26.549  36.347  1.00  0.00     0.059 A 
ATOM     70  F   UNL A   1      42.962  26.709  35.753  1.00  0.00    -0.206 F 
ATOM     71  C   UNL A   1      46.505  27.102  36.344  1.00  0.00     0.060 A 
BRANCH  71  72
ATOM     72  S   UNL A   1      47.892  26.187  37.048  1.00  0.00     0.124 S 
ATOM     73  O   UNL A   1      47.253  25.517  38.177  1.00  0.00    -0.237 OA
ATOM     74  O   UNL A   1      48.292  25.323  35.943  1.00  0.00    -0.237 OA
ATOM     75  O   UNL A   1      48.846  27.234  37.398  1.00  0.00    -0.744 OA
ENDBRANCH  71  72
ENDBRANCH  50  64
BRANCH  51  76
ATOM     76  C   UNL A   1      36.595  33.088  30.930  1.00  0.00     0.058 A 
ATOM     77  C   UNL A   1      35.269  33.011  31.384  1.00  0.00     0.135 A 
ATOM     78  C   UNL A   1      36.856  33.894  29.813  1.00  0.00     0.135 A 
ATOM     79  F   UNL A   1      34.972  32.246  32.446  1.00  0.00    -0.206 F 
ATOM     80  C   UNL A   1      34.234  33.681  30.740  1.00  0.00     0.059 A 
ATOM     81  C   UNL A   1      35.841  34.591  29.164  1.00  0.00     0.059 A 
ATOM     82  F   UNL A   1      38.109  34.012  29.347  1.00  0.00    -0.206 F 
ATOM     83  C   UNL A   1      34.530  34.463  29.623  1.00  0.00     0.060 A 
BRANCH  83  84
ATOM     84  S   UNL A   1      33.191  35.332  28.776  1.00  0.00     0.124 S 
ATOM     85  O   UNL A   1      33.925  36.373  28.067  1.00  0.00    -0.237 OA
ATOM     86  O   UNL A   1      32.606  34.286  27.946  1.00  0.00    -0.237 OA
ATOM     87  O   UNL A   1      32.349  35.792  29.877  1.00  0.00    -0.744 OA
ENDBRANCH  83  84
ENDBRANCH  51  76
BRANCH  63  88
ATOM     88  C   UNL A   1      40.029  34.025  36.923  1.00  0.00     0.058 A 
ATOM     89  C   UNL A   1      40.677  35.271  36.914  1.00  0.00     0.135 A 
ATOM     90  C   UNL A   1      39.153  33.749  37.985  1.00  0.00     0.135 A 
ATOM     91  F   UNL A   1      41.524  35.584  35.920  1.00  0.00    -0.206 F 
ATOM     92  C   UNL A   1      40.473  36.203  37.926  1.00  0.00     0.059 A 
ATOM     93  C   UNL A   1      38.917  34.676  38.996  1.00  0.00     0.059 A 
ATOM     94  F   UNL A   1      38.498  32.578  38.034  1.00  0.00    -0.206 F 
ATOM     95  C   UNL A   1      39.588  35.898  38.962  1.00  0.00     0.060 A 
BRANCH  95  96
ATOM     96  S   UNL A   1      39.291  37.138  40.240  1.00  0.00     0.124 S 
ATOM     97  O   UNL A   1      38.568  38.162  39.494  1.00  0.00    -0.237 OA
ATOM     98  O   UNL A   1      38.506  36.396  41.222  1.00  0.00    -0.237 OA
ATOM     99  O   UNL A   1      40.635  37.507  40.673  1.00  0.00    -0.744 OA
ENDBRANCH  95  96
ENDBRANCH  63  88
ENDBRANCH  37  38
ENDBRANCH  30  32
ENDBRANCH  29  30
ENDBRANCH  28  29
ENDBRANCH  27  28
ENDBRANCH  26  27
ENDBRANCH  25  26
ENDBRANCH   1  25
TORSDOF 23
ENDMDL
MODEL 3
REMARK VINA RESULT:      -9.8      6.074     11.975
REMARK SMILES CCN1CCN([C@H](C)c2ccc(C(=O)OCCOCCOCCOC(=O)c3ccc(-c4c5nc(c(-c6c(F)cc(S(=O)(=O)[O-])cc6F)c6ccc([nH]6)c(-c6c(F)cc(S(=O)(=O)[O-])cc6F)c6nc(c(-c7c(F)cc(S(=O)(=O)[O-])cc7F)c7ccc4[nH]7)C=C6)C=C5)cc3)o2)C(=O)C1=O
REMARK SMILES IDX 19 1 18 2 17 3 16 4 15 5 13 6 14 7 12 8 9 9 10 10 93 11
REMARK SMILES IDX 11 12 7 13 8 14 6 15 3 16 4 17 96 18 5 19 94 20 97 21 95 22
REMARK SMILES IDX 2 23 1 24 20 25 21 26 22 27 23 28 24 29 25 30 26 31 27 32
REMARK SMILES IDX 28 33 92 34 29 35 91 36 30 37 31 38 32 39 85 40 33 41 90 42
REMARK SMILES IDX 84 43 86 44 34 45 89 46 83 47 82 48 35 50 69 51 48 52 68 53
REMARK SMILES IDX 49 54 52 55 67 56 87 57 50 58 51 59 66 61 88 62 53 63 36 64
REMARK SMILES IDX 37 65 46 66 38 67 39 68 45 69 47 70 40 71 41 72 42 73 43 74
REMARK SMILES IDX 44 75 70 76 71 77 80 78 72 79 73 80 79 81 81 82 74 83 75 84
REMARK SMILES IDX 76 85 77 86 78 87 54 88 55 89 64 90 56 91 57 92 63 93 65 94
REMARK SMILES IDX 58 95 59 96 60 97 61 98 62 99
REMARK H PARENT 86 49 52 60
REMARK Flexibility Score: inf
ROOT
ATOM      1  C   UNL A   1      32.661  30.493  26.674  1.00  0.00     0.188 C 
ENDROOT
BRANCH   1   2
ATOM      2  O   UNL A   1      32.765  29.152  26.228  1.00  0.00    -0.376 OA
BRANCH   2   3
ATOM      3  C   UNL A   1      33.599  28.859  25.112  1.00  0.00     0.202 C 
BRANCH   3   4
ATOM      4  C   UNL A   1      32.929  28.605  23.763  1.00  0.00     0.261 C 
BRANCH   4   5
ATOM      5  O   UNL A   1      31.557  28.217  23.946  1.00  0.00    -0.457 OA
BRANCH   5   6
ATOM      6  C   UNL A   1      31.032  27.405  22.981  1.00  0.00     0.374 C 
ATOM      7  O   UNL A   1      30.379  27.802  22.024  1.00  0.00    -0.242 OA
BRANCH   6   8
ATOM      8  C   UNL A   1      31.464  26.048  23.215  1.00  0.00     0.211 A 
ATOM      9  C   UNL A   1      31.992  24.318  24.483  1.00  0.00     0.127 A 
ATOM     10  C   UNL A   1      31.967  23.858  23.181  1.00  0.00     0.049 A 
ATOM     11  O   UNL A   1      31.704  25.651  24.505  1.00  0.00    -0.452 OA
ATOM     12  C   UNL A   1      31.634  24.966  22.368  1.00  0.00     0.058 A 
BRANCH   9  13
ATOM     13  C   UNL A   1      32.294  23.619  25.778  1.00  0.00     0.149 C 
ATOM     14  C   UNL A   1      31.062  23.651  26.686  1.00  0.00     0.040 C 
BRANCH  13  15
ATOM     15  N   UNL A   1      32.942  22.314  25.578  1.00  0.00    -0.323 N 
ATOM     16  N   UNL A   1      33.921  19.759  24.701  1.00  0.00    -0.333 N 
ATOM     17  C   UNL A   1      32.506  20.081  24.654  1.00  0.00     0.141 C 
ATOM     18  C   UNL A   1      34.847  20.714  25.140  1.00  0.00     0.312 C 
ATOM     19  C   UNL A   1      32.138  21.107  25.722  1.00  0.00     0.142 C 
ATOM     20  C   UNL A   1      34.319  22.163  25.373  1.00  0.00     0.312 C 
ATOM     21  O   UNL A   1      36.034  20.473  25.326  1.00  0.00    -0.263 OA
ATOM     22  O   UNL A   1      35.115  23.092  25.308  1.00  0.00    -0.263 OA
BRANCH  16  23
ATOM     23  C   UNL A   1      34.398  18.413  24.376  1.00  0.00     0.116 C 
ATOM     24  C   UNL A   1      33.320  17.348  24.229  1.00  0.00     0.027 C 
ENDBRANCH  16  23
ENDBRANCH  13  15
ENDBRANCH   9  13
ENDBRANCH   6   8
ENDBRANCH   5   6
ENDBRANCH   4   5
ENDBRANCH   3   4
ENDBRANCH   2   3
ENDBRANCH   1   2
BRANCH   1  25
ATOM     25  C   UNL A   1      33.783  31.100  27.541  1.00  0.00     0.188 C 
BRANCH  25  26
ATOM     26  O   UNL A   1      33.721  32.432  28.014  1.00  0.00    -0.376 OA
BRANCH  26  27
ATOM     27  C   UNL A   1      34.909  33.124  28.372  1.00  0.00     0.202 C 
BRANCH  27  28
ATOM     28  C   UNL A   1      35.531  32.971  29.763  1.00  0.00     0.261 C 
BRANCH  28  29
ATOM     29  O   UNL A   1      35.776  31.622  30.170  1.00  0.00    -0.460 OA
BRANCH  29  30
ATOM     30  C   UNL A   1      36.745  31.484  31.107  1.00  0.00     0.338 C 
ATOM     31  O   UNL A   1      36.671  31.746  32.295  1.00  0.00    -0.246 OA
BRANCH  30  32
ATOM     32  C   UNL A   1      37.901  30.795  30.514  1.00  0.00     0.060 A 
ATOM     33  C   UNL A   1      38.863  30.264  31.380  1.00  0.00     0.016 A 
ATOM     34  C   UNL A   1      38.074  30.741  29.130  1.00  0.00     0.016 A 
ATOM     35  C   UNL A   1      40.018  29.692  30.857  1.00  0.00     0.010 A 
ATOM     36  C   UNL A   1      39.243  30.182  28.608  1.00  0.00     0.010 A 
ATOM     37  C   UNL A   1      40.228  29.677  29.471  1.00  0.00    -0.014 A 
BRANCH  37  38
ATOM     38  C   UNL A   1      41.552  29.268  28.951  1.00  0.00     0.031 A 
ATOM     39  C   UNL A   1      42.697  30.234  29.058  1.00  0.00     0.074 A 
ATOM     40  C   UNL A   1      41.739  28.035  28.447  1.00  0.00     0.049 A 
ATOM     41  N   UNL A   1      43.955  30.064  28.749  1.00  0.00    -0.248 NA
ATOM     42  C   UNL A   1      42.381  31.569  29.593  1.00  0.00     0.031 C 
ATOM     43  C   UNL A   1      40.711  27.001  28.343  1.00  0.00     0.029 A 
ATOM     44  N   UNL A   1      42.874  27.433  27.965  1.00  0.00    -0.354 N 
ATOM     45  C   UNL A   1      44.576  31.278  29.019  1.00  0.00     0.074 A 
ATOM     46  C   UNL A   1      43.561  32.168  29.538  1.00  0.00     0.031 C 
ATOM     47  C   UNL A   1      41.275  25.873  27.876  1.00  0.00     0.029 A 
ATOM     48  C   UNL A   1      42.698  26.109  27.637  1.00  0.00     0.049 A 
ATOM     49  H   UNL A   1      43.733  27.904  27.862  1.00  0.00     0.167 HD
ATOM     50  C   UNL A   1      45.871  31.624  28.829  1.00  0.00     0.037 A 
ATOM     51  C   UNL A   1      43.597  25.188  27.235  1.00  0.00     0.037 A 
ATOM     52  C   UNL A   1      46.873  30.742  28.295  1.00  0.00     0.049 A 
ATOM     53  C   UNL A   1      45.036  25.597  27.046  1.00  0.00     0.074 A 
ATOM     54  C   UNL A   1      48.203  31.013  28.026  1.00  0.00     0.029 A 
ATOM     55  N   UNL A   1      46.654  29.418  27.945  1.00  0.00    -0.354 N 
ATOM     56  N   UNL A   1      45.611  26.747  27.311  1.00  0.00    -0.248 NA
ATOM     57  C   UNL A   1      45.946  24.584  26.491  1.00  0.00     0.031 C 
ATOM     58  C   UNL A   1      48.778  29.863  27.474  1.00  0.00     0.029 A 
ATOM     59  C   UNL A   1      47.819  28.864  27.443  1.00  0.00     0.049 A 
ATOM     60  H   UNL A   1      45.796  28.943  28.038  1.00  0.00     0.167 HD
ATOM     61  C   UNL A   1      46.949  26.593  26.955  1.00  0.00     0.074 A 
ATOM     62  C   UNL A   1      47.105  25.229  26.493  1.00  0.00     0.031 C 
ATOM     63  C   UNL A   1      47.955  27.502  26.990  1.00  0.00     0.037 A 
BRANCH  50  64
ATOM     64  C   UNL A   1      46.255  33.042  29.135  1.00  0.00     0.058 A 
ATOM     65  C   UNL A   1      46.762  33.421  30.387  1.00  0.00     0.135 A 
ATOM     66  C   UNL A   1      46.120  34.034  28.150  1.00  0.00     0.135 A 
ATOM     67  F   UNL A   1      46.883  32.514  31.369  1.00  0.00    -0.206 F 
ATOM     68  C   UNL A   1      47.105  34.741  30.659  1.00  0.00     0.059 A 
ATOM     69  C   UNL A   1      46.477  35.356  28.394  1.00  0.00     0.059 A 
ATOM     70  F   UNL A   1      45.631  33.723  26.940  1.00  0.00    -0.206 F 
ATOM     71  C   UNL A   1      46.955  35.703  29.656  1.00  0.00     0.060 A 
BRANCH  71  72
ATOM     72  S   UNL A   1      47.396  37.414  30.025  1.00  0.00     0.124 S 
ATOM     73  O   UNL A   1      46.152  38.107  29.704  1.00  0.00    -0.237 OA
ATOM     74  O   UNL A   1      47.738  37.351  31.442  1.00  0.00    -0.237 OA
ATOM     75  O   UNL A   1      48.512  37.678  29.124  1.00  0.00    -0.744 OA
ENDBRANCH  71  72
ENDBRANCH  50  64
BRANCH  51  76
ATOM     76  C   UNL A   1      43.192  23.770  27.046  1.00  0.00     0.058 A 
ATOM     77  C   UNL A   1      43.047  23.243  25.753  1.00  0.00     0.135 A 
ATOM     78  C   UNL A   1      42.924  22.923  28.130  1.00  0.00     0.135 A 
ATOM     79  F   UNL A   1      43.286  24.020  24.685  1.00  0.00    -0.206 F 
ATOM     80  C   UNL A   1      42.623  21.935  25.539  1.00  0.00     0.059 A 
ATOM     81  C   UNL A   1      42.518  21.605  27.942  1.00  0.00     0.059 A 
ATOM     82  F   UNL A   1      43.060  23.375  29.386  1.00  0.00    -0.206 F 
ATOM     83  C   UNL A   1      42.352  21.126  26.642  1.00  0.00     0.060 A 
BRANCH  83  84
ATOM     84  S   UNL A   1      41.794  19.428  26.373  1.00  0.00     0.124 S 
ATOM     85  O   UNL A   1      42.156  19.223  24.975  1.00  0.00    -0.237 OA
ATOM     86  O   UNL A   1      42.573  18.677  27.350  1.00  0.00    -0.237 OA
ATOM     87  O   UNL A   1      40.362  19.505  26.649  1.00  0.00    -0.744 OA
ENDBRANCH  83  84
ENDBRANCH  51  76
BRANCH  63  88
ATOM     88  C   UNL A   1      49.312  27.064  26.509  1.00  0.00     0.058 A 
ATOM     89  C   UNL A   1      50.258  26.521  27.394  1.00  0.00     0.135 A 
ATOM     90  C   UNL A   1      49.641  27.113  25.145  1.00  0.00     0.135 A 
ATOM     91  F   UNL A   1      49.991  26.451  28.708  1.00  0.00    -0.206 F 
ATOM     92  C   UNL A   1      51.489  26.055  26.944  1.00  0.00     0.059 A 
ATOM     93  C   UNL A   1      50.858  26.631  24.671  1.00  0.00     0.059 A 
ATOM     94  F   UNL A   1      48.767  27.610  24.256  1.00  0.00    -0.206 F 
ATOM     95  C   UNL A   1      51.779  26.111  25.580  1.00  0.00     0.060 A 
BRANCH  95  96
ATOM     96  S   UNL A   1      53.358  25.453  25.003  1.00  0.00     0.124 S 
ATOM     97  O   UNL A   1      53.295  24.076  25.480  1.00  0.00    -0.237 OA
ATOM     98  O   UNL A   1      53.262  25.628  23.556  1.00  0.00    -0.237 OA
ATOM     99  O   UNL A   1      54.342  26.304  25.665  1.00  0.00    -0.744 OA
ENDBRANCH  95  96
ENDBRANCH  63  88
ENDBRANCH  37  38
ENDBRANCH  30  32
ENDBRANCH  29  30
ENDBRANCH  28  29
ENDBRANCH  27  28
ENDBRANCH  26  27
ENDBRANCH  25  26
ENDBRANCH   1  25
TORSDOF 23
ENDMDL
