MODEL 1
REMARK VINA RESULT:      -8.3      0.000      0.000
REMARK SMILES N#CCC[NH2+]C1(C(=O)OCCOCCOCCOC(=O)c2ccc(-c3c4nc(c(-c5c(F)cc(S(=O)(=O)[O-])cc5F)c5ccc([nH]5)c(-c5c(F)cc(S(=O)(=O)[O-])cc5F)c5nc(c(-c6c(F)cc(S(=O)(=O)[O-])cc6F)c6ccc3[nH]6)C=C5)C=C4)cc2)CC1
REMARK SMILES IDX 13 1 12 2 11 3 10 4 9 5 7 6 8 7 6 8 87 9 88 10 5 11 4 14
REMARK SMILES IDX 3 15 2 16 1 17 14 18 15 19 16 20 17 21 18 22 19 23 20 24
REMARK SMILES IDX 21 25 22 26 86 27 23 28 85 29 24 30 25 31 26 32 79 33 27 34
REMARK SMILES IDX 84 35 78 36 80 37 28 38 83 39 77 40 76 41 29 43 63 44 42 45
REMARK SMILES IDX 62 46 43 47 46 48 61 49 81 50 44 51 45 52 60 54 82 55 47 56
REMARK SMILES IDX 30 57 31 58 40 59 32 60 33 61 39 62 41 63 34 64 35 65 36 66
REMARK SMILES IDX 37 67 38 68 64 69 65 70 74 71 66 72 67 73 73 74 75 75 68 76
REMARK SMILES IDX 69 77 70 78 71 79 72 80 48 81 49 82 58 83 50 84 51 85 57 86
REMARK SMILES IDX 59 87 52 88 53 89 54 90 55 91 56 92
REMARK H PARENT 5 12 5 13 80 42 46 53
REMARK Flexibility Score: inf
ROOT
ATOM      1  C   UNL A   1      32.056  28.914  23.525  1.00  0.00     0.188 C 
ENDROOT
BRANCH   1   2
ATOM      2  O   UNL A   1      31.525  27.805  22.823  1.00  0.00    -0.376 OA
BRANCH   2   3
ATOM      3  C   UNL A   1      32.444  26.827  22.357  1.00  0.00     0.202 C 
BRANCH   3   4
ATOM      4  C   UNL A   1      32.900  25.689  23.293  1.00  0.00     0.261 C 
BRANCH   4   5
ATOM      5  O   UNL A   1      32.514  24.384  22.852  1.00  0.00    -0.459 OA
BRANCH   5   6
ATOM      6  C   UNL A   1      31.477  23.774  23.480  1.00  0.00     0.368 C 
ATOM      7  O   UNL A   1      30.288  23.936  23.235  1.00  0.00    -0.245 OA
BRANCH   6   8
ATOM      8  C   UNL A   1      31.970  22.778  24.518  1.00  0.00     0.194 C 
ATOM      9  C   UNL A   1      31.061  22.494  25.695  1.00  0.00     0.088 C 
ATOM     10  C   UNL A   1      32.311  23.291  25.909  1.00  0.00     0.088 C 
BRANCH   8  11
ATOM     11  N   UNL A   1      32.848  21.743  23.899  1.00  0.00    -0.331 N 
ATOM     12  H   UNL A   1      32.901  21.955  22.903  1.00  0.00     0.347 HD
ATOM     13  H   UNL A   1      33.715  21.813  24.432  1.00  0.00     0.347 HD
BRANCH  11  14
ATOM     14  C   UNL A   1      32.489  20.335  24.014  1.00  0.00     0.276 C 
BRANCH  14  15
ATOM     15  C   UNL A   1      33.658  19.521  24.571  1.00  0.00     0.181 C 
BRANCH  15  16
ATOM     16  C   UNL A   1      34.874  20.355  24.938  1.00  0.00     0.068 C 
ATOM     17  N   UNL A   1      35.883  21.048  25.242  1.00  0.00    -0.198 NA
ENDBRANCH  15  16
ENDBRANCH  14  15
ENDBRANCH  11  14
ENDBRANCH   8  11
ENDBRANCH   6   8
ENDBRANCH   5   6
ENDBRANCH   4   5
ENDBRANCH   3   4
ENDBRANCH   2   3
ENDBRANCH   1   2
BRANCH   1  18
ATOM     18  C   UNL A   1      31.043  29.561  24.500  1.00  0.00     0.188 C 
BRANCH  18  19
ATOM     19  O   UNL A   1      31.471  30.081  25.753  1.00  0.00    -0.376 OA
BRANCH  19  20
ATOM     20  C   UNL A   1      31.698  29.186  26.834  1.00  0.00     0.202 C 
BRANCH  20  21
ATOM     21  C   UNL A   1      33.133  28.779  27.222  1.00  0.00     0.261 C 
BRANCH  21  22
ATOM     22  O   UNL A   1      34.181  29.661  26.790  1.00  0.00    -0.460 OA
BRANCH  22  23
ATOM     23  C   UNL A   1      34.661  30.497  27.746  1.00  0.00     0.338 C 
ATOM     24  O   UNL A   1      34.038  31.373  28.324  1.00  0.00    -0.246 OA
BRANCH  23  25
ATOM     25  C   UNL A   1      36.018  30.067  28.161  1.00  0.00     0.060 A 
ATOM     26  C   UNL A   1      37.012  30.076  27.182  1.00  0.00     0.016 A 
ATOM     27  C   UNL A   1      36.333  29.674  29.467  1.00  0.00     0.016 A 
ATOM     28  C   UNL A   1      38.314  29.702  27.514  1.00  0.00     0.010 A 
ATOM     29  C   UNL A   1      37.649  29.292  29.790  1.00  0.00     0.010 A 
ATOM     30  C   UNL A   1      38.662  29.312  28.820  1.00  0.00    -0.014 A 
BRANCH  30  31
ATOM     31  C   UNL A   1      40.053  28.834  29.116  1.00  0.00     0.031 A 
ATOM     32  C   UNL A   1      40.983  29.752  29.870  1.00  0.00     0.074 A 
ATOM     33  C   UNL A   1      40.497  27.601  28.779  1.00  0.00     0.049 A 
ATOM     34  N   UNL A   1      42.237  29.575  30.201  1.00  0.00    -0.248 NA
ATOM     35  C   UNL A   1      40.421  31.035  30.324  1.00  0.00     0.031 C 
ATOM     36  C   UNL A   1      39.693  26.541  28.171  1.00  0.00     0.029 A 
ATOM     37  N   UNL A   1      41.742  27.019  28.921  1.00  0.00    -0.354 N 
ATOM     38  C   UNL A   1      42.604  30.715  30.906  1.00  0.00     0.074 A 
ATOM     39  C   UNL A   1      41.439  31.565  30.981  1.00  0.00     0.031 C 
ATOM     40  C   UNL A   1      40.456  25.445  28.000  1.00  0.00     0.029 A 
ATOM     41  C   UNL A   1      41.827  25.737  28.420  1.00  0.00     0.049 A 
ATOM     42  H   UNL A   1      42.503  27.480  29.343  1.00  0.00     0.167 HD
ATOM     43  C   UNL A   1      43.812  31.057  31.410  1.00  0.00     0.037 A 
ATOM     44  C   UNL A   1      42.888  24.909  28.280  1.00  0.00     0.037 A 
ATOM     45  C   UNL A   1      45.007  30.278  31.257  1.00  0.00     0.049 A 
ATOM     46  C   UNL A   1      44.263  25.385  28.700  1.00  0.00     0.074 A 
ATOM     47  C   UNL A   1      46.296  30.605  31.638  1.00  0.00     0.029 A 
ATOM     48  N   UNL A   1      45.067  29.035  30.650  1.00  0.00    -0.354 N 
ATOM     49  N   UNL A   1      44.601  26.487  29.326  1.00  0.00    -0.248 NA
ATOM     50  C   UNL A   1      45.408  24.520  28.366  1.00  0.00     0.031 C 
ATOM     51  C   UNL A   1      47.147  29.584  31.207  1.00  0.00     0.029 A 
ATOM     52  C   UNL A   1      46.378  28.592  30.621  1.00  0.00     0.049 A 
ATOM     53  H   UNL A   1      44.294  28.541  30.294  1.00  0.00     0.167 HD
ATOM     54  C   UNL A   1      45.985  26.430  29.484  1.00  0.00     0.074 A 
ATOM     55  C   UNL A   1      46.426  25.187  28.895  1.00  0.00     0.031 C 
ATOM     56  C   UNL A   1      46.811  27.334  30.066  1.00  0.00     0.037 A 
BRANCH  43  57
ATOM     57  C   UNL A   1      43.906  32.398  32.073  1.00  0.00     0.058 A 
ATOM     58  C   UNL A   1      44.198  33.563  31.349  1.00  0.00     0.135 A 
ATOM     59  C   UNL A   1      43.736  32.508  33.463  1.00  0.00     0.135 A 
ATOM     60  F   UNL A   1      44.404  33.503  30.023  1.00  0.00    -0.206 F 
ATOM     61  C   UNL A   1      44.344  34.790  31.986  1.00  0.00     0.059 A 
ATOM     62  C   UNL A   1      43.853  33.728  34.116  1.00  0.00     0.059 A 
ATOM     63  F   UNL A   1      43.471  31.417  34.199  1.00  0.00    -0.206 F 
ATOM     64  C   UNL A   1      44.175  34.861  33.370  1.00  0.00     0.060 A 
BRANCH  64  65
ATOM     65  S   UNL A   1      44.391  36.455  34.186  1.00  0.00     0.124 S 
ATOM     66  O   UNL A   1      43.400  37.273  33.493  1.00  0.00    -0.237 OA
ATOM     67  O   UNL A   1      44.088  36.136  35.578  1.00  0.00    -0.237 OA
ATOM     68  O   UNL A   1      45.784  36.793  33.912  1.00  0.00    -0.744 OA
ENDBRANCH  64  65
ENDBRANCH  43  57
BRANCH  44  69
ATOM     69  C   UNL A   1      42.740  23.561  27.647  1.00  0.00     0.058 A 
ATOM     70  C   UNL A   1      42.408  22.427  28.408  1.00  0.00     0.135 A 
ATOM     71  C   UNL A   1      43.012  23.362  26.283  1.00  0.00     0.135 A 
ATOM     72  F   UNL A   1      42.164  22.549  29.722  1.00  0.00    -0.206 F 
ATOM     73  C   UNL A   1      42.372  21.150  27.848  1.00  0.00     0.059 A 
ATOM     74  C   UNL A   1      42.951  22.101  25.695  1.00  0.00     0.059 A 
ATOM     75  F   UNL A   1      43.346  24.403  25.504  1.00  0.00    -0.206 F 
ATOM     76  C   UNL A   1      42.646  20.997  26.489  1.00  0.00     0.060 A 
BRANCH  76  77
ATOM     77  S   UNL A   1      42.581  19.343  25.764  1.00  0.00     0.124 S 
ATOM     78  O   UNL A   1      43.004  18.513  26.886  1.00  0.00    -0.237 OA
ATOM     79  O   UNL A   1      41.177  19.231  25.382  1.00  0.00    -0.237 OA
ATOM     80  O   UNL A   1      43.522  19.426  24.652  1.00  0.00    -0.744 OA
ENDBRANCH  76  77
ENDBRANCH  44  69
BRANCH  56  81
ATOM     81  C   UNL A   1      48.279  27.017  30.165  1.00  0.00     0.058 A 
ATOM     82  C   UNL A   1      49.186  27.377  29.158  1.00  0.00     0.135 A 
ATOM     83  C   UNL A   1      48.800  26.481  31.355  1.00  0.00     0.135 A 
ATOM     84  F   UNL A   1      48.743  27.890  27.999  1.00  0.00    -0.206 F 
ATOM     85  C   UNL A   1      50.560  27.229  29.333  1.00  0.00     0.059 A 
ATOM     86  C   UNL A   1      50.169  26.346  31.560  1.00  0.00     0.059 A 
ATOM     87  F   UNL A   1      47.975  26.127  32.354  1.00  0.00    -0.206 F 
ATOM     88  C   UNL A   1      51.043  26.727  30.543  1.00  0.00     0.060 A 
BRANCH  88  89
ATOM     89  S   UNL A   1      52.830  26.640  30.796  1.00  0.00     0.124 S 
ATOM     90  O   UNL A   1      53.330  26.812  29.437  1.00  0.00    -0.237 OA
ATOM     91  O   UNL A   1      53.071  27.756  31.706  1.00  0.00    -0.237 OA
ATOM     92  O   UNL A   1      53.028  25.314  31.376  1.00  0.00    -0.744 OA
ENDBRANCH  88  89
ENDBRANCH  56  81
ENDBRANCH  30  31
ENDBRANCH  23  25
ENDBRANCH  22  23
ENDBRANCH  21  22
ENDBRANCH  20  21
ENDBRANCH  19  20
ENDBRANCH  18  19
ENDBRANCH   1  18
TORSDOF 24
ENDMDL
MODEL 2
REMARK VINA RESULT:      -8.2      5.019     10.367
REMARK SMILES N#CCC[NH2+]C1(C(=O)OCCOCCOCCOC(=O)c2ccc(-c3c4nc(c(-c5c(F)cc(S(=O)(=O)[O-])cc5F)c5ccc([nH]5)c(-c5c(F)cc(S(=O)(=O)[O-])cc5F)c5nc(c(-c6c(F)cc(S(=O)(=O)[O-])cc6F)c6ccc3[nH]6)C=C5)C=C4)cc2)CC1
REMARK SMILES IDX 13 1 12 2 11 3 10 4 9 5 7 6 8 7 6 8 87 9 88 10 5 11 4 14
REMARK SMILES IDX 3 15 2 16 1 17 14 18 15 19 16 20 17 21 18 22 19 23 20 24
REMARK SMILES IDX 21 25 22 26 86 27 23 28 85 29 24 30 25 31 26 32 79 33 27 34
REMARK SMILES IDX 84 35 78 36 80 37 28 38 83 39 77 40 76 41 29 43 63 44 42 45
REMARK SMILES IDX 62 46 43 47 46 48 61 49 81 50 44 51 45 52 60 54 82 55 47 56
REMARK SMILES IDX 30 57 31 58 40 59 32 60 33 61 39 62 41 63 34 64 35 65 36 66
REMARK SMILES IDX 37 67 38 68 64 69 65 70 74 71 66 72 67 73 73 74 75 75 68 76
REMARK SMILES IDX 69 77 70 78 71 79 72 80 48 81 49 82 58 83 50 84 51 85 57 86
REMARK SMILES IDX 59 87 52 88 53 89 54 90 55 91 56 92
REMARK H PARENT 5 12 5 13 80 42 46 53
REMARK Flexibility Score: inf
ROOT
ATOM      1  C   UNL A   1      37.712  21.854  25.640  1.00  0.00     0.188 C 
ENDROOT
BRANCH   1   2
ATOM      2  O   UNL A   1      37.403  21.536  24.296  1.00  0.00    -0.376 OA
BRANCH   2   3
ATOM      3  C   UNL A   1      36.572  22.442  23.584  1.00  0.00     0.202 C 
BRANCH   3   4
ATOM      4  C   UNL A   1      35.726  23.479  24.352  1.00  0.00     0.261 C 
BRANCH   4   5
ATOM      5  O   UNL A   1      34.314  23.270  24.247  1.00  0.00    -0.459 OA
BRANCH   5   6
ATOM      6  C   UNL A   1      33.545  23.524  25.335  1.00  0.00     0.368 C 
ATOM      7  O   UNL A   1      33.691  23.046  26.452  1.00  0.00    -0.245 OA
BRANCH   6   8
ATOM      8  C   UNL A   1      32.476  24.562  25.022  1.00  0.00     0.194 C 
ATOM      9  C   UNL A   1      31.642  25.069  26.179  1.00  0.00     0.088 C 
ATOM     10  C   UNL A   1      31.016  24.163  25.165  1.00  0.00     0.088 C 
BRANCH   8  11
ATOM     11  N   UNL A   1      32.877  25.419  23.870  1.00  0.00    -0.331 N 
ATOM     12  H   UNL A   1      33.866  25.638  23.990  1.00  0.00     0.347 HD
ATOM     13  H   UNL A   1      32.625  24.860  23.055  1.00  0.00     0.347 HD
BRANCH  11  14
ATOM     14  C   UNL A   1      32.189  26.685  23.642  1.00  0.00     0.276 C 
BRANCH  14  15
ATOM     15  C   UNL A   1      31.557  26.715  22.250  1.00  0.00     0.181 C 
BRANCH  15  16
ATOM     16  C   UNL A   1      32.346  25.958  21.195  1.00  0.00     0.068 C 
ATOM     17  N   UNL A   1      33.001  25.330  20.319  1.00  0.00    -0.198 NA
ENDBRANCH  15  16
ENDBRANCH  14  15
ENDBRANCH  11  14
ENDBRANCH   8  11
ENDBRANCH   6   8
ENDBRANCH   5   6
ENDBRANCH   4   5
ENDBRANCH   3   4
ENDBRANCH   2   3
ENDBRANCH   1   2
BRANCH   1  18
ATOM     18  C   UNL A   1      39.196  21.604  26.001  1.00  0.00     0.188 C 
BRANCH  18  19
ATOM     19  O   UNL A   1      40.029  22.674  26.432  1.00  0.00    -0.376 OA
BRANCH  19  20
ATOM     20  C   UNL A   1      41.436  22.475  26.493  1.00  0.00     0.202 C 
BRANCH  20  21
ATOM     21  C   UNL A   1      42.351  23.556  27.100  1.00  0.00     0.261 C 
BRANCH  21  22
ATOM     22  O   UNL A   1      42.792  24.590  26.207  1.00  0.00    -0.460 OA
BRANCH  22  23
ATOM     23  C   UNL A   1      41.907  25.602  26.017  1.00  0.00     0.338 C 
ATOM     24  O   UNL A   1      41.158  25.743  25.064  1.00  0.00    -0.246 OA
BRANCH  23  25
ATOM     25  C   UNL A   1      41.813  26.430  27.243  1.00  0.00     0.060 A 
ATOM     26  C   UNL A   1      40.828  26.081  28.168  1.00  0.00     0.016 A 
ATOM     27  C   UNL A   1      42.661  27.511  27.506  1.00  0.00     0.016 A 
ATOM     28  C   UNL A   1      40.702  26.807  29.352  1.00  0.00     0.010 A 
ATOM     29  C   UNL A   1      42.521  28.243  28.701  1.00  0.00     0.010 A 
ATOM     30  C   UNL A   1      41.546  27.894  29.647  1.00  0.00    -0.014 A 
BRANCH  30  31
ATOM     31  C   UNL A   1      41.322  28.702  30.891  1.00  0.00     0.031 A 
ATOM     32  C   UNL A   1      40.206  29.717  30.897  1.00  0.00     0.074 A 
ATOM     33  C   UNL A   1      42.044  28.531  32.023  1.00  0.00     0.049 A 
ATOM     34  N   UNL A   1      39.851  30.557  31.836  1.00  0.00    -0.248 NA
ATOM     35  C   UNL A   1      39.367  29.785  29.689  1.00  0.00     0.031 C 
ATOM     36  C   UNL A   1      43.065  27.506  32.236  1.00  0.00     0.029 A 
ATOM     37  N   UNL A   1      42.013  29.210  33.225  1.00  0.00    -0.354 N 
ATOM     38  C   UNL A   1      38.749  31.239  31.334  1.00  0.00     0.074 A 
ATOM     39  C   UNL A   1      38.474  30.701  30.023  1.00  0.00     0.031 C 
ATOM     40  C   UNL A   1      43.555  27.619  33.486  1.00  0.00     0.029 A 
ATOM     41  C   UNL A   1      42.937  28.767  34.148  1.00  0.00     0.049 A 
ATOM     42  H   UNL A   1      41.386  29.947  33.407  1.00  0.00     0.167 HD
ATOM     43  C   UNL A   1      38.050  32.257  31.886  1.00  0.00     0.037 A 
ATOM     44  C   UNL A   1      43.274  29.250  35.367  1.00  0.00     0.037 A 
ATOM     45  C   UNL A   1      38.368  32.877  33.140  1.00  0.00     0.049 A 
ATOM     46  C   UNL A   1      42.588  30.495  35.889  1.00  0.00     0.074 A 
ATOM     47  C   UNL A   1      37.781  33.988  33.719  1.00  0.00     0.029 A 
ATOM     48  N   UNL A   1      39.379  32.463  33.992  1.00  0.00    -0.354 N 
ATOM     49  N   UNL A   1      41.576  31.156  35.380  1.00  0.00    -0.248 NA
ATOM     50  C   UNL A   1      43.111  31.081  37.135  1.00  0.00     0.031 C 
ATOM     51  C   UNL A   1      38.476  34.282  34.894  1.00  0.00     0.029 A 
ATOM     52  C   UNL A   1      39.450  33.314  35.081  1.00  0.00     0.049 A 
ATOM     53  H   UNL A   1      39.958  31.682  33.845  1.00  0.00     0.167 HD
ATOM     54  C   UNL A   1      41.326  32.211  36.256  1.00  0.00     0.074 A 
ATOM     55  C   UNL A   1      42.286  32.102  37.331  1.00  0.00     0.031 C 
ATOM     56  C   UNL A   1      40.384  33.182  36.170  1.00  0.00     0.037 A 
BRANCH  43  57
ATOM     57  C   UNL A   1      36.938  32.831  31.061  1.00  0.00     0.058 A 
ATOM     58  C   UNL A   1      37.182  33.734  30.015  1.00  0.00     0.135 A 
ATOM     59  C   UNL A   1      35.605  32.495  31.347  1.00  0.00     0.135 A 
ATOM     60  F   UNL A   1      38.437  34.112  29.726  1.00  0.00    -0.206 F 
ATOM     61  C   UNL A   1      36.137  34.307  29.299  1.00  0.00     0.059 A 
ATOM     62  C   UNL A   1      34.547  33.037  30.627  1.00  0.00     0.059 A 
ATOM     63  F   UNL A   1      35.322  31.648  32.349  1.00  0.00    -0.206 F 
ATOM     64  C   UNL A   1      34.824  33.956  29.616  1.00  0.00     0.060 A 
BRANCH  64  65
ATOM     65  S   UNL A   1      33.478  34.724  28.694  1.00  0.00     0.124 S 
ATOM     66  O   UNL A   1      33.115  33.657  27.765  1.00  0.00    -0.237 OA
ATOM     67  O   UNL A   1      32.504  35.009  29.744  1.00  0.00    -0.237 OA
ATOM     68  O   UNL A   1      34.103  35.896  28.089  1.00  0.00    -0.744 OA
ENDBRANCH  64  65
ENDBRANCH  43  57
BRANCH  44  69
ATOM     69  C   UNL A   1      44.365  28.620  36.175  1.00  0.00     0.058 A 
ATOM     70  C   UNL A   1      44.105  27.550  37.048  1.00  0.00     0.135 A 
ATOM     71  C   UNL A   1      45.673  29.130  36.155  1.00  0.00     0.135 A 
ATOM     72  F   UNL A   1      42.868  27.037  37.131  1.00  0.00    -0.206 F 
ATOM     73  C   UNL A   1      45.092  27.026  37.883  1.00  0.00     0.059 A 
ATOM     74  C   UNL A   1      46.683  28.603  36.957  1.00  0.00     0.059 A 
ATOM     75  F   UNL A   1      45.984  30.159  35.351  1.00  0.00    -0.206 F 
ATOM     76  C   UNL A   1      46.379  27.561  37.831  1.00  0.00     0.060 A 
BRANCH  76  77
ATOM     77  S   UNL A   1      47.658  26.867  38.903  1.00  0.00     0.124 S 
ATOM     78  O   UNL A   1      48.561  26.263  37.932  1.00  0.00    -0.237 OA
ATOM     79  O   UNL A   1      48.160  28.055  39.588  1.00  0.00    -0.237 OA
ATOM     80  O   UNL A   1      46.919  25.932  39.745  1.00  0.00    -0.744 OA
ENDBRANCH  76  77
ENDBRANCH  44  69
BRANCH  56  81
ATOM     81  C   UNL A   1      40.277  34.190  37.284  1.00  0.00     0.058 A 
ATOM     82  C   UNL A   1      40.803  35.484  37.167  1.00  0.00     0.135 A 
ATOM     83  C   UNL A   1      39.502  33.897  38.419  1.00  0.00     0.135 A 
ATOM     84  F   UNL A   1      41.554  35.817  36.106  1.00  0.00    -0.206 F 
ATOM     85  C   UNL A   1      40.555  36.458  38.132  1.00  0.00     0.059 A 
ATOM     86  C   UNL A   1      39.221  34.861  39.383  1.00  0.00     0.059 A 
ATOM     87  F   UNL A   1      38.967  32.675  38.575  1.00  0.00    -0.206 F 
ATOM     88  C   UNL A   1      39.750  36.141  39.228  1.00  0.00     0.060 A 
BRANCH  88  89
ATOM     89  S   UNL A   1      39.348  37.442  40.416  1.00  0.00     0.124 S 
ATOM     90  O   UNL A   1      38.570  38.363  39.594  1.00  0.00    -0.237 OA
ATOM     91  O   UNL A   1      38.598  36.713  41.435  1.00  0.00    -0.237 OA
ATOM     92  O   UNL A   1      40.656  37.932  40.841  1.00  0.00    -0.744 OA
ENDBRANCH  88  89
ENDBRANCH  56  81
ENDBRANCH  30  31
ENDBRANCH  23  25
ENDBRANCH  22  23
ENDBRANCH  21  22
ENDBRANCH  20  21
ENDBRANCH  19  20
ENDBRANCH  18  19
ENDBRANCH   1  18
TORSDOF 24
ENDMDL
MODEL 3
REMARK VINA RESULT:      -8.0      1.183      2.102
REMARK SMILES N#CCC[NH2+]C1(C(=O)OCCOCCOCCOC(=O)c2ccc(-c3c4nc(c(-c5c(F)cc(S(=O)(=O)[O-])cc5F)c5ccc([nH]5)c(-c5c(F)cc(S(=O)(=O)[O-])cc5F)c5nc(c(-c6c(F)cc(S(=O)(=O)[O-])cc6F)c6ccc3[nH]6)C=C5)C=C4)cc2)CC1
REMARK SMILES IDX 13 1 12 2 11 3 10 4 9 5 7 6 8 7 6 8 87 9 88 10 5 11 4 14
REMARK SMILES IDX 3 15 2 16 1 17 14 18 15 19 16 20 17 21 18 22 19 23 20 24
REMARK SMILES IDX 21 25 22 26 86 27 23 28 85 29 24 30 25 31 26 32 79 33 27 34
REMARK SMILES IDX 84 35 78 36 80 37 28 38 83 39 77 40 76 41 29 43 63 44 42 45
REMARK SMILES IDX 62 46 43 47 46 48 61 49 81 50 44 51 45 52 60 54 82 55 47 56
REMARK SMILES IDX 30 57 31 58 40 59 32 60 33 61 39 62 41 63 34 64 35 65 36 66
REMARK SMILES IDX 37 67 38 68 64 69 65 70 74 71 66 72 67 73 73 74 75 75 68 76
REMARK SMILES IDX 69 77 70 78 71 79 72 80 48 81 49 82 58 83 50 84 51 85 57 86
REMARK SMILES IDX 59 87 52 88 53 89 54 90 55 91 56 92
REMARK H PARENT 5 12 5 13 80 42 46 53
REMARK Flexibility Score: inf
ROOT
ATOM      1  C   UNL A   1      30.792  27.848  23.885  1.00  0.00     0.188 C 
ENDROOT
BRANCH   1   2
ATOM      2  O   UNL A   1      30.069  26.899  24.647  1.00  0.00    -0.376 OA
BRANCH   2   3
ATOM      3  C   UNL A   1      29.909  25.601  24.093  1.00  0.00     0.202 C 
BRANCH   3   4
ATOM      4  C   UNL A   1      31.067  24.948  23.311  1.00  0.00     0.261 C 
BRANCH   4   5
ATOM      5  O   UNL A   1      31.364  23.610  23.721  1.00  0.00    -0.459 OA
BRANCH   5   6
ATOM      6  C   UNL A   1      32.337  23.422  24.647  1.00  0.00     0.368 C 
ATOM      7  O   UNL A   1      33.468  23.891  24.613  1.00  0.00    -0.245 OA
BRANCH   6   8
ATOM      8  C   UNL A   1      31.832  22.588  25.816  1.00  0.00     0.194 C 
ATOM      9  C   UNL A   1      30.588  23.073  26.528  1.00  0.00     0.088 C 
ATOM     10  C   UNL A   1      31.914  23.179  27.215  1.00  0.00     0.088 C 
BRANCH   8  11
ATOM     11  N   UNL A   1      32.152  21.144  25.626  1.00  0.00    -0.331 N 
ATOM     12  H   UNL A   1      31.714  20.638  26.395  1.00  0.00     0.347 HD
ATOM     13  H   UNL A   1      31.809  20.943  24.687  1.00  0.00     0.347 HD
BRANCH  11  14
ATOM     14  C   UNL A   1      33.546  20.718  25.579  1.00  0.00     0.276 C 
BRANCH  14  15
ATOM     15  C   UNL A   1      33.715  19.518  24.646  1.00  0.00     0.181 C 
BRANCH  15  16
ATOM     16  C   UNL A   1      32.823  18.336  24.989  1.00  0.00     0.068 C 
ATOM     17  N   UNL A   1      32.082  17.356  25.274  1.00  0.00    -0.198 NA
ENDBRANCH  15  16
ENDBRANCH  14  15
ENDBRANCH  11  14
ENDBRANCH   8  11
ENDBRANCH   6   8
ENDBRANCH   5   6
ENDBRANCH   4   5
ENDBRANCH   3   4
ENDBRANCH   2   3
ENDBRANCH   1   2
BRANCH   1  18
ATOM     18  C   UNL A   1      31.783  28.682  24.731  1.00  0.00     0.188 C 
BRANCH  18  19
ATOM     19  O   UNL A   1      33.174  28.382  24.727  1.00  0.00    -0.376 OA
BRANCH  19  20
ATOM     20  C   UNL A   1      34.016  28.983  25.702  1.00  0.00     0.202 C 
BRANCH  20  21
ATOM     21  C   UNL A   1      33.407  29.694  26.926  1.00  0.00     0.261 C 
BRANCH  21  22
ATOM     22  O   UNL A   1      34.116  29.545  28.166  1.00  0.00    -0.460 OA
BRANCH  22  23
ATOM     23  C   UNL A   1      34.931  30.581  28.491  1.00  0.00     0.338 C 
ATOM     24  O   UNL A   1      34.583  31.690  28.865  1.00  0.00    -0.246 OA
BRANCH  23  25
ATOM     25  C   UNL A   1      36.341  30.123  28.536  1.00  0.00     0.060 A 
ATOM     26  C   UNL A   1      36.815  29.655  29.761  1.00  0.00     0.016 A 
ATOM     27  C   UNL A   1      37.186  30.130  27.421  1.00  0.00     0.016 A 
ATOM     28  C   UNL A   1      38.126  29.190  29.864  1.00  0.00     0.010 A 
ATOM     29  C   UNL A   1      38.510  29.665  27.536  1.00  0.00     0.010 A 
ATOM     30  C   UNL A   1      38.996  29.177  28.758  1.00  0.00    -0.014 A 
BRANCH  30  31
ATOM     31  C   UNL A   1      40.423  28.750  28.931  1.00  0.00     0.031 A 
ATOM     32  C   UNL A   1      41.405  29.740  29.507  1.00  0.00     0.074 A 
ATOM     33  C   UNL A   1      40.861  27.503  28.638  1.00  0.00     0.049 A 
ATOM     34  N   UNL A   1      42.693  29.613  29.708  1.00  0.00    -0.248 NA
ATOM     35  C   UNL A   1      40.862  31.042  29.926  1.00  0.00     0.031 C 
ATOM     36  C   UNL A   1      40.025  26.386  28.203  1.00  0.00     0.029 A 
ATOM     37  N   UNL A   1      42.129  26.958  28.682  1.00  0.00    -0.354 N 
ATOM     38  C   UNL A   1      43.104  30.809  30.282  1.00  0.00     0.074 A 
ATOM     39  C   UNL A   1      41.931  31.640  30.425  1.00  0.00     0.031 C 
ATOM     40  C   UNL A   1      40.794  25.294  28.028  1.00  0.00     0.029 A 
ATOM     41  C   UNL A   1      42.194  25.644  28.270  1.00  0.00     0.049 A 
ATOM     42  H   UNL A   1      42.919  27.464  28.982  1.00  0.00     0.167 HD
ATOM     43  C   UNL A   1      44.350  31.212  30.622  1.00  0.00     0.037 A 
ATOM     44  C   UNL A   1      43.255  24.827  28.074  1.00  0.00     0.037 A 
ATOM     45  C   UNL A   1      45.541  30.446  30.394  1.00  0.00     0.049 A 
ATOM     46  C   UNL A   1      44.655  25.359  28.302  1.00  0.00     0.074 A 
ATOM     47  C   UNL A   1      46.855  30.825  30.604  1.00  0.00     0.029 A 
ATOM     48  N   UNL A   1      45.569  29.161  29.877  1.00  0.00    -0.354 N 
ATOM     49  N   UNL A   1      45.029  26.512  28.803  1.00  0.00    -0.248 NA
ATOM     50  C   UNL A   1      45.779  24.493  27.906  1.00  0.00     0.031 C 
ATOM     51  C   UNL A   1      47.681  29.791  30.157  1.00  0.00     0.029 A 
ATOM     52  C   UNL A   1      46.880  28.742  29.734  1.00  0.00     0.049 A 
ATOM     53  H   UNL A   1      44.775  28.627  29.646  1.00  0.00     0.167 HD
ATOM     54  C   UNL A   1      46.423  26.494  28.810  1.00  0.00     0.074 A 
ATOM     55  C   UNL A   1      46.831  25.218  28.268  1.00  0.00     0.031 C 
ATOM     56  C   UNL A   1      47.283  27.455  29.228  1.00  0.00     0.037 A 
BRANCH  43  57
ATOM     57  C   UNL A   1      44.480  32.600  31.170  1.00  0.00     0.058 A 
ATOM     58  C   UNL A   1      44.406  32.862  32.547  1.00  0.00     0.135 A 
ATOM     59  C   UNL A   1      44.647  33.688  30.298  1.00  0.00     0.135 A 
ATOM     60  F   UNL A   1      44.213  31.859  33.418  1.00  0.00    -0.206 F 
ATOM     61  C   UNL A   1      44.466  34.162  33.037  1.00  0.00     0.059 A 
ATOM     62  C   UNL A   1      44.734  34.992  30.769  1.00  0.00     0.059 A 
ATOM     63  F   UNL A   1      44.707  33.487  28.972  1.00  0.00    -0.206 F 
ATOM     64  C   UNL A   1      44.625  35.219  32.140  1.00  0.00     0.060 A 
BRANCH  64  65
ATOM     65  S   UNL A   1      44.677  36.902  32.788  1.00  0.00     0.124 S 
ATOM     66  O   UNL A   1      46.115  37.149  32.838  1.00  0.00    -0.237 OA
ATOM     67  O   UNL A   1      43.940  37.649  31.774  1.00  0.00    -0.237 OA
ATOM     68  O   UNL A   1      44.016  36.789  34.085  1.00  0.00    -0.744 OA
ENDBRANCH  64  65
ENDBRANCH  43  57
BRANCH  44  69
ATOM     69  C   UNL A   1      43.076  23.432  27.561  1.00  0.00     0.058 A 
ATOM     70  C   UNL A   1      42.976  23.166  26.185  1.00  0.00     0.135 A 
ATOM     71  C   UNL A   1      42.914  22.349  28.439  1.00  0.00     0.135 A 
ATOM     72  F   UNL A   1      43.095  24.165  25.297  1.00  0.00    -0.206 F 
ATOM     73  C   UNL A   1      42.703  21.886  25.702  1.00  0.00     0.059 A 
ATOM     74  C   UNL A   1      42.673  21.056  27.979  1.00  0.00     0.059 A 
ATOM     75  F   UNL A   1      42.988  22.539  29.766  1.00  0.00    -0.206 F 
ATOM     76  C   UNL A   1      42.552  20.837  26.609  1.00  0.00     0.060 A 
BRANCH  76  77
ATOM     77  S   UNL A   1      42.215  19.177  25.976  1.00  0.00     0.124 S 
ATOM     78  O   UNL A   1      43.069  19.132  24.796  1.00  0.00    -0.237 OA
ATOM     79  O   UNL A   1      42.628  18.334  27.095  1.00  0.00    -0.237 OA
ATOM     80  O   UNL A   1      40.779  19.202  25.716  1.00  0.00    -0.744 OA
ENDBRANCH  76  77
ENDBRANCH  44  69
BRANCH  56  81
ATOM     81  C   UNL A   1      48.761  27.174  29.185  1.00  0.00     0.058 A 
ATOM     82  C   UNL A   1      49.549  27.505  28.073  1.00  0.00     0.135 A 
ATOM     83  C   UNL A   1      49.418  26.707  30.337  1.00  0.00     0.135 A 
ATOM     84  F   UNL A   1      48.974  27.951  26.945  1.00  0.00    -0.206 F 
ATOM     85  C   UNL A   1      50.937  27.394  28.108  1.00  0.00     0.059 A 
ATOM     86  C   UNL A   1      50.805  26.611  30.402  1.00  0.00     0.059 A 
ATOM     87  F   UNL A   1      48.712  26.384  31.433  1.00  0.00    -0.206 F 
ATOM     88  C   UNL A   1      51.557  26.962  29.282  1.00  0.00     0.060 A 
BRANCH  88  89
ATOM     89  S   UNL A   1      53.362  26.924  29.349  1.00  0.00     0.124 S 
ATOM     90  O   UNL A   1      53.598  26.033  30.479  1.00  0.00    -0.237 OA
ATOM     91  O   UNL A   1      53.712  26.389  28.036  1.00  0.00    -0.237 OA
ATOM     92  O   UNL A   1      53.724  28.322  29.565  1.00  0.00    -0.744 OA
ENDBRANCH  88  89
ENDBRANCH  56  81
ENDBRANCH  30  31
ENDBRANCH  23  25
ENDBRANCH  22  23
ENDBRANCH  21  22
ENDBRANCH  20  21
ENDBRANCH  19  20
ENDBRANCH  18  19
ENDBRANCH   1  18
TORSDOF 24
ENDMDL
