MODEL 1
REMARK VINA RESULT:      -7.6      0.000      0.000
REMARK SMILES COc1cccc(-c2cc(OCC(=O)OCCOCCOCCOC(=O)c3ccc(-c4c5nc(c(-c6c(F)cc(S(=O)(=O)[O-])cc6F)c6ccc([nH]6)c(-c6c(F)cc(S(=O)(=O)[O-])cc6F)c6nc(c(-c7c(F)cc(S(=O)(=O)[O-])cc7F)c7ccc4[nH]7)C=C6)C=C5)cc3)nc(Nc3ccccc3Br)n2)c1
REMARK SMILES IDX 19 1 18 2 17 3 16 4 15 5 13 6 14 7 12 8 11 9 10 10 8 11 9 12
REMARK SMILES IDX 103 13 94 14 93 15 7 16 3 17 4 18 104 19 5 20 6 21 2 22 1 23
REMARK SMILES IDX 95 24 96 26 97 27 101 28 98 29 100 30 102 31 99 32 20 33
REMARK SMILES IDX 21 34 22 35 23 36 24 37 25 38 26 39 27 40 28 41 92 42 29 43
REMARK SMILES IDX 91 44 30 45 31 46 32 47 85 48 33 49 90 50 84 51 86 52 34 53
REMARK SMILES IDX 89 54 83 55 82 56 35 58 69 59 48 60 68 61 49 62 52 63 67 64
REMARK SMILES IDX 87 65 50 66 51 67 66 69 88 70 53 71 36 72 37 73 46 74 38 75
REMARK SMILES IDX 39 76 45 77 47 78 40 79 41 80 42 81 43 82 44 83 70 84 71 85
REMARK SMILES IDX 80 86 72 87 73 88 79 89 81 90 74 91 75 92 76 93 77 94 78 95
REMARK SMILES IDX 54 96 55 97 64 98 56 99 57 100 63 101 65 102 58 103 59 104
REMARK SMILES IDX 60 105 61 106 62 107
REMARK H PARENT 95 25 86 57 52 68
REMARK Flexibility Score: inf
ROOT
ATOM      1  C   UNL A   1      46.581  26.616  28.958  1.00  0.00     0.188 C 
ENDROOT
BRANCH   1   2
ATOM      2  O   UNL A   1      45.770  27.712  29.346  1.00  0.00    -0.376 OA
BRANCH   2   3
ATOM      3  C   UNL A   1      46.321  28.977  29.045  1.00  0.00     0.202 C 
BRANCH   3   4
ATOM      4  C   UNL A   1      45.333  30.147  29.247  1.00  0.00     0.261 C 
BRANCH   4   5
ATOM      5  O   UNL A   1      45.501  30.877  30.517  1.00  0.00    -0.461 OA
BRANCH   5   6
ATOM      6  C   UNL A   1      44.407  31.151  31.284  1.00  0.00     0.344 C 
ATOM      7  O   UNL A   1      44.254  30.675  32.407  1.00  0.00    -0.248 OA
BRANCH   6   8
ATOM      8  C   UNL A   1      43.397  32.253  30.702  1.00  0.00     0.353 C 
BRANCH   8   9
ATOM      9  O   UNL A   1      42.656  33.216  31.463  1.00  0.00    -0.466 OA
BRANCH   9  10
ATOM     10  C   UNL A   1      42.865  34.597  31.382  1.00  0.00     0.219 A 
ATOM     11  C   UNL A   1      43.471  36.701  32.437  1.00  0.00     0.080 A 
ATOM     12  C   UNL A   1      42.754  35.470  32.447  1.00  0.00     0.097 A 
ATOM     13  N   UNL A   1      44.087  37.076  31.342  1.00  0.00    -0.212 NA
ATOM     14  C   UNL A   1      44.046  36.242  30.280  1.00  0.00     0.231 A 
ATOM     15  N   UNL A   1      43.470  35.012  30.256  1.00  0.00    -0.177 NA
BRANCH  11  16
ATOM     16  C   UNL A   1      43.742  37.541  33.709  1.00  0.00     0.004 A 
ATOM     17  C   UNL A   1      44.598  40.506  34.535  1.00  0.00     0.119 A 
ATOM     18  C   UNL A   1      46.158  40.043  35.210  1.00  0.00     0.046 A 
ATOM     19  C   UNL A   1      43.393  39.311  33.868  1.00  0.00     0.056 A 
ATOM     20  C   UNL A   1      46.573  38.320  35.193  1.00  0.00     0.005 A 
ATOM     21  C   UNL A   1      45.266  36.996  34.425  1.00  0.00     0.010 A 
BRANCH  17  22
ATOM     22  O   UNL A   1      44.424  41.848  34.226  1.00  0.00    -0.497 OA
ATOM     23  C   UNL A   1      43.244  42.410  34.848  1.00  0.00     0.278 C 
ENDBRANCH  17  22
ENDBRANCH  11  16
BRANCH  14  24
ATOM     24  N   UNL A   1      44.651  36.742  29.119  1.00  0.00    -0.323 N 
ATOM     25  H   UNL A   1      45.205  37.557  29.163  1.00  0.00     0.170 HD
BRANCH  24  26
ATOM     26  C   UNL A   1      44.469  36.079  27.884  1.00  0.00     0.055 A 
ATOM     27  C   UNL A   1      45.237  34.936  27.611  1.00  0.00     0.027 A 
ATOM     28  C   UNL A   1      43.319  36.316  27.091  1.00  0.00     0.041 A 
ATOM     29  C   UNL A   1      44.840  34.033  26.619  1.00  0.00     0.002 A 
ATOM     30  C   UNL A   1      42.922  35.407  26.109  1.00  0.00     0.018 A 
ATOM     31  Br  UNL A   1      42.225  37.859  27.342  1.00  0.00    -0.049 Br
ATOM     32  C   UNL A   1      43.677  34.259  25.884  1.00  0.00     0.001 A 
ENDBRANCH  24  26
ENDBRANCH  14  24
ENDBRANCH   9  10
ENDBRANCH   8   9
ENDBRANCH   6   8
ENDBRANCH   5   6
ENDBRANCH   4   5
ENDBRANCH   3   4
ENDBRANCH   2   3
ENDBRANCH   1   2
BRANCH   1  33
ATOM     33  C   UNL A   1      46.119  25.768  27.751  1.00  0.00     0.188 C 
BRANCH  33  34
ATOM     34  O   UNL A   1      45.397  24.613  28.157  1.00  0.00    -0.376 OA
BRANCH  34  35
ATOM     35  C   UNL A   1      44.872  23.881  27.067  1.00  0.00     0.202 C 
BRANCH  35  36
ATOM     36  C   UNL A   1      43.337  23.790  27.108  1.00  0.00     0.261 C 
BRANCH  36  37
ATOM     37  O   UNL A   1      42.546  24.023  25.901  1.00  0.00    -0.460 OA
BRANCH  37  38
ATOM     38  C   UNL A   1      42.175  25.308  25.711  1.00  0.00     0.338 C 
ATOM     39  O   UNL A   1      42.451  25.853  24.653  1.00  0.00    -0.246 OA
BRANCH  38  40
ATOM     40  C   UNL A   1      41.485  26.135  26.946  1.00  0.00     0.060 A 
ATOM     41  C   UNL A   1      42.625  27.407  27.532  1.00  0.00     0.016 A 
ATOM     42  C   UNL A   1      39.904  25.718  28.137  1.00  0.00     0.016 A 
ATOM     43  C   UNL A   1      42.318  28.152  29.110  1.00  0.00     0.010 A 
ATOM     44  C   UNL A   1      39.662  26.618  29.656  1.00  0.00     0.010 A 
ATOM     45  C   UNL A   1      40.872  27.802  30.124  1.00  0.00    -0.014 A 
BRANCH  45  46
ATOM     46  C   UNL A   1      40.553  28.595  31.342  1.00  0.00     0.031 A 
ATOM     47  C   UNL A   1      39.449  29.637  31.324  1.00  0.00     0.074 A 
ATOM     48  C   UNL A   1      41.399  28.489  32.383  1.00  0.00     0.049 A 
ATOM     49  N   UNL A   1      39.307  30.700  32.074  1.00  0.00    -0.248 NA
ATOM     50  C   UNL A   1      38.420  29.528  30.272  1.00  0.00     0.031 C 
ATOM     51  C   UNL A   1      42.557  27.596  32.456  1.00  0.00     0.029 A 
ATOM     52  N   UNL A   1      41.448  29.154  33.576  1.00  0.00    -0.354 N 
ATOM     53  C   UNL A   1      38.249  31.430  31.526  1.00  0.00     0.074 A 
ATOM     54  C   UNL A   1      37.807  30.703  30.357  1.00  0.00     0.031 C 
ATOM     55  C   UNL A   1      43.130  27.674  33.654  1.00  0.00     0.029 A 
ATOM     56  C   UNL A   1      42.512  28.770  34.361  1.00  0.00     0.049 A 
ATOM     57  H   UNL A   1      40.792  29.836  33.847  1.00  0.00     0.167 HD
ATOM     58  C   UNL A   1      37.704  32.591  31.976  1.00  0.00     0.037 A 
ATOM     59  C   UNL A   1      43.016  29.294  35.486  1.00  0.00     0.037 A 
ATOM     60  C   UNL A   1      38.126  33.198  33.218  1.00  0.00     0.049 A 
ATOM     61  C   UNL A   1      42.336  30.505  36.018  1.00  0.00     0.074 A 
ATOM     62  C   UNL A   1      37.619  34.311  33.863  1.00  0.00     0.029 A 
ATOM     63  N   UNL A   1      39.143  32.697  34.028  1.00  0.00    -0.354 N 
ATOM     64  N   UNL A   1      41.369  31.201  35.467  1.00  0.00    -0.248 NA
ATOM     65  C   UNL A   1      42.798  30.998  37.313  1.00  0.00     0.031 C 
ATOM     66  C   UNL A   1      38.335  34.487  35.054  1.00  0.00     0.029 A 
ATOM     67  C   UNL A   1      39.264  33.461  35.174  1.00  0.00     0.049 A 
ATOM     68  H   UNL A   1      39.697  31.911  33.814  1.00  0.00     0.167 HD
ATOM     69  C   UNL A   1      41.082  32.212  36.364  1.00  0.00     0.074 A 
ATOM     70  C   UNL A   1      41.973  32.018  37.499  1.00  0.00     0.031 C 
ATOM     71  C   UNL A   1      40.172  33.211  36.267  1.00  0.00     0.037 A 
BRANCH  58  72
ATOM     72  C   UNL A   1      36.604  33.255  31.167  1.00  0.00     0.058 A 
ATOM     73  C   UNL A   1      36.871  33.991  30.000  1.00  0.00     0.135 A 
ATOM     74  C   UNL A   1      35.251  33.132  31.541  1.00  0.00     0.135 A 
ATOM     75  F   UNL A   1      38.135  34.146  29.574  1.00  0.00    -0.206 F 
ATOM     76  C   UNL A   1      35.861  34.623  29.274  1.00  0.00     0.059 A 
ATOM     77  C   UNL A   1      34.219  33.727  30.811  1.00  0.00     0.059 A 
ATOM     78  F   UNL A   1      34.914  32.429  32.634  1.00  0.00    -0.206 F 
ATOM     79  C   UNL A   1      34.536  34.491  29.690  1.00  0.00     0.060 A 
BRANCH  79  80
ATOM     80  S   UNL A   1      33.244  35.332  28.744  1.00  0.00     0.124 S 
ATOM     81  O   UNL A   1      32.520  36.034  29.799  1.00  0.00    -0.237 OA
ATOM     82  O   UNL A   1      34.017  36.176  27.839  1.00  0.00    -0.237 OA
ATOM     83  O   UNL A   1      32.517  34.237  28.108  1.00  0.00    -0.744 OA
ENDBRANCH  79  80
ENDBRANCH  58  72
BRANCH  59  84
ATOM     84  C   UNL A   1      44.179  28.638  36.135  1.00  0.00     0.058 A 
ATOM     85  C   UNL A   1      45.457  29.194  35.998  1.00  0.00     0.135 A 
ATOM     86  C   UNL A   1      44.026  27.560  37.026  1.00  0.00     0.135 A 
ATOM     87  F   UNL A   1      45.646  30.244  35.185  1.00  0.00    -0.206 F 
ATOM     88  C   UNL A   1      46.545  28.700  36.708  1.00  0.00     0.059 A 
ATOM     89  C   UNL A   1      45.093  27.070  37.772  1.00  0.00     0.059 A 
ATOM     90  F   UNL A   1      42.809  27.035  37.245  1.00  0.00    -0.206 F 
ATOM     91  C   UNL A   1      46.352  27.640  37.596  1.00  0.00     0.060 A 
BRANCH  91  92
ATOM     92  S   UNL A   1      47.769  27.047  38.545  1.00  0.00     0.124 S 
ATOM     93  O   UNL A   1      48.827  27.931  38.069  1.00  0.00    -0.237 OA
ATOM     94  O   UNL A   1      47.328  27.260  39.920  1.00  0.00    -0.237 OA
ATOM     95  O   UNL A   1      47.884  25.649  38.140  1.00  0.00    -0.744 OA
ENDBRANCH  91  92
ENDBRANCH  59  84
BRANCH  71  96
ATOM     96  C   UNL A   1      40.091  34.122  37.448  1.00  0.00     0.058 A 
ATOM     97  C   UNL A   1      40.977  35.198  37.600  1.00  0.00     0.135 A 
ATOM     98  C   UNL A   1      39.116  33.908  38.432  1.00  0.00     0.135 A 
ATOM     99  F   UNL A   1      41.941  35.417  36.692  1.00  0.00    -0.206 F 
ATOM    100  C   UNL A   1      40.912  36.025  38.712  1.00  0.00     0.059 A 
ATOM    101  C   UNL A   1      39.014  34.743  39.536  1.00  0.00     0.059 A 
ATOM    102  F   UNL A   1      38.253  32.886  38.322  1.00  0.00    -0.206 F 
ATOM    103  C   UNL A   1      39.924  35.791  39.670  1.00  0.00     0.060 A 
BRANCH 103 104
ATOM    104  S   UNL A   1      39.827  36.899  41.087  1.00  0.00     0.124 S 
ATOM    105  O   UNL A   1      38.794  36.256  41.892  1.00  0.00    -0.237 OA
ATOM    106  O   UNL A   1      41.184  36.835  41.623  1.00  0.00    -0.237 OA
ATOM    107  O   UNL A   1      39.455  38.178  40.491  1.00  0.00    -0.744 OA
ENDBRANCH 103 104
ENDBRANCH  71  96
ENDBRANCH  45  46
ENDBRANCH  38  40
ENDBRANCH  37  38
ENDBRANCH  36  37
ENDBRANCH  35  36
ENDBRANCH  34  35
ENDBRANCH  33  34
ENDBRANCH   1  33
TORSDOF 26
ENDMDL
MODEL 2
REMARK VINA RESULT:      -7.5      6.524     13.847
REMARK SMILES COc1cccc(-c2cc(OCC(=O)OCCOCCOCCOC(=O)c3ccc(-c4c5nc(c(-c6c(F)cc(S(=O)(=O)[O-])cc6F)c6ccc([nH]6)c(-c6c(F)cc(S(=O)(=O)[O-])cc6F)c6nc(c(-c7c(F)cc(S(=O)(=O)[O-])cc7F)c7ccc4[nH]7)C=C6)C=C5)cc3)nc(Nc3ccccc3Br)n2)c1
REMARK SMILES IDX 19 1 18 2 17 3 16 4 15 5 13 6 14 7 12 8 11 9 10 10 8 11 9 12
REMARK SMILES IDX 103 13 94 14 93 15 7 16 3 17 4 18 104 19 5 20 6 21 2 22 1 23
REMARK SMILES IDX 95 24 96 26 97 27 101 28 98 29 100 30 102 31 99 32 20 33
REMARK SMILES IDX 21 34 22 35 23 36 24 37 25 38 26 39 27 40 28 41 92 42 29 43
REMARK SMILES IDX 91 44 30 45 31 46 32 47 85 48 33 49 90 50 84 51 86 52 34 53
REMARK SMILES IDX 89 54 83 55 82 56 35 58 69 59 48 60 68 61 49 62 52 63 67 64
REMARK SMILES IDX 87 65 50 66 51 67 66 69 88 70 53 71 36 72 37 73 46 74 38 75
REMARK SMILES IDX 39 76 45 77 47 78 40 79 41 80 42 81 43 82 44 83 70 84 71 85
REMARK SMILES IDX 80 86 72 87 73 88 79 89 81 90 74 91 75 92 76 93 77 94 78 95
REMARK SMILES IDX 54 96 55 97 64 98 56 99 57 100 63 101 65 102 58 103 59 104
REMARK SMILES IDX 60 105 61 106 62 107
REMARK H PARENT 95 25 86 57 52 68
REMARK Flexibility Score: inf
ROOT
ATOM      1  C   UNL A   1      38.269  29.033  28.653  1.00  0.00     0.188 C 
ENDROOT
BRANCH   1   2
ATOM      2  O   UNL A   1      37.656  30.182  28.093  1.00  0.00    -0.376 OA
BRANCH   2   3
ATOM      3  C   UNL A   1      36.682  30.783  28.920  1.00  0.00     0.202 C 
BRANCH   3   4
ATOM      4  C   UNL A   1      35.548  31.481  28.136  1.00  0.00     0.261 C 
BRANCH   4   5
ATOM      5  O   UNL A   1      34.749  30.581  27.285  1.00  0.00    -0.461 OA
BRANCH   5   6
ATOM      6  C   UNL A   1      33.387  30.662  27.316  1.00  0.00     0.344 C 
ATOM      7  O   UNL A   1      32.787  31.726  27.179  1.00  0.00    -0.248 OA
BRANCH   6   8
ATOM      8  C   UNL A   1      32.601  29.265  27.386  1.00  0.00     0.353 C 
BRANCH   8   9
ATOM      9  O   UNL A   1      33.129  27.974  27.059  1.00  0.00    -0.466 OA
BRANCH   9  10
ATOM     10  C   UNL A   1      32.694  27.211  25.969  1.00  0.00     0.219 A 
ATOM     11  C   UNL A   1      31.387  27.004  23.931  1.00  0.00     0.080 A 
ATOM     12  C   UNL A   1      31.511  27.423  25.287  1.00  0.00     0.097 A 
ATOM     13  N   UNL A   1      32.329  26.264  23.399  1.00  0.00    -0.212 NA
ATOM     14  C   UNL A   1      33.404  25.970  24.161  1.00  0.00     0.231 A 
ATOM     15  N   UNL A   1      33.633  26.420  25.421  1.00  0.00    -0.177 NA
BRANCH  11  16
ATOM     16  C   UNL A   1      30.297  27.539  22.970  1.00  0.00     0.004 A 
ATOM     17  C   UNL A   1      28.865  30.290  22.199  1.00  0.00     0.119 A 
ATOM     18  C   UNL A   1      27.279  29.822  22.807  1.00  0.00     0.046 A 
ATOM     19  C   UNL A   1      30.314  29.183  22.208  1.00  0.00     0.056 A 
ATOM     20  C   UNL A   1      27.117  28.197  23.495  1.00  0.00     0.005 A 
ATOM     21  C   UNL A   1      28.720  26.980  23.544  1.00  0.00     0.010 A 
BRANCH  17  22
ATOM     22  O   UNL A   1      29.082  31.645  21.994  1.00  0.00    -0.497 OA
ATOM     23  C   UNL A   1      28.894  32.424  23.198  1.00  0.00     0.278 C 
ENDBRANCH  17  22
ENDBRANCH  11  16
BRANCH  14  24
ATOM     24  N   UNL A   1      34.330  25.106  23.560  1.00  0.00    -0.323 N 
ATOM     25  H   UNL A   1      34.716  25.331  22.681  1.00  0.00     0.170 HD
BRANCH  24  26
ATOM     26  C   UNL A   1      34.712  23.912  24.213  1.00  0.00     0.055 A 
ATOM     27  C   UNL A   1      35.714  23.969  25.194  1.00  0.00     0.027 A 
ATOM     28  C   UNL A   1      33.890  22.759  24.165  1.00  0.00     0.041 A 
ATOM     29  C   UNL A   1      35.855  22.936  26.128  1.00  0.00     0.002 A 
ATOM     30  C   UNL A   1      34.028  21.736  25.104  1.00  0.00     0.018 A 
ATOM     31  Br  UNL A   1      32.524  22.552  22.848  1.00  0.00    -0.049 Br
ATOM     32  C   UNL A   1      35.003  21.833  26.094  1.00  0.00     0.001 A 
ENDBRANCH  24  26
ENDBRANCH  14  24
ENDBRANCH   9  10
ENDBRANCH   8   9
ENDBRANCH   6   8
ENDBRANCH   5   6
ENDBRANCH   4   5
ENDBRANCH   3   4
ENDBRANCH   2   3
ENDBRANCH   1   2
BRANCH   1  33
ATOM     33  C   UNL A   1      37.779  28.559  30.041  1.00  0.00     0.188 C 
BRANCH  33  34
ATOM     34  O   UNL A   1      38.842  28.046  30.833  1.00  0.00    -0.376 OA
BRANCH  34  35
ATOM     35  C   UNL A   1      38.569  28.095  32.219  1.00  0.00     0.202 C 
BRANCH  35  36
ATOM     36  C   UNL A   1      38.724  29.512  32.797  1.00  0.00     0.261 C 
BRANCH  36  37
ATOM     37  O   UNL A   1      39.996  30.225  32.687  1.00  0.00    -0.460 OA
BRANCH  37  38
ATOM     38  C   UNL A   1      39.925  31.406  32.035  1.00  0.00     0.338 C 
ATOM     39  O   UNL A   1      39.586  31.414  30.862  1.00  0.00    -0.246 OA
BRANCH  38  40
ATOM     40  C   UNL A   1      40.420  32.772  32.793  1.00  0.00     0.060 A 
ATOM     41  C   UNL A   1      42.208  32.710  33.042  1.00  0.00     0.016 A 
ATOM     42  C   UNL A   1      39.410  34.186  33.828  1.00  0.00     0.016 A 
ATOM     43  C   UNL A   1      42.938  33.837  34.198  1.00  0.00     0.010 A 
ATOM     44  C   UNL A   1      40.286  35.323  34.885  1.00  0.00     0.010 A 
ATOM     45  C   UNL A   1      42.022  35.123  35.065  1.00  0.00    -0.014 A 
BRANCH  45  46
ATOM     46  C   UNL A   1      42.706  36.171  35.870  1.00  0.00     0.031 A 
ATOM     47  C   UNL A   1      42.739  36.088  37.385  1.00  0.00     0.074 A 
ATOM     48  C   UNL A   1      43.118  37.274  35.219  1.00  0.00     0.049 A 
ATOM     49  N   UNL A   1      42.865  37.053  38.260  1.00  0.00    -0.248 NA
ATOM     50  C   UNL A   1      42.508  34.769  38.006  1.00  0.00     0.031 C 
ATOM     51  C   UNL A   1      43.031  37.498  33.775  1.00  0.00     0.029 A 
ATOM     52  N   UNL A   1      43.667  38.440  35.679  1.00  0.00    -0.354 N 
ATOM     53  C   UNL A   1      42.628  36.482  39.513  1.00  0.00     0.074 A 
ATOM     54  C   UNL A   1      42.317  35.090  39.280  1.00  0.00     0.031 C 
ATOM     55  C   UNL A   1      43.605  38.653  33.447  1.00  0.00     0.029 A 
ATOM     56  C   UNL A   1      43.914  39.348  34.674  1.00  0.00     0.049 A 
ATOM     57  H   UNL A   1      43.865  38.611  36.627  1.00  0.00     0.167 HD
ATOM     58  C   UNL A   1      42.681  37.076  40.734  1.00  0.00     0.037 A 
ATOM     59  C   UNL A   1      44.258  40.642  34.717  1.00  0.00     0.037 A 
ATOM     60  C   UNL A   1      43.113  38.446  40.894  1.00  0.00     0.049 A 
ATOM     61  C   UNL A   1      44.414  41.244  36.068  1.00  0.00     0.074 A 
ATOM     62  C   UNL A   1      43.314  39.169  42.057  1.00  0.00     0.029 A 
ATOM     63  N   UNL A   1      43.455  39.288  39.838  1.00  0.00    -0.354 N 
ATOM     64  N   UNL A   1      44.147  40.703  37.234  1.00  0.00    -0.248 NA
ATOM     65  C   UNL A   1      44.918  42.614  36.119  1.00  0.00     0.031 C 
ATOM     66  C   UNL A   1      43.768  40.446  41.701  1.00  0.00     0.029 A 
ATOM     67  C   UNL A   1      43.888  40.510  40.319  1.00  0.00     0.049 A 
ATOM     68  H   UNL A   1      43.398  39.046  38.885  1.00  0.00     0.167 HD
ATOM     69  C   UNL A   1      44.477  41.662  38.172  1.00  0.00     0.074 A 
ATOM     70  C   UNL A   1      44.977  42.808  37.428  1.00  0.00     0.031 C 
ATOM     71  C   UNL A   1      44.376  41.609  39.522  1.00  0.00     0.037 A 
BRANCH  58  72
ATOM     72  C   UNL A   1      42.303  36.273  41.966  1.00  0.00     0.058 A 
ATOM     73  C   UNL A   1      43.247  35.531  42.696  1.00  0.00     0.135 A 
ATOM     74  C   UNL A   1      40.980  36.265  42.450  1.00  0.00     0.135 A 
ATOM     75  F   UNL A   1      44.530  35.497  42.302  1.00  0.00    -0.206 F 
ATOM     76  C   UNL A   1      42.892  34.773  43.812  1.00  0.00     0.059 A 
ATOM     77  C   UNL A   1      40.607  35.540  43.586  1.00  0.00     0.059 A 
ATOM     78  F   UNL A   1      40.024  36.963  41.818  1.00  0.00    -0.206 F 
ATOM     79  C   UNL A   1      41.567  34.778  44.248  1.00  0.00     0.060 A 
BRANCH  79  80
ATOM     80  S   UNL A   1      41.124  33.774  45.686  1.00  0.00     0.124 S 
ATOM     81  O   UNL A   1      41.382  34.703  46.781  1.00  0.00    -0.237 OA
ATOM     82  O   UNL A   1      39.720  33.468  45.435  1.00  0.00    -0.237 OA
ATOM     83  O   UNL A   1      42.036  32.636  45.602  1.00  0.00    -0.744 OA
ENDBRANCH  79  80
ENDBRANCH  58  72
BRANCH  59  84
ATOM     84  C   UNL A   1      44.484  41.376  33.446  1.00  0.00     0.058 A 
ATOM     85  C   UNL A   1      45.744  41.339  32.836  1.00  0.00     0.135 A 
ATOM     86  C   UNL A   1      43.430  41.978  32.736  1.00  0.00     0.135 A 
ATOM     87  F   UNL A   1      46.772  40.746  33.460  1.00  0.00    -0.206 F 
ATOM     88  C   UNL A   1      45.958  41.885  31.575  1.00  0.00     0.059 A 
ATOM     89  C   UNL A   1      43.612  42.502  31.459  1.00  0.00     0.059 A 
ATOM     90  F   UNL A   1      42.187  41.979  33.246  1.00  0.00    -0.206 F 
ATOM     91  C   UNL A   1      44.884  42.459  30.893  1.00  0.00     0.060 A 
BRANCH  91  92
ATOM     92  S   UNL A   1      45.173  43.117  29.237  1.00  0.00     0.124 S 
ATOM     93  O   UNL A   1      46.629  43.071  29.157  1.00  0.00    -0.237 OA
ATOM     94  O   UNL A   1      44.456  42.161  28.398  1.00  0.00    -0.237 OA
ATOM     95  O   UNL A   1      44.586  44.453  29.297  1.00  0.00    -0.744 OA
ENDBRANCH  91  92
ENDBRANCH  59  84
BRANCH  71  96
ATOM     96  C   UNL A   1      44.863  42.821  40.248  1.00  0.00     0.058 A 
ATOM     97  C   UNL A   1      43.985  43.846  40.626  1.00  0.00     0.135 A 
ATOM     98  C   UNL A   1      46.223  42.948  40.565  1.00  0.00     0.135 A 
ATOM     99  F   UNL A   1      42.681  43.771  40.316  1.00  0.00    -0.206 F 
ATOM    100  C   UNL A   1      44.448  44.979  41.279  1.00  0.00     0.059 A 
ATOM    101  C   UNL A   1      46.701  44.058  41.245  1.00  0.00     0.059 A 
ATOM    102  F   UNL A   1      47.094  41.988  40.216  1.00  0.00    -0.206 F 
ATOM    103  C   UNL A   1      45.806  45.072  41.587  1.00  0.00     0.060 A 
BRANCH 103 104
ATOM    104  S   UNL A   1      46.385  46.531  42.471  1.00  0.00     0.124 S 
ATOM    105  O   UNL A   1      46.662  45.981  43.794  1.00  0.00    -0.237 OA
ATOM    106  O   UNL A   1      47.553  46.925  41.688  1.00  0.00    -0.237 OA
ATOM    107  O   UNL A   1      45.249  47.445  42.395  1.00  0.00    -0.744 OA
ENDBRANCH 103 104
ENDBRANCH  71  96
ENDBRANCH  45  46
ENDBRANCH  38  40
ENDBRANCH  37  38
ENDBRANCH  36  37
ENDBRANCH  35  36
ENDBRANCH  34  35
ENDBRANCH  33  34
ENDBRANCH   1  33
TORSDOF 26
ENDMDL
MODEL 3
REMARK VINA RESULT:      -7.5      4.665      9.003
REMARK SMILES COc1cccc(-c2cc(OCC(=O)OCCOCCOCCOC(=O)c3ccc(-c4c5nc(c(-c6c(F)cc(S(=O)(=O)[O-])cc6F)c6ccc([nH]6)c(-c6c(F)cc(S(=O)(=O)[O-])cc6F)c6nc(c(-c7c(F)cc(S(=O)(=O)[O-])cc7F)c7ccc4[nH]7)C=C6)C=C5)cc3)nc(Nc3ccccc3Br)n2)c1
REMARK SMILES IDX 19 1 18 2 17 3 16 4 15 5 13 6 14 7 12 8 11 9 10 10 8 11 9 12
REMARK SMILES IDX 103 13 94 14 93 15 7 16 3 17 4 18 104 19 5 20 6 21 2 22 1 23
REMARK SMILES IDX 95 24 96 26 97 27 101 28 98 29 100 30 102 31 99 32 20 33
REMARK SMILES IDX 21 34 22 35 23 36 24 37 25 38 26 39 27 40 28 41 92 42 29 43
REMARK SMILES IDX 91 44 30 45 31 46 32 47 85 48 33 49 90 50 84 51 86 52 34 53
REMARK SMILES IDX 89 54 83 55 82 56 35 58 69 59 48 60 68 61 49 62 52 63 67 64
REMARK SMILES IDX 87 65 50 66 51 67 66 69 88 70 53 71 36 72 37 73 46 74 38 75
REMARK SMILES IDX 39 76 45 77 47 78 40 79 41 80 42 81 43 82 44 83 70 84 71 85
REMARK SMILES IDX 80 86 72 87 73 88 79 89 81 90 74 91 75 92 76 93 77 94 78 95
REMARK SMILES IDX 54 96 55 97 64 98 56 99 57 100 63 101 65 102 58 103 59 104
REMARK SMILES IDX 60 105 61 106 62 107
REMARK H PARENT 95 25 86 57 52 68
REMARK Flexibility Score: inf
ROOT
ATOM      1  C   UNL A   1      47.259  26.472  29.136  1.00  0.00     0.188 C 
ENDROOT
BRANCH   1   2
ATOM      2  O   UNL A   1      48.168  26.541  30.220  1.00  0.00    -0.376 OA
BRANCH   2   3
ATOM      3  C   UNL A   1      47.737  27.356  31.290  1.00  0.00     0.202 C 
BRANCH   3   4
ATOM      4  C   UNL A   1      47.343  26.562  32.555  1.00  0.00     0.261 C 
BRANCH   4   5
ATOM      5  O   UNL A   1      46.841  25.200  32.291  1.00  0.00    -0.461 OA
BRANCH   5   6
ATOM      6  C   UNL A   1      45.638  24.817  32.807  1.00  0.00     0.344 C 
ATOM      7  O   UNL A   1      44.604  24.824  32.143  1.00  0.00    -0.248 OA
BRANCH   6   8
ATOM      8  C   UNL A   1      45.670  24.207  34.291  1.00  0.00     0.353 C 
BRANCH   8   9
ATOM      9  O   UNL A   1      46.632  24.502  35.311  1.00  0.00    -0.466 OA
BRANCH   9  10
ATOM     10  C   UNL A   1      47.517  23.556  35.840  1.00  0.00     0.219 A 
ATOM     11  C   UNL A   1      48.033  21.845  37.487  1.00  0.00     0.080 A 
ATOM     12  C   UNL A   1      47.513  23.128  37.155  1.00  0.00     0.097 A 
ATOM     13  N   UNL A   1      48.673  21.155  36.574  1.00  0.00    -0.212 NA
ATOM     14  C   UNL A   1      48.768  21.686  35.336  1.00  0.00     0.231 A 
ATOM     15  N   UNL A   1      48.208  22.853  34.926  1.00  0.00    -0.177 NA
BRANCH  11  16
ATOM     16  C   UNL A   1      47.715  21.113  38.814  1.00  0.00     0.004 A 
ATOM     17  C   UNL A   1      49.061  19.034  40.834  1.00  0.00     0.119 A 
ATOM     18  C   UNL A   1      47.914  17.734  40.516  1.00  0.00     0.046 A 
ATOM     19  C   UNL A   1      48.945  20.688  40.076  1.00  0.00     0.056 A 
ATOM     20  C   UNL A   1      46.608  18.065  39.364  1.00  0.00     0.005 A 
ATOM     21  C   UNL A   1      46.493  19.875  38.493  1.00  0.00     0.010 A 
BRANCH  17  22
ATOM     22  O   UNL A   1      50.257  18.678  41.441  1.00  0.00    -0.497 OA
ATOM     23  C   UNL A   1      50.325  19.106  42.821  1.00  0.00     0.278 C 
ENDBRANCH  17  22
ENDBRANCH  11  16
BRANCH  14  24
ATOM     24  N   UNL A   1      49.537  20.937  34.434  1.00  0.00    -0.323 N 
ATOM     25  H   UNL A   1      49.146  20.148  33.991  1.00  0.00     0.170 HD
BRANCH  24  26
ATOM     26  C   UNL A   1      50.871  21.313  34.159  1.00  0.00     0.055 A 
ATOM     27  C   UNL A   1      51.106  22.364  33.260  1.00  0.00     0.027 A 
ATOM     28  C   UNL A   1      51.932  20.912  35.009  1.00  0.00     0.041 A 
ATOM     29  C   UNL A   1      52.337  23.028  33.248  1.00  0.00     0.002 A 
ATOM     30  C   UNL A   1      53.156  21.583  34.999  1.00  0.00     0.018 A 
ATOM     31  Br  UNL A   1      51.742  19.466  36.241  1.00  0.00    -0.049 Br
ATOM     32  C   UNL A   1      53.351  22.651  34.127  1.00  0.00     0.001 A 
ENDBRANCH  24  26
ENDBRANCH  14  24
ENDBRANCH   9  10
ENDBRANCH   8   9
ENDBRANCH   6   8
ENDBRANCH   5   6
ENDBRANCH   4   5
ENDBRANCH   3   4
ENDBRANCH   2   3
ENDBRANCH   1   2
BRANCH   1  33
ATOM     33  C   UNL A   1      46.891  25.073  28.589  1.00  0.00     0.188 C 
BRANCH  33  34
ATOM     34  O   UNL A   1      46.662  25.093  27.187  1.00  0.00    -0.376 OA
BRANCH  34  35
ATOM     35  C   UNL A   1      45.782  24.073  26.758  1.00  0.00     0.202 C 
BRANCH  35  36
ATOM     36  C   UNL A   1      45.373  24.234  25.284  1.00  0.00     0.261 C 
BRANCH  36  37
ATOM     37  O   UNL A   1      44.268  25.114  24.910  1.00  0.00    -0.460 OA
BRANCH  37  38
ATOM     38  C   UNL A   1      44.380  26.382  25.363  1.00  0.00     0.338 C 
ATOM     39  O   UNL A   1      45.218  27.116  24.862  1.00  0.00    -0.246 OA
BRANCH  38  40
ATOM     40  C   UNL A   1      43.484  26.857  26.651  1.00  0.00     0.060 A 
ATOM     41  C   UNL A   1      43.926  28.548  27.103  1.00  0.00     0.016 A 
ATOM     42  C   UNL A   1      42.396  25.813  27.999  1.00  0.00     0.016 A 
ATOM     43  C   UNL A   1      43.433  29.151  28.694  1.00  0.00     0.010 A 
ATOM     44  C   UNL A   1      41.881  26.579  29.524  1.00  0.00     0.010 A 
ATOM     45  C   UNL A   1      42.416  28.220  29.853  1.00  0.00    -0.014 A 
BRANCH  45  46
ATOM     46  C   UNL A   1      41.860  28.838  31.087  1.00  0.00     0.031 A 
ATOM     47  C   UNL A   1      40.570  29.638  31.042  1.00  0.00     0.074 A 
ATOM     48  C   UNL A   1      42.637  28.823  32.185  1.00  0.00     0.049 A 
ATOM     49  N   UNL A   1      40.164  30.591  31.841  1.00  0.00    -0.248 NA
ATOM     50  C   UNL A   1      39.659  29.407  29.904  1.00  0.00     0.031 C 
ATOM     51  C   UNL A   1      43.945  28.175  32.298  1.00  0.00     0.029 A 
ATOM     52  N   UNL A   1      42.468  29.392  33.417  1.00  0.00    -0.354 N 
ATOM     53  C   UNL A   1      39.019  31.136  31.253  1.00  0.00     0.074 A 
ATOM     54  C   UNL A   1      38.815  30.427  30.011  1.00  0.00     0.031 C 
ATOM     55  C   UNL A   1      44.407  28.274  33.542  1.00  0.00     0.029 A 
ATOM     56  C   UNL A   1      43.532  29.168  34.261  1.00  0.00     0.049 A 
ATOM     57  H   UNL A   1      41.670  29.907  33.674  1.00  0.00     0.167 HD
ATOM     58  C   UNL A   1      38.220  32.128  31.727  1.00  0.00     0.037 A 
ATOM     59  C   UNL A   1      43.841  29.694  35.454  1.00  0.00     0.037 A 
ATOM     60  C   UNL A   1      38.423  32.709  33.034  1.00  0.00     0.049 A 
ATOM     61  C   UNL A   1      42.893  30.701  36.001  1.00  0.00     0.074 A 
ATOM     62  C   UNL A   1      37.657  33.647  33.702  1.00  0.00     0.029 A 
ATOM     63  N   UNL A   1      39.464  32.361  33.893  1.00  0.00    -0.354 N 
ATOM     64  N   UNL A   1      41.844  31.231  35.416  1.00  0.00    -0.248 NA
ATOM     65  C   UNL A   1      43.156  31.176  37.357  1.00  0.00     0.031 C 
ATOM     66  C   UNL A   1      38.240  33.870  34.957  1.00  0.00     0.029 A 
ATOM     67  C   UNL A   1      39.348  33.044  35.089  1.00  0.00     0.049 A 
ATOM     68  H   UNL A   1      40.179  31.719  33.678  1.00  0.00     0.167 HD
ATOM     69  C   UNL A   1      41.297  32.094  36.347  1.00  0.00     0.074 A 
ATOM     70  C   UNL A   1      42.129  31.995  37.537  1.00  0.00     0.031 C 
ATOM     71  C   UNL A   1      40.211  32.896  36.236  1.00  0.00     0.037 A 
BRANCH  58  72
ATOM     72  C   UNL A   1      37.065  32.619  30.873  1.00  0.00     0.058 A 
ATOM     73  C   UNL A   1      35.806  31.995  30.883  1.00  0.00     0.135 A 
ATOM     74  C   UNL A   1      37.202  33.754  30.049  1.00  0.00     0.135 A 
ATOM     75  F   UNL A   1      35.595  30.913  31.650  1.00  0.00    -0.206 F 
ATOM     76  C   UNL A   1      34.754  32.433  30.077  1.00  0.00     0.059 A 
ATOM     77  C   UNL A   1      36.153  34.231  29.258  1.00  0.00     0.059 A 
ATOM     78  F   UNL A   1      38.368  34.415  29.998  1.00  0.00    -0.206 F 
ATOM     79  C   UNL A   1      34.938  33.549  29.262  1.00  0.00     0.060 A 
BRANCH  79  80
ATOM     80  S   UNL A   1      33.567  34.090  28.212  1.00  0.00     0.124 S 
ATOM     81  O   UNL A   1      34.251  34.969  27.268  1.00  0.00    -0.237 OA
ATOM     82  O   UNL A   1      33.079  32.830  27.661  1.00  0.00    -0.237 OA
ATOM     83  O   UNL A   1      32.663  34.755  29.145  1.00  0.00    -0.744 OA
ENDBRANCH  79  80
ENDBRANCH  58  72
BRANCH  59  84
ATOM     84  C   UNL A   1      45.066  29.235  36.155  1.00  0.00     0.058 A 
ATOM     85  C   UNL A   1      45.056  28.018  36.849  1.00  0.00     0.135 A 
ATOM     86  C   UNL A   1      46.299  29.898  36.013  1.00  0.00     0.135 A 
ATOM     87  F   UNL A   1      43.911  27.333  36.982  1.00  0.00    -0.206 F 
ATOM     88  C   UNL A   1      46.218  27.481  37.391  1.00  0.00     0.059 A 
ATOM     89  C   UNL A   1      47.480  29.363  36.518  1.00  0.00     0.059 A 
ATOM     90  F   UNL A   1      46.375  31.033  35.298  1.00  0.00    -0.206 F 
ATOM     91  C   UNL A   1      47.426  28.158  37.216  1.00  0.00     0.060 A 
BRANCH  91  92
ATOM     92  S   UNL A   1      48.930  27.416  37.884  1.00  0.00     0.124 S 
ATOM     93  O   UNL A   1      49.674  27.122  36.665  1.00  0.00    -0.237 OA
ATOM     94  O   UNL A   1      49.461  28.494  38.714  1.00  0.00    -0.237 OA
ATOM     95  O   UNL A   1      48.435  26.255  38.618  1.00  0.00    -0.744 OA
ENDBRANCH  91  92
ENDBRANCH  59  84
BRANCH  71  96
ATOM     96  C   UNL A   1      39.866  33.680  37.460  1.00  0.00     0.058 A 
ATOM     97  C   UNL A   1      40.261  35.018  37.604  1.00  0.00     0.135 A 
ATOM     98  C   UNL A   1      39.134  33.079  38.494  1.00  0.00     0.135 A 
ATOM     99  F   UNL A   1      40.986  35.618  36.647  1.00  0.00    -0.206 F 
ATOM    100  C   UNL A   1      39.958  35.732  38.753  1.00  0.00     0.059 A 
ATOM    101  C   UNL A   1      38.794  33.786  39.638  1.00  0.00     0.059 A 
ATOM    102  F   UNL A   1      38.743  31.799  38.393  1.00  0.00    -0.206 F 
ATOM    103  C   UNL A   1      39.221  35.108  39.762  1.00  0.00     0.060 A 
BRANCH 103 104
ATOM    104  S   UNL A   1      38.801  36.062  41.231  1.00  0.00     0.124 S 
ATOM    105  O   UNL A   1      38.818  37.424  40.710  1.00  0.00    -0.237 OA
ATOM    106  O   UNL A   1      37.487  35.531  41.580  1.00  0.00    -0.237 OA
ATOM    107  O   UNL A   1      39.873  35.732  42.166  1.00  0.00    -0.744 OA
ENDBRANCH 103 104
ENDBRANCH  71  96
ENDBRANCH  45  46
ENDBRANCH  38  40
ENDBRANCH  37  38
ENDBRANCH  36  37
ENDBRANCH  35  36
ENDBRANCH  34  35
ENDBRANCH  33  34
ENDBRANCH   1  33
TORSDOF 26
ENDMDL
