MODEL 1
REMARK VINA RESULT:      -9.8      0.000      0.000
REMARK SMILES Cc1nc(CSCC(=O)N2CCCC[C@@H]2C(=O)OCCOCCOCCOC(=O)c2ccc(-c3c4nc(c(-c5c(F)cc(S(=O)(=O)[O-])cc5F)c5ccc([nH]5)c(-c5c(F)cc(S(=O)(=O)[O-])cc5F)c5nc(c(-c6c(F)cc(S(=O)(=O)[O-])cc6F)c6ccc3[nH]6)C=C5)C=C4)cc2)cs1
REMARK SMILES IDX 22 1 21 2 20 3 19 4 18 5 16 6 17 7 15 8 10 9 11 10 12 11
REMARK SMILES IDX 14 12 13 13 8 14 9 15 7 16 6 17 5 18 4 19 1 20 2 21 3 22
REMARK SMILES IDX 97 23 96 24 23 25 24 26 25 27 26 28 27 29 28 30 29 31 30 32
REMARK SMILES IDX 31 33 95 34 32 35 94 36 33 37 34 38 35 39 88 40 36 41 93 42
REMARK SMILES IDX 87 43 89 44 37 45 92 46 86 47 85 48 38 50 72 51 51 52 71 53
REMARK SMILES IDX 52 54 55 55 70 56 90 57 53 58 54 59 69 61 91 62 56 63 39 64
REMARK SMILES IDX 40 65 49 66 41 67 42 68 48 69 50 70 43 71 44 72 45 73 46 74
REMARK SMILES IDX 47 75 73 76 74 77 83 78 75 79 76 80 82 81 84 82 77 83 78 84
REMARK SMILES IDX 79 85 80 86 81 87 57 88 58 89 67 90 59 91 60 92 66 93 68 94
REMARK SMILES IDX 61 95 62 96 63 97 64 98 65 99
REMARK H PARENT 89 49 55 60
REMARK Flexibility Score: inf
ROOT
ATOM      1  C   UNL A   1      32.735  27.814  26.506  1.00  0.00     0.188 C 
ENDROOT
BRANCH   1   2
ATOM      2  O   UNL A   1      31.707  26.989  27.028  1.00  0.00    -0.376 OA
BRANCH   2   3
ATOM      3  C   UNL A   1      30.748  26.536  26.081  1.00  0.00     0.202 C 
BRANCH   3   4
ATOM      4  C   UNL A   1      30.684  25.016  25.875  1.00  0.00     0.261 C 
BRANCH   4   5
ATOM      5  O   UNL A   1      31.832  24.183  26.168  1.00  0.00    -0.462 OA
BRANCH   5   6
ATOM      6  C   UNL A   1      32.215  23.124  25.418  1.00  0.00     0.328 C 
ATOM      7  O   UNL A   1      31.463  22.292  24.927  1.00  0.00    -0.250 OA
BRANCH   6   8
ATOM      8  C   UNL A   1      33.742  23.030  25.274  1.00  0.00     0.195 C 
ATOM      9  N   UNL A   1      34.266  23.812  24.146  1.00  0.00    -0.328 N 
ATOM     10  C   UNL A   1      35.694  23.728  23.876  1.00  0.00     0.120 C 
ATOM     11  C   UNL A   1      36.245  22.302  23.970  1.00  0.00     0.022 C 
ATOM     12  C   UNL A   1      34.302  21.604  25.349  1.00  0.00     0.037 C 
ATOM     13  C   UNL A   1      35.823  21.627  25.268  1.00  0.00     0.005 C 
BRANCH   9  14
ATOM     14  C   UNL A   1      33.411  24.228  23.126  1.00  0.00     0.233 C 
ATOM     15  O   UNL A   1      33.027  23.455  22.256  1.00  0.00    -0.274 OA
BRANCH  14  16
ATOM     16  C   UNL A   1      33.045  25.714  23.230  1.00  0.00     0.170 C 
BRANCH  16  17
ATOM     17  S   UNL A   1      31.730  26.264  22.078  1.00  0.00    -0.146 SA
BRANCH  17  18
ATOM     18  C   UNL A   1      31.641  28.016  22.522  1.00  0.00     0.127 C 
BRANCH  18  19
ATOM     19  C   UNL A   1      30.264  28.589  22.549  1.00  0.00     0.061 A 
ATOM     20  C   UNL A   1      28.152  31.156  21.065  1.00  0.00     0.079 C 
ATOM     21  C   UNL A   1      28.728  30.000  21.797  1.00  0.00     0.090 A 
ATOM     22  N   UNL A   1      29.992  29.663  21.716  1.00  0.00    -0.246 NA
ATOM     23  S   UNL A   1      27.767  29.010  22.816  1.00  0.00    -0.127 S 
ATOM     24  C   UNL A   1      29.156  28.075  23.196  1.00  0.00     0.091 A 
ENDBRANCH  18  19
ENDBRANCH  17  18
ENDBRANCH  16  17
ENDBRANCH  14  16
ENDBRANCH   9  14
ENDBRANCH   6   8
ENDBRANCH   5   6
ENDBRANCH   4   5
ENDBRANCH   3   4
ENDBRANCH   2   3
ENDBRANCH   1   2
BRANCH   1  25
ATOM     25  C   UNL A   1      32.242  29.137  25.914  1.00  0.00     0.188 C 
BRANCH  25  26
ATOM     26  O   UNL A   1      32.813  30.375  26.297  1.00  0.00    -0.376 OA
BRANCH  26  27
ATOM     27  C   UNL A   1      33.555  30.428  27.505  1.00  0.00     0.202 C 
BRANCH  27  28
ATOM     28  C   UNL A   1      34.281  31.726  27.899  1.00  0.00     0.261 C 
BRANCH  28  29
ATOM     29  O   UNL A   1      33.700  32.950  27.423  1.00  0.00    -0.460 OA
BRANCH  29  30
ATOM     30  C   UNL A   1      33.610  33.952  28.344  1.00  0.00     0.338 C 
ATOM     31  O   UNL A   1      32.704  34.751  28.461  1.00  0.00    -0.246 OA
BRANCH  30  32
ATOM     32  C   UNL A   1      34.668  33.750  29.375  1.00  0.00     0.060 A 
ATOM     33  C   UNL A   1      35.983  34.135  29.052  1.00  0.00     0.016 A 
ATOM     34  C   UNL A   1      34.377  33.242  30.639  1.00  0.00     0.016 A 
ATOM     35  C   UNL A   1      37.013  33.990  29.980  1.00  0.00     0.010 A 
ATOM     36  C   UNL A   1      35.420  33.045  31.552  1.00  0.00     0.010 A 
ATOM     37  C   UNL A   1      36.745  33.381  31.210  1.00  0.00    -0.014 A 
BRANCH  37  38
ATOM     38  C   UNL A   1      37.871  32.813  31.989  1.00  0.00     0.031 A 
ATOM     39  C   UNL A   1      38.616  31.656  31.377  1.00  0.00     0.074 A 
ATOM     40  C   UNL A   1      38.253  33.314  33.176  1.00  0.00     0.049 A 
ATOM     41  N   UNL A   1      39.587  30.932  31.868  1.00  0.00    -0.248 NA
ATOM     42  C   UNL A   1      38.197  31.262  30.021  1.00  0.00     0.031 C 
ATOM     43  C   UNL A   1      37.668  34.479  33.835  1.00  0.00     0.029 A 
ATOM     44  N   UNL A   1      39.230  32.891  34.042  1.00  0.00    -0.354 N 
ATOM     45  C   UNL A   1      39.884  29.991  30.889  1.00  0.00     0.074 A 
ATOM     46  C   UNL A   1      38.967  30.212  29.793  1.00  0.00     0.031 C 
ATOM     47  C   UNL A   1      38.297  34.673  35.009  1.00  0.00     0.029 A 
ATOM     48  C   UNL A   1      39.299  33.624  35.200  1.00  0.00     0.049 A 
ATOM     49  H   UNL A   1      39.828  32.132  33.849  1.00  0.00     0.167 HD
ATOM     50  C   UNL A   1      40.839  29.031  30.896  1.00  0.00     0.037 A 
ATOM     51  C   UNL A   1      40.068  33.450  36.294  1.00  0.00     0.037 A 
ATOM     52  C   UNL A   1      41.734  28.805  31.999  1.00  0.00     0.049 A 
ATOM     53  C   UNL A   1      41.048  32.304  36.334  1.00  0.00     0.074 A 
ATOM     54  C   UNL A   1      42.733  27.857  32.116  1.00  0.00     0.029 A 
ATOM     55  N   UNL A   1      41.727  29.529  33.183  1.00  0.00    -0.354 N 
ATOM     56  N   UNL A   1      41.322  31.416  35.407  1.00  0.00    -0.248 NA
ATOM     57  C   UNL A   1      41.821  32.134  37.573  1.00  0.00     0.031 C 
ATOM     58  C   UNL A   1      43.290  27.968  33.395  1.00  0.00     0.029 A 
ATOM     59  C   UNL A   1      42.684  29.030  34.050  1.00  0.00     0.049 A 
ATOM     60  H   UNL A   1      41.128  30.287  33.378  1.00  0.00     0.167 HD
ATOM     61  C   UNL A   1      42.324  30.606  35.935  1.00  0.00     0.074 A 
ATOM     62  C   UNL A   1      42.608  31.112  37.263  1.00  0.00     0.031 C 
ATOM     63  C   UNL A   1      42.958  29.547  35.370  1.00  0.00     0.037 A 
BRANCH  50  64
ATOM     64  C   UNL A   1      40.911  28.129  29.692  1.00  0.00     0.058 A 
ATOM     65  C   UNL A   1      40.000  27.078  29.493  1.00  0.00     0.135 A 
ATOM     66  C   UNL A   1      41.934  28.293  28.745  1.00  0.00     0.135 A 
ATOM     67  F   UNL A   1      39.014  26.860  30.378  1.00  0.00    -0.206 F 
ATOM     68  C   UNL A   1      40.134  26.189  28.432  1.00  0.00     0.059 A 
ATOM     69  C   UNL A   1      42.066  27.438  27.655  1.00  0.00     0.059 A 
ATOM     70  F   UNL A   1      42.835  29.279  28.884  1.00  0.00    -0.206 F 
ATOM     71  C   UNL A   1      41.177  26.372  27.522  1.00  0.00     0.060 A 
BRANCH  71  72
ATOM     72  S   UNL A   1      41.371  25.183  26.179  1.00  0.00     0.124 S 
ATOM     73  O   UNL A   1      40.121  24.435  26.272  1.00  0.00    -0.237 OA
ATOM     74  O   UNL A   1      41.505  26.049  25.012  1.00  0.00    -0.237 OA
ATOM     75  O   UNL A   1      42.573  24.444  26.550  1.00  0.00    -0.744 OA
ENDBRANCH  71  72
ENDBRANCH  50  64
BRANCH  51  76
ATOM     76  C   UNL A   1      39.954  34.395  37.439  1.00  0.00     0.058 A 
ATOM     77  C   UNL A   1      39.051  34.147  38.484  1.00  0.00     0.135 A 
ATOM     78  C   UNL A   1      40.753  35.545  37.526  1.00  0.00     0.135 A 
ATOM     79  F   UNL A   1      38.253  33.071  38.439  1.00  0.00    -0.206 F 
ATOM     80  C   UNL A   1      38.947  35.002  39.576  1.00  0.00     0.059 A 
ATOM     81  C   UNL A   1      40.686  36.403  38.620  1.00  0.00     0.059 A 
ATOM     82  F   UNL A   1      41.635  35.828  36.554  1.00  0.00    -0.206 F 
ATOM     83  C   UNL A   1      39.778  36.123  39.640  1.00  0.00     0.060 A 
BRANCH  83  84
ATOM     84  S   UNL A   1      39.689  37.177  41.105  1.00  0.00     0.124 S 
ATOM     85  O   UNL A   1      41.100  37.393  41.400  1.00  0.00    -0.237 OA
ATOM     86  O   UNL A   1      38.956  38.333  40.600  1.00  0.00    -0.237 OA
ATOM     87  O   UNL A   1      38.962  36.354  42.067  1.00  0.00    -0.744 OA
ENDBRANCH  83  84
ENDBRANCH  51  76
BRANCH  63  88
ATOM     88  C   UNL A   1      44.054  28.884  36.163  1.00  0.00     0.058 A 
ATOM     89  C   UNL A   1      45.362  29.391  36.197  1.00  0.00     0.135 A 
ATOM     90  C   UNL A   1      43.771  27.755  36.952  1.00  0.00     0.135 A 
ATOM     91  F   UNL A   1      45.688  30.465  35.459  1.00  0.00    -0.206 F 
ATOM     92  C   UNL A   1      46.356  28.791  36.963  1.00  0.00     0.059 A 
ATOM     93  C   UNL A   1      44.741  27.157  37.751  1.00  0.00     0.059 A 
ATOM     94  F   UNL A   1      42.534  27.234  36.968  1.00  0.00    -0.206 F 
ATOM     95  C   UNL A   1      46.034  27.676  37.740  1.00  0.00     0.060 A 
BRANCH  95  96
ATOM     96  S   UNL A   1      47.326  26.928  38.756  1.00  0.00     0.124 S 
ATOM     97  O   UNL A   1      47.636  25.721  37.998  1.00  0.00    -0.237 OA
ATOM     98  O   UNL A   1      48.358  27.960  38.756  1.00  0.00    -0.237 OA
ATOM     99  O   UNL A   1      46.665  26.710  40.041  1.00  0.00    -0.744 OA
ENDBRANCH  95  96
ENDBRANCH  63  88
ENDBRANCH  37  38
ENDBRANCH  30  32
ENDBRANCH  29  30
ENDBRANCH  28  29
ENDBRANCH  27  28
ENDBRANCH  26  27
ENDBRANCH  25  26
ENDBRANCH   1  25
TORSDOF 25
ENDMDL
MODEL 2
REMARK VINA RESULT:      -9.5      6.311     11.815
REMARK SMILES Cc1nc(CSCC(=O)N2CCCC[C@@H]2C(=O)OCCOCCOCCOC(=O)c2ccc(-c3c4nc(c(-c5c(F)cc(S(=O)(=O)[O-])cc5F)c5ccc([nH]5)c(-c5c(F)cc(S(=O)(=O)[O-])cc5F)c5nc(c(-c6c(F)cc(S(=O)(=O)[O-])cc6F)c6ccc3[nH]6)C=C5)C=C4)cc2)cs1
REMARK SMILES IDX 22 1 21 2 20 3 19 4 18 5 16 6 17 7 15 8 10 9 11 10 12 11
REMARK SMILES IDX 14 12 13 13 8 14 9 15 7 16 6 17 5 18 4 19 1 20 2 21 3 22
REMARK SMILES IDX 97 23 96 24 23 25 24 26 25 27 26 28 27 29 28 30 29 31 30 32
REMARK SMILES IDX 31 33 95 34 32 35 94 36 33 37 34 38 35 39 88 40 36 41 93 42
REMARK SMILES IDX 87 43 89 44 37 45 92 46 86 47 85 48 38 50 72 51 51 52 71 53
REMARK SMILES IDX 52 54 55 55 70 56 90 57 53 58 54 59 69 61 91 62 56 63 39 64
REMARK SMILES IDX 40 65 49 66 41 67 42 68 48 69 50 70 43 71 44 72 45 73 46 74
REMARK SMILES IDX 47 75 73 76 74 77 83 78 75 79 76 80 82 81 84 82 77 83 78 84
REMARK SMILES IDX 79 85 80 86 81 87 57 88 58 89 67 90 59 91 60 92 66 93 68 94
REMARK SMILES IDX 61 95 62 96 63 97 64 98 65 99
REMARK H PARENT 89 49 55 60
REMARK Flexibility Score: inf
ROOT
ATOM      1  C   UNL A   1      34.925  21.934  27.103  1.00  0.00     0.188 C 
ENDROOT
BRANCH   1   2
ATOM      2  O   UNL A   1      33.550  21.752  27.399  1.00  0.00    -0.376 OA
BRANCH   2   3
ATOM      3  C   UNL A   1      32.762  22.935  27.381  1.00  0.00     0.202 C 
BRANCH   3   4
ATOM      4  C   UNL A   1      33.288  24.071  26.492  1.00  0.00     0.261 C 
BRANCH   4   5
ATOM      5  O   UNL A   1      32.441  25.197  26.155  1.00  0.00    -0.462 OA
BRANCH   5   6
ATOM      6  C   UNL A   1      32.778  26.165  25.272  1.00  0.00     0.328 C 
ATOM      7  O   UNL A   1      33.912  26.403  24.877  1.00  0.00    -0.250 OA
BRANCH   6   8
ATOM      8  C   UNL A   1      31.568  27.002  24.831  1.00  0.00     0.195 C 
ATOM      9  N   UNL A   1      30.812  26.390  23.730  1.00  0.00    -0.328 N 
ATOM     10  C   UNL A   1      29.690  27.142  23.185  1.00  0.00     0.120 C 
ATOM     11  C   UNL A   1      29.994  28.631  22.996  1.00  0.00     0.022 C 
ATOM     12  C   UNL A   1      31.865  28.492  24.622  1.00  0.00     0.037 C 
ATOM     13  C   UNL A   1      30.590  29.241  24.257  1.00  0.00     0.005 C 
BRANCH   9  14
ATOM     14  C   UNL A   1      31.396  25.394  22.949  1.00  0.00     0.233 C 
ATOM     15  O   UNL A   1      32.168  25.663  22.036  1.00  0.00    -0.274 OA
BRANCH  14  16
ATOM     16  C   UNL A   1      30.955  23.983  23.363  1.00  0.00     0.170 C 
BRANCH  16  17
ATOM     17  S   UNL A   1      32.099  22.642  22.864  1.00  0.00    -0.146 SA
BRANCH  17  18
ATOM     18  C   UNL A   1      31.945  21.551  24.299  1.00  0.00     0.127 C 
BRANCH  18  19
ATOM     19  C   UNL A   1      32.288  20.123  24.044  1.00  0.00     0.061 A 
ATOM     20  C   UNL A   1      32.656  16.884  25.665  1.00  0.00     0.079 C 
ATOM     21  C   UNL A   1      32.532  18.027  24.726  1.00  0.00     0.090 A 
ATOM     22  N   UNL A   1      32.289  19.252  25.122  1.00  0.00    -0.246 NA
ATOM     23  S   UNL A   1      32.702  17.823  23.031  1.00  0.00    -0.127 S 
ATOM     24  C   UNL A   1      32.456  19.509  22.816  1.00  0.00     0.091 A 
ENDBRANCH  18  19
ENDBRANCH  17  18
ENDBRANCH  16  17
ENDBRANCH  14  16
ENDBRANCH   9  14
ENDBRANCH   6   8
ENDBRANCH   5   6
ENDBRANCH   4   5
ENDBRANCH   3   4
ENDBRANCH   2   3
ENDBRANCH   1   2
BRANCH   1  25
ATOM     25  C   UNL A   1      35.388  21.253  25.812  1.00  0.00     0.188 C 
BRANCH  25  26
ATOM     26  O   UNL A   1      36.464  21.770  25.049  1.00  0.00    -0.376 OA
BRANCH  26  27
ATOM     27  C   UNL A   1      37.671  21.027  25.003  1.00  0.00     0.202 C 
BRANCH  27  28
ATOM     28  C   UNL A   1      38.854  21.437  25.900  1.00  0.00     0.261 C 
BRANCH  28  29
ATOM     29  O   UNL A   1      40.052  20.656  25.769  1.00  0.00    -0.460 OA
BRANCH  29  30
ATOM     30  C   UNL A   1      40.782  20.509  26.912  1.00  0.00     0.338 C 
ATOM     31  O   UNL A   1      40.791  19.545  27.648  1.00  0.00    -0.246 OA
BRANCH  30  32
ATOM     32  C   UNL A   1      41.788  21.607  26.980  1.00  0.00     0.060 A 
ATOM     33  C   UNL A   1      42.311  21.943  28.243  1.00  0.00     0.016 A 
ATOM     34  C   UNL A   1      42.243  22.261  25.837  1.00  0.00     0.016 A 
ATOM     35  C   UNL A   1      43.269  22.947  28.370  1.00  0.00     0.010 A 
ATOM     36  C   UNL A   1      43.165  23.306  25.970  1.00  0.00     0.010 A 
ATOM     37  C   UNL A   1      43.649  23.678  27.240  1.00  0.00    -0.014 A 
BRANCH  37  38
ATOM     38  C   UNL A   1      44.286  25.004  27.424  1.00  0.00     0.031 A 
ATOM     39  C   UNL A   1      43.404  26.130  27.896  1.00  0.00     0.074 A 
ATOM     40  C   UNL A   1      45.597  25.210  27.219  1.00  0.00     0.049 A 
ATOM     41  N   UNL A   1      43.684  27.395  28.071  1.00  0.00    -0.248 NA
ATOM     42  C   UNL A   1      42.010  25.772  28.208  1.00  0.00     0.031 C 
ATOM     43  C   UNL A   1      46.570  24.187  26.842  1.00  0.00     0.029 A 
ATOM     44  N   UNL A   1      46.334  26.365  27.297  1.00  0.00    -0.354 N 
ATOM     45  C   UNL A   1      42.499  27.984  28.499  1.00  0.00     0.074 A 
ATOM     46  C   UNL A   1      41.491  26.948  28.521  1.00  0.00     0.031 C 
ATOM     47  C   UNL A   1      47.779  24.765  26.714  1.00  0.00     0.029 A 
ATOM     48  C   UNL A   1      47.656  26.202  26.962  1.00  0.00     0.049 A 
ATOM     49  H   UNL A   1      45.951  27.230  27.570  1.00  0.00     0.167 HD
ATOM     50  C   UNL A   1      42.270  29.272  28.849  1.00  0.00     0.037 A 
ATOM     51  C   UNL A   1      48.642  27.114  26.849  1.00  0.00     0.037 A 
ATOM     52  C   UNL A   1      43.274  30.301  28.805  1.00  0.00     0.049 A 
ATOM     53  C   UNL A   1      48.343  28.566  27.131  1.00  0.00     0.074 A 
ATOM     54  C   UNL A   1      43.149  31.639  29.130  1.00  0.00     0.029 A 
ATOM     55  N   UNL A   1      44.586  30.107  28.396  1.00  0.00    -0.354 N 
ATOM     56  N   UNL A   1      47.220  29.117  27.531  1.00  0.00    -0.248 NA
ATOM     57  C   UNL A   1      49.443  29.521  26.940  1.00  0.00     0.031 C 
ATOM     58  C   UNL A   1      44.370  32.267  28.859  1.00  0.00     0.029 A 
ATOM     59  C   UNL A   1      45.276  31.308  28.430  1.00  0.00     0.049 A 
ATOM     60  H   UNL A   1      44.970  29.243  28.121  1.00  0.00     0.167 HD
ATOM     61  C   UNL A   1      47.491  30.475  27.676  1.00  0.00     0.074 A 
ATOM     62  C   UNL A   1      48.883  30.660  27.322  1.00  0.00     0.031 C 
ATOM     63  C   UNL A   1      46.665  31.476  28.076  1.00  0.00     0.037 A 
BRANCH  50  64
ATOM     64  C   UNL A   1      40.864  29.631  29.252  1.00  0.00     0.058 A 
ATOM     65  C   UNL A   1      40.511  29.870  30.591  1.00  0.00     0.135 A 
ATOM     66  C   UNL A   1      39.845  29.694  28.289  1.00  0.00     0.135 A 
ATOM     67  F   UNL A   1      41.440  29.801  31.559  1.00  0.00    -0.206 F 
ATOM     68  C   UNL A   1      39.192  30.102  30.966  1.00  0.00     0.059 A 
ATOM     69  C   UNL A   1      38.524  29.962  28.637  1.00  0.00     0.059 A 
ATOM     70  F   UNL A   1      40.122  29.473  26.994  1.00  0.00    -0.206 F 
ATOM     71  C   UNL A   1      38.204  30.137  29.981  1.00  0.00     0.060 A 
BRANCH  71  72
ATOM     72  S   UNL A   1      36.490  30.389  30.487  1.00  0.00     0.124 S 
ATOM     73  O   UNL A   1      36.432  29.607  31.717  1.00  0.00    -0.237 OA
ATOM     74  O   UNL A   1      36.423  31.838  30.654  1.00  0.00    -0.237 OA
ATOM     75  O   UNL A   1      35.722  29.854  29.366  1.00  0.00    -0.744 OA
ENDBRANCH  71  72
ENDBRANCH  50  64
BRANCH  51  76
ATOM     76  C   UNL A   1      50.013  26.681  26.464  1.00  0.00     0.058 A 
ATOM     77  C   UNL A   1      50.947  26.306  27.443  1.00  0.00     0.135 A 
ATOM     78  C   UNL A   1      50.413  26.612  25.120  1.00  0.00     0.135 A 
ATOM     79  F   UNL A   1      50.620  26.372  28.741  1.00  0.00    -0.206 F 
ATOM     80  C   UNL A   1      52.225  25.874  27.103  1.00  0.00     0.059 A 
ATOM     81  C   UNL A   1      51.677  26.159  24.755  1.00  0.00     0.059 A 
ATOM     82  F   UNL A   1      49.558  26.958  24.145  1.00  0.00    -0.206 F 
ATOM     83  C   UNL A   1      52.577  25.793  25.755  1.00  0.00     0.060 A 
BRANCH  83  84
ATOM     84  S   UNL A   1      54.211  25.150  25.329  1.00  0.00     0.124 S 
ATOM     85  O   UNL A   1      54.574  25.992  24.196  1.00  0.00    -0.237 OA
ATOM     86  O   UNL A   1      54.956  25.380  26.563  1.00  0.00    -0.237 OA
ATOM     87  O   UNL A   1      53.948  23.748  25.016  1.00  0.00    -0.744 OA
ENDBRANCH  83  84
ENDBRANCH  51  76
BRANCH  63  88
ATOM     88  C   UNL A   1      47.250  32.859  28.195  1.00  0.00     0.058 A 
ATOM     89  C   UNL A   1      47.141  33.806  27.165  1.00  0.00     0.135 A 
ATOM     90  C   UNL A   1      47.877  33.261  29.388  1.00  0.00     0.135 A 
ATOM     91  F   UNL A   1      46.555  33.475  26.003  1.00  0.00    -0.206 F 
ATOM     92  C   UNL A   1      47.653  35.093  27.302  1.00  0.00     0.059 A 
ATOM     93  C   UNL A   1      48.368  34.552  29.559  1.00  0.00     0.059 A 
ATOM     94  F   UNL A   1      47.998  32.401  30.411  1.00  0.00    -0.206 F 
ATOM     95  C   UNL A   1      48.263  35.457  28.505  1.00  0.00     0.060 A 
BRANCH  95  96
ATOM     96  S   UNL A   1      48.892  37.140  28.682  1.00  0.00     0.124 S 
ATOM     97  O   UNL A   1      50.006  37.138  27.740  1.00  0.00    -0.237 OA
ATOM     98  O   UNL A   1      47.737  37.946  28.296  1.00  0.00    -0.237 OA
ATOM     99  O   UNL A   1      49.261  37.219  30.092  1.00  0.00    -0.744 OA
ENDBRANCH  95  96
ENDBRANCH  63  88
ENDBRANCH  37  38
ENDBRANCH  30  32
ENDBRANCH  29  30
ENDBRANCH  28  29
ENDBRANCH  27  28
ENDBRANCH  26  27
ENDBRANCH  25  26
ENDBRANCH   1  25
TORSDOF 25
ENDMDL
MODEL 3
REMARK VINA RESULT:      -8.8      1.408      2.195
REMARK SMILES Cc1nc(CSCC(=O)N2CCCC[C@@H]2C(=O)OCCOCCOCCOC(=O)c2ccc(-c3c4nc(c(-c5c(F)cc(S(=O)(=O)[O-])cc5F)c5ccc([nH]5)c(-c5c(F)cc(S(=O)(=O)[O-])cc5F)c5nc(c(-c6c(F)cc(S(=O)(=O)[O-])cc6F)c6ccc3[nH]6)C=C5)C=C4)cc2)cs1
REMARK SMILES IDX 22 1 21 2 20 3 19 4 18 5 16 6 17 7 15 8 10 9 11 10 12 11
REMARK SMILES IDX 14 12 13 13 8 14 9 15 7 16 6 17 5 18 4 19 1 20 2 21 3 22
REMARK SMILES IDX 97 23 96 24 23 25 24 26 25 27 26 28 27 29 28 30 29 31 30 32
REMARK SMILES IDX 31 33 95 34 32 35 94 36 33 37 34 38 35 39 88 40 36 41 93 42
REMARK SMILES IDX 87 43 89 44 37 45 92 46 86 47 85 48 38 50 72 51 51 52 71 53
REMARK SMILES IDX 52 54 55 55 70 56 90 57 53 58 54 59 69 61 91 62 56 63 39 64
REMARK SMILES IDX 40 65 49 66 41 67 42 68 48 69 50 70 43 71 44 72 45 73 46 74
REMARK SMILES IDX 47 75 73 76 74 77 83 78 75 79 76 80 82 81 84 82 77 83 78 84
REMARK SMILES IDX 79 85 80 86 81 87 57 88 58 89 67 90 59 91 60 92 66 93 68 94
REMARK SMILES IDX 61 95 62 96 63 97 64 98 65 99
REMARK H PARENT 89 49 55 60
REMARK Flexibility Score: inf
ROOT
ATOM      1  C   UNL A   1      33.735  29.289  26.975  1.00  0.00     0.188 C 
ENDROOT
BRANCH   1   2
ATOM      2  O   UNL A   1      33.088  28.108  27.419  1.00  0.00    -0.376 OA
BRANCH   2   3
ATOM      3  C   UNL A   1      31.676  28.087  27.251  1.00  0.00     0.202 C 
BRANCH   3   4
ATOM      4  C   UNL A   1      31.089  26.769  26.726  1.00  0.00     0.261 C 
BRANCH   4   5
ATOM      5  O   UNL A   1      31.892  25.565  26.693  1.00  0.00    -0.462 OA
BRANCH   5   6
ATOM      6  C   UNL A   1      31.389  24.319  26.531  1.00  0.00     0.328 C 
ATOM      7  O   UNL A   1      30.250  23.970  26.813  1.00  0.00    -0.250 OA
BRANCH   6   8
ATOM      8  C   UNL A   1      32.432  23.332  25.985  1.00  0.00     0.195 C 
ATOM      9  N   UNL A   1      32.708  23.515  24.554  1.00  0.00    -0.328 N 
ATOM     10  C   UNL A   1      33.627  22.578  23.922  1.00  0.00     0.120 C 
ATOM     11  C   UNL A   1      33.394  21.124  24.343  1.00  0.00     0.022 C 
ATOM     12  C   UNL A   1      32.199  21.871  26.388  1.00  0.00     0.037 C 
ATOM     13  C   UNL A   1      33.323  20.989  25.858  1.00  0.00     0.005 C 
BRANCH   9  14
ATOM     14  C   UNL A   1      31.813  24.223  23.754  1.00  0.00     0.233 C 
ATOM     15  O   UNL A   1      30.731  23.749  23.426  1.00  0.00    -0.274 OA
BRANCH  14  16
ATOM     16  C   UNL A   1      32.346  25.604  23.350  1.00  0.00     0.170 C 
BRANCH  16  17
ATOM     17  S   UNL A   1      31.498  26.366  21.915  1.00  0.00    -0.146 SA
BRANCH  17  18
ATOM     18  C   UNL A   1      31.496  28.098  22.438  1.00  0.00     0.127 C 
BRANCH  18  19
ATOM     19  C   UNL A   1      30.150  28.740  22.480  1.00  0.00     0.061 A 
ATOM     20  C   UNL A   1      28.149  31.398  21.003  1.00  0.00     0.079 C 
ATOM     21  C   UNL A   1      28.677  30.221  21.737  1.00  0.00     0.090 A 
ATOM     22  N   UNL A   1      29.920  29.819  21.641  1.00  0.00    -0.246 NA
ATOM     23  S   UNL A   1      27.682  29.290  22.780  1.00  0.00    -0.127 S 
ATOM     24  C   UNL A   1      29.027  28.289  23.149  1.00  0.00     0.091 A 
ENDBRANCH  18  19
ENDBRANCH  17  18
ENDBRANCH  16  17
ENDBRANCH  14  16
ENDBRANCH   9  14
ENDBRANCH   6   8
ENDBRANCH   5   6
ENDBRANCH   4   5
ENDBRANCH   3   4
ENDBRANCH   2   3
ENDBRANCH   1   2
BRANCH   1  25
ATOM     25  C   UNL A   1      32.825  30.517  26.902  1.00  0.00     0.188 C 
BRANCH  25  26
ATOM     26  O   UNL A   1      33.193  31.746  27.501  1.00  0.00    -0.376 OA
BRANCH  26  27
ATOM     27  C   UNL A   1      34.574  32.030  27.657  1.00  0.00     0.202 C 
BRANCH  27  28
ATOM     28  C   UNL A   1      35.016  33.211  28.539  1.00  0.00     0.261 C 
BRANCH  28  29
ATOM     29  O   UNL A   1      34.080  34.292  28.671  1.00  0.00    -0.460 OA
BRANCH  29  30
ATOM     30  C   UNL A   1      33.639  34.533  29.939  1.00  0.00     0.338 C 
ATOM     31  O   UNL A   1      32.513  34.837  30.271  1.00  0.00    -0.246 OA
BRANCH  30  32
ATOM     32  C   UNL A   1      34.691  34.095  30.901  1.00  0.00     0.060 A 
ATOM     33  C   UNL A   1      35.676  35.030  31.271  1.00  0.00     0.016 A 
ATOM     34  C   UNL A   1      34.689  32.820  31.464  1.00  0.00     0.016 A 
ATOM     35  C   UNL A   1      36.674  34.687  32.181  1.00  0.00     0.010 A 
ATOM     36  C   UNL A   1      35.722  32.458  32.337  1.00  0.00     0.010 A 
ATOM     37  C   UNL A   1      36.739  33.377  32.665  1.00  0.00    -0.014 A 
BRANCH  37  38
ATOM     38  C   UNL A   1      38.013  32.887  33.242  1.00  0.00     0.031 A 
ATOM     39  C   UNL A   1      38.876  32.020  32.363  1.00  0.00     0.074 A 
ATOM     40  C   UNL A   1      38.420  33.217  34.479  1.00  0.00     0.049 A 
ATOM     41  N   UNL A   1      39.997  31.406  32.636  1.00  0.00    -0.248 NA
ATOM     42  C   UNL A   1      38.398  31.820  30.984  1.00  0.00     0.031 C 
ATOM     43  C   UNL A   1      37.717  34.111  35.395  1.00  0.00     0.029 A 
ATOM     44  N   UNL A   1      39.534  32.823  35.178  1.00  0.00    -0.354 N 
ATOM     45  C   UNL A   1      40.349  30.735  31.470  1.00  0.00     0.074 A 
ATOM     46  C   UNL A   1      39.306  30.988  30.501  1.00  0.00     0.031 C 
ATOM     47  C   UNL A   1      38.416  34.192  36.543  1.00  0.00     0.029 A 
ATOM     48  C   UNL A   1      39.592  33.325  36.455  1.00  0.00     0.049 A 
ATOM     49  H   UNL A   1      40.227  32.235  34.799  1.00  0.00     0.167 HD
ATOM     50  C   UNL A   1      41.446  29.981  31.223  1.00  0.00     0.037 A 
ATOM     51  C   UNL A   1      40.482  33.092  37.440  1.00  0.00     0.037 A 
ATOM     52  C   UNL A   1      42.469  29.718  32.199  1.00  0.00     0.049 A 
ATOM     53  C   UNL A   1      41.637  32.156  37.187  1.00  0.00     0.074 A 
ATOM     54  C   UNL A   1      43.618  28.962  32.059  1.00  0.00     0.029 A 
ATOM     55  N   UNL A   1      42.457  30.193  33.503  1.00  0.00    -0.354 N 
ATOM     56  N   UNL A   1      41.963  31.522  36.083  1.00  0.00    -0.248 NA
ATOM     57  C   UNL A   1      42.544  31.898  38.314  1.00  0.00     0.031 C 
ATOM     58  C   UNL A   1      44.270  28.929  33.297  1.00  0.00     0.029 A 
ATOM     59  C   UNL A   1      43.563  29.721  34.190  1.00  0.00     0.049 A 
ATOM     60  H   UNL A   1      41.763  30.779  33.884  1.00  0.00     0.167 HD
ATOM     61  C   UNL A   1      43.132  30.823  36.374  1.00  0.00     0.074 A 
ATOM     62  C   UNL A   1      43.456  31.113  37.755  1.00  0.00     0.031 C 
ATOM     63  C   UNL A   1      43.874  30.022  35.567  1.00  0.00     0.037 A 
BRANCH  50  64
ATOM     64  C   UNL A   1      41.549  29.350  29.859  1.00  0.00     0.058 A 
ATOM     65  C   UNL A   1      40.977  28.098  29.572  1.00  0.00     0.135 A 
ATOM     66  C   UNL A   1      42.268  29.988  28.837  1.00  0.00     0.135 A 
ATOM     67  F   UNL A   1      40.297  27.432  30.519  1.00  0.00    -0.206 F 
ATOM     68  C   UNL A   1      41.163  27.478  28.341  1.00  0.00     0.059 A 
ATOM     69  C   UNL A   1      42.435  29.402  27.585  1.00  0.00     0.059 A 
ATOM     70  F   UNL A   1      42.838  31.184  29.053  1.00  0.00    -0.206 F 
ATOM     71  C   UNL A   1      41.902  28.135  27.356  1.00  0.00     0.060 A 
BRANCH  71  72
ATOM     72  S   UNL A   1      42.178  27.298  25.782  1.00  0.00     0.124 S 
ATOM     73  O   UNL A   1      42.271  28.428  24.864  1.00  0.00    -0.237 OA
ATOM     74  O   UNL A   1      43.423  26.577  26.026  1.00  0.00    -0.237 OA
ATOM     75  O   UNL A   1      40.992  26.461  25.629  1.00  0.00    -0.744 OA
ENDBRANCH  71  72
ENDBRANCH  50  64
BRANCH  51  76
ATOM     76  C   UNL A   1      40.325  33.767  38.757  1.00  0.00     0.058 A 
ATOM     77  C   UNL A   1      41.090  34.900  39.077  1.00  0.00     0.135 A 
ATOM     78  C   UNL A   1      39.400  33.314  39.711  1.00  0.00     0.135 A 
ATOM     79  F   UNL A   1      41.999  35.361  38.206  1.00  0.00    -0.206 F 
ATOM     80  C   UNL A   1      40.941  35.561  40.291  1.00  0.00     0.059 A 
ATOM     81  C   UNL A   1      39.215  33.973  40.923  1.00  0.00     0.059 A 
ATOM     82  F   UNL A   1      38.643  32.236  39.455  1.00  0.00    -0.206 F 
ATOM     83  C   UNL A   1      39.992  35.097  41.204  1.00  0.00     0.060 A 
BRANCH  83  84
ATOM     84  S   UNL A   1      39.752  36.017  42.740  1.00  0.00     0.124 S 
ATOM     85  O   UNL A   1      38.506  35.447  43.235  1.00  0.00    -0.237 OA
ATOM     86  O   UNL A   1      40.957  35.672  43.489  1.00  0.00    -0.237 OA
ATOM     87  O   UNL A   1      39.678  37.405  42.291  1.00  0.00    -0.744 OA
ENDBRANCH  83  84
ENDBRANCH  51  76
BRANCH  63  88
ATOM     88  C   UNL A   1      45.137  29.431  36.140  1.00  0.00     0.058 A 
ATOM     89  C   UNL A   1      45.147  28.197  36.808  1.00  0.00     0.135 A 
ATOM     90  C   UNL A   1      46.367  30.087  35.960  1.00  0.00     0.135 A 
ATOM     91  F   UNL A   1      43.999  27.530  37.011  1.00  0.00    -0.206 F 
ATOM     92  C   UNL A   1      46.326  27.645  37.300  1.00  0.00     0.059 A 
ATOM     93  C   UNL A   1      47.563  29.538  36.415  1.00  0.00     0.059 A 
ATOM     94  F   UNL A   1      46.419  31.264  35.317  1.00  0.00    -0.206 F 
ATOM     95  C   UNL A   1      47.530  28.323  37.095  1.00  0.00     0.060 A 
BRANCH  95  96
ATOM     96  S   UNL A   1      49.056  27.578  37.707  1.00  0.00     0.124 S 
ATOM     97  O   UNL A   1      49.369  28.439  38.843  1.00  0.00    -0.237 OA
ATOM     98  O   UNL A   1      48.630  26.222  38.038  1.00  0.00    -0.237 OA
ATOM     99  O   UNL A   1      49.967  27.682  36.570  1.00  0.00    -0.744 OA
ENDBRANCH  95  96
ENDBRANCH  63  88
ENDBRANCH  37  38
ENDBRANCH  30  32
ENDBRANCH  29  30
ENDBRANCH  28  29
ENDBRANCH  27  28
ENDBRANCH  26  27
ENDBRANCH  25  26
ENDBRANCH   1  25
TORSDOF 25
ENDMDL
