MODEL 1
REMARK VINA RESULT:      -9.7      0.000      0.000
REMARK SMILES O=C(Cc1c[nH]c(=O)n(Cc2ccccc2)c1=O)OCCOCCOCCOC(=O)c1ccc(-c2c3nc(c(-c4c(F)cc(S(=O)(=O)[O-])cc4F)c4ccc([nH]4)c(-c4c(F)cc(S(=O)(=O)[O-])cc4F)c4nc(c(-c5c(F)cc(S(=O)(=O)[O-])cc5F)c5ccc2[nH]5)C=C4)C=C3)cc1
REMARK SMILES IDX 23 1 22 2 21 3 20 4 19 5 2 6 1 7 3 8 4 9 5 10 17 11 6 12
REMARK SMILES IDX 9 13 18 14 7 15 8 17 10 18 11 19 12 20 16 21 13 22 15 23
REMARK SMILES IDX 14 24 24 25 25 26 26 27 27 28 28 29 29 30 30 31 31 32 32 33
REMARK SMILES IDX 96 34 33 35 95 36 34 37 35 38 36 39 89 40 37 41 94 42 88 43
REMARK SMILES IDX 90 44 38 45 93 46 87 47 86 48 39 50 73 51 52 52 72 53 53 54
REMARK SMILES IDX 56 55 71 56 91 57 54 58 55 59 70 61 92 62 57 63 40 64 41 65
REMARK SMILES IDX 50 66 42 67 43 68 49 69 51 70 44 71 45 72 46 73 47 74 48 75
REMARK SMILES IDX 74 76 75 77 84 78 76 79 77 80 83 81 85 82 78 83 79 84 80 85
REMARK SMILES IDX 81 86 82 87 58 88 59 89 68 90 60 91 61 92 67 93 69 94 62 95
REMARK SMILES IDX 63 96 64 97 65 98 66 99
REMARK H PARENT 6 16 90 49 56 60
REMARK Flexibility Score: inf
ROOT
ATOM      1  C   UNL A   1      35.283  32.053  29.710  1.00  0.00     0.188 C 
ENDROOT
BRANCH   1   2
ATOM      2  O   UNL A   1      35.030  31.877  28.331  1.00  0.00    -0.376 OA
BRANCH   2   3
ATOM      3  C   UNL A   1      35.979  31.143  27.583  1.00  0.00     0.202 C 
BRANCH   3   4
ATOM      4  C   UNL A   1      35.895  29.640  27.805  1.00  0.00     0.261 C 
BRANCH   4   5
ATOM      5  O   UNL A   1      34.590  29.027  27.679  1.00  0.00    -0.463 OA
BRANCH   5   6
ATOM      6  C   UNL A   1      33.970  28.456  26.624  1.00  0.00     0.310 C 
ATOM      7  O   UNL A   1      33.955  27.227  26.532  1.00  0.00    -0.252 OA
BRANCH   6   8
ATOM      8  C   UNL A   1      33.473  29.303  25.461  1.00  0.00     0.165 C 
BRANCH   8   9
ATOM      9  C   UNL A   1      32.809  28.662  24.296  1.00  0.00     0.045 A 
ATOM     10  C   UNL A   1      33.497  28.303  23.204  1.00  0.00     0.097 A 
ATOM     11  C   UNL A   1      31.358  28.357  24.302  1.00  0.00     0.260 A 
ATOM     12  N   UNL A   1      32.875  27.660  22.180  1.00  0.00    -0.314 N 
ATOM     13  N   UNL A   1      30.791  28.173  23.065  1.00  0.00    -0.256 N 
ATOM     14  O   UNL A   1      30.733  28.313  25.357  1.00  0.00    -0.269 OA
ATOM     15  C   UNL A   1      31.517  27.480  22.117  1.00  0.00     0.328 A 
ATOM     16  H   UNL A   1      33.428  27.305  21.447  1.00  0.00     0.171 HD
ATOM     17  O   UNL A   1      31.035  26.722  21.282  1.00  0.00    -0.248 OA
BRANCH  13  18
ATOM     18  C   UNL A   1      29.344  28.297  22.937  1.00  0.00     0.166 C 
BRANCH  18  19
ATOM     19  C   UNL A   1      28.889  29.718  22.635  1.00  0.00    -0.028 A 
ATOM     20  C   UNL A   1      28.932  30.208  21.320  1.00  0.00     0.005 A 
ATOM     21  C   UNL A   1      28.410  30.571  23.640  1.00  0.00     0.005 A 
ATOM     22  C   UNL A   1      28.560  31.516  21.017  1.00  0.00     0.000 A 
ATOM     23  C   UNL A   1      28.001  31.876  23.329  1.00  0.00     0.000 A 
ATOM     24  C   UNL A   1      28.088  32.350  22.021  1.00  0.00     0.000 A 
ENDBRANCH  18  19
ENDBRANCH  13  18
ENDBRANCH   8   9
ENDBRANCH   6   8
ENDBRANCH   5   6
ENDBRANCH   4   5
ENDBRANCH   3   4
ENDBRANCH   2   3
ENDBRANCH   1   2
BRANCH   1  25
ATOM     25  C   UNL A   1      34.744  33.357  30.320  1.00  0.00     0.188 C 
BRANCH  25  26
ATOM     26  O   UNL A   1      35.407  33.955  31.424  1.00  0.00    -0.376 OA
BRANCH  26  27
ATOM     27  C   UNL A   1      35.134  33.489  32.736  1.00  0.00     0.202 C 
BRANCH  27  28
ATOM     28  C   UNL A   1      35.837  32.213  33.231  1.00  0.00     0.261 C 
BRANCH  28  29
ATOM     29  O   UNL A   1      37.112  31.915  32.623  1.00  0.00    -0.460 OA
BRANCH  29  30
ATOM     30  C   UNL A   1      37.310  30.634  32.218  1.00  0.00     0.338 C 
ATOM     31  O   UNL A   1      36.491  29.726  32.244  1.00  0.00    -0.246 OA
BRANCH  30  32
ATOM     32  C   UNL A   1      38.634  30.502  31.563  1.00  0.00     0.060 A 
ATOM     33  C   UNL A   1      39.777  30.194  32.299  1.00  0.00     0.016 A 
ATOM     34  C   UNL A   1      38.726  30.673  30.170  1.00  0.00     0.016 A 
ATOM     35  C   UNL A   1      41.002  30.025  31.638  1.00  0.00     0.010 A 
ATOM     36  C   UNL A   1      39.955  30.524  29.515  1.00  0.00     0.010 A 
ATOM     37  C   UNL A   1      41.102  30.170  30.239  1.00  0.00    -0.014 A 
BRANCH  37  38
ATOM     38  C   UNL A   1      42.353  29.765  29.538  1.00  0.00     0.031 A 
ATOM     39  C   UNL A   1      43.529  30.686  29.378  1.00  0.00     0.074 A 
ATOM     40  C   UNL A   1      42.420  28.514  29.039  1.00  0.00     0.049 A 
ATOM     41  N   UNL A   1      44.717  30.422  28.896  1.00  0.00    -0.248 NA
ATOM     42  C   UNL A   1      43.350  32.081  29.804  1.00  0.00     0.031 C 
ATOM     43  C   UNL A   1      41.332  27.536  29.091  1.00  0.00     0.029 A 
ATOM     44  N   UNL A   1      43.439  27.846  28.408  1.00  0.00    -0.354 N 
ATOM     45  C   UNL A   1      45.445  31.601  28.989  1.00  0.00     0.074 A 
ATOM     46  C   UNL A   1      44.540  32.601  29.524  1.00  0.00     0.031 C 
ATOM     47  C   UNL A   1      41.753  26.383  28.550  1.00  0.00     0.029 A 
ATOM     48  C   UNL A   1      43.130  26.544  28.090  1.00  0.00     0.049 A 
ATOM     49  H   UNL A   1      44.309  28.259  28.202  1.00  0.00     0.167 HD
ATOM     50  C   UNL A   1      46.747  31.822  28.677  1.00  0.00     0.037 A 
ATOM     51  C   UNL A   1      43.868  25.580  27.505  1.00  0.00     0.037 A 
ATOM     52  C   UNL A   1      47.635  30.830  28.117  1.00  0.00     0.049 A 
ATOM     53  C   UNL A   1      45.295  25.865  27.123  1.00  0.00     0.074 A 
ATOM     54  C   UNL A   1      48.979  30.959  27.806  1.00  0.00     0.029 A 
ATOM     55  N   UNL A   1      47.274  29.536  27.767  1.00  0.00    -0.354 N 
ATOM     56  N   UNL A   1      45.991  26.963  27.303  1.00  0.00    -0.248 NA
ATOM     57  C   UNL A   1      46.039  24.782  26.466  1.00  0.00     0.031 C 
ATOM     58  C   UNL A   1      49.414  29.767  27.217  1.00  0.00     0.029 A 
ATOM     59  C   UNL A   1      48.359  28.872  27.215  1.00  0.00     0.049 A 
ATOM     60  H   UNL A   1      46.378  29.148  27.893  1.00  0.00     0.167 HD
ATOM     61  C   UNL A   1      47.260  26.693  26.801  1.00  0.00     0.074 A 
ATOM     62  C   UNL A   1      47.241  25.324  26.327  1.00  0.00     0.031 C 
ATOM     63  C   UNL A   1      48.340  27.510  26.738  1.00  0.00     0.037 A 
BRANCH  50  64
ATOM     64  C   UNL A   1      47.320  33.187  28.951  1.00  0.00     0.058 A 
ATOM     65  C   UNL A   1      47.940  33.481  30.174  1.00  0.00     0.135 A 
ATOM     66  C   UNL A   1      47.344  34.176  27.952  1.00  0.00     0.135 A 
ATOM     67  F   UNL A   1      47.941  32.579  31.168  1.00  0.00    -0.206 F 
ATOM     68  C   UNL A   1      48.546  34.711  30.407  1.00  0.00     0.059 A 
ATOM     69  C   UNL A   1      47.966  35.406  28.154  1.00  0.00     0.059 A 
ATOM     70  F   UNL A   1      46.773  33.946  26.759  1.00  0.00    -0.206 F 
ATOM     71  C   UNL A   1      48.555  35.667  29.389  1.00  0.00     0.060 A 
BRANCH  71  72
ATOM     72  S   UNL A   1      49.332  37.260  29.728  1.00  0.00     0.124 S 
ATOM     73  O   UNL A   1      50.744  36.889  29.733  1.00  0.00    -0.237 OA
ATOM     74  O   UNL A   1      48.892  38.064  28.592  1.00  0.00    -0.237 OA
ATOM     75  O   UNL A   1      48.778  37.643  31.023  1.00  0.00    -0.744 OA
ENDBRANCH  71  72
ENDBRANCH  50  64
BRANCH  51  76
ATOM     76  C   UNL A   1      43.273  24.236  27.278  1.00  0.00     0.058 A 
ATOM     77  C   UNL A   1      42.781  23.869  26.016  1.00  0.00     0.135 A 
ATOM     78  C   UNL A   1      43.210  23.284  28.308  1.00  0.00     0.135 A 
ATOM     79  F   UNL A   1      42.813  24.747  25.002  1.00  0.00    -0.206 F 
ATOM     80  C   UNL A   1      42.237  22.611  25.785  1.00  0.00     0.059 A 
ATOM     81  C   UNL A   1      42.697  22.009  28.093  1.00  0.00     0.059 A 
ATOM     82  F   UNL A   1      43.681  23.582  29.528  1.00  0.00    -0.206 F 
ATOM     83  C   UNL A   1      42.207  21.685  26.830  1.00  0.00     0.060 A 
BRANCH  83  84
ATOM     84  S   UNL A   1      41.546  20.037  26.500  1.00  0.00     0.124 S 
ATOM     85  O   UNL A   1      42.324  19.636  25.333  1.00  0.00    -0.237 OA
ATOM     86  O   UNL A   1      41.849  19.335  27.743  1.00  0.00    -0.237 OA
ATOM     87  O   UNL A   1      40.128  20.286  26.257  1.00  0.00    -0.744 OA
ENDBRANCH  83  84
ENDBRANCH  51  76
BRANCH  63  88
ATOM     88  C   UNL A   1      49.608  26.953  26.144  1.00  0.00     0.058 A 
ATOM     89  C   UNL A   1      49.928  27.131  24.789  1.00  0.00     0.135 A 
ATOM     90  C   UNL A   1      50.546  26.290  26.954  1.00  0.00     0.135 A 
ATOM     91  F   UNL A   1      49.065  27.751  23.968  1.00  0.00    -0.206 F 
ATOM     92  C   UNL A   1      51.123  26.660  24.255  1.00  0.00     0.059 A 
ATOM     93  C   UNL A   1      51.761  25.836  26.447  1.00  0.00     0.059 A 
ATOM     94  F   UNL A   1      50.298  26.096  28.259  1.00  0.00    -0.206 F 
ATOM     95  C   UNL A   1      52.038  26.019  25.093  1.00  0.00     0.060 A 
BRANCH  95  96
ATOM     96  S   UNL A   1      53.603  25.456  24.390  1.00  0.00     0.124 S 
ATOM     97  O   UNL A   1      53.448  25.826  22.988  1.00  0.00    -0.237 OA
ATOM     98  O   UNL A   1      54.579  26.234  25.147  1.00  0.00    -0.237 OA
ATOM     99  O   UNL A   1      53.604  24.022  24.664  1.00  0.00    -0.744 OA
ENDBRANCH  95  96
ENDBRANCH  63  88
ENDBRANCH  37  38
ENDBRANCH  30  32
ENDBRANCH  29  30
ENDBRANCH  28  29
ENDBRANCH  27  28
ENDBRANCH  26  27
ENDBRANCH  25  26
ENDBRANCH   1  25
TORSDOF 23
ENDMDL
MODEL 2
REMARK VINA RESULT:      -9.3      1.226      2.326
REMARK SMILES O=C(Cc1c[nH]c(=O)n(Cc2ccccc2)c1=O)OCCOCCOCCOC(=O)c1ccc(-c2c3nc(c(-c4c(F)cc(S(=O)(=O)[O-])cc4F)c4ccc([nH]4)c(-c4c(F)cc(S(=O)(=O)[O-])cc4F)c4nc(c(-c5c(F)cc(S(=O)(=O)[O-])cc5F)c5ccc2[nH]5)C=C4)C=C3)cc1
REMARK SMILES IDX 23 1 22 2 21 3 20 4 19 5 2 6 1 7 3 8 4 9 5 10 17 11 6 12
REMARK SMILES IDX 9 13 18 14 7 15 8 17 10 18 11 19 12 20 16 21 13 22 15 23
REMARK SMILES IDX 14 24 24 25 25 26 26 27 27 28 28 29 29 30 30 31 31 32 32 33
REMARK SMILES IDX 96 34 33 35 95 36 34 37 35 38 36 39 89 40 37 41 94 42 88 43
REMARK SMILES IDX 90 44 38 45 93 46 87 47 86 48 39 50 73 51 52 52 72 53 53 54
REMARK SMILES IDX 56 55 71 56 91 57 54 58 55 59 70 61 92 62 57 63 40 64 41 65
REMARK SMILES IDX 50 66 42 67 43 68 49 69 51 70 44 71 45 72 46 73 47 74 48 75
REMARK SMILES IDX 74 76 75 77 84 78 76 79 77 80 83 81 85 82 78 83 79 84 80 85
REMARK SMILES IDX 81 86 82 87 58 88 59 89 68 90 60 91 61 92 67 93 69 94 62 95
REMARK SMILES IDX 63 96 64 97 65 98 66 99
REMARK H PARENT 6 16 90 49 56 60
REMARK Flexibility Score: inf
ROOT
ATOM      1  C   UNL A   1      35.218  32.036  29.224  1.00  0.00     0.188 C 
ENDROOT
BRANCH   1   2
ATOM      2  O   UNL A   1      34.805  31.690  27.917  1.00  0.00    -0.376 OA
BRANCH   2   3
ATOM      3  C   UNL A   1      35.462  30.606  27.292  1.00  0.00     0.202 C 
BRANCH   3   4
ATOM      4  C   UNL A   1      34.763  29.271  27.500  1.00  0.00     0.261 C 
BRANCH   4   5
ATOM      5  O   UNL A   1      33.371  29.311  27.897  1.00  0.00    -0.463 OA
BRANCH   5   6
ATOM      6  C   UNL A   1      32.235  29.345  27.168  1.00  0.00     0.310 C 
ATOM      7  O   UNL A   1      31.488  28.365  27.178  1.00  0.00    -0.252 OA
BRANCH   6   8
ATOM      8  C   UNL A   1      31.971  30.482  26.191  1.00  0.00     0.165 C 
BRANCH   8   9
ATOM      9  C   UNL A   1      31.219  30.231  24.933  1.00  0.00     0.045 A 
ATOM     10  C   UNL A   1      30.106  30.913  24.631  1.00  0.00     0.097 A 
ATOM     11  C   UNL A   1      31.687  29.239  23.936  1.00  0.00     0.260 A 
ATOM     12  N   UNL A   1      29.476  30.709  23.443  1.00  0.00    -0.314 N 
ATOM     13  N   UNL A   1      30.730  28.794  23.057  1.00  0.00    -0.256 N 
ATOM     14  O   UNL A   1      32.847  28.841  23.947  1.00  0.00    -0.269 OA
ATOM     15  C   UNL A   1      29.824  29.712  22.567  1.00  0.00     0.328 A 
ATOM     16  H   UNL A   1      28.732  31.306  23.200  1.00  0.00     0.171 HD
ATOM     17  O   UNL A   1      29.360  29.703  21.431  1.00  0.00    -0.248 OA
BRANCH  13  18
ATOM     18  C   UNL A   1      30.966  27.543  22.345  1.00  0.00     0.166 C 
BRANCH  18  19
ATOM     19  C   UNL A   1      30.863  26.316  23.241  1.00  0.00    -0.028 A 
ATOM     20  C   UNL A   1      31.392  25.087  22.817  1.00  0.00     0.005 A 
ATOM     21  C   UNL A   1      30.256  26.371  24.505  1.00  0.00     0.005 A 
ATOM     22  C   UNL A   1      31.279  23.938  23.597  1.00  0.00     0.000 A 
ATOM     23  C   UNL A   1      30.175  25.223  25.305  1.00  0.00     0.000 A 
ATOM     24  C   UNL A   1      30.675  24.005  24.845  1.00  0.00     0.000 A 
ENDBRANCH  18  19
ENDBRANCH  13  18
ENDBRANCH   8   9
ENDBRANCH   6   8
ENDBRANCH   5   6
ENDBRANCH   4   5
ENDBRANCH   3   4
ENDBRANCH   2   3
ENDBRANCH   1   2
BRANCH   1  25
ATOM     25  C   UNL A   1      34.462  33.209  29.868  1.00  0.00     0.188 C 
BRANCH  25  26
ATOM     26  O   UNL A   1      35.014  33.883  30.989  1.00  0.00    -0.376 OA
BRANCH  26  27
ATOM     27  C   UNL A   1      34.692  33.435  32.297  1.00  0.00     0.202 C 
BRANCH  27  28
ATOM     28  C   UNL A   1      35.551  32.329  32.935  1.00  0.00     0.261 C 
BRANCH  28  29
ATOM     29  O   UNL A   1      36.809  32.051  32.286  1.00  0.00    -0.460 OA
BRANCH  29  30
ATOM     30  C   UNL A   1      37.053  30.754  31.961  1.00  0.00     0.338 C 
ATOM     31  O   UNL A   1      36.279  29.815  32.077  1.00  0.00    -0.246 OA
BRANCH  30  32
ATOM     32  C   UNL A   1      38.359  30.637  31.267  1.00  0.00     0.060 A 
ATOM     33  C   UNL A   1      39.554  30.578  31.983  1.00  0.00     0.016 A 
ATOM     34  C   UNL A   1      38.382  30.564  29.863  1.00  0.00     0.016 A 
ATOM     35  C   UNL A   1      40.765  30.412  31.296  1.00  0.00     0.010 A 
ATOM     36  C   UNL A   1      39.595  30.420  29.179  1.00  0.00     0.010 A 
ATOM     37  C   UNL A   1      40.799  30.315  29.890  1.00  0.00    -0.014 A 
BRANCH  37  38
ATOM     38  C   UNL A   1      42.059  29.914  29.204  1.00  0.00     0.031 A 
ATOM     39  C   UNL A   1      43.202  30.864  28.984  1.00  0.00     0.074 A 
ATOM     40  C   UNL A   1      42.167  28.640  28.774  1.00  0.00     0.049 A 
ATOM     41  N   UNL A   1      44.396  30.615  28.509  1.00  0.00    -0.248 NA
ATOM     42  C   UNL A   1      42.977  32.274  29.334  1.00  0.00     0.031 C 
ATOM     43  C   UNL A   1      41.113  27.630  28.888  1.00  0.00     0.029 A 
ATOM     44  N   UNL A   1      43.205  27.973  28.174  1.00  0.00    -0.354 N 
ATOM     45  C   UNL A   1      45.083  31.822  28.532  1.00  0.00     0.074 A 
ATOM     46  C   UNL A   1      44.148  32.818  29.017  1.00  0.00     0.031 C 
ATOM     47  C   UNL A   1      41.571  26.464  28.408  1.00  0.00     0.029 A 
ATOM     48  C   UNL A   1      42.939  26.646  27.930  1.00  0.00     0.049 A 
ATOM     49  H   UNL A   1      44.060  28.404  27.939  1.00  0.00     0.167 HD
ATOM     50  C   UNL A   1      46.375  32.069  28.199  1.00  0.00     0.037 A 
ATOM     51  C   UNL A   1      43.707  25.677  27.394  1.00  0.00     0.037 A 
ATOM     52  C   UNL A   1      47.295  31.078  27.688  1.00  0.00     0.049 A 
ATOM     53  C   UNL A   1      45.121  25.989  26.987  1.00  0.00     0.074 A 
ATOM     54  C   UNL A   1      48.631  31.235  27.361  1.00  0.00     0.029 A 
ATOM     55  N   UNL A   1      46.976  29.756  27.413  1.00  0.00    -0.354 N 
ATOM     56  N   UNL A   1      45.780  27.118  27.101  1.00  0.00    -0.248 NA
ATOM     57  C   UNL A   1      45.899  24.897  26.385  1.00  0.00     0.031 C 
ATOM     58  C   UNL A   1      49.104  30.028  26.836  1.00  0.00     0.029 A 
ATOM     59  C   UNL A   1      48.080  29.099  26.891  1.00  0.00     0.049 A 
ATOM     60  H   UNL A   1      46.095  29.345  27.566  1.00  0.00     0.167 HD
ATOM     61  C   UNL A   1      47.055  26.864  26.605  1.00  0.00     0.074 A 
ATOM     62  C   UNL A   1      47.081  25.472  26.208  1.00  0.00     0.031 C 
ATOM     63  C   UNL A   1      48.106  27.712  26.490  1.00  0.00     0.037 A 
BRANCH  50  64
ATOM     64  C   UNL A   1      46.903  33.466  28.393  1.00  0.00     0.058 A 
ATOM     65  C   UNL A   1      46.782  34.433  27.383  1.00  0.00     0.135 A 
ATOM     66  C   UNL A   1      47.438  33.874  29.627  1.00  0.00     0.135 A 
ATOM     67  F   UNL A   1      46.286  34.100  26.181  1.00  0.00    -0.206 F 
ATOM     68  C   UNL A   1      47.190  35.748  27.581  1.00  0.00     0.059 A 
ATOM     69  C   UNL A   1      47.831  35.190  29.856  1.00  0.00     0.059 A 
ATOM     70  F   UNL A   1      47.569  32.993  30.631  1.00  0.00    -0.206 F 
ATOM     71  C   UNL A   1      47.712  36.117  28.822  1.00  0.00     0.060 A 
BRANCH  71  72
ATOM     72  S   UNL A   1      48.250  37.825  29.042  1.00  0.00     0.124 S 
ATOM     73  O   UNL A   1      49.261  37.669  30.085  1.00  0.00    -0.237 OA
ATOM     74  O   UNL A   1      48.755  38.163  27.715  1.00  0.00    -0.237 OA
ATOM     75  O   UNL A   1      47.032  38.518  29.448  1.00  0.00    -0.744 OA
ENDBRANCH  71  72
ENDBRANCH  50  64
BRANCH  51  76
ATOM     76  C   UNL A   1      43.158  24.303  27.246  1.00  0.00     0.058 A 
ATOM     77  C   UNL A   1      42.607  23.874  26.029  1.00  0.00     0.135 A 
ATOM     78  C   UNL A   1      43.197  23.385  28.307  1.00  0.00     0.135 A 
ATOM     79  F   UNL A   1      42.541  24.718  24.988  1.00  0.00    -0.206 F 
ATOM     80  C   UNL A   1      42.105  22.587  25.871  1.00  0.00     0.059 A 
ATOM     81  C   UNL A   1      42.728  22.083  28.164  1.00  0.00     0.059 A 
ATOM     82  F   UNL A   1      43.728  23.742  29.486  1.00  0.00    -0.206 F 
ATOM     83  C   UNL A   1      42.176  21.696  26.944  1.00  0.00     0.060 A 
BRANCH  83  84
ATOM     84  S   UNL A   1      41.568  20.013  26.707  1.00  0.00     0.124 S 
ATOM     85  O   UNL A   1      40.778  19.812  27.916  1.00  0.00    -0.237 OA
ATOM     86  O   UNL A   1      40.815  20.136  25.463  1.00  0.00    -0.237 OA
ATOM     87  O   UNL A   1      42.793  19.223  26.615  1.00  0.00    -0.744 OA
ENDBRANCH  83  84
ENDBRANCH  51  76
BRANCH  63  88
ATOM     88  C   UNL A   1      49.390  27.167  25.919  1.00  0.00     0.058 A 
ATOM     89  C   UNL A   1      49.688  27.264  24.551  1.00  0.00     0.135 A 
ATOM     90  C   UNL A   1      50.362  26.599  26.759  1.00  0.00     0.135 A 
ATOM     91  F   UNL A   1      48.792  27.791  23.700  1.00  0.00    -0.206 F 
ATOM     92  C   UNL A   1      50.895  26.805  24.034  1.00  0.00     0.059 A 
ATOM     93  C   UNL A   1      51.589  26.161  26.268  1.00  0.00     0.059 A 
ATOM     94  F   UNL A   1      50.136  26.487  28.078  1.00  0.00    -0.206 F 
ATOM     95  C   UNL A   1      51.844  26.261  24.902  1.00  0.00     0.060 A 
BRANCH  95  96
ATOM     96  S   UNL A   1      53.424  25.713  24.219  1.00  0.00     0.124 S 
ATOM     97  O   UNL A   1      54.360  26.622  24.874  1.00  0.00    -0.237 OA
ATOM     98  O   UNL A   1      53.482  24.321  24.653  1.00  0.00    -0.237 OA
ATOM     99  O   UNL A   1      53.261  25.910  22.782  1.00  0.00    -0.744 OA
ENDBRANCH  95  96
ENDBRANCH  63  88
ENDBRANCH  37  38
ENDBRANCH  30  32
ENDBRANCH  29  30
ENDBRANCH  28  29
ENDBRANCH  27  28
ENDBRANCH  26  27
ENDBRANCH  25  26
ENDBRANCH   1  25
TORSDOF 23
ENDMDL
MODEL 3
REMARK VINA RESULT:      -9.3      1.546      8.528
REMARK SMILES O=C(Cc1c[nH]c(=O)n(Cc2ccccc2)c1=O)OCCOCCOCCOC(=O)c1ccc(-c2c3nc(c(-c4c(F)cc(S(=O)(=O)[O-])cc4F)c4ccc([nH]4)c(-c4c(F)cc(S(=O)(=O)[O-])cc4F)c4nc(c(-c5c(F)cc(S(=O)(=O)[O-])cc5F)c5ccc2[nH]5)C=C4)C=C3)cc1
REMARK SMILES IDX 23 1 22 2 21 3 20 4 19 5 2 6 1 7 3 8 4 9 5 10 17 11 6 12
REMARK SMILES IDX 9 13 18 14 7 15 8 17 10 18 11 19 12 20 16 21 13 22 15 23
REMARK SMILES IDX 14 24 24 25 25 26 26 27 27 28 28 29 29 30 30 31 31 32 32 33
REMARK SMILES IDX 96 34 33 35 95 36 34 37 35 38 36 39 89 40 37 41 94 42 88 43
REMARK SMILES IDX 90 44 38 45 93 46 87 47 86 48 39 50 73 51 52 52 72 53 53 54
REMARK SMILES IDX 56 55 71 56 91 57 54 58 55 59 70 61 92 62 57 63 40 64 41 65
REMARK SMILES IDX 50 66 42 67 43 68 49 69 51 70 44 71 45 72 46 73 47 74 48 75
REMARK SMILES IDX 74 76 75 77 84 78 76 79 77 80 83 81 85 82 78 83 79 84 80 85
REMARK SMILES IDX 81 86 82 87 58 88 59 89 68 90 60 91 61 92 67 93 69 94 62 95
REMARK SMILES IDX 63 96 64 97 65 98 66 99
REMARK H PARENT 6 16 90 49 56 60
REMARK Flexibility Score: inf
ROOT
ATOM      1  C   UNL A   1      34.493  32.324  28.852  1.00  0.00     0.188 C 
ENDROOT
BRANCH   1   2
ATOM      2  O   UNL A   1      33.755  32.250  27.649  1.00  0.00    -0.376 OA
BRANCH   2   3
ATOM      3  C   UNL A   1      33.832  31.047  26.911  1.00  0.00     0.202 C 
BRANCH   3   4
ATOM      4  C   UNL A   1      33.228  29.852  27.634  1.00  0.00     0.261 C 
BRANCH   4   5
ATOM      5  O   UNL A   1      31.931  29.394  27.181  1.00  0.00    -0.463 OA
BRANCH   5   6
ATOM      6  C   UNL A   1      31.577  28.578  26.164  1.00  0.00     0.310 C 
ATOM      7  O   UNL A   1      31.256  27.415  26.415  1.00  0.00    -0.252 OA
BRANCH   6   8
ATOM      8  C   UNL A   1      31.761  29.013  24.717  1.00  0.00     0.165 C 
BRANCH   8   9
ATOM      9  C   UNL A   1      32.074  28.009  23.667  1.00  0.00     0.045 A 
ATOM     10  C   UNL A   1      31.306  27.869  22.577  1.00  0.00     0.097 A 
ATOM     11  C   UNL A   1      33.271  27.140  23.757  1.00  0.00     0.260 A 
ATOM     12  N   UNL A   1      31.653  26.987  21.601  1.00  0.00    -0.314 N 
ATOM     13  N   UNL A   1      33.231  26.002  22.990  1.00  0.00    -0.256 N 
ATOM     14  O   UNL A   1      34.201  27.432  24.503  1.00  0.00    -0.269 OA
ATOM     15  C   UNL A   1      32.685  26.093  21.725  1.00  0.00     0.328 A 
ATOM     16  H   UNL A   1      31.137  26.992  20.763  1.00  0.00     0.171 HD
ATOM     17  O   UNL A   1      33.079  25.469  20.745  1.00  0.00    -0.248 OA
BRANCH  13  18
ATOM     18  C   UNL A   1      34.129  24.903  23.325  1.00  0.00     0.166 C 
BRANCH  18  19
ATOM     19  C   UNL A   1      33.757  24.201  24.624  1.00  0.00    -0.028 A 
ATOM     20  C   UNL A   1      32.424  23.836  24.872  1.00  0.00     0.005 A 
ATOM     21  C   UNL A   1      34.717  23.889  25.599  1.00  0.00     0.005 A 
ATOM     22  C   UNL A   1      32.045  23.228  26.066  1.00  0.00     0.000 A 
ATOM     23  C   UNL A   1      34.341  23.244  26.785  1.00  0.00     0.000 A 
ATOM     24  C   UNL A   1      33.004  22.925  27.023  1.00  0.00     0.000 A 
ENDBRANCH  18  19
ENDBRANCH  13  18
ENDBRANCH   8   9
ENDBRANCH   6   8
ENDBRANCH   5   6
ENDBRANCH   4   5
ENDBRANCH   3   4
ENDBRANCH   2   3
ENDBRANCH   1   2
BRANCH   1  25
ATOM     25  C   UNL A   1      34.078  33.447  29.815  1.00  0.00     0.188 C 
BRANCH  25  26
ATOM     26  O   UNL A   1      34.969  33.882  30.831  1.00  0.00    -0.376 OA
BRANCH  26  27
ATOM     27  C   UNL A   1      34.788  33.419  32.161  1.00  0.00     0.202 C 
BRANCH  27  28
ATOM     28  C   UNL A   1      35.538  32.155  32.614  1.00  0.00     0.261 C 
BRANCH  28  29
ATOM     29  O   UNL A   1      36.778  31.874  31.931  1.00  0.00    -0.460 OA
BRANCH  29  30
ATOM     30  C   UNL A   1      36.889  30.651  31.350  1.00  0.00     0.338 C 
ATOM     31  O   UNL A   1      35.979  29.869  31.115  1.00  0.00    -0.246 OA
BRANCH  30  32
ATOM     32  C   UNL A   1      38.275  30.439  30.865  1.00  0.00     0.060 A 
ATOM     33  C   UNL A   1      39.338  30.296  31.756  1.00  0.00     0.016 A 
ATOM     34  C   UNL A   1      38.510  30.362  29.481  1.00  0.00     0.016 A 
ATOM     35  C   UNL A   1      40.626  30.042  31.263  1.00  0.00     0.010 A 
ATOM     36  C   UNL A   1      39.801  30.130  28.990  1.00  0.00     0.010 A 
ATOM     37  C   UNL A   1      40.869  29.940  29.878  1.00  0.00    -0.014 A 
BRANCH  37  38
ATOM     38  C   UNL A   1      42.189  29.448  29.391  1.00  0.00     0.031 A 
ATOM     39  C   UNL A   1      42.403  28.042  28.908  1.00  0.00     0.074 A 
ATOM     40  C   UNL A   1      43.222  30.314  29.383  1.00  0.00     0.049 A 
ATOM     41  N   UNL A   1      43.466  27.520  28.349  1.00  0.00    -0.248 NA
ATOM     42  C   UNL A   1      41.290  27.098  29.077  1.00  0.00     0.031 C 
ATOM     43  C   UNL A   1      43.156  31.695  29.866  1.00  0.00     0.029 A 
ATOM     44  N   UNL A   1      44.515  30.175  28.946  1.00  0.00    -0.354 N 
ATOM     45  C   UNL A   1      43.147  26.198  28.066  1.00  0.00     0.074 A 
ATOM     46  C   UNL A   1      41.803  25.983  28.568  1.00  0.00     0.031 C 
ATOM     47  C   UNL A   1      44.343  32.286  29.665  1.00  0.00     0.029 A 
ATOM     48  C   UNL A   1      45.262  31.324  29.063  1.00  0.00     0.049 A 
ATOM     49  H   UNL A   1      44.875  29.333  28.583  1.00  0.00     0.167 HD
ATOM     50  C   UNL A   1      43.895  25.262  27.429  1.00  0.00     0.037 A 
ATOM     51  C   UNL A   1      46.539  31.584  28.718  1.00  0.00     0.037 A 
ATOM     52  C   UNL A   1      45.244  25.473  26.956  1.00  0.00     0.049 A 
ATOM     53  C   UNL A   1      47.364  30.514  28.058  1.00  0.00     0.074 A 
ATOM     54  C   UNL A   1      46.061  24.591  26.268  1.00  0.00     0.029 A 
ATOM     55  N   UNL A   1      45.983  26.635  27.133  1.00  0.00    -0.354 N 
ATOM     56  N   UNL A   1      47.012  29.296  27.718  1.00  0.00    -0.248 NA
ATOM     57  C   UNL A   1      48.756  30.851  27.730  1.00  0.00     0.031 C 
ATOM     58  C   UNL A   1      47.308  25.195  26.081  1.00  0.00     0.029 A 
ATOM     59  C   UNL A   1      47.252  26.478  26.598  1.00  0.00     0.049 A 
ATOM     60  H   UNL A   1      45.653  27.451  27.575  1.00  0.00     0.167 HD
ATOM     61  C   UNL A   1      48.132  28.733  27.116  1.00  0.00     0.074 A 
ATOM     62  C   UNL A   1      49.166  29.746  27.122  1.00  0.00     0.031 C 
ATOM     63  C   UNL A   1      48.286  27.486  26.607  1.00  0.00     0.037 A 
BRANCH  50  64
ATOM     64  C   UNL A   1      43.277  23.913  27.174  1.00  0.00     0.058 A 
ATOM     65  C   UNL A   1      43.274  22.919  28.164  1.00  0.00     0.135 A 
ATOM     66  C   UNL A   1      42.594  23.644  25.976  1.00  0.00     0.135 A 
ATOM     67  F   UNL A   1      43.917  23.116  29.326  1.00  0.00    -0.206 F 
ATOM     68  C   UNL A   1      42.633  21.699  27.970  1.00  0.00     0.059 A 
ATOM     69  C   UNL A   1      41.925  22.439  25.768  1.00  0.00     0.059 A 
ATOM     70  F   UNL A   1      42.557  24.562  24.998  1.00  0.00    -0.206 F 
ATOM     71  C   UNL A   1      41.960  21.470  26.769  1.00  0.00     0.060 A 
BRANCH  71  72
ATOM     72  S   UNL A   1      41.155  19.871  26.539  1.00  0.00     0.124 S 
ATOM     73  O   UNL A   1      42.174  19.151  25.779  1.00  0.00    -0.237 OA
ATOM     74  O   UNL A   1      40.956  19.426  27.914  1.00  0.00    -0.237 OA
ATOM     75  O   UNL A   1      39.940  20.203  25.801  1.00  0.00    -0.744 OA
ENDBRANCH  71  72
ENDBRANCH  50  64
BRANCH  51  76
ATOM     76  C   UNL A   1      47.103  32.939  28.961  1.00  0.00     0.058 A 
ATOM     77  C   UNL A   1      47.775  33.237  30.156  1.00  0.00     0.135 A 
ATOM     78  C   UNL A   1      47.006  33.953  27.995  1.00  0.00     0.135 A 
ATOM     79  F   UNL A   1      47.888  32.303  31.112  1.00  0.00    -0.206 F 
ATOM     80  C   UNL A   1      48.322  34.493  30.390  1.00  0.00     0.059 A 
ATOM     81  C   UNL A   1      47.570  35.209  28.194  1.00  0.00     0.059 A 
ATOM     82  F   UNL A   1      46.385  33.713  26.830  1.00  0.00    -0.206 F 
ATOM     83  C   UNL A   1      48.220  35.471  29.398  1.00  0.00     0.060 A 
BRANCH  83  84
ATOM     84  S   UNL A   1      48.981  37.081  29.696  1.00  0.00     0.124 S 
ATOM     85  O   UNL A   1      48.455  37.416  31.014  1.00  0.00    -0.237 OA
ATOM     86  O   UNL A   1      50.403  36.759  29.637  1.00  0.00    -0.237 OA
ATOM     87  O   UNL A   1      48.482  37.897  28.593  1.00  0.00    -0.744 OA
ENDBRANCH  83  84
ENDBRANCH  51  76
BRANCH  63  88
ATOM     88  C   UNL A   1      49.619  27.134  25.998  1.00  0.00     0.058 A 
ATOM     89  C   UNL A   1      50.681  26.652  26.779  1.00  0.00     0.135 A 
ATOM     90  C   UNL A   1      49.816  27.219  24.610  1.00  0.00     0.135 A 
ATOM     91  F   UNL A   1      50.551  26.558  28.112  1.00  0.00    -0.206 F 
ATOM     92  C   UNL A   1      51.895  26.281  26.208  1.00  0.00     0.059 A 
ATOM     93  C   UNL A   1      51.012  26.825  24.014  1.00  0.00     0.059 A 
ATOM     94  F   UNL A   1      48.834  27.667  23.813  1.00  0.00    -0.206 F 
ATOM     95  C   UNL A   1      52.049  26.364  24.823  1.00  0.00     0.060 A 
BRANCH  95  96
ATOM     96  S   UNL A   1      53.615  25.834  24.096  1.00  0.00     0.124 S 
ATOM     97  O   UNL A   1      53.717  24.462  24.582  1.00  0.00    -0.237 OA
ATOM     98  O   UNL A   1      53.358  25.983  22.667  1.00  0.00    -0.237 OA
ATOM     99  O   UNL A   1      54.585  26.771  24.655  1.00  0.00    -0.744 OA
ENDBRANCH  95  96
ENDBRANCH  63  88
ENDBRANCH  37  38
ENDBRANCH  30  32
ENDBRANCH  29  30
ENDBRANCH  28  29
ENDBRANCH  27  28
ENDBRANCH  26  27
ENDBRANCH  25  26
ENDBRANCH   1  25
TORSDOF 23
ENDMDL
