MODEL 1
REMARK VINA RESULT:     -11.6      0.000      0.000
REMARK SMILES C[C@H]1c2ccc(O)cc2OC(=O)[C@@H]1CC(=O)N[C@@H](CC1=c2ccccc2=NC1)C(=O)OCCOCCOCCOC(=O)c1ccc(-c2c3nc(c(-c4c(F)cc(S(=O)(=O)[O-])cc4F)c4ccc([nH]4)c(-c4c(F)cc(S(=O)(=O)[O-])cc4F)c4nc(c(-c5c(F)cc(S(=O)(=O)[O-])cc5F)c5ccc2[nH]5)C=C4)C=C3)cc1
REMARK SMILES IDX 35 1 34 2 33 3 32 4 31 5 29 6 30 7 18 8 17 9 15 10 16 11
REMARK SMILES IDX 14 13 13 14 1 15 2 16 3 17 4 18 9 19 11 20 5 21 8 22 10 23
REMARK SMILES IDX 12 24 6 25 7 26 19 28 20 29 21 30 28 31 22 32 26 33 27 34
REMARK SMILES IDX 23 35 25 36 24 37 36 38 37 39 38 40 39 41 40 42 41 43 42 44
REMARK SMILES IDX 43 45 44 46 108 47 45 48 107 49 46 50 47 51 48 52 101 53
REMARK SMILES IDX 49 54 106 55 100 56 102 57 50 58 105 59 99 60 98 61 51 63
REMARK SMILES IDX 85 64 64 65 84 66 65 67 68 68 83 69 103 70 66 71 67 72 82 74
REMARK SMILES IDX 104 75 69 76 52 77 53 78 62 79 54 80 55 81 61 82 63 83 56 84
REMARK SMILES IDX 57 85 58 86 59 87 60 88 86 89 87 90 96 91 88 92 89 93 95 94
REMARK SMILES IDX 97 95 90 96 91 97 92 98 93 99 94 100 70 101 71 102 80 103
REMARK SMILES IDX 72 104 73 105 79 106 81 107 74 108 75 109 76 110 77 111
REMARK SMILES IDX 78 112
REMARK H PARENT 17 12 7 27 102 62 68 73
REMARK Flexibility Score: inf
ROOT
ATOM      1  C   UNL A   1      32.077  33.133  26.943  1.00  0.00     0.188 C 
ENDROOT
BRANCH   1   2
ATOM      2  O   UNL A   1      31.472  31.858  26.879  1.00  0.00    -0.376 OA
BRANCH   2   3
ATOM      3  C   UNL A   1      32.146  30.788  26.232  1.00  0.00     0.202 C 
BRANCH   3   4
ATOM      4  C   UNL A   1      32.771  29.614  26.997  1.00  0.00     0.261 C 
BRANCH   4   5
ATOM      5  O   UNL A   1      32.604  28.325  26.382  1.00  0.00    -0.462 OA
BRANCH   5   6
ATOM      6  C   UNL A   1      31.653  27.555  26.958  1.00  0.00     0.329 C 
ATOM      7  O   UNL A   1      31.119  27.820  28.035  1.00  0.00    -0.250 OA
BRANCH   6   8
ATOM      8  C   UNL A   1      31.276  26.274  26.206  1.00  0.00     0.196 C 
BRANCH   8   9
ATOM      9  N   UNL A   1      30.990  24.936  26.758  1.00  0.00    -0.342 N 
ATOM     10  C   UNL A   1      30.820  23.740  26.101  1.00  0.00     0.221 C 
ATOM     11  O   UNL A   1      30.223  22.831  26.683  1.00  0.00    -0.275 OA
ATOM     12  H   UNL A   1      30.912  24.893  27.738  1.00  0.00     0.164 HD
BRANCH  10  13
ATOM     13  C   UNL A   1      31.468  23.482  24.736  1.00  0.00     0.116 C 
BRANCH  13  14
ATOM     14  C   UNL A   1      31.742  22.010  24.355  1.00  0.00     0.116 C 
ATOM     15  C   UNL A   1      32.854  19.784  24.964  1.00  0.00     0.014 C 
ATOM     16  C   UNL A   1      32.734  21.280  25.297  1.00  0.00     0.034 C 
ATOM     17  C   UNL A   1      34.098  21.905  25.161  1.00  0.00    -0.001 A 
ATOM     18  C   UNL A   1      35.070  21.806  26.155  1.00  0.00     0.011 A 
ATOM     19  C   UNL A   1      34.431  22.553  23.967  1.00  0.00     0.138 A 
ATOM     20  C   UNL A   1      32.333  21.889  22.981  1.00  0.00     0.315 C 
ATOM     21  C   UNL A   1      36.321  22.392  25.955  1.00  0.00     0.047 A 
ATOM     22  C   UNL A   1      35.631  23.232  23.796  1.00  0.00     0.093 A 
ATOM     23  O   UNL A   1      33.596  22.444  22.838  1.00  0.00    -0.426 OA
ATOM     24  O   UNL A   1      31.738  21.377  22.040  1.00  0.00    -0.251 OA
ATOM     25  C   UNL A   1      36.576  23.136  24.802  1.00  0.00     0.119 A 
BRANCH  25  26
ATOM     26  O   UNL A   1      37.791  23.737  24.677  1.00  0.00    -0.508 OA
ATOM     27  H   UNL A   1      38.573  23.224  24.717  1.00  0.00     0.293 HD
ENDBRANCH  25  26
ENDBRANCH  13  14
ENDBRANCH  10  13
ENDBRANCH   8   9
BRANCH   8  28
ATOM     28  C   UNL A   1      30.148  26.703  25.248  1.00  0.00     0.070 C 
BRANCH  28  29
ATOM     29  C   UNL A   1      30.416  26.796  23.736  1.00  0.00    -0.037 C 
ATOM     30  C   UNL A   1      31.668  26.953  23.289  1.00  0.00     0.001 A 
ATOM     31  C   UNL A   1      29.607  27.958  23.181  1.00  0.00     0.174 C 
ATOM     32  C   UNL A   1      32.516  26.159  22.441  1.00  0.00     0.010 A 
ATOM     33  C   UNL A   1      31.713  28.412  23.050  1.00  0.00     0.065 A 
ATOM     34  N   UNL A   1      30.588  29.053  22.998  1.00  0.00    -0.280 NA
ATOM     35  C   UNL A   1      33.635  26.744  21.972  1.00  0.00     0.001 A 
ATOM     36  C   UNL A   1      33.076  28.949  22.884  1.00  0.00     0.028 A 
ATOM     37  C   UNL A   1      33.990  28.101  22.377  1.00  0.00     0.002 A 
ENDBRANCH  28  29
ENDBRANCH   8  28
ENDBRANCH   6   8
ENDBRANCH   5   6
ENDBRANCH   4   5
ENDBRANCH   3   4
ENDBRANCH   2   3
ENDBRANCH   1   2
BRANCH   1  38
ATOM     38  C   UNL A   1      33.165  33.376  27.997  1.00  0.00     0.188 C 
BRANCH  38  39
ATOM     39  O   UNL A   1      34.523  33.401  27.632  1.00  0.00    -0.376 OA
BRANCH  39  40
ATOM     40  C   UNL A   1      35.364  32.314  27.974  1.00  0.00     0.202 C 
BRANCH  40  41
ATOM     41  C   UNL A   1      35.171  31.382  29.191  1.00  0.00     0.261 C 
BRANCH  41  42
ATOM     42  O   UNL A   1      35.875  30.136  29.210  1.00  0.00    -0.460 OA
BRANCH  42  43
ATOM     43  C   UNL A   1      36.631  29.905  30.321  1.00  0.00     0.338 C 
ATOM     44  O   UNL A   1      36.228  29.689  31.446  1.00  0.00    -0.246 OA
BRANCH  43  45
ATOM     45  C   UNL A   1      38.036  29.715  29.890  1.00  0.00     0.060 A 
ATOM     46  C   UNL A   1      38.984  29.205  30.774  1.00  0.00     0.016 A 
ATOM     47  C   UNL A   1      38.406  30.074  28.583  1.00  0.00     0.016 A 
ATOM     48  C   UNL A   1      40.299  29.026  30.337  1.00  0.00     0.010 A 
ATOM     49  C   UNL A   1      39.732  29.929  28.161  1.00  0.00     0.010 A 
ATOM     50  C   UNL A   1      40.682  29.375  29.028  1.00  0.00    -0.014 A 
BRANCH  50  51
ATOM     51  C   UNL A   1      42.029  28.991  28.534  1.00  0.00     0.031 A 
ATOM     52  C   UNL A   1      43.212  29.904  28.633  1.00  0.00     0.074 A 
ATOM     53  C   UNL A   1      42.192  27.746  28.053  1.00  0.00     0.049 A 
ATOM     54  N   UNL A   1      44.442  29.716  28.222  1.00  0.00    -0.248 NA
ATOM     55  C   UNL A   1      42.982  31.192  29.291  1.00  0.00     0.031 C 
ATOM     56  C   UNL A   1      41.136  26.739  27.967  1.00  0.00     0.029 A 
ATOM     57  N   UNL A   1      43.315  27.102  27.604  1.00  0.00    -0.354 N 
ATOM     58  C   UNL A   1      45.124  30.897  28.501  1.00  0.00     0.074 A 
ATOM     59  C   UNL A   1      44.185  31.744  29.199  1.00  0.00     0.031 C 
ATOM     60  C   UNL A   1      41.678  25.579  27.568  1.00  0.00     0.029 A 
ATOM     61  C   UNL A   1      43.106  25.774  27.324  1.00  0.00     0.049 A 
ATOM     62  H   UNL A   1      44.186  27.548  27.493  1.00  0.00     0.167 HD
ATOM     63  C   UNL A   1      46.392  31.247  28.162  1.00  0.00     0.037 A 
ATOM     64  C   UNL A   1      43.971  24.817  26.938  1.00  0.00     0.037 A 
ATOM     65  C   UNL A   1      47.357  30.323  27.612  1.00  0.00     0.049 A 
ATOM     66  C   UNL A   1      45.423  25.158  26.752  1.00  0.00     0.074 A 
ATOM     67  C   UNL A   1      48.691  30.547  27.309  1.00  0.00     0.029 A 
ATOM     68  N   UNL A   1      47.111  28.986  27.341  1.00  0.00    -0.354 N 
ATOM     69  N   UNL A   1      46.025  26.312  26.909  1.00  0.00    -0.248 NA
ATOM     70  C   UNL A   1      46.313  24.065  26.339  1.00  0.00     0.031 C 
ATOM     71  C   UNL A   1      49.249  29.348  26.854  1.00  0.00     0.029 A 
ATOM     72  C   UNL A   1      48.274  28.367  26.908  1.00  0.00     0.049 A 
ATOM     73  H   UNL A   1      46.239  28.541  27.442  1.00  0.00     0.167 HD
ATOM     74  C   UNL A   1      47.367  26.081  26.623  1.00  0.00     0.074 A 
ATOM     75  C   UNL A   1      47.493  24.672  26.312  1.00  0.00     0.031 C 
ATOM     76  C   UNL A   1      48.398  26.962  26.610  1.00  0.00     0.037 A 
BRANCH  63  77
ATOM     77  C   UNL A   1      46.822  32.687  28.337  1.00  0.00     0.058 A 
ATOM     78  C   UNL A   1      46.643  33.660  27.343  1.00  0.00     0.135 A 
ATOM     79  C   UNL A   1      47.366  33.116  29.565  1.00  0.00     0.135 A 
ATOM     80  F   UNL A   1      46.123  33.323  26.153  1.00  0.00    -0.206 F 
ATOM     81  C   UNL A   1      47.021  34.987  27.541  1.00  0.00     0.059 A 
ATOM     82  C   UNL A   1      47.707  34.447  29.802  1.00  0.00     0.059 A 
ATOM     83  F   UNL A   1      47.551  32.240  30.566  1.00  0.00    -0.206 F 
ATOM     84  C   UNL A   1      47.547  35.372  28.774  1.00  0.00     0.060 A 
BRANCH  84  85
ATOM     85  S   UNL A   1      48.005  37.103  29.012  1.00  0.00     0.124 S 
ATOM     86  O   UNL A   1      49.463  37.023  29.002  1.00  0.00    -0.237 OA
ATOM     87  O   UNL A   1      47.400  37.748  27.851  1.00  0.00    -0.237 OA
ATOM     88  O   UNL A   1      47.403  37.444  30.297  1.00  0.00    -0.744 OA
ENDBRANCH  84  85
ENDBRANCH  63  77
BRANCH  64  89
ATOM     89  C   UNL A   1      43.477  23.428  26.767  1.00  0.00     0.058 A 
ATOM     90  C   UNL A   1      43.358  22.868  25.487  1.00  0.00     0.135 A 
ATOM     91  C   UNL A   1      43.178  22.619  27.872  1.00  0.00     0.135 A 
ATOM     92  F   UNL A   1      43.634  23.606  24.402  1.00  0.00    -0.206 F 
ATOM     93  C   UNL A   1      42.950  21.552  25.308  1.00  0.00     0.059 A 
ATOM     94  C   UNL A   1      42.797  21.290  27.719  1.00  0.00     0.059 A 
ATOM     95  F   UNL A   1      43.301  23.105  29.117  1.00  0.00    -0.206 F 
ATOM     96  C   UNL A   1      42.680  20.769  26.431  1.00  0.00     0.060 A 
BRANCH  96  97
ATOM     97  S   UNL A   1      42.216  19.043  26.184  1.00  0.00     0.124 S 
ATOM     98  O   UNL A   1      42.500  18.472  27.495  1.00  0.00    -0.237 OA
ATOM     99  O   UNL A   1      40.805  19.156  25.828  1.00  0.00    -0.237 OA
ATOM    100  O   UNL A   1      43.096  18.610  25.103  1.00  0.00    -0.744 OA
ENDBRANCH  96  97
ENDBRANCH  64  89
BRANCH  76 101
ATOM    101  C   UNL A   1      49.765  26.442  26.259  1.00  0.00     0.058 A 
ATOM    102  C   UNL A   1      50.268  26.520  24.952  1.00  0.00     0.135 A 
ATOM    103  C   UNL A   1      50.615  25.934  27.258  1.00  0.00     0.135 A 
ATOM    104  F   UNL A   1      49.498  26.994  23.959  1.00  0.00    -0.206 F 
ATOM    105  C   UNL A   1      51.558  26.100  24.642  1.00  0.00     0.059 A 
ATOM    106  C   UNL A   1      51.917  25.531  26.975  1.00  0.00     0.059 A 
ATOM    107  F   UNL A   1      50.188  25.847  28.527  1.00  0.00    -0.206 F 
ATOM    108  C   UNL A   1      52.378  25.613  25.662  1.00  0.00     0.060 A 
BRANCH 108 109
ATOM    109  S   UNL A   1      54.063  25.116  25.247  1.00  0.00     0.124 S 
ATOM    110  O   UNL A   1      54.305  25.878  24.027  1.00  0.00    -0.237 OA
ATOM    111  O   UNL A   1      54.812  25.549  26.423  1.00  0.00    -0.237 OA
ATOM    112  O   UNL A   1      53.960  23.670  25.074  1.00  0.00    -0.744 OA
ENDBRANCH 108 109
ENDBRANCH  76 101
ENDBRANCH  50  51
ENDBRANCH  43  45
ENDBRANCH  42  43
ENDBRANCH  41  42
ENDBRANCH  40  41
ENDBRANCH  39  40
ENDBRANCH  38  39
ENDBRANCH   1  38
TORSDOF 26
ENDMDL
MODEL 2
REMARK VINA RESULT:     -11.3      1.283      2.219
REMARK SMILES C[C@H]1c2ccc(O)cc2OC(=O)[C@@H]1CC(=O)N[C@@H](CC1=c2ccccc2=NC1)C(=O)OCCOCCOCCOC(=O)c1ccc(-c2c3nc(c(-c4c(F)cc(S(=O)(=O)[O-])cc4F)c4ccc([nH]4)c(-c4c(F)cc(S(=O)(=O)[O-])cc4F)c4nc(c(-c5c(F)cc(S(=O)(=O)[O-])cc5F)c5ccc2[nH]5)C=C4)C=C3)cc1
REMARK SMILES IDX 35 1 34 2 33 3 32 4 31 5 29 6 30 7 18 8 17 9 15 10 16 11
REMARK SMILES IDX 14 13 13 14 1 15 2 16 3 17 4 18 9 19 11 20 5 21 8 22 10 23
REMARK SMILES IDX 12 24 6 25 7 26 19 28 20 29 21 30 28 31 22 32 26 33 27 34
REMARK SMILES IDX 23 35 25 36 24 37 36 38 37 39 38 40 39 41 40 42 41 43 42 44
REMARK SMILES IDX 43 45 44 46 108 47 45 48 107 49 46 50 47 51 48 52 101 53
REMARK SMILES IDX 49 54 106 55 100 56 102 57 50 58 105 59 99 60 98 61 51 63
REMARK SMILES IDX 85 64 64 65 84 66 65 67 68 68 83 69 103 70 66 71 67 72 82 74
REMARK SMILES IDX 104 75 69 76 52 77 53 78 62 79 54 80 55 81 61 82 63 83 56 84
REMARK SMILES IDX 57 85 58 86 59 87 60 88 86 89 87 90 96 91 88 92 89 93 95 94
REMARK SMILES IDX 97 95 90 96 91 97 92 98 93 99 94 100 70 101 71 102 80 103
REMARK SMILES IDX 72 104 73 105 79 106 81 107 74 108 75 109 76 110 77 111
REMARK SMILES IDX 78 112
REMARK H PARENT 17 12 7 27 102 62 68 73
REMARK Flexibility Score: inf
ROOT
ATOM      1  C   UNL A   1      33.718  31.773  27.833  1.00  0.00     0.188 C 
ENDROOT
BRANCH   1   2
ATOM      2  O   UNL A   1      34.358  30.967  26.866  1.00  0.00    -0.376 OA
BRANCH   2   3
ATOM      3  C   UNL A   1      34.659  29.610  27.164  1.00  0.00     0.202 C 
BRANCH   3   4
ATOM      4  C   UNL A   1      33.591  28.595  27.590  1.00  0.00     0.261 C 
BRANCH   4   5
ATOM      5  O   UNL A   1      32.718  28.148  26.538  1.00  0.00    -0.462 OA
BRANCH   5   6
ATOM      6  C   UNL A   1      31.670  27.407  26.965  1.00  0.00     0.329 C 
ATOM      7  O   UNL A   1      30.822  27.816  27.757  1.00  0.00    -0.250 OA
BRANCH   6   8
ATOM      8  C   UNL A   1      31.595  25.974  26.428  1.00  0.00     0.196 C 
BRANCH   8   9
ATOM      9  N   UNL A   1      31.644  24.708  27.183  1.00  0.00    -0.342 N 
ATOM     10  C   UNL A   1      32.345  23.556  26.911  1.00  0.00     0.221 C 
ATOM     11  O   UNL A   1      31.969  22.504  27.430  1.00  0.00    -0.275 OA
ATOM     12  H   UNL A   1      31.097  24.684  28.001  1.00  0.00     0.164 HD
BRANCH  10  13
ATOM     13  C   UNL A   1      33.643  23.588  26.095  1.00  0.00     0.116 C 
BRANCH  13  14
ATOM     14  C   UNL A   1      33.507  23.571  24.557  1.00  0.00     0.116 C 
ATOM     15  C   UNL A   1      32.291  22.652  22.498  1.00  0.00     0.014 C 
ATOM     16  C   UNL A   1      32.499  22.525  24.016  1.00  0.00     0.034 C 
ATOM     17  C   UNL A   1      33.017  21.140  24.306  1.00  0.00    -0.001 A 
ATOM     18  C   UNL A   1      32.182  20.026  24.371  1.00  0.00     0.011 A 
ATOM     19  C   UNL A   1      34.395  20.948  24.452  1.00  0.00     0.138 A 
ATOM     20  C   UNL A   1      34.811  23.254  23.884  1.00  0.00     0.315 C 
ATOM     21  C   UNL A   1      32.731  18.768  24.625  1.00  0.00     0.047 A 
ATOM     22  C   UNL A   1      34.943  19.724  24.811  1.00  0.00     0.093 A 
ATOM     23  O   UNL A   1      35.297  21.978  24.126  1.00  0.00    -0.426 OA
ATOM     24  O   UNL A   1      35.427  24.066  23.204  1.00  0.00    -0.251 OA
ATOM     25  C   UNL A   1      34.095  18.633  24.886  1.00  0.00     0.119 A 
BRANCH  25  26
ATOM     26  O   UNL A   1      34.575  17.395  25.186  1.00  0.00    -0.508 OA
ATOM     27  H   UNL A   1      34.526  16.708  24.551  1.00  0.00     0.293 HD
ENDBRANCH  25  26
ENDBRANCH  13  14
ENDBRANCH  10  13
ENDBRANCH   8   9
BRANCH   8  28
ATOM     28  C   UNL A   1      30.382  25.977  25.478  1.00  0.00     0.070 C 
BRANCH  28  29
ATOM     29  C   UNL A   1      30.585  26.217  23.972  1.00  0.00    -0.037 C 
ATOM     30  C   UNL A   1      31.724  26.762  23.530  1.00  0.00     0.001 A 
ATOM     31  C   UNL A   1      29.456  27.107  23.477  1.00  0.00     0.174 C 
ATOM     32  C   UNL A   1      32.758  26.300  22.643  1.00  0.00     0.010 A 
ATOM     33  C   UNL A   1      31.326  28.178  23.364  1.00  0.00     0.065 A 
ATOM     34  N   UNL A   1      30.061  28.453  23.346  1.00  0.00    -0.280 NA
ATOM     35  C   UNL A   1      33.641  27.215  22.201  1.00  0.00     0.001 A 
ATOM     36  C   UNL A   1      32.463  29.106  23.222  1.00  0.00     0.028 A 
ATOM     37  C   UNL A   1      33.580  28.595  22.673  1.00  0.00     0.002 A 
ENDBRANCH  28  29
ENDBRANCH   8  28
ENDBRANCH   6   8
ENDBRANCH   5   6
ENDBRANCH   4   5
ENDBRANCH   3   4
ENDBRANCH   2   3
ENDBRANCH   1   2
BRANCH   1  38
ATOM     38  C   UNL A   1      34.264  33.183  28.091  1.00  0.00     0.188 C 
BRANCH  38  39
ATOM     39  O   UNL A   1      33.993  33.845  29.303  1.00  0.00    -0.376 OA
BRANCH  39  40
ATOM     40  C   UNL A   1      34.856  33.662  30.412  1.00  0.00     0.202 C 
BRANCH  40  41
ATOM     41  C   UNL A   1      34.915  32.400  31.301  1.00  0.00     0.261 C 
BRANCH  41  42
ATOM     42  O   UNL A   1      35.889  31.398  30.993  1.00  0.00    -0.460 OA
BRANCH  42  43
ATOM     43  C   UNL A   1      36.850  31.202  31.940  1.00  0.00     0.338 C 
ATOM     44  O   UNL A   1      36.705  31.232  33.145  1.00  0.00    -0.246 OA
BRANCH  43  45
ATOM     45  C   UNL A   1      38.067  30.697  31.260  1.00  0.00     0.060 A 
ATOM     46  C   UNL A   1      38.336  31.047  29.939  1.00  0.00     0.016 A 
ATOM     47  C   UNL A   1      38.938  29.844  31.959  1.00  0.00     0.016 A 
ATOM     48  C   UNL A   1      39.496  30.567  29.327  1.00  0.00     0.010 A 
ATOM     49  C   UNL A   1      40.078  29.332  31.330  1.00  0.00     0.010 A 
ATOM     50  C   UNL A   1      40.381  29.716  30.017  1.00  0.00    -0.014 A 
BRANCH  50  51
ATOM     51  C   UNL A   1      41.695  29.384  29.412  1.00  0.00     0.031 A 
ATOM     52  C   UNL A   1      42.874  30.304  29.491  1.00  0.00     0.074 A 
ATOM     53  C   UNL A   1      41.838  28.174  28.841  1.00  0.00     0.049 A 
ATOM     54  N   UNL A   1      44.076  30.160  28.989  1.00  0.00    -0.248 NA
ATOM     55  C   UNL A   1      42.676  31.544  30.244  1.00  0.00     0.031 C 
ATOM     56  C   UNL A   1      40.788  27.160  28.760  1.00  0.00     0.029 A 
ATOM     57  N   UNL A   1      42.935  27.575  28.278  1.00  0.00    -0.354 N 
ATOM     58  C   UNL A   1      44.763  31.329  29.298  1.00  0.00     0.074 A 
ATOM     59  C   UNL A   1      43.865  32.118  30.110  1.00  0.00     0.031 C 
ATOM     60  C   UNL A   1      41.313  26.035  28.253  1.00  0.00     0.029 A 
ATOM     61  C   UNL A   1      42.719  26.265  27.929  1.00  0.00     0.049 A 
ATOM     62  H   UNL A   1      43.791  28.039  28.140  1.00  0.00     0.167 HD
ATOM     63  C   UNL A   1      46.002  31.718  28.900  1.00  0.00     0.037 A 
ATOM     64  C   UNL A   1      43.566  25.347  27.425  1.00  0.00     0.037 A 
ATOM     65  C   UNL A   1      46.938  30.845  28.228  1.00  0.00     0.049 A 
ATOM     66  C   UNL A   1      44.999  25.719  27.166  1.00  0.00     0.074 A 
ATOM     67  C   UNL A   1      48.246  31.106  27.853  1.00  0.00     0.029 A 
ATOM     68  N   UNL A   1      46.687  29.524  27.888  1.00  0.00    -0.354 N 
ATOM     69  N   UNL A   1      45.600  26.869  27.357  1.00  0.00    -0.248 NA
ATOM     70  C   UNL A   1      45.870  24.667  26.626  1.00  0.00     0.031 C 
ATOM     71  C   UNL A   1      48.784  29.946  27.286  1.00  0.00     0.029 A 
ATOM     72  C   UNL A   1      47.823  28.950  27.341  1.00  0.00     0.049 A 
ATOM     73  H   UNL A   1      45.827  29.062  28.018  1.00  0.00     0.167 HD
ATOM     74  C   UNL A   1      46.922  26.675  26.969  1.00  0.00     0.074 A 
ATOM     75  C   UNL A   1      47.040  25.291  26.560  1.00  0.00     0.031 C 
ATOM     76  C   UNL A   1      47.940  27.569  26.945  1.00  0.00     0.037 A 
BRANCH  63  77
ATOM     77  C   UNL A   1      46.430  33.150  29.138  1.00  0.00     0.058 A 
ATOM     78  C   UNL A   1      47.156  33.549  30.268  1.00  0.00     0.135 A 
ATOM     79  C   UNL A   1      46.162  34.136  28.165  1.00  0.00     0.135 A 
ATOM     80  F   UNL A   1      47.453  32.660  31.229  1.00  0.00    -0.206 F 
ATOM     81  C   UNL A   1      47.564  34.869  30.449  1.00  0.00     0.059 A 
ATOM     82  C   UNL A   1      46.602  35.452  28.302  1.00  0.00     0.059 A 
ATOM     83  F   UNL A   1      45.485  33.820  27.050  1.00  0.00    -0.206 F 
ATOM     84  C   UNL A   1      47.287  35.812  29.459  1.00  0.00     0.060 A 
BRANCH  84  85
ATOM     85  S   UNL A   1      47.850  37.510  29.707  1.00  0.00     0.124 S 
ATOM     86  O   UNL A   1      48.377  37.838  28.385  1.00  0.00    -0.237 OA
ATOM     87  O   UNL A   1      46.618  38.196  30.083  1.00  0.00    -0.237 OA
ATOM     88  O   UNL A   1      48.845  37.391  30.768  1.00  0.00    -0.744 OA
ENDBRANCH  84  85
ENDBRANCH  63  77
BRANCH  64  89
ATOM     89  C   UNL A   1      43.075  23.965  27.198  1.00  0.00     0.058 A 
ATOM     90  C   UNL A   1      42.712  23.541  25.911  1.00  0.00     0.135 A 
ATOM     91  C   UNL A   1      43.019  23.029  28.241  1.00  0.00     0.135 A 
ATOM     92  F   UNL A   1      42.751  24.403  24.884  1.00  0.00    -0.206 F 
ATOM     93  C   UNL A   1      42.303  22.237  25.667  1.00  0.00     0.059 A 
ATOM     94  C   UNL A   1      42.641  21.711  28.015  1.00  0.00     0.059 A 
ATOM     95  F   UNL A   1      43.380  23.384  29.484  1.00  0.00    -0.206 F 
ATOM     96  C   UNL A   1      42.279  21.326  26.725  1.00  0.00     0.060 A 
BRANCH  96  97
ATOM     97  S   UNL A   1      41.808  19.619  26.379  1.00  0.00     0.124 S 
ATOM     98  O   UNL A   1      40.364  19.741  26.213  1.00  0.00    -0.237 OA
ATOM     99  O   UNL A   1      42.569  19.334  25.167  1.00  0.00    -0.237 OA
ATOM    100  O   UNL A   1      42.248  18.901  27.571  1.00  0.00    -0.744 OA
ENDBRANCH  96  97
ENDBRANCH  64  89
BRANCH  76 101
ATOM    101  C   UNL A   1      49.286  27.091  26.472  1.00  0.00     0.058 A 
ATOM    102  C   UNL A   1      50.259  26.628  27.371  1.00  0.00     0.135 A 
ATOM    103  C   UNL A   1      49.578  27.019  25.099  1.00  0.00     0.135 A 
ATOM    104  F   UNL A   1      50.034  26.677  28.695  1.00  0.00    -0.206 F 
ATOM    105  C   UNL A   1      51.479  26.124  26.929  1.00  0.00     0.059 A 
ATOM    106  C   UNL A   1      50.781  26.496  24.633  1.00  0.00     0.059 A 
ATOM    107  F   UNL A   1      48.679  27.439  24.195  1.00  0.00    -0.206 F 
ATOM    108  C   UNL A   1      51.728  26.056  25.556  1.00  0.00     0.060 A 
BRANCH 108 109
ATOM    109  S   UNL A   1      53.296  25.356  25.001  1.00  0.00     0.124 S 
ATOM    110  O   UNL A   1      54.249  26.039  25.870  1.00  0.00    -0.237 OA
ATOM    111  O   UNL A   1      53.111  23.932  25.262  1.00  0.00    -0.237 OA
ATOM    112  O   UNL A   1      53.356  25.727  23.590  1.00  0.00    -0.744 OA
ENDBRANCH 108 109
ENDBRANCH  76 101
ENDBRANCH  50  51
ENDBRANCH  43  45
ENDBRANCH  42  43
ENDBRANCH  41  42
ENDBRANCH  40  41
ENDBRANCH  39  40
ENDBRANCH  38  39
ENDBRANCH   1  38
TORSDOF 26
ENDMDL
MODEL 3
REMARK VINA RESULT:     -11.1      6.141     11.733
REMARK SMILES C[C@H]1c2ccc(O)cc2OC(=O)[C@@H]1CC(=O)N[C@@H](CC1=c2ccccc2=NC1)C(=O)OCCOCCOCCOC(=O)c1ccc(-c2c3nc(c(-c4c(F)cc(S(=O)(=O)[O-])cc4F)c4ccc([nH]4)c(-c4c(F)cc(S(=O)(=O)[O-])cc4F)c4nc(c(-c5c(F)cc(S(=O)(=O)[O-])cc5F)c5ccc2[nH]5)C=C4)C=C3)cc1
REMARK SMILES IDX 35 1 34 2 33 3 32 4 31 5 29 6 30 7 18 8 17 9 15 10 16 11
REMARK SMILES IDX 14 13 13 14 1 15 2 16 3 17 4 18 9 19 11 20 5 21 8 22 10 23
REMARK SMILES IDX 12 24 6 25 7 26 19 28 20 29 21 30 28 31 22 32 26 33 27 34
REMARK SMILES IDX 23 35 25 36 24 37 36 38 37 39 38 40 39 41 40 42 41 43 42 44
REMARK SMILES IDX 43 45 44 46 108 47 45 48 107 49 46 50 47 51 48 52 101 53
REMARK SMILES IDX 49 54 106 55 100 56 102 57 50 58 105 59 99 60 98 61 51 63
REMARK SMILES IDX 85 64 64 65 84 66 65 67 68 68 83 69 103 70 66 71 67 72 82 74
REMARK SMILES IDX 104 75 69 76 52 77 53 78 62 79 54 80 55 81 61 82 63 83 56 84
REMARK SMILES IDX 57 85 58 86 59 87 60 88 86 89 87 90 96 91 88 92 89 93 95 94
REMARK SMILES IDX 97 95 90 96 91 97 92 98 93 99 94 100 70 101 71 102 80 103
REMARK SMILES IDX 72 104 73 105 79 106 81 107 74 108 75 109 76 110 77 111
REMARK SMILES IDX 78 112
REMARK H PARENT 17 12 7 27 102 62 68 73
REMARK Flexibility Score: inf
ROOT
ATOM      1  C   UNL A   1      39.641  21.715  26.472  1.00  0.00     0.188 C 
ENDROOT
BRANCH   1   2
ATOM      2  O   UNL A   1      38.877  22.885  26.268  1.00  0.00    -0.376 OA
BRANCH   2   3
ATOM      3  C   UNL A   1      37.542  22.783  25.791  1.00  0.00     0.202 C 
BRANCH   3   4
ATOM      4  C   UNL A   1      37.136  23.174  24.364  1.00  0.00     0.261 C 
BRANCH   4   5
ATOM      5  O   UNL A   1      35.771  22.885  24.016  1.00  0.00    -0.462 OA
BRANCH   5   6
ATOM      6  C   UNL A   1      34.930  23.936  24.154  1.00  0.00     0.329 C 
ATOM      7  O   UNL A   1      34.994  24.746  25.078  1.00  0.00    -0.250 OA
BRANCH   6   8
ATOM      8  C   UNL A   1      33.833  24.064  23.092  1.00  0.00     0.196 C 
BRANCH   8   9
ATOM      9  N   UNL A   1      33.860  24.831  21.832  1.00  0.00    -0.342 N 
ATOM     10  C   UNL A   1      32.821  25.408  21.139  1.00  0.00     0.221 C 
ATOM     11  O   UNL A   1      32.985  25.666  19.945  1.00  0.00    -0.275 OA
ATOM     12  H   UNL A   1      34.751  24.950  21.431  1.00  0.00     0.164 HD
BRANCH  10  13
ATOM     13  C   UNL A   1      31.537  25.850  21.851  1.00  0.00     0.116 C 
BRANCH  13  14
ATOM     14  C   UNL A   1      31.675  26.342  23.308  1.00  0.00     0.116 C 
ATOM     15  C   UNL A   1      30.525  26.866  25.536  1.00  0.00     0.014 C 
ATOM     16  C   UNL A   1      30.327  26.522  24.051  1.00  0.00     0.034 C 
ATOM     17  C   UNL A   1      29.550  27.641  23.407  1.00  0.00    -0.001 A 
ATOM     18  C   UNL A   1      28.165  27.755  23.522  1.00  0.00     0.011 A 
ATOM     19  C   UNL A   1      30.245  28.643  22.723  1.00  0.00     0.138 A 
ATOM     20  C   UNL A   1      32.354  27.678  23.385  1.00  0.00     0.315 C 
ATOM     21  C   UNL A   1      27.511  28.829  22.916  1.00  0.00     0.047 A 
ATOM     22  C   UNL A   1      29.600  29.656  22.026  1.00  0.00     0.093 A 
ATOM     23  O   UNL A   1      31.648  28.726  22.812  1.00  0.00    -0.426 OA
ATOM     24  O   UNL A   1      33.464  27.836  23.879  1.00  0.00    -0.251 OA
ATOM     25  C   UNL A   1      28.224  29.743  22.138  1.00  0.00     0.119 A 
BRANCH  25  26
ATOM     26  O   UNL A   1      27.535  30.740  21.520  1.00  0.00    -0.508 OA
ATOM     27  H   UNL A   1      27.926  31.584  21.414  1.00  0.00     0.293 HD
ENDBRANCH  25  26
ENDBRANCH  13  14
ENDBRANCH  10  13
ENDBRANCH   8   9
BRANCH   8  28
ATOM     28  C   UNL A   1      33.382  22.616  22.820  1.00  0.00     0.070 C 
BRANCH  28  29
ATOM     29  C   UNL A   1      32.303  21.967  23.704  1.00  0.00    -0.037 C 
ATOM     30  C   UNL A   1      31.982  22.519  24.880  1.00  0.00     0.001 A 
ATOM     31  C   UNL A   1      32.725  20.536  23.995  1.00  0.00     0.174 C 
ATOM     32  C   UNL A   1      30.761  23.063  25.412  1.00  0.00     0.010 A 
ATOM     33  C   UNL A   1      32.775  21.692  25.817  1.00  0.00     0.065 A 
ATOM     34  N   UNL A   1      33.246  20.567  25.381  1.00  0.00    -0.280 NA
ATOM     35  C   UNL A   1      30.721  23.296  26.737  1.00  0.00     0.001 A 
ATOM     36  C   UNL A   1      32.908  22.276  27.164  1.00  0.00     0.028 A 
ATOM     37  C   UNL A   1      31.900  23.069  27.569  1.00  0.00     0.002 A 
ENDBRANCH  28  29
ENDBRANCH   8  28
ENDBRANCH   6   8
ENDBRANCH   5   6
ENDBRANCH   4   5
ENDBRANCH   3   4
ENDBRANCH   2   3
ENDBRANCH   1   2
BRANCH   1  38
ATOM     38  C   UNL A   1      40.845  21.780  27.420  1.00  0.00     0.188 C 
BRANCH  38  39
ATOM     39  O   UNL A   1      42.142  21.504  26.950  1.00  0.00    -0.376 OA
BRANCH  39  40
ATOM     40  C   UNL A   1      42.548  21.983  25.680  1.00  0.00     0.202 C 
BRANCH  40  41
ATOM     41  C   UNL A   1      42.991  23.429  25.369  1.00  0.00     0.261 C 
BRANCH  41  42
ATOM     42  O   UNL A   1      42.901  24.406  26.412  1.00  0.00    -0.460 OA
BRANCH  42  43
ATOM     43  C   UNL A   1      42.329  25.592  26.058  1.00  0.00     0.338 C 
ATOM     44  O   UNL A   1      41.805  25.863  24.997  1.00  0.00    -0.246 OA
BRANCH  43  45
ATOM     45  C   UNL A   1      42.227  26.432  27.275  1.00  0.00     0.060 A 
ATOM     46  C   UNL A   1      42.832  27.686  27.321  1.00  0.00     0.016 A 
ATOM     47  C   UNL A   1      41.529  25.941  28.391  1.00  0.00     0.016 A 
ATOM     48  C   UNL A   1      42.711  28.462  28.477  1.00  0.00     0.010 A 
ATOM     49  C   UNL A   1      41.442  26.704  29.561  1.00  0.00     0.010 A 
ATOM     50  C   UNL A   1      42.008  27.985  29.600  1.00  0.00    -0.014 A 
BRANCH  50  51
ATOM     51  C   UNL A   1      41.730  28.904  30.732  1.00  0.00     0.031 A 
ATOM     52  C   UNL A   1      40.479  29.723  30.814  1.00  0.00     0.074 A 
ATOM     53  C   UNL A   1      42.608  28.933  31.750  1.00  0.00     0.049 A 
ATOM     54  N   UNL A   1      40.111  30.588  31.728  1.00  0.00    -0.248 NA
ATOM     55  C   UNL A   1      39.511  29.536  29.732  1.00  0.00     0.031 C 
ATOM     56  C   UNL A   1      43.830  28.133  31.823  1.00  0.00     0.029 A 
ATOM     57  N   UNL A   1      42.577  29.617  32.938  1.00  0.00    -0.354 N 
ATOM     58  C   UNL A   1      38.898  31.112  31.293  1.00  0.00     0.074 A 
ATOM     59  C   UNL A   1      38.561  30.391  30.088  1.00  0.00     0.031 C 
ATOM     60  C   UNL A   1      44.391  28.311  33.028  1.00  0.00     0.029 A 
ATOM     61  C   UNL A   1      43.597  29.273  33.790  1.00  0.00     0.049 A 
ATOM     62  H   UNL A   1      41.891  30.287  33.157  1.00  0.00     0.167 HD
ATOM     63  C   UNL A   1      38.168  32.126  31.828  1.00  0.00     0.037 A 
ATOM     64  C   UNL A   1      43.851  29.670  35.051  1.00  0.00     0.037 A 
ATOM     65  C   UNL A   1      38.444  32.715  33.119  1.00  0.00     0.049 A 
ATOM     66  C   UNL A   1      42.928  30.649  35.723  1.00  0.00     0.074 A 
ATOM     67  C   UNL A   1      37.724  33.688  33.795  1.00  0.00     0.029 A 
ATOM     68  N   UNL A   1      39.485  32.343  33.956  1.00  0.00    -0.354 N 
ATOM     69  N   UNL A   1      41.848  31.222  35.249  1.00  0.00    -0.248 NA
ATOM     70  C   UNL A   1      43.258  31.032  37.102  1.00  0.00     0.031 C 
ATOM     71  C   UNL A   1      38.331  33.905  35.036  1.00  0.00     0.029 A 
ATOM     72  C   UNL A   1      39.407  33.041  35.150  1.00  0.00     0.049 A 
ATOM     73  H   UNL A   1      40.178  31.679  33.733  1.00  0.00     0.167 HD
ATOM     74  C   UNL A   1      41.364  32.026  36.276  1.00  0.00     0.074 A 
ATOM     75  C   UNL A   1      42.253  31.843  37.405  1.00  0.00     0.031 C 
ATOM     76  C   UNL A   1      40.287  32.849  36.276  1.00  0.00     0.037 A 
BRANCH  63  77
ATOM     77  C   UNL A   1      37.021  32.701  31.027  1.00  0.00     0.058 A 
ATOM     78  C   UNL A   1      35.681  32.370  31.273  1.00  0.00     0.135 A 
ATOM     79  C   UNL A   1      37.272  33.667  30.031  1.00  0.00     0.135 A 
ATOM     80  F   UNL A   1      35.369  31.464  32.214  1.00  0.00    -0.206 F 
ATOM     81  C   UNL A   1      34.640  32.937  30.541  1.00  0.00     0.059 A 
ATOM     82  C   UNL A   1      36.243  34.282  29.318  1.00  0.00     0.059 A 
ATOM     83  F   UNL A   1      38.530  34.042  29.754  1.00  0.00    -0.206 F 
ATOM     84  C   UNL A   1      34.930  33.895  29.569  1.00  0.00     0.060 A 
BRANCH  84  85
ATOM     85  S   UNL A   1      33.560  34.634  28.653  1.00  0.00     0.124 S 
ATOM     86  O   UNL A   1      34.222  35.757  27.994  1.00  0.00    -0.237 OA
ATOM     87  O   UNL A   1      33.147  33.543  27.776  1.00  0.00    -0.237 OA
ATOM     88  O   UNL A   1      32.603  34.992  29.694  1.00  0.00    -0.744 OA
ENDBRANCH  84  85
ENDBRANCH  63  77
BRANCH  64  89
ATOM     89  C   UNL A   1      45.005  29.079  35.773  1.00  0.00     0.058 A 
ATOM     90  C   UNL A   1      44.848  27.907  36.527  1.00  0.00     0.135 A 
ATOM     91  C   UNL A   1      46.289  29.633  35.674  1.00  0.00     0.135 A 
ATOM     92  F   UNL A   1      43.637  27.344  36.648  1.00  0.00    -0.206 F 
ATOM     93  C   UNL A   1      45.926  27.307  37.165  1.00  0.00     0.059 A 
ATOM     94  C   UNL A   1      47.388  29.034  36.279  1.00  0.00     0.059 A 
ATOM     95  F   UNL A   1      46.490  30.740  34.943  1.00  0.00    -0.206 F 
ATOM     96  C   UNL A   1      47.194  27.875  37.028  1.00  0.00     0.060 A 
BRANCH  96  97
ATOM     97  S   UNL A   1      48.594  27.047  37.809  1.00  0.00     0.124 S 
ATOM     98  O   UNL A   1      47.948  26.366  38.925  1.00  0.00    -0.237 OA
ATOM     99  O   UNL A   1      49.080  26.190  36.732  1.00  0.00    -0.237 OA
ATOM    100  O   UNL A   1      49.479  28.151  38.170  1.00  0.00    -0.744 OA
ENDBRANCH  96  97
ENDBRANCH  64  89
BRANCH  76 101
ATOM    101  C   UNL A   1      39.986  33.616  37.535  1.00  0.00     0.058 A 
ATOM    102  C   UNL A   1      40.637  34.822  37.833  1.00  0.00     0.135 A 
ATOM    103  C   UNL A   1      38.976  33.183  38.413  1.00  0.00     0.135 A 
ATOM    104  F   UNL A   1      41.612  35.281  37.031  1.00  0.00    -0.206 F 
ATOM    105  C   UNL A   1      40.311  35.565  38.964  1.00  0.00     0.059 A 
ATOM    106  C   UNL A   1      38.617  33.923  39.535  1.00  0.00     0.059 A 
ATOM    107  F   UNL A   1      38.314  32.041  38.169  1.00  0.00    -0.206 F 
ATOM    108  C   UNL A   1      39.294  35.111  39.806  1.00  0.00     0.060 A 
BRANCH 108 109
ATOM    109  S   UNL A   1      38.855  36.112  41.242  1.00  0.00     0.124 S 
ATOM    110  O   UNL A   1      37.669  35.420  41.735  1.00  0.00    -0.237 OA
ATOM    111  O   UNL A   1      40.047  35.997  42.077  1.00  0.00    -0.237 OA
ATOM    112  O   UNL A   1      38.618  37.437  40.676  1.00  0.00    -0.744 OA
ENDBRANCH 108 109
ENDBRANCH  76 101
ENDBRANCH  50  51
ENDBRANCH  43  45
ENDBRANCH  42  43
ENDBRANCH  41  42
ENDBRANCH  40  41
ENDBRANCH  39  40
ENDBRANCH  38  39
ENDBRANCH   1  38
TORSDOF 26
ENDMDL
