MODEL 1
REMARK VINA RESULT:     -10.3      0.000      0.000
REMARK SMILES C/C(=N\NC(N)=S)c1nnn(-c2ccc(C(=O)OCCOCCOCCOC(=O)c3ccc(-c4c5nc(c(-c6c(F)cc(S(=O)(=O)[O-])cc6F)c6ccc([nH]6)c(-c6c(F)cc(S(=O)(=O)[O-])cc6F)c6nc(c(-c7c(F)cc(S(=O)(=O)[O-])cc7F)c7ccc4[nH]7)C=C6)C=C5)cc3)cc2)c1C
REMARK SMILES IDX 22 1 21 2 20 3 19 4 18 5 16 6 17 7 15 8 12 9 13 10 97 11
REMARK SMILES IDX 14 12 96 13 11 14 8 15 9 16 98 17 10 18 99 19 2 20 1 21 3 22
REMARK SMILES IDX 4 23 5 25 7 26 6 27 23 30 24 31 25 32 26 33 27 34 28 35
REMARK SMILES IDX 29 36 30 37 31 38 95 39 32 40 94 41 33 42 34 43 35 44 88 45
REMARK SMILES IDX 36 46 93 47 87 48 89 49 37 50 92 51 86 52 85 53 38 55 72 56
REMARK SMILES IDX 51 57 71 58 52 59 55 60 70 61 90 62 53 63 54 64 69 66 91 67
REMARK SMILES IDX 56 68 39 69 40 70 49 71 41 72 42 73 48 74 50 75 43 76 44 77
REMARK SMILES IDX 45 78 46 79 47 80 73 81 74 82 83 83 75 84 76 85 82 86 84 87
REMARK SMILES IDX 77 88 78 89 79 90 80 91 81 92 57 93 58 94 67 95 59 96 60 97
REMARK SMILES IDX 66 98 68 99 61 100 62 101 63 102 64 103 65 104
REMARK H PARENT 4 24 6 28 6 29 89 54 55 65
REMARK Flexibility Score: inf
ROOT
ATOM      1  C   UNL A   1      31.493  26.491  25.951  1.00  0.00     0.188 C 
ENDROOT
BRANCH   1   2
ATOM      2  O   UNL A   1      30.214  26.159  25.423  1.00  0.00    -0.376 OA
BRANCH   2   3
ATOM      3  C   UNL A   1      30.108  25.553  24.140  1.00  0.00     0.202 C 
BRANCH   3   4
ATOM      4  C   UNL A   1      31.357  25.442  23.250  1.00  0.00     0.261 C 
BRANCH   4   5
ATOM      5  O   UNL A   1      32.081  24.210  23.389  1.00  0.00    -0.460 OA
BRANCH   5   6
ATOM      6  C   UNL A   1      33.151  24.060  22.575  1.00  0.00     0.338 C 
ATOM      7  O   UNL A   1      33.235  24.385  21.403  1.00  0.00    -0.246 OA
BRANCH   6   8
ATOM      8  C   UNL A   1      34.309  23.545  23.341  1.00  0.00     0.060 A 
ATOM      9  C   UNL A   1      36.494  22.865  24.908  1.00  0.00     0.067 A 
ATOM     10  C   UNL A   1      35.246  23.028  25.518  1.00  0.00     0.029 A 
ATOM     11  C   UNL A   1      36.625  22.896  23.513  1.00  0.00     0.029 A 
ATOM     12  C   UNL A   1      34.161  23.399  24.729  1.00  0.00     0.018 A 
ATOM     13  C   UNL A   1      35.525  23.226  22.724  1.00  0.00     0.018 A 
BRANCH   9  14
ATOM     14  N   UNL A   1      37.645  22.918  25.724  1.00  0.00    -0.217 N 
ATOM     15  C   UNL A   1      39.633  22.487  26.502  1.00  0.00     0.132 A 
ATOM     16  N   UNL A   1      39.394  23.827  26.633  1.00  0.00    -0.128 NA
ATOM     17  C   UNL A   1      38.545  21.878  25.910  1.00  0.00     0.071 A 
ATOM     18  N   UNL A   1      38.209  24.088  26.099  1.00  0.00    -0.061 NA
ATOM     19  C   UNL A   1      38.387  20.512  25.352  1.00  0.00     0.069 C 
BRANCH  15  20
ATOM     20  C   UNL A   1      40.939  21.908  26.741  1.00  0.00     0.087 C 
ATOM     21  C   UNL A   1      41.424  21.905  28.170  1.00  0.00     0.071 C 
ATOM     22  N   UNL A   1      41.561  21.447  25.695  1.00  0.00    -0.176 NA
BRANCH  22  23
ATOM     23  N   UNL A   1      42.785  20.864  25.847  1.00  0.00    -0.254 N 
ATOM     24  H   UNL A   1      43.530  21.451  26.110  1.00  0.00     0.193 HD
BRANCH  23  25
ATOM     25  C   UNL A   1      43.074  19.527  25.665  1.00  0.00     0.184 C 
ATOM     26  S   UNL A   1      44.282  18.832  24.755  1.00  0.00    -0.040 S 
BRANCH  25  27
ATOM     27  N   UNL A   1      42.230  18.712  26.365  1.00  0.00    -0.375 N 
ATOM     28  H   UNL A   1      42.262  17.738  26.228  1.00  0.00     0.159 HD
ATOM     29  H   UNL A   1      41.590  19.099  27.005  1.00  0.00     0.159 HD
ENDBRANCH  25  27
ENDBRANCH  23  25
ENDBRANCH  22  23
ENDBRANCH  15  20
ENDBRANCH   9  14
ENDBRANCH   6   8
ENDBRANCH   5   6
ENDBRANCH   4   5
ENDBRANCH   3   4
ENDBRANCH   2   3
ENDBRANCH   1   2
BRANCH   1  30
ATOM     30  C   UNL A   1      32.021  27.943  25.894  1.00  0.00     0.188 C 
BRANCH  30  31
ATOM     31  O   UNL A   1      31.492  28.805  26.887  1.00  0.00    -0.376 OA
BRANCH  31  32
ATOM     32  C   UNL A   1      31.932  30.157  26.866  1.00  0.00     0.202 C 
BRANCH  32  33
ATOM     33  C   UNL A   1      33.381  30.420  26.456  1.00  0.00     0.261 C 
BRANCH  33  34
ATOM     34  O   UNL A   1      34.354  30.195  27.467  1.00  0.00    -0.460 OA
BRANCH  34  35
ATOM     35  C   UNL A   1      35.039  31.284  27.872  1.00  0.00     0.338 C 
ATOM     36  O   UNL A   1      34.841  32.437  27.535  1.00  0.00    -0.246 OA
BRANCH  35  37
ATOM     37  C   UNL A   1      36.127  30.840  28.754  1.00  0.00     0.060 A 
ATOM     38  C   UNL A   1      37.057  31.793  29.171  1.00  0.00     0.016 A 
ATOM     39  C   UNL A   1      36.338  29.465  28.951  1.00  0.00     0.016 A 
ATOM     40  C   UNL A   1      38.290  31.357  29.615  1.00  0.00     0.010 A 
ATOM     41  C   UNL A   1      37.572  29.032  29.378  1.00  0.00     0.010 A 
ATOM     42  C   UNL A   1      38.559  29.984  29.622  1.00  0.00    -0.014 A 
BRANCH  42  43
ATOM     43  C   UNL A   1      39.936  29.574  29.806  1.00  0.00     0.031 A 
ATOM     44  C   UNL A   1      40.370  29.368  31.201  1.00  0.00     0.074 A 
ATOM     45  C   UNL A   1      40.732  29.308  28.753  1.00  0.00     0.049 A 
ATOM     46  N   UNL A   1      41.280  30.009  31.855  1.00  0.00    -0.248 NA
ATOM     47  C   UNL A   1      39.634  28.374  31.995  1.00  0.00     0.031 C 
ATOM     48  C   UNL A   1      40.338  29.167  27.347  1.00  0.00     0.029 A 
ATOM     49  N   UNL A   1      42.056  28.993  28.741  1.00  0.00    -0.354 N 
ATOM     50  C   UNL A   1      41.381  29.362  33.081  1.00  0.00     0.074 A 
ATOM     51  C   UNL A   1      40.251  28.473  33.173  1.00  0.00     0.031 C 
ATOM     52  C   UNL A   1      41.349  28.589  26.663  1.00  0.00     0.029 A 
ATOM     53  C   UNL A   1      42.490  28.431  27.549  1.00  0.00     0.049 A 
ATOM     54  H   UNL A   1      42.652  29.150  29.508  1.00  0.00     0.167 HD
ATOM     55  C   UNL A   1      42.509  29.427  33.835  1.00  0.00     0.037 A 
ATOM     56  C   UNL A   1      43.671  27.798  27.343  1.00  0.00     0.037 A 
ATOM     57  C   UNL A   1      43.354  30.528  33.458  1.00  0.00     0.049 A 
ATOM     58  C   UNL A   1      44.605  28.229  28.417  1.00  0.00     0.074 A 
ATOM     59  C   UNL A   1      43.190  31.898  33.387  1.00  0.00     0.029 A 
ATOM     60  N   UNL A   1      44.501  30.253  32.754  1.00  0.00    -0.354 N 
ATOM     61  N   UNL A   1      45.100  29.431  28.532  1.00  0.00    -0.248 NA
ATOM     62  C   UNL A   1      44.708  27.401  29.611  1.00  0.00     0.031 C 
ATOM     63  C   UNL A   1      43.983  32.318  32.282  1.00  0.00     0.029 A 
ATOM     64  C   UNL A   1      44.602  31.185  31.753  1.00  0.00     0.049 A 
ATOM     65  H   UNL A   1      45.135  29.520  32.935  1.00  0.00     0.167 HD
ATOM     66  C   UNL A   1      45.201  29.648  29.898  1.00  0.00     0.074 A 
ATOM     67  C   UNL A   1      45.064  28.329  30.502  1.00  0.00     0.031 C 
ATOM     68  C   UNL A   1      45.110  30.904  30.426  1.00  0.00     0.037 A 
BRANCH  55  69
ATOM     69  C   UNL A   1      42.995  28.282  34.686  1.00  0.00     0.058 A 
ATOM     70  C   UNL A   1      43.285  28.496  36.046  1.00  0.00     0.135 A 
ATOM     71  C   UNL A   1      43.445  27.056  34.144  1.00  0.00     0.135 A 
ATOM     72  F   UNL A   1      42.922  29.639  36.650  1.00  0.00    -0.206 F 
ATOM     73  C   UNL A   1      44.021  27.581  36.800  1.00  0.00     0.059 A 
ATOM     74  C   UNL A   1      44.126  26.106  34.891  1.00  0.00     0.059 A 
ATOM     75  F   UNL A   1      43.334  26.771  32.840  1.00  0.00    -0.206 F 
ATOM     76  C   UNL A   1      44.453  26.398  36.206  1.00  0.00     0.060 A 
BRANCH  76  77
ATOM     77  S   UNL A   1      45.515  25.274  37.127  1.00  0.00     0.124 S 
ATOM     78  O   UNL A   1      44.543  24.309  37.626  1.00  0.00    -0.237 OA
ATOM     79  O   UNL A   1      46.424  24.791  36.093  1.00  0.00    -0.237 OA
ATOM     80  O   UNL A   1      46.124  26.140  38.132  1.00  0.00    -0.744 OA
ENDBRANCH  76  77
ENDBRANCH  55  69
BRANCH  56  81
ATOM     81  C   UNL A   1      43.934  26.624  26.473  1.00  0.00     0.058 A 
ATOM     82  C   UNL A   1      44.955  26.653  25.508  1.00  0.00     0.135 A 
ATOM     83  C   UNL A   1      43.374  25.357  26.744  1.00  0.00     0.135 A 
ATOM     84  F   UNL A   1      45.563  27.811  25.204  1.00  0.00    -0.206 F 
ATOM     85  C   UNL A   1      45.428  25.494  24.887  1.00  0.00     0.059 A 
ATOM     86  C   UNL A   1      43.813  24.191  26.122  1.00  0.00     0.059 A 
ATOM     87  F   UNL A   1      42.444  25.194  27.696  1.00  0.00    -0.206 F 
ATOM     88  C   UNL A   1      44.862  24.263  25.214  1.00  0.00     0.060 A 
BRANCH  88  89
ATOM     89  S   UNL A   1      45.587  22.746  24.554  1.00  0.00     0.124 S 
ATOM     90  O   UNL A   1      46.754  23.255  23.843  1.00  0.00    -0.237 OA
ATOM     91  O   UNL A   1      45.860  21.982  25.766  1.00  0.00    -0.237 OA
ATOM     92  O   UNL A   1      44.527  22.204  23.707  1.00  0.00    -0.744 OA
ENDBRANCH  88  89
ENDBRANCH  56  81
BRANCH  68  93
ATOM     93  C   UNL A   1      45.279  32.080  29.501  1.00  0.00     0.058 A 
ATOM     94  C   UNL A   1      46.515  32.679  29.202  1.00  0.00     0.135 A 
ATOM     95  C   UNL A   1      44.161  32.520  28.773  1.00  0.00     0.135 A 
ATOM     96  F   UNL A   1      47.647  32.244  29.774  1.00  0.00    -0.206 F 
ATOM     97  C   UNL A   1      46.626  33.698  28.255  1.00  0.00     0.059 A 
ATOM     98  C   UNL A   1      44.254  33.513  27.802  1.00  0.00     0.059 A 
ATOM     99  F   UNL A   1      42.962  31.943  28.967  1.00  0.00    -0.206 F 
ATOM    100  C   UNL A   1      45.490  34.108  27.557  1.00  0.00     0.060 A 
BRANCH 100 101
ATOM    101  S   UNL A   1      45.654  35.358  26.263  1.00  0.00     0.124 S 
ATOM    102  O   UNL A   1      44.395  36.086  26.378  1.00  0.00    -0.237 OA
ATOM    103  O   UNL A   1      46.849  36.090  26.676  1.00  0.00    -0.237 OA
ATOM    104  O   UNL A   1      45.812  34.569  25.044  1.00  0.00    -0.744 OA
ENDBRANCH 100 101
ENDBRANCH  68  93
ENDBRANCH  42  43
ENDBRANCH  35  37
ENDBRANCH  34  35
ENDBRANCH  33  34
ENDBRANCH  32  33
ENDBRANCH  31  32
ENDBRANCH  30  31
ENDBRANCH   1  30
TORSDOF 25
ENDMDL
MODEL 2
REMARK VINA RESULT:     -10.0      3.980     10.098
REMARK SMILES C/C(=N\NC(N)=S)c1nnn(-c2ccc(C(=O)OCCOCCOCCOC(=O)c3ccc(-c4c5nc(c(-c6c(F)cc(S(=O)(=O)[O-])cc6F)c6ccc([nH]6)c(-c6c(F)cc(S(=O)(=O)[O-])cc6F)c6nc(c(-c7c(F)cc(S(=O)(=O)[O-])cc7F)c7ccc4[nH]7)C=C6)C=C5)cc3)cc2)c1C
REMARK SMILES IDX 22 1 21 2 20 3 19 4 18 5 16 6 17 7 15 8 12 9 13 10 97 11
REMARK SMILES IDX 14 12 96 13 11 14 8 15 9 16 98 17 10 18 99 19 2 20 1 21 3 22
REMARK SMILES IDX 4 23 5 25 7 26 6 27 23 30 24 31 25 32 26 33 27 34 28 35
REMARK SMILES IDX 29 36 30 37 31 38 95 39 32 40 94 41 33 42 34 43 35 44 88 45
REMARK SMILES IDX 36 46 93 47 87 48 89 49 37 50 92 51 86 52 85 53 38 55 72 56
REMARK SMILES IDX 51 57 71 58 52 59 55 60 70 61 90 62 53 63 54 64 69 66 91 67
REMARK SMILES IDX 56 68 39 69 40 70 49 71 41 72 42 73 48 74 50 75 43 76 44 77
REMARK SMILES IDX 45 78 46 79 47 80 73 81 74 82 83 83 75 84 76 85 82 86 84 87
REMARK SMILES IDX 77 88 78 89 79 90 80 91 81 92 57 93 58 94 67 95 59 96 60 97
REMARK SMILES IDX 66 98 68 99 61 100 62 101 63 102 64 103 65 104
REMARK H PARENT 4 24 6 28 6 29 89 54 55 65
REMARK Flexibility Score: inf
ROOT
ATOM      1  C   UNL A   1      37.981  21.792  25.811  1.00  0.00     0.188 C 
ENDROOT
BRANCH   1   2
ATOM      2  O   UNL A   1      37.578  20.902  24.776  1.00  0.00    -0.376 OA
BRANCH   2   3
ATOM      3  C   UNL A   1      36.710  19.814  25.069  1.00  0.00     0.202 C 
BRANCH   3   4
ATOM      4  C   UNL A   1      35.264  19.836  24.546  1.00  0.00     0.261 C 
BRANCH   4   5
ATOM      5  O   UNL A   1      34.267  20.040  25.558  1.00  0.00    -0.460 OA
BRANCH   5   6
ATOM      6  C   UNL A   1      33.001  20.210  25.113  1.00  0.00     0.338 C 
ATOM      7  O   UNL A   1      32.137  19.356  25.006  1.00  0.00    -0.246 OA
BRANCH   6   8
ATOM      8  C   UNL A   1      32.730  21.646  24.877  1.00  0.00     0.060 A 
ATOM      9  C   UNL A   1      32.012  24.317  24.669  1.00  0.00     0.067 A 
ATOM     10  C   UNL A   1      32.770  23.902  25.768  1.00  0.00     0.029 A 
ATOM     11  C   UNL A   1      31.739  23.442  23.609  1.00  0.00     0.029 A 
ATOM     12  C   UNL A   1      33.100  22.554  25.881  1.00  0.00     0.018 A 
ATOM     13  C   UNL A   1      32.109  22.102  23.707  1.00  0.00     0.018 A 
BRANCH   9  14
ATOM     14  N   UNL A   1      31.324  25.547  24.761  1.00  0.00    -0.217 N 
ATOM     15  C   UNL A   1      30.734  27.606  24.366  1.00  0.00     0.132 A 
ATOM     16  N   UNL A   1      29.612  26.877  24.650  1.00  0.00    -0.128 NA
ATOM     17  C   UNL A   1      31.843  26.785  24.411  1.00  0.00     0.071 A 
ATOM     18  N   UNL A   1      29.976  25.614  24.826  1.00  0.00    -0.061 NA
ATOM     19  C   UNL A   1      33.240  27.024  23.971  1.00  0.00     0.069 C 
BRANCH  15  20
ATOM     20  C   UNL A   1      30.667  28.963  23.864  1.00  0.00     0.087 C 
ATOM     21  C   UNL A   1      31.119  30.052  24.806  1.00  0.00     0.071 C 
ATOM     22  N   UNL A   1      30.224  29.102  22.648  1.00  0.00    -0.176 NA
BRANCH  22  23
ATOM     23  N   UNL A   1      30.158  30.350  22.100  1.00  0.00    -0.254 N 
ATOM     24  H   UNL A   1      30.990  30.718  21.724  1.00  0.00     0.193 HD
BRANCH  23  25
ATOM     25  C   UNL A   1      29.031  31.142  22.025  1.00  0.00     0.184 C 
ATOM     26  S   UNL A   1      27.865  31.416  23.182  1.00  0.00    -0.040 S 
BRANCH  25  27
ATOM     27  N   UNL A   1      28.918  31.776  20.820  1.00  0.00    -0.375 N 
ATOM     28  H   UNL A   1      29.143  31.296  19.990  1.00  0.00     0.159 HD
ATOM     29  H   UNL A   1      28.612  32.710  20.782  1.00  0.00     0.159 HD
ENDBRANCH  25  27
ENDBRANCH  23  25
ENDBRANCH  22  23
ENDBRANCH  15  20
ENDBRANCH   9  14
ENDBRANCH   6   8
ENDBRANCH   5   6
ENDBRANCH   4   5
ENDBRANCH   3   4
ENDBRANCH   2   3
ENDBRANCH   1   2
BRANCH   1  30
ATOM     30  C   UNL A   1      39.402  22.400  25.823  1.00  0.00     0.188 C 
BRANCH  30  31
ATOM     31  O   UNL A   1      40.321  21.743  26.680  1.00  0.00    -0.376 OA
BRANCH  31  32
ATOM     32  C   UNL A   1      40.431  20.332  26.544  1.00  0.00     0.202 C 
BRANCH  32  33
ATOM     33  C   UNL A   1      41.758  19.775  26.026  1.00  0.00     0.261 C 
BRANCH  33  34
ATOM     34  O   UNL A   1      42.917  20.508  26.400  1.00  0.00    -0.460 OA
BRANCH  34  35
ATOM     35  C   UNL A   1      43.649  21.005  25.381  1.00  0.00     0.338 C 
ATOM     36  O   UNL A   1      44.026  20.402  24.393  1.00  0.00    -0.246 OA
BRANCH  35  37
ATOM     37  C   UNL A   1      43.976  22.403  25.691  1.00  0.00     0.060 A 
ATOM     38  C   UNL A   1      44.702  22.657  26.856  1.00  0.00     0.016 A 
ATOM     39  C   UNL A   1      43.361  23.434  24.963  1.00  0.00     0.016 A 
ATOM     40  C   UNL A   1      44.650  23.926  27.398  1.00  0.00     0.010 A 
ATOM     41  C   UNL A   1      43.297  24.695  25.513  1.00  0.00     0.010 A 
ATOM     42  C   UNL A   1      43.870  24.900  26.765  1.00  0.00    -0.014 A 
BRANCH  42  43
ATOM     43  C   UNL A   1      43.597  26.119  27.499  1.00  0.00     0.031 A 
ATOM     44  C   UNL A   1      44.635  27.165  27.428  1.00  0.00     0.074 A 
ATOM     45  C   UNL A   1      42.420  26.307  28.125  1.00  0.00     0.049 A 
ATOM     46  N   UNL A   1      45.340  27.654  28.393  1.00  0.00    -0.248 NA
ATOM     47  C   UNL A   1      44.991  27.671  26.095  1.00  0.00     0.031 C 
ATOM     48  C   UNL A   1      41.204  25.496  28.007  1.00  0.00     0.029 A 
ATOM     49  N   UNL A   1      42.030  27.342  28.917  1.00  0.00    -0.354 N 
ATOM     50  C   UNL A   1      46.085  28.680  27.825  1.00  0.00     0.074 A 
ATOM     51  C   UNL A   1      45.950  28.546  26.397  1.00  0.00     0.031 C 
ATOM     52  C   UNL A   1      40.163  26.183  28.525  1.00  0.00     0.029 A 
ATOM     53  C   UNL A   1      40.658  27.419  29.110  1.00  0.00     0.049 A 
ATOM     54  H   UNL A   1      42.663  27.980  29.318  1.00  0.00     0.167 HD
ATOM     55  C   UNL A   1      46.571  29.709  28.567  1.00  0.00     0.037 A 
ATOM     56  C   UNL A   1      39.977  28.469  29.630  1.00  0.00     0.037 A 
ATOM     57  C   UNL A   1      46.607  29.398  29.971  1.00  0.00     0.049 A 
ATOM     58  C   UNL A   1      40.945  29.295  30.399  1.00  0.00     0.074 A 
ATOM     59  C   UNL A   1      47.213  28.417  30.732  1.00  0.00     0.029 A 
ATOM     60  N   UNL A   1      45.667  29.978  30.787  1.00  0.00    -0.354 N 
ATOM     61  N   UNL A   1      41.517  28.925  31.512  1.00  0.00    -0.248 NA
ATOM     62  C   UNL A   1      41.577  30.420  29.724  1.00  0.00     0.031 C 
ATOM     63  C   UNL A   1      46.310  28.158  31.803  1.00  0.00     0.029 A 
ATOM     64  C   UNL A   1      45.215  29.008  31.646  1.00  0.00     0.049 A 
ATOM     65  H   UNL A   1      45.371  30.917  30.761  1.00  0.00     0.167 HD
ATOM     66  C   UNL A   1      42.785  29.484  31.467  1.00  0.00     0.074 A 
ATOM     67  C   UNL A   1      42.719  30.486  30.411  1.00  0.00     0.031 C 
ATOM     68  C   UNL A   1      43.844  28.896  32.098  1.00  0.00     0.037 A 
BRANCH  55  69
ATOM     69  C   UNL A   1      46.691  31.116  28.041  1.00  0.00     0.058 A 
ATOM     70  C   UNL A   1      45.533  31.827  27.677  1.00  0.00     0.135 A 
ATOM     71  C   UNL A   1      47.919  31.681  27.626  1.00  0.00     0.135 A 
ATOM     72  F   UNL A   1      44.317  31.362  28.003  1.00  0.00    -0.206 F 
ATOM     73  C   UNL A   1      45.588  32.988  26.906  1.00  0.00     0.059 A 
ATOM     74  C   UNL A   1      47.999  32.867  26.910  1.00  0.00     0.059 A 
ATOM     75  F   UNL A   1      49.089  31.055  27.808  1.00  0.00    -0.206 F 
ATOM     76  C   UNL A   1      46.827  33.488  26.512  1.00  0.00     0.060 A 
BRANCH  76  77
ATOM     77  S   UNL A   1      46.904  34.907  25.406  1.00  0.00     0.124 S 
ATOM     78  O   UNL A   1      45.810  34.613  24.489  1.00  0.00    -0.237 OA
ATOM     79  O   UNL A   1      46.690  36.023  26.322  1.00  0.00    -0.237 OA
ATOM     80  O   UNL A   1      48.248  34.817  24.842  1.00  0.00    -0.744 OA
ENDBRANCH  76  77
ENDBRANCH  55  69
BRANCH  56  81
ATOM     81  C   UNL A   1      38.630  28.960  29.244  1.00  0.00     0.058 A 
ATOM     82  C   UNL A   1      37.627  29.150  30.210  1.00  0.00     0.135 A 
ATOM     83  C   UNL A   1      38.374  29.508  27.969  1.00  0.00     0.135 A 
ATOM     84  F   UNL A   1      37.794  28.685  31.458  1.00  0.00    -0.206 F 
ATOM     85  C   UNL A   1      36.465  29.880  29.945  1.00  0.00     0.059 A 
ATOM     86  C   UNL A   1      37.214  30.220  27.675  1.00  0.00     0.059 A 
ATOM     87  F   UNL A   1      39.288  29.451  26.990  1.00  0.00    -0.206 F 
ATOM     88  C   UNL A   1      36.276  30.428  28.676  1.00  0.00     0.060 A 
BRANCH  88  89
ATOM     89  S   UNL A   1      34.869  31.522  28.379  1.00  0.00     0.124 S 
ATOM     90  O   UNL A   1      35.429  32.480  27.432  1.00  0.00    -0.237 OA
ATOM     91  O   UNL A   1      33.871  30.603  27.844  1.00  0.00    -0.237 OA
ATOM     92  O   UNL A   1      34.570  32.057  29.705  1.00  0.00    -0.744 OA
ENDBRANCH  88  89
ENDBRANCH  56  81
BRANCH  68  93
ATOM     93  C   UNL A   1      43.559  27.854  33.147  1.00  0.00     0.058 A 
ATOM     94  C   UNL A   1      43.616  26.468  32.920  1.00  0.00     0.135 A 
ATOM     95  C   UNL A   1      43.366  28.279  34.472  1.00  0.00     0.135 A 
ATOM     96  F   UNL A   1      43.902  25.981  31.704  1.00  0.00    -0.206 F 
ATOM     97  C   UNL A   1      43.447  25.548  33.956  1.00  0.00     0.059 A 
ATOM     98  C   UNL A   1      43.226  27.379  35.525  1.00  0.00     0.059 A 
ATOM     99  F   UNL A   1      43.366  29.591  34.765  1.00  0.00    -0.206 F 
ATOM    100  C   UNL A   1      43.254  26.013  35.257  1.00  0.00     0.060 A 
BRANCH 100 101
ATOM    101  S   UNL A   1      43.133  24.820  36.609  1.00  0.00     0.124 S 
ATOM    102  O   UNL A   1      43.487  23.570  35.948  1.00  0.00    -0.237 OA
ATOM    103  O   UNL A   1      44.109  25.327  37.571  1.00  0.00    -0.237 OA
ATOM    104  O   UNL A   1      41.740  24.930  37.036  1.00  0.00    -0.744 OA
ENDBRANCH 100 101
ENDBRANCH  68  93
ENDBRANCH  42  43
ENDBRANCH  35  37
ENDBRANCH  34  35
ENDBRANCH  33  34
ENDBRANCH  32  33
ENDBRANCH  31  32
ENDBRANCH  30  31
ENDBRANCH   1  30
TORSDOF 25
ENDMDL
MODEL 3
REMARK VINA RESULT:      -9.7      3.998      8.422
REMARK SMILES C/C(=N\NC(N)=S)c1nnn(-c2ccc(C(=O)OCCOCCOCCOC(=O)c3ccc(-c4c5nc(c(-c6c(F)cc(S(=O)(=O)[O-])cc6F)c6ccc([nH]6)c(-c6c(F)cc(S(=O)(=O)[O-])cc6F)c6nc(c(-c7c(F)cc(S(=O)(=O)[O-])cc7F)c7ccc4[nH]7)C=C6)C=C5)cc3)cc2)c1C
REMARK SMILES IDX 22 1 21 2 20 3 19 4 18 5 16 6 17 7 15 8 12 9 13 10 97 11
REMARK SMILES IDX 14 12 96 13 11 14 8 15 9 16 98 17 10 18 99 19 2 20 1 21 3 22
REMARK SMILES IDX 4 23 5 25 7 26 6 27 23 30 24 31 25 32 26 33 27 34 28 35
REMARK SMILES IDX 29 36 30 37 31 38 95 39 32 40 94 41 33 42 34 43 35 44 88 45
REMARK SMILES IDX 36 46 93 47 87 48 89 49 37 50 92 51 86 52 85 53 38 55 72 56
REMARK SMILES IDX 51 57 71 58 52 59 55 60 70 61 90 62 53 63 54 64 69 66 91 67
REMARK SMILES IDX 56 68 39 69 40 70 49 71 41 72 42 73 48 74 50 75 43 76 44 77
REMARK SMILES IDX 45 78 46 79 47 80 73 81 74 82 83 83 75 84 76 85 82 86 84 87
REMARK SMILES IDX 77 88 78 89 79 90 80 91 81 92 57 93 58 94 67 95 59 96 60 97
REMARK SMILES IDX 66 98 68 99 61 100 62 101 63 102 64 103 65 104
REMARK H PARENT 4 24 6 28 6 29 89 54 55 65
REMARK Flexibility Score: inf
ROOT
ATOM      1  C   UNL A   1      32.218  22.387  26.476  1.00  0.00     0.188 C 
ENDROOT
BRANCH   1   2
ATOM      2  O   UNL A   1      31.607  22.469  25.193  1.00  0.00    -0.376 OA
BRANCH   2   3
ATOM      3  C   UNL A   1      32.316  23.042  24.101  1.00  0.00     0.202 C 
BRANCH   3   4
ATOM      4  C   UNL A   1      31.550  23.853  23.043  1.00  0.00     0.261 C 
BRANCH   4   5
ATOM      5  O   UNL A   1      31.785  25.268  23.090  1.00  0.00    -0.460 OA
BRANCH   5   6
ATOM      6  C   UNL A   1      33.059  25.662  22.865  1.00  0.00     0.338 C 
ATOM      7  O   UNL A   1      33.792  25.301  21.960  1.00  0.00    -0.246 OA
BRANCH   6   8
ATOM      8  C   UNL A   1      33.440  26.731  23.816  1.00  0.00     0.060 A 
ATOM      9  C   UNL A   1      33.861  28.711  25.712  1.00  0.00     0.067 A 
ATOM     10  C   UNL A   1      33.757  27.381  26.132  1.00  0.00     0.029 A 
ATOM     11  C   UNL A   1      33.902  29.036  24.350  1.00  0.00     0.029 A 
ATOM     12  C   UNL A   1      33.515  26.397  25.177  1.00  0.00     0.018 A 
ATOM     13  C   UNL A   1      33.702  28.040  23.396  1.00  0.00     0.018 A 
BRANCH   9  14
ATOM     14  N   UNL A   1      33.674  29.728  26.673  1.00  0.00    -0.217 N 
ATOM     15  C   UNL A   1      34.108  31.366  28.042  1.00  0.00     0.132 A 
ATOM     16  N   UNL A   1      32.887  31.588  27.468  1.00  0.00    -0.128 NA
ATOM     17  C   UNL A   1      34.647  30.197  27.545  1.00  0.00     0.071 A 
ATOM     18  N   UNL A   1      32.662  30.620  26.591  1.00  0.00    -0.061 NA
ATOM     19  C   UNL A   1      36.015  29.635  27.668  1.00  0.00     0.069 C 
BRANCH  15  20
ATOM     20  C   UNL A   1      34.776  32.366  28.848  1.00  0.00     0.087 C 
ATOM     21  C   UNL A   1      35.853  33.174  28.165  1.00  0.00     0.071 C 
ATOM     22  N   UNL A   1      34.377  32.466  30.083  1.00  0.00    -0.176 NA
BRANCH  22  23
ATOM     23  N   UNL A   1      34.945  33.404  30.895  1.00  0.00    -0.254 N 
ATOM     24  H   UNL A   1      35.890  33.625  30.732  1.00  0.00     0.193 HD
BRANCH  23  25
ATOM     25  C   UNL A   1      34.314  34.072  31.925  1.00  0.00     0.184 C 
ATOM     26  S   UNL A   1      34.052  35.705  32.109  1.00  0.00    -0.040 S 
BRANCH  25  27
ATOM     27  N   UNL A   1      33.849  33.222  32.889  1.00  0.00    -0.375 N 
ATOM     28  H   UNL A   1      34.044  33.401  33.837  1.00  0.00     0.159 HD
ATOM     29  H   UNL A   1      33.320  32.432  32.635  1.00  0.00     0.159 HD
ENDBRANCH  25  27
ENDBRANCH  23  25
ENDBRANCH  22  23
ENDBRANCH  15  20
ENDBRANCH   9  14
ENDBRANCH   6   8
ENDBRANCH   5   6
ENDBRANCH   4   5
ENDBRANCH   3   4
ENDBRANCH   2   3
ENDBRANCH   1   2
BRANCH   1  30
ATOM     30  C   UNL A   1      33.641  21.807  26.640  1.00  0.00     0.188 C 
BRANCH  30  31
ATOM     31  O   UNL A   1      33.871  20.595  25.941  1.00  0.00    -0.376 OA
BRANCH  31  32
ATOM     32  C   UNL A   1      35.029  20.537  25.118  1.00  0.00     0.202 C 
BRANCH  32  33
ATOM     33  C   UNL A   1      35.960  21.751  25.125  1.00  0.00     0.261 C 
BRANCH  33  34
ATOM     34  O   UNL A   1      36.964  21.746  26.131  1.00  0.00    -0.460 OA
BRANCH  34  35
ATOM     35  C   UNL A   1      38.103  21.094  25.817  1.00  0.00     0.338 C 
ATOM     36  O   UNL A   1      38.200  19.950  25.414  1.00  0.00    -0.246 OA
BRANCH  35  37
ATOM     37  C   UNL A   1      39.235  21.985  26.105  1.00  0.00     0.060 A 
ATOM     38  C   UNL A   1      40.245  21.504  26.940  1.00  0.00     0.016 A 
ATOM     39  C   UNL A   1      39.155  23.340  25.747  1.00  0.00     0.016 A 
ATOM     40  C   UNL A   1      41.066  22.417  27.570  1.00  0.00     0.010 A 
ATOM     41  C   UNL A   1      39.964  24.250  26.388  1.00  0.00     0.010 A 
ATOM     42  C   UNL A   1      40.850  23.783  27.355  1.00  0.00    -0.014 A 
BRANCH  42  43
ATOM     43  C   UNL A   1      41.519  24.713  28.241  1.00  0.00     0.031 A 
ATOM     44  C   UNL A   1      40.859  26.020  28.424  1.00  0.00     0.074 A 
ATOM     45  C   UNL A   1      42.624  24.357  28.922  1.00  0.00     0.049 A 
ATOM     46  N   UNL A   1      41.309  27.190  28.111  1.00  0.00    -0.248 NA
ATOM     47  C   UNL A   1      39.486  26.015  28.948  1.00  0.00     0.031 C 
ATOM     48  C   UNL A   1      43.186  23.011  29.072  1.00  0.00     0.029 A 
ATOM     49  N   UNL A   1      43.415  25.119  29.724  1.00  0.00    -0.354 N 
ATOM     50  C   UNL A   1      40.364  28.090  28.588  1.00  0.00     0.074 A 
ATOM     51  C   UNL A   1      39.203  27.317  28.951  1.00  0.00     0.031 C 
ATOM     52  C   UNL A   1      44.089  23.021  30.077  1.00  0.00     0.029 A 
ATOM     53  C   UNL A   1      44.250  24.385  30.554  1.00  0.00     0.049 A 
ATOM     54  H   UNL A   1      43.398  26.103  29.717  1.00  0.00     0.167 HD
ATOM     55  C   UNL A   1      40.683  29.380  28.873  1.00  0.00     0.037 A 
ATOM     56  C   UNL A   1      44.948  24.859  31.615  1.00  0.00     0.037 A 
ATOM     57  C   UNL A   1      41.908  29.791  28.242  1.00  0.00     0.049 A 
ATOM     58  C   UNL A   1      45.070  26.331  31.451  1.00  0.00     0.074 A 
ATOM     59  C   UNL A   1      42.353  29.853  26.936  1.00  0.00     0.029 A 
ATOM     60  N   UNL A   1      43.029  29.918  29.025  1.00  0.00    -0.354 N 
ATOM     61  N   UNL A   1      45.785  26.919  30.530  1.00  0.00    -0.248 NA
ATOM     62  C   UNL A   1      44.080  27.180  32.099  1.00  0.00     0.031 C 
ATOM     63  C   UNL A   1      43.746  29.565  26.996  1.00  0.00     0.029 A 
ATOM     64  C   UNL A   1      44.077  29.362  28.336  1.00  0.00     0.049 A 
ATOM     65  H   UNL A   1      43.073  30.334  29.918  1.00  0.00     0.167 HD
ATOM     66  C   UNL A   1      45.076  28.065  30.202  1.00  0.00     0.074 A 
ATOM     67  C   UNL A   1      44.109  28.233  31.279  1.00  0.00     0.031 C 
ATOM     68  C   UNL A   1      45.152  28.614  28.954  1.00  0.00     0.037 A 
BRANCH  55  69
ATOM     69  C   UNL A   1      40.050  30.152  30.002  1.00  0.00     0.058 A 
ATOM     70  C   UNL A   1      40.249  29.736  31.331  1.00  0.00     0.135 A 
ATOM     71  C   UNL A   1      39.036  31.117  29.802  1.00  0.00     0.135 A 
ATOM     72  F   UNL A   1      41.172  28.806  31.624  1.00  0.00    -0.206 F 
ATOM     73  C   UNL A   1      39.457  30.203  32.380  1.00  0.00     0.059 A 
ATOM     74  C   UNL A   1      38.276  31.639  30.840  1.00  0.00     0.059 A 
ATOM     75  F   UNL A   1      38.667  31.519  28.579  1.00  0.00    -0.206 F 
ATOM     76  C   UNL A   1      38.461  31.140  32.119  1.00  0.00     0.060 A 
BRANCH  76  77
ATOM     77  S   UNL A   1      37.347  31.648  33.439  1.00  0.00     0.124 S 
ATOM     78  O   UNL A   1      37.846  30.853  34.554  1.00  0.00    -0.237 OA
ATOM     79  O   UNL A   1      37.593  33.085  33.515  1.00  0.00    -0.237 OA
ATOM     80  O   UNL A   1      36.032  31.272  32.929  1.00  0.00    -0.744 OA
ENDBRANCH  76  77
ENDBRANCH  55  69
BRANCH  56  81
ATOM     81  C   UNL A   1      45.234  24.167  32.898  1.00  0.00     0.058 A 
ATOM     82  C   UNL A   1      44.382  23.158  33.380  1.00  0.00     0.135 A 
ATOM     83  C   UNL A   1      46.482  24.285  33.545  1.00  0.00     0.135 A 
ATOM     84  F   UNL A   1      43.185  22.956  32.808  1.00  0.00    -0.206 F 
ATOM     85  C   UNL A   1      44.762  22.288  34.406  1.00  0.00     0.059 A 
ATOM     86  C   UNL A   1      46.874  23.445  34.584  1.00  0.00     0.059 A 
ATOM     87  F   UNL A   1      47.405  25.163  33.126  1.00  0.00    -0.206 F 
ATOM     88  C   UNL A   1      46.020  22.428  34.990  1.00  0.00     0.060 A 
BRANCH  88  89
ATOM     89  S   UNL A   1      46.589  21.199  36.186  1.00  0.00     0.124 S 
ATOM     90  O   UNL A   1      47.497  20.392  35.379  1.00  0.00    -0.237 OA
ATOM     91  O   UNL A   1      47.211  22.030  37.210  1.00  0.00    -0.237 OA
ATOM     92  O   UNL A   1      45.356  20.530  36.595  1.00  0.00    -0.744 OA
ENDBRANCH  88  89
ENDBRANCH  56  81
BRANCH  68  93
ATOM     93  C   UNL A   1      46.289  28.196  28.060  1.00  0.00     0.058 A 
ATOM     94  C   UNL A   1      46.260  27.069  27.220  1.00  0.00     0.135 A 
ATOM     95  C   UNL A   1      47.392  29.056  27.940  1.00  0.00     0.135 A 
ATOM     96  F   UNL A   1      45.194  26.256  27.196  1.00  0.00    -0.206 F 
ATOM     97  C   UNL A   1      47.300  26.788  26.333  1.00  0.00     0.059 A 
ATOM     98  C   UNL A   1      48.426  28.813  27.040  1.00  0.00     0.059 A 
ATOM     99  F   UNL A   1      47.449  30.184  28.669  1.00  0.00    -0.206 F 
ATOM    100  C   UNL A   1      48.380  27.668  26.247  1.00  0.00     0.060 A 
BRANCH 100 101
ATOM    101  S   UNL A   1      49.677  27.354  25.030  1.00  0.00     0.124 S 
ATOM    102  O   UNL A   1      49.043  27.784  23.789  1.00  0.00    -0.237 OA
ATOM    103  O   UNL A   1      50.773  28.195  25.506  1.00  0.00    -0.237 OA
ATOM    104  O   UNL A   1      49.914  25.917  25.147  1.00  0.00    -0.744 OA
ENDBRANCH 100 101
ENDBRANCH  68  93
ENDBRANCH  42  43
ENDBRANCH  35  37
ENDBRANCH  34  35
ENDBRANCH  33  34
ENDBRANCH  32  33
ENDBRANCH  31  32
ENDBRANCH  30  31
ENDBRANCH   1  30
TORSDOF 25
ENDMDL
