MODEL 1
REMARK VINA RESULT:     -11.1      0.000      0.000
REMARK SMILES C[C@@H](C(=O)OCCOCCOCCOC(=O)c1ccc(-c2c3nc(c(-c4c(F)cc(S(=O)(=O)[O-])cc4F)c4ccc([nH]4)c(-c4c(F)cc(S(=O)(=O)[O-])cc4F)c4nc(c(-c5c(F)cc(S(=O)(=O)[O-])cc5F)c5ccc2[nH]5)C=C4)C=C3)cc1)c1ccc2c3cc(Cl)ccc3n(C(=O)c3ccc(Cl)cc3)c2c1
REMARK SMILES IDX 9 1 8 2 7 3 6 4 5 5 3 6 4 7 2 8 1 9 83 10 84 11 105 12 85 13
REMARK SMILES IDX 104 14 86 15 94 16 87 17 93 18 88 19 92 20 89 21 91 22 90 23
REMARK SMILES IDX 95 24 96 25 97 26 98 27 103 28 99 29 102 30 100 31 101 32
REMARK SMILES IDX 10 33 11 34 12 35 13 36 14 37 15 38 16 39 17 40 18 41 82 42
REMARK SMILES IDX 19 43 81 44 20 45 21 46 22 47 75 48 23 49 80 50 74 51 76 52
REMARK SMILES IDX 24 53 79 54 73 55 72 56 25 58 59 59 38 60 58 61 39 62 42 63
REMARK SMILES IDX 57 64 77 65 40 66 41 67 56 69 78 70 43 71 26 72 27 73 36 74
REMARK SMILES IDX 28 75 29 76 35 77 37 78 30 79 31 80 32 81 33 82 34 83 60 84
REMARK SMILES IDX 61 85 70 86 62 87 63 88 69 89 71 90 64 91 65 92 66 93 67 94
REMARK SMILES IDX 68 95 44 96 45 97 54 98 46 99 47 100 53 101 55 102 48 103
REMARK SMILES IDX 49 104 50 105 51 106 52 107
REMARK H PARENT 76 57 42 68
REMARK Flexibility Score: inf
ROOT
ATOM      1  C   UNL A   1      45.976  20.695  24.933  1.00  0.00     0.188 C 
ENDROOT
BRANCH   1   2
ATOM      2  O   UNL A   1      45.438  19.434  25.308  1.00  0.00    -0.376 OA
BRANCH   2   3
ATOM      3  C   UNL A   1      44.163  19.074  24.787  1.00  0.00     0.202 C 
BRANCH   3   4
ATOM      4  C   UNL A   1      43.039  19.009  25.818  1.00  0.00     0.261 C 
BRANCH   4   5
ATOM      5  O   UNL A   1      42.221  20.193  25.721  1.00  0.00    -0.463 OA
BRANCH   5   6
ATOM      6  C   UNL A   1      41.555  20.532  26.853  1.00  0.00     0.313 C 
ATOM      7  O   UNL A   1      41.211  19.716  27.703  1.00  0.00    -0.252 OA
BRANCH   6   8
ATOM      8  C   UNL A   1      41.316  22.046  27.000  1.00  0.00     0.126 C 
ATOM      9  C   UNL A   1      41.841  22.672  28.296  1.00  0.00     0.025 C 
BRANCH   8  10
ATOM     10  C   UNL A   1      39.897  22.433  26.577  1.00  0.00    -0.032 A 
ATOM     11  C   UNL A   1      39.513  23.749  26.858  1.00  0.00     0.005 A 
ATOM     12  C   UNL A   1      38.968  21.566  25.950  1.00  0.00     0.032 A 
ATOM     13  C   UNL A   1      38.263  24.230  26.504  1.00  0.00     0.011 A 
ATOM     14  C   UNL A   1      37.663  22.039  25.646  1.00  0.00     0.057 A 
ATOM     15  C   UNL A   1      37.334  23.366  25.900  1.00  0.00     0.008 A 
ATOM     16  N   UNL A   1      36.522  21.387  25.090  1.00  0.00    -0.276 N 
ATOM     17  C   UNL A   1      35.984  23.564  25.549  1.00  0.00     0.009 A 
ATOM     18  C   UNL A   1      35.447  22.316  25.189  1.00  0.00     0.057 A 
ATOM     19  C   UNL A   1      35.180  24.723  25.662  1.00  0.00     0.031 A 
ATOM     20  C   UNL A   1      34.039  22.216  25.117  1.00  0.00     0.029 A 
ATOM     21  C   UNL A   1      33.810  24.624  25.496  1.00  0.00     0.041 A 
ATOM     22  C   UNL A   1      33.244  23.384  25.244  1.00  0.00     0.023 A 
ATOM     23  Cl  UNL A   1      32.833  26.025  25.715  1.00  0.00    -0.084 Cl
BRANCH  16  24
ATOM     24  C   UNL A   1      36.540  19.975  24.761  1.00  0.00     0.262 C 
ATOM     25  O   UNL A   1      37.581  19.602  24.211  1.00  0.00    -0.268 OA
BRANCH  24  26
ATOM     26  C   UNL A   1      35.461  18.899  24.820  1.00  0.00     0.040 A 
ATOM     27  C   UNL A   1      34.105  19.248  24.934  1.00  0.00     0.015 A 
ATOM     28  C   UNL A   1      35.704  17.544  24.923  1.00  0.00     0.015 A 
ATOM     29  C   UNL A   1      33.079  18.280  25.080  1.00  0.00     0.021 A 
ATOM     30  C   UNL A   1      34.702  16.551  24.994  1.00  0.00     0.021 A 
ATOM     31  C   UNL A   1      33.381  16.926  25.087  1.00  0.00     0.041 A 
ATOM     32  Cl  UNL A   1      32.154  15.734  25.253  1.00  0.00    -0.084 Cl
ENDBRANCH  24  26
ENDBRANCH  16  24
ENDBRANCH   8  10
ENDBRANCH   6   8
ENDBRANCH   5   6
ENDBRANCH   4   5
ENDBRANCH   3   4
ENDBRANCH   2   3
ENDBRANCH   1   2
BRANCH   1  33
ATOM     33  C   UNL A   1      45.039  21.721  24.268  1.00  0.00     0.188 C 
BRANCH  33  34
ATOM     34  O   UNL A   1      44.980  23.038  24.793  1.00  0.00    -0.376 OA
BRANCH  34  35
ATOM     35  C   UNL A   1      45.806  23.300  25.926  1.00  0.00     0.202 C 
BRANCH  35  36
ATOM     36  C   UNL A   1      45.738  24.739  26.432  1.00  0.00     0.261 C 
BRANCH  36  37
ATOM     37  O   UNL A   1      44.372  25.103  26.725  1.00  0.00    -0.460 OA
BRANCH  37  38
ATOM     38  C   UNL A   1      44.057  26.368  26.391  1.00  0.00     0.338 C 
ATOM     39  O   UNL A   1      44.523  26.980  25.426  1.00  0.00    -0.246 OA
BRANCH  38  40
ATOM     40  C   UNL A   1      43.030  26.966  27.279  1.00  0.00     0.060 A 
ATOM     41  C   UNL A   1      42.791  28.345  27.307  1.00  0.00     0.016 A 
ATOM     42  C   UNL A   1      42.518  26.172  28.311  1.00  0.00     0.016 A 
ATOM     43  C   UNL A   1      42.157  28.923  28.422  1.00  0.00     0.010 A 
ATOM     44  C   UNL A   1      41.915  26.760  29.438  1.00  0.00     0.010 A 
ATOM     45  C   UNL A   1      41.811  28.152  29.552  1.00  0.00    -0.014 A 
BRANCH  45  46
ATOM     46  C   UNL A   1      41.478  28.779  30.872  1.00  0.00     0.031 A 
ATOM     47  C   UNL A   1      40.293  29.702  31.075  1.00  0.00     0.074 A 
ATOM     48  C   UNL A   1      42.143  28.445  31.983  1.00  0.00     0.049 A 
ATOM     49  N   UNL A   1      40.173  30.879  31.625  1.00  0.00    -0.248 NA
ATOM     50  C   UNL A   1      39.008  29.195  30.628  1.00  0.00     0.031 C 
ATOM     51  C   UNL A   1      43.178  27.424  32.097  1.00  0.00     0.029 A 
ATOM     52  N   UNL A   1      42.031  28.977  33.238  1.00  0.00    -0.354 N 
ATOM     53  C   UNL A   1      38.858  31.297  31.355  1.00  0.00     0.074 A 
ATOM     54  C   UNL A   1      38.204  30.243  30.638  1.00  0.00     0.031 C 
ATOM     55  C   UNL A   1      43.639  27.424  33.356  1.00  0.00     0.029 A 
ATOM     56  C   UNL A   1      43.010  28.524  34.078  1.00  0.00     0.049 A 
ATOM     57  H   UNL A   1      41.327  29.611  33.505  1.00  0.00     0.167 HD
ATOM     58  C   UNL A   1      38.188  32.378  31.816  1.00  0.00     0.037 A 
ATOM     59  C   UNL A   1      43.417  29.030  35.254  1.00  0.00     0.037 A 
ATOM     60  C   UNL A   1      38.623  33.046  33.009  1.00  0.00     0.049 A 
ATOM     61  C   UNL A   1      42.694  30.221  35.809  1.00  0.00     0.074 A 
ATOM     62  C   UNL A   1      38.081  34.141  33.650  1.00  0.00     0.029 A 
ATOM     63  N   UNL A   1      39.622  32.540  33.830  1.00  0.00    -0.354 N 
ATOM     64  N   UNL A   1      41.733  30.934  35.265  1.00  0.00    -0.248 NA
ATOM     65  C   UNL A   1      43.111  30.675  37.136  1.00  0.00     0.031 C 
ATOM     66  C   UNL A   1      38.731  34.270  34.885  1.00  0.00     0.029 A 
ATOM     67  C   UNL A   1      39.666  33.251  35.006  1.00  0.00     0.049 A 
ATOM     68  H   UNL A   1      40.211  31.784  33.604  1.00  0.00     0.167 HD
ATOM     69  C   UNL A   1      41.426  31.926  36.189  1.00  0.00     0.074 A 
ATOM     70  C   UNL A   1      42.288  31.696  37.335  1.00  0.00     0.031 C 
ATOM     71  C   UNL A   1      40.533  32.946  36.111  1.00  0.00     0.037 A 
BRANCH  58  72
ATOM     72  C   UNL A   1      36.962  32.887  31.093  1.00  0.00     0.058 A 
ATOM     73  C   UNL A   1      35.639  32.769  31.546  1.00  0.00     0.135 A 
ATOM     74  C   UNL A   1      37.163  33.605  29.898  1.00  0.00     0.135 A 
ATOM     75  F   UNL A   1      35.365  32.107  32.682  1.00  0.00    -0.206 F 
ATOM     76  C   UNL A   1      34.565  33.318  30.834  1.00  0.00     0.059 A 
ATOM     77  C   UNL A   1      36.114  34.188  29.190  1.00  0.00     0.059 A 
ATOM     78  F   UNL A   1      38.404  33.766  29.412  1.00  0.00    -0.206 F 
ATOM     79  C   UNL A   1      34.814  34.029  29.659  1.00  0.00     0.060 A 
BRANCH  79  80
ATOM     80  S   UNL A   1      33.437  34.800  28.772  1.00  0.00     0.124 S 
ATOM     81  O   UNL A   1      33.147  33.798  27.751  1.00  0.00    -0.237 OA
ATOM     82  O   UNL A   1      32.428  34.950  29.815  1.00  0.00    -0.237 OA
ATOM     83  O   UNL A   1      34.011  36.050  28.281  1.00  0.00    -0.744 OA
ENDBRANCH  79  80
ENDBRANCH  58  72
BRANCH  59  84
ATOM     84  C   UNL A   1      44.610  28.420  35.886  1.00  0.00     0.058 A 
ATOM     85  C   UNL A   1      45.876  28.999  35.744  1.00  0.00     0.135 A 
ATOM     86  C   UNL A   1      44.465  27.359  36.799  1.00  0.00     0.135 A 
ATOM     87  F   UNL A   1      46.061  30.007  34.879  1.00  0.00    -0.206 F 
ATOM     88  C   UNL A   1      46.951  28.576  36.517  1.00  0.00     0.059 A 
ATOM     89  C   UNL A   1      45.517  26.942  37.604  1.00  0.00     0.059 A 
ATOM     90  F   UNL A   1      43.262  26.792  36.987  1.00  0.00    -0.206 F 
ATOM     91  C   UNL A   1      46.754  27.567  37.462  1.00  0.00     0.060 A 
BRANCH  91  92
ATOM     92  S   UNL A   1      48.107  27.156  38.586  1.00  0.00     0.124 S 
ATOM     93  O   UNL A   1      47.384  26.824  39.807  1.00  0.00    -0.237 OA
ATOM     94  O   UNL A   1      48.748  26.039  37.898  1.00  0.00    -0.237 OA
ATOM     95  O   UNL A   1      48.892  28.386  38.628  1.00  0.00    -0.744 OA
ENDBRANCH  91  92
ENDBRANCH  59  84
BRANCH  71  96
ATOM     96  C   UNL A   1      40.443  33.847  37.299  1.00  0.00     0.058 A 
ATOM     97  C   UNL A   1      41.271  34.973  37.403  1.00  0.00     0.135 A 
ATOM     98  C   UNL A   1      39.500  33.608  38.308  1.00  0.00     0.135 A 
ATOM     99  F   UNL A   1      42.180  35.234  36.451  1.00  0.00    -0.206 F 
ATOM    100  C   UNL A   1      41.192  35.819  38.498  1.00  0.00     0.059 A 
ATOM    101  C   UNL A   1      39.391  34.453  39.404  1.00  0.00     0.059 A 
ATOM    102  F   UNL A   1      38.675  32.551  38.230  1.00  0.00    -0.206 F 
ATOM    103  C   UNL A   1      40.254  35.546  39.497  1.00  0.00     0.060 A 
BRANCH 103 104
ATOM    104  S   UNL A   1      40.172  36.650  40.919  1.00  0.00     0.124 S 
ATOM    105  O   UNL A   1      41.220  37.614  40.599  1.00  0.00    -0.237 OA
ATOM    106  O   UNL A   1      38.803  37.152  40.847  1.00  0.00    -0.237 OA
ATOM    107  O   UNL A   1      40.451  35.769  42.048  1.00  0.00    -0.744 OA
ENDBRANCH 103 104
ENDBRANCH  71  96
ENDBRANCH  45  46
ENDBRANCH  38  40
ENDBRANCH  37  38
ENDBRANCH  36  37
ENDBRANCH  35  36
ENDBRANCH  34  35
ENDBRANCH  33  34
ENDBRANCH   1  33
TORSDOF 23
ENDMDL
MODEL 2
REMARK VINA RESULT:     -10.8      5.885     12.414
REMARK SMILES C[C@@H](C(=O)OCCOCCOCCOC(=O)c1ccc(-c2c3nc(c(-c4c(F)cc(S(=O)(=O)[O-])cc4F)c4ccc([nH]4)c(-c4c(F)cc(S(=O)(=O)[O-])cc4F)c4nc(c(-c5c(F)cc(S(=O)(=O)[O-])cc5F)c5ccc2[nH]5)C=C4)C=C3)cc1)c1ccc2c3cc(Cl)ccc3n(C(=O)c3ccc(Cl)cc3)c2c1
REMARK SMILES IDX 9 1 8 2 7 3 6 4 5 5 3 6 4 7 2 8 1 9 83 10 84 11 105 12 85 13
REMARK SMILES IDX 104 14 86 15 94 16 87 17 93 18 88 19 92 20 89 21 91 22 90 23
REMARK SMILES IDX 95 24 96 25 97 26 98 27 103 28 99 29 102 30 100 31 101 32
REMARK SMILES IDX 10 33 11 34 12 35 13 36 14 37 15 38 16 39 17 40 18 41 82 42
REMARK SMILES IDX 19 43 81 44 20 45 21 46 22 47 75 48 23 49 80 50 74 51 76 52
REMARK SMILES IDX 24 53 79 54 73 55 72 56 25 58 59 59 38 60 58 61 39 62 42 63
REMARK SMILES IDX 57 64 77 65 40 66 41 67 56 69 78 70 43 71 26 72 27 73 36 74
REMARK SMILES IDX 28 75 29 76 35 77 37 78 30 79 31 80 32 81 33 82 34 83 60 84
REMARK SMILES IDX 61 85 70 86 62 87 63 88 69 89 71 90 64 91 65 92 66 93 67 94
REMARK SMILES IDX 68 95 44 96 45 97 54 98 46 99 47 100 53 101 55 102 48 103
REMARK SMILES IDX 49 104 50 105 51 106 52 107
REMARK H PARENT 76 57 42 68
REMARK Flexibility Score: inf
ROOT
ATOM      1  C   UNL A   1      38.559  34.405  30.693  1.00  0.00     0.188 C 
ENDROOT
BRANCH   1   2
ATOM      2  O   UNL A   1      39.021  33.247  30.011  1.00  0.00    -0.376 OA
BRANCH   2   3
ATOM      3  C   UNL A   1      38.068  32.477  29.286  1.00  0.00     0.202 C 
BRANCH   3   4
ATOM      4  C   UNL A   1      36.880  33.266  28.742  1.00  0.00     0.261 C 
BRANCH   4   5
ATOM      5  O   UNL A   1      36.027  32.392  27.974  1.00  0.00    -0.463 OA
BRANCH   5   6
ATOM      6  C   UNL A   1      35.178  31.624  28.702  1.00  0.00     0.313 C 
ATOM      7  O   UNL A   1      34.531  32.052  29.654  1.00  0.00    -0.252 OA
BRANCH   6   8
ATOM      8  C   UNL A   1      35.059  30.178  28.189  1.00  0.00     0.126 C 
ATOM      9  C   UNL A   1      36.387  29.458  27.938  1.00  0.00     0.025 C 
BRANCH   8  10
ATOM     10  C   UNL A   1      33.995  30.056  27.096  1.00  0.00    -0.032 A 
ATOM     11  C   UNL A   1      32.866  30.869  27.249  1.00  0.00     0.005 A 
ATOM     12  C   UNL A   1      34.070  29.190  25.978  1.00  0.00     0.032 A 
ATOM     13  C   UNL A   1      31.842  30.870  26.316  1.00  0.00     0.011 A 
ATOM     14  C   UNL A   1      32.991  29.142  25.054  1.00  0.00     0.057 A 
ATOM     15  C   UNL A   1      31.905  29.997  25.217  1.00  0.00     0.008 A 
ATOM     16  N   UNL A   1      32.763  28.335  23.900  1.00  0.00    -0.276 N 
ATOM     17  C   UNL A   1      30.967  29.722  24.203  1.00  0.00     0.009 A 
ATOM     18  C   UNL A   1      31.428  28.606  23.483  1.00  0.00     0.057 A 
ATOM     19  C   UNL A   1      29.693  30.292  23.970  1.00  0.00     0.031 A 
ATOM     20  C   UNL A   1      30.501  27.955  22.638  1.00  0.00     0.029 A 
ATOM     21  C   UNL A   1      28.831  29.694  23.068  1.00  0.00     0.041 A 
ATOM     22  C   UNL A   1      29.222  28.530  22.422  1.00  0.00     0.023 A 
ATOM     23  Cl  UNL A   1      27.253  30.348  22.852  1.00  0.00    -0.084 Cl
BRANCH  16  24
ATOM     24  C   UNL A   1      33.702  27.307  23.495  1.00  0.00     0.262 C 
ATOM     25  O   UNL A   1      34.365  27.601  22.495  1.00  0.00    -0.268 OA
BRANCH  24  26
ATOM     26  C   UNL A   1      33.916  25.873  23.971  1.00  0.00     0.040 A 
ATOM     27  C   UNL A   1      34.188  25.599  25.321  1.00  0.00     0.015 A 
ATOM     28  C   UNL A   1      34.016  24.775  23.140  1.00  0.00     0.015 A 
ATOM     29  C   UNL A   1      34.479  24.293  25.788  1.00  0.00     0.021 A 
ATOM     30  C   UNL A   1      34.230  23.451  23.583  1.00  0.00     0.021 A 
ATOM     31  C   UNL A   1      34.477  23.213  24.916  1.00  0.00     0.041 A 
ATOM     32  Cl  UNL A   1      34.817  21.619  25.461  1.00  0.00    -0.084 Cl
ENDBRANCH  24  26
ENDBRANCH  16  24
ENDBRANCH   8  10
ENDBRANCH   6   8
ENDBRANCH   5   6
ENDBRANCH   4   5
ENDBRANCH   3   4
ENDBRANCH   2   3
ENDBRANCH   1   2
BRANCH   1  33
ATOM     33  C   UNL A   1      38.778  34.493  32.215  1.00  0.00     0.188 C 
BRANCH  33  34
ATOM     34  O   UNL A   1      37.649  34.455  33.075  1.00  0.00    -0.376 OA
BRANCH  34  35
ATOM     35  C   UNL A   1      37.327  33.182  33.632  1.00  0.00     0.202 C 
BRANCH  35  36
ATOM     36  C   UNL A   1      36.385  32.341  32.772  1.00  0.00     0.261 C 
BRANCH  36  37
ATOM     37  O   UNL A   1      37.119  31.288  32.110  1.00  0.00    -0.460 OA
BRANCH  37  38
ATOM     38  C   UNL A   1      37.883  30.550  32.934  1.00  0.00     0.338 C 
ATOM     39  O   UNL A   1      37.770  30.516  34.163  1.00  0.00    -0.246 OA
BRANCH  38  40
ATOM     40  C   UNL A   1      38.874  29.711  32.214  1.00  0.00     0.060 A 
ATOM     41  C   UNL A   1      40.156  29.479  32.726  1.00  0.00     0.016 A 
ATOM     42  C   UNL A   1      38.619  29.409  30.872  1.00  0.00     0.016 A 
ATOM     43  C   UNL A   1      41.190  29.071  31.865  1.00  0.00     0.010 A 
ATOM     44  C   UNL A   1      39.665  29.033  30.009  1.00  0.00     0.010 A 
ATOM     45  C   UNL A   1      40.983  28.951  30.473  1.00  0.00    -0.014 A 
BRANCH  45  46
ATOM     46  C   UNL A   1      42.122  28.876  29.503  1.00  0.00     0.031 A 
ATOM     47  C   UNL A   1      42.445  27.633  28.697  1.00  0.00     0.074 A 
ATOM     48  C   UNL A   1      42.842  29.961  29.197  1.00  0.00     0.049 A 
ATOM     49  N   UNL A   1      43.552  26.972  28.498  1.00  0.00    -0.248 NA
ATOM     50  C   UNL A   1      41.345  27.061  27.943  1.00  0.00     0.031 C 
ATOM     51  C   UNL A   1      42.597  31.320  29.666  1.00  0.00     0.029 A 
ATOM     52  N   UNL A   1      43.956  30.054  28.410  1.00  0.00    -0.354 N 
ATOM     53  C   UNL A   1      43.183  25.808  27.799  1.00  0.00     0.074 A 
ATOM     54  C   UNL A   1      41.771  25.868  27.568  1.00  0.00     0.031 C 
ATOM     55  C   UNL A   1      43.561  32.117  29.184  1.00  0.00     0.029 A 
ATOM     56  C   UNL A   1      44.538  31.289  28.485  1.00  0.00     0.049 A 
ATOM     57  H   UNL A   1      44.299  29.318  27.854  1.00  0.00     0.167 HD
ATOM     58  C   UNL A   1      43.967  24.860  27.236  1.00  0.00     0.037 A 
ATOM     59  C   UNL A   1      45.776  31.665  28.124  1.00  0.00     0.037 A 
ATOM     60  C   UNL A   1      45.336  25.146  26.917  1.00  0.00     0.049 A 
ATOM     61  C   UNL A   1      46.673  30.649  27.483  1.00  0.00     0.074 A 
ATOM     62  C   UNL A   1      46.289  24.337  26.333  1.00  0.00     0.029 A 
ATOM     63  N   UNL A   1      45.876  26.421  27.008  1.00  0.00    -0.354 N 
ATOM     64  N   UNL A   1      46.463  29.367  27.283  1.00  0.00    -0.248 NA
ATOM     65  C   UNL A   1      47.975  31.131  27.019  1.00  0.00     0.031 C 
ATOM     66  C   UNL A   1      47.397  25.142  26.032  1.00  0.00     0.029 A 
ATOM     67  C   UNL A   1      47.121  26.445  26.424  1.00  0.00     0.049 A 
ATOM     68  H   UNL A   1      45.434  27.194  27.428  1.00  0.00     0.167 HD
ATOM     69  C   UNL A   1      47.611  28.885  26.664  1.00  0.00     0.074 A 
ATOM     70  C   UNL A   1      48.496  30.026  26.502  1.00  0.00     0.031 C 
ATOM     71  C   UNL A   1      47.930  27.624  26.276  1.00  0.00     0.037 A 
BRANCH  58  72
ATOM     72  C   UNL A   1      43.406  23.492  26.916  1.00  0.00     0.058 A 
ATOM     73  C   UNL A   1      43.257  22.951  25.629  1.00  0.00     0.135 A 
ATOM     74  C   UNL A   1      43.072  22.657  27.999  1.00  0.00     0.135 A 
ATOM     75  F   UNL A   1      43.563  23.681  24.545  1.00  0.00    -0.206 F 
ATOM     76  C   UNL A   1      42.775  21.652  25.428  1.00  0.00     0.059 A 
ATOM     77  C   UNL A   1      42.622  21.350  27.826  1.00  0.00     0.059 A 
ATOM     78  F   UNL A   1      43.200  23.107  29.258  1.00  0.00    -0.206 F 
ATOM     79  C   UNL A   1      42.465  20.858  26.534  1.00  0.00     0.060 A 
BRANCH  79  80
ATOM     80  S   UNL A   1      41.909  19.154  26.282  1.00  0.00     0.124 S 
ATOM     81  O   UNL A   1      41.989  18.615  27.637  1.00  0.00    -0.237 OA
ATOM     82  O   UNL A   1      40.561  19.331  25.752  1.00  0.00    -0.237 OA
ATOM     83  O   UNL A   1      42.883  18.619  25.335  1.00  0.00    -0.744 OA
ENDBRANCH  79  80
ENDBRANCH  58  72
BRANCH  59  84
ATOM     84  C   UNL A   1      46.197  33.045  28.457  1.00  0.00     0.058 A 
ATOM     85  C   UNL A   1      45.872  34.119  27.621  1.00  0.00     0.135 A 
ATOM     86  C   UNL A   1      46.765  33.331  29.713  1.00  0.00     0.135 A 
ATOM     87  F   UNL A   1      45.337  33.892  26.413  1.00  0.00    -0.206 F 
ATOM     88  C   UNL A   1      46.053  35.434  28.035  1.00  0.00     0.059 A 
ATOM     89  C   UNL A   1      46.925  34.636  30.160  1.00  0.00     0.059 A 
ATOM     90  F   UNL A   1      47.068  32.332  30.557  1.00  0.00    -0.206 F 
ATOM     91  C   UNL A   1      46.554  35.681  29.316  1.00  0.00     0.060 A 
BRANCH  91  92
ATOM     92  S   UNL A   1      46.611  37.385  29.910  1.00  0.00     0.124 S 
ATOM     93  O   UNL A   1      45.701  37.330  31.048  1.00  0.00    -0.237 OA
ATOM     94  O   UNL A   1      48.026  37.551  30.230  1.00  0.00    -0.237 OA
ATOM     95  O   UNL A   1      46.145  38.155  28.762  1.00  0.00    -0.744 OA
ENDBRANCH  91  92
ENDBRANCH  59  84
BRANCH  71  96
ATOM     96  C   UNL A   1      49.262  27.442  25.626  1.00  0.00     0.058 A 
ATOM     97  C   UNL A   1      50.423  27.323  26.402  1.00  0.00     0.135 A 
ATOM     98  C   UNL A   1      49.370  27.343  24.232  1.00  0.00     0.135 A 
ATOM     99  F   UNL A   1      50.353  27.406  27.739  1.00  0.00    -0.206 F 
ATOM    100  C   UNL A   1      51.663  27.148  25.810  1.00  0.00     0.059 A 
ATOM    101  C   UNL A   1      50.601  27.149  23.618  1.00  0.00     0.059 A 
ATOM    102  F   UNL A   1      48.277  27.431  23.458  1.00  0.00    -0.206 F 
ATOM    103  C   UNL A   1      51.743  27.070  24.417  1.00  0.00     0.060 A 
BRANCH 103 104
ATOM    104  S   UNL A   1      53.365  26.854  23.662  1.00  0.00     0.124 S 
ATOM    105  O   UNL A   1      53.703  28.227  23.303  1.00  0.00    -0.237 OA
ATOM    106  O   UNL A   1      54.143  26.273  24.753  1.00  0.00    -0.237 OA
ATOM    107  O   UNL A   1      53.101  25.957  22.542  1.00  0.00    -0.744 OA
ENDBRANCH 103 104
ENDBRANCH  71  96
ENDBRANCH  45  46
ENDBRANCH  38  40
ENDBRANCH  37  38
ENDBRANCH  36  37
ENDBRANCH  35  36
ENDBRANCH  34  35
ENDBRANCH  33  34
ENDBRANCH   1  33
TORSDOF 23
ENDMDL
MODEL 3
REMARK VINA RESULT:     -10.8      5.649     13.216
REMARK SMILES C[C@@H](C(=O)OCCOCCOCCOC(=O)c1ccc(-c2c3nc(c(-c4c(F)cc(S(=O)(=O)[O-])cc4F)c4ccc([nH]4)c(-c4c(F)cc(S(=O)(=O)[O-])cc4F)c4nc(c(-c5c(F)cc(S(=O)(=O)[O-])cc5F)c5ccc2[nH]5)C=C4)C=C3)cc1)c1ccc2c3cc(Cl)ccc3n(C(=O)c3ccc(Cl)cc3)c2c1
REMARK SMILES IDX 9 1 8 2 7 3 6 4 5 5 3 6 4 7 2 8 1 9 83 10 84 11 105 12 85 13
REMARK SMILES IDX 104 14 86 15 94 16 87 17 93 18 88 19 92 20 89 21 91 22 90 23
REMARK SMILES IDX 95 24 96 25 97 26 98 27 103 28 99 29 102 30 100 31 101 32
REMARK SMILES IDX 10 33 11 34 12 35 13 36 14 37 15 38 16 39 17 40 18 41 82 42
REMARK SMILES IDX 19 43 81 44 20 45 21 46 22 47 75 48 23 49 80 50 74 51 76 52
REMARK SMILES IDX 24 53 79 54 73 55 72 56 25 58 59 59 38 60 58 61 39 62 42 63
REMARK SMILES IDX 57 64 77 65 40 66 41 67 56 69 78 70 43 71 26 72 27 73 36 74
REMARK SMILES IDX 28 75 29 76 35 77 37 78 30 79 31 80 32 81 33 82 34 83 60 84
REMARK SMILES IDX 61 85 70 86 62 87 63 88 69 89 71 90 64 91 65 92 66 93 67 94
REMARK SMILES IDX 68 95 44 96 45 97 54 98 46 99 47 100 53 101 55 102 48 103
REMARK SMILES IDX 49 104 50 105 51 106 52 107
REMARK H PARENT 76 57 42 68
REMARK Flexibility Score: inf
ROOT
ATOM      1  C   UNL A   1      37.901  34.257  33.799  1.00  0.00     0.188 C 
ENDROOT
BRANCH   1   2
ATOM      2  O   UNL A   1      38.527  33.055  34.226  1.00  0.00    -0.376 OA
BRANCH   2   3
ATOM      3  C   UNL A   1      39.934  32.937  34.043  1.00  0.00     0.202 C 
BRANCH   3   4
ATOM      4  C   UNL A   1      40.609  31.871  34.900  1.00  0.00     0.261 C 
BRANCH   4   5
ATOM      5  O   UNL A   1      41.038  30.775  34.066  1.00  0.00    -0.463 OA
BRANCH   5   6
ATOM      6  C   UNL A   1      40.182  29.724  34.003  1.00  0.00     0.313 C 
ATOM      7  O   UNL A   1      39.061  29.738  34.501  1.00  0.00    -0.252 OA
BRANCH   6   8
ATOM      8  C   UNL A   1      40.728  28.530  33.200  1.00  0.00     0.126 C 
ATOM      9  C   UNL A   1      39.689  27.758  32.380  1.00  0.00     0.025 C 
BRANCH   8  10
ATOM     10  C   UNL A   1      41.704  27.694  34.032  1.00  0.00    -0.032 A 
ATOM     11  C   UNL A   1      41.198  27.180  35.231  1.00  0.00     0.005 A 
ATOM     12  C   UNL A   1      43.051  27.427  33.685  1.00  0.00     0.032 A 
ATOM     13  C   UNL A   1      41.973  26.388  36.063  1.00  0.00     0.011 A 
ATOM     14  C   UNL A   1      43.866  26.670  34.569  1.00  0.00     0.057 A 
ATOM     15  C   UNL A   1      43.315  26.138  35.730  1.00  0.00     0.008 A 
ATOM     16  N   UNL A   1      45.245  26.311  34.517  1.00  0.00    -0.276 N 
ATOM     17  C   UNL A   1      44.333  25.474  36.442  1.00  0.00     0.009 A 
ATOM     18  C   UNL A   1      45.546  25.704  35.770  1.00  0.00     0.057 A 
ATOM     19  C   UNL A   1      44.281  24.816  37.694  1.00  0.00     0.031 A 
ATOM     20  C   UNL A   1      46.738  25.413  36.471  1.00  0.00     0.029 A 
ATOM     21  C   UNL A   1      45.457  24.454  38.325  1.00  0.00     0.041 A 
ATOM     22  C   UNL A   1      46.671  24.763  37.731  1.00  0.00     0.023 A 
ATOM     23  Cl  UNL A   1      45.385  23.726  39.884  1.00  0.00    -0.084 Cl
BRANCH  16  24
ATOM     24  C   UNL A   1      46.107  26.761  33.440  1.00  0.00     0.262 C 
ATOM     25  O   UNL A   1      46.678  25.845  32.840  1.00  0.00    -0.268 OA
BRANCH  24  26
ATOM     26  C   UNL A   1      46.565  28.151  33.011  1.00  0.00     0.040 A 
ATOM     27  C   UNL A   1      46.833  28.433  31.662  1.00  0.00     0.015 A 
ATOM     28  C   UNL A   1      46.897  29.173  33.878  1.00  0.00     0.015 A 
ATOM     29  C   UNL A   1      47.343  29.685  31.233  1.00  0.00     0.021 A 
ATOM     30  C   UNL A   1      47.336  30.455  33.477  1.00  0.00     0.021 A 
ATOM     31  C   UNL A   1      47.573  30.705  32.145  1.00  0.00     0.041 A 
ATOM     32  Cl  UNL A   1      48.182  32.233  31.647  1.00  0.00    -0.084 Cl
ENDBRANCH  24  26
ENDBRANCH  16  24
ENDBRANCH   8  10
ENDBRANCH   6   8
ENDBRANCH   5   6
ENDBRANCH   4   5
ENDBRANCH   3   4
ENDBRANCH   2   3
ENDBRANCH   1   2
BRANCH   1  33
ATOM     33  C   UNL A   1      37.155  34.255  32.450  1.00  0.00     0.188 C 
BRANCH  33  34
ATOM     34  O   UNL A   1      35.895  33.608  32.364  1.00  0.00    -0.376 OA
BRANCH  34  35
ATOM     35  C   UNL A   1      34.929  34.226  31.517  1.00  0.00     0.202 C 
BRANCH  35  36
ATOM     36  C   UNL A   1      34.901  33.679  30.092  1.00  0.00     0.261 C 
BRANCH  36  37
ATOM     37  O   UNL A   1      34.962  32.236  30.109  1.00  0.00    -0.460 OA
BRANCH  37  38
ATOM     38  C   UNL A   1      35.060  31.676  28.889  1.00  0.00     0.338 C 
ATOM     39  O   UNL A   1      34.426  32.038  27.893  1.00  0.00    -0.246 OA
BRANCH  38  40
ATOM     40  C   UNL A   1      36.064  30.586  28.827  1.00  0.00     0.060 A 
ATOM     41  C   UNL A   1      36.547  29.962  29.983  1.00  0.00     0.016 A 
ATOM     42  C   UNL A   1      36.751  30.399  27.623  1.00  0.00     0.016 A 
ATOM     43  C   UNL A   1      37.771  29.269  29.945  1.00  0.00     0.010 A 
ATOM     44  C   UNL A   1      37.990  29.733  27.598  1.00  0.00     0.010 A 
ATOM     45  C   UNL A   1      38.564  29.241  28.777  1.00  0.00    -0.014 A 
BRANCH  45  46
ATOM     46  C   UNL A   1      40.005  28.835  28.803  1.00  0.00     0.031 A 
ATOM     47  C   UNL A   1      41.133  29.802  29.108  1.00  0.00     0.074 A 
ATOM     48  C   UNL A   1      40.365  27.552  28.689  1.00  0.00     0.049 A 
ATOM     49  N   UNL A   1      42.261  30.063  28.505  1.00  0.00    -0.248 NA
ATOM     50  C   UNL A   1      40.996  30.575  30.329  1.00  0.00     0.031 C 
ATOM     51  C   UNL A   1      39.465  26.407  28.606  1.00  0.00     0.029 A 
ATOM     52  N   UNL A   1      41.622  27.021  28.605  1.00  0.00    -0.354 N 
ATOM     53  C   UNL A   1      42.801  31.179  29.168  1.00  0.00     0.074 A 
ATOM     54  C   UNL A   1      41.914  31.521  30.240  1.00  0.00     0.031 C 
ATOM     55  C   UNL A   1      40.201  25.298  28.446  1.00  0.00     0.029 A 
ATOM     56  C   UNL A   1      41.599  25.689  28.296  1.00  0.00     0.049 A 
ATOM     57  H   UNL A   1      42.448  27.537  28.750  1.00  0.00     0.167 HD
ATOM     58  C   UNL A   1      44.014  31.760  29.023  1.00  0.00     0.037 A 
ATOM     59  C   UNL A   1      42.590  24.910  27.832  1.00  0.00     0.037 A 
ATOM     60  C   UNL A   1      45.102  31.032  28.435  1.00  0.00     0.049 A 
ATOM     61  C   UNL A   1      43.954  25.510  27.669  1.00  0.00     0.074 A 
ATOM     62  C   UNL A   1      46.405  31.427  28.213  1.00  0.00     0.029 A 
ATOM     63  N   UNL A   1      45.025  29.677  28.144  1.00  0.00    -0.354 N 
ATOM     64  N   UNL A   1      44.336  26.757  27.837  1.00  0.00    -0.248 NA
ATOM     65  C   UNL A   1      45.021  24.598  27.254  1.00  0.00     0.031 C 
ATOM     66  C   UNL A   1      47.128  30.291  27.824  1.00  0.00     0.029 A 
ATOM     67  C   UNL A   1      46.272  29.199  27.815  1.00  0.00     0.049 A 
ATOM     68  H   UNL A   1      44.202  29.139  28.170  1.00  0.00     0.167 HD
ATOM     69  C   UNL A   1      45.696  26.780  27.548  1.00  0.00     0.074 A 
ATOM     70  C   UNL A   1      46.067  25.413  27.224  1.00  0.00     0.031 C 
ATOM     71  C   UNL A   1      46.568  27.821  27.531  1.00  0.00     0.037 A 
BRANCH  58  72
ATOM     72  C   UNL A   1      44.247  33.178  29.495  1.00  0.00     0.058 A 
ATOM     73  C   UNL A   1      44.702  33.550  30.770  1.00  0.00     0.135 A 
ATOM     74  C   UNL A   1      44.063  34.214  28.560  1.00  0.00     0.135 A 
ATOM     75  F   UNL A   1      44.910  32.619  31.717  1.00  0.00    -0.206 F 
ATOM     76  C   UNL A   1      44.940  34.888  31.106  1.00  0.00     0.059 A 
ATOM     77  C   UNL A   1      44.325  35.548  28.860  1.00  0.00     0.059 A 
ATOM     78  F   UNL A   1      43.640  33.928  27.318  1.00  0.00    -0.206 F 
ATOM     79  C   UNL A   1      44.752  35.880  30.142  1.00  0.00     0.060 A 
BRANCH  79  80
ATOM     80  S   UNL A   1      45.126  37.604  30.548  1.00  0.00     0.124 S 
ATOM     81  O   UNL A   1      43.807  38.222  30.446  1.00  0.00    -0.237 OA
ATOM     82  O   UNL A   1      45.674  37.503  31.897  1.00  0.00    -0.237 OA
ATOM     83  O   UNL A   1      46.084  37.992  29.517  1.00  0.00    -0.744 OA
ENDBRANCH  79  80
ENDBRANCH  58  72
BRANCH  59  84
ATOM     84  C   UNL A   1      42.245  23.525  27.438  1.00  0.00     0.058 A 
ATOM     85  C   UNL A   1      42.010  23.194  26.099  1.00  0.00     0.135 A 
ATOM     86  C   UNL A   1      42.336  22.477  28.373  1.00  0.00     0.135 A 
ATOM     87  F   UNL A   1      41.907  24.161  25.176  1.00  0.00    -0.206 F 
ATOM     88  C   UNL A   1      41.919  21.869  25.690  1.00  0.00     0.059 A 
ATOM     89  C   UNL A   1      42.281  21.145  27.982  1.00  0.00     0.059 A 
ATOM     90  F   UNL A   1      42.587  22.747  29.664  1.00  0.00    -0.206 F 
ATOM     91  C   UNL A   1      42.084  20.853  26.635  1.00  0.00     0.060 A 
BRANCH  91  92
ATOM     92  S   UNL A   1      42.150  19.141  26.063  1.00  0.00     0.124 S 
ATOM     93  O   UNL A   1      43.066  19.243  24.935  1.00  0.00    -0.237 OA
ATOM     94  O   UNL A   1      42.660  18.444  27.241  1.00  0.00    -0.237 OA
ATOM     95  O   UNL A   1      40.760  18.846  25.728  1.00  0.00    -0.744 OA
ENDBRANCH  91  92
ENDBRANCH  59  84
BRANCH  71  96
ATOM     96  C   UNL A   1      47.983  27.500  27.179  1.00  0.00     0.058 A 
ATOM     97  C   UNL A   1      48.858  26.981  28.143  1.00  0.00     0.135 A 
ATOM     98  C   UNL A   1      48.450  27.670  25.868  1.00  0.00     0.135 A 
ATOM     99  F   UNL A   1      48.441  26.800  29.405  1.00  0.00    -0.206 F 
ATOM    100  C   UNL A   1      50.171  26.674  27.825  1.00  0.00     0.059 A 
ATOM    101  C   UNL A   1      49.757  27.351  25.523  1.00  0.00     0.059 A 
ATOM    102  F   UNL A   1      47.633  28.144  24.913  1.00  0.00    -0.206 F 
ATOM    103  C   UNL A   1      50.613  26.871  26.515  1.00  0.00     0.060 A 
BRANCH 103 104
ATOM    104  S   UNL A   1      52.327  26.477  26.120  1.00  0.00     0.124 S 
ATOM    105  O   UNL A   1      53.045  27.387  27.007  1.00  0.00    -0.237 OA
ATOM    106  O   UNL A   1      52.410  25.060  26.464  1.00  0.00    -0.237 OA
ATOM    107  O   UNL A   1      52.425  26.778  24.696  1.00  0.00    -0.744 OA
ENDBRANCH 103 104
ENDBRANCH  71  96
ENDBRANCH  45  46
ENDBRANCH  38  40
ENDBRANCH  37  38
ENDBRANCH  36  37
ENDBRANCH  35  36
ENDBRANCH  34  35
ENDBRANCH  33  34
ENDBRANCH   1  33
TORSDOF 23
ENDMDL
