MODEL 1
REMARK VINA RESULT:      -8.7      0.000      0.000
REMARK SMILES CC[C@@H](C(=O)OCCOCCOCCOC(=O)c1ccc(-c2c3nc(c(-c4c(F)cc(S(=O)(=O)[O-])cc4F)c4ccc([nH]4)c(-c4c(F)cc(S(=O)(=O)[O-])cc4F)c4nc(c(-c5c(F)cc(S(=O)(=O)[O-])cc5F)c5ccc2[nH]5)C=C4)C=C3)cc1)N(C)C(=O)N(C)CC(C)(C)O
REMARK SMILES IDX 9 1 8 2 7 3 6 4 4 5 5 6 3 7 2 8 1 9 84 10 85 11 86 12 87 13
REMARK SMILES IDX 88 14 89 15 90 16 91 17 92 18 93 19 94 20 10 22 11 23 12 24
REMARK SMILES IDX 13 25 14 26 15 27 16 28 17 29 18 30 19 31 83 32 20 33 82 34
REMARK SMILES IDX 21 35 22 36 23 37 76 38 24 39 81 40 75 41 77 42 25 43 80 44
REMARK SMILES IDX 74 45 73 46 26 48 60 49 39 50 59 51 40 52 43 53 58 54 78 55
REMARK SMILES IDX 41 56 42 57 57 59 79 60 44 61 27 62 28 63 37 64 29 65 30 66
REMARK SMILES IDX 36 67 38 68 31 69 32 70 33 71 34 72 35 73 61 74 62 75 71 76
REMARK SMILES IDX 63 77 64 78 70 79 72 80 65 81 66 82 67 83 68 84 69 85 45 86
REMARK SMILES IDX 46 87 55 88 47 89 48 90 54 91 56 92 49 93 50 94 51 95 52 96
REMARK SMILES IDX 53 97
REMARK H PARENT 94 21 77 47 43 58
REMARK Flexibility Score: inf
ROOT
ATOM      1  O   UNL A   1      33.805  31.046  26.895  1.00  0.00    -0.376 OA
ENDROOT
BRANCH   1   2
ATOM      2  C   UNL A   1      33.887  29.650  27.176  1.00  0.00     0.202 C 
BRANCH   2   3
ATOM      3  C   UNL A   1      33.714  28.617  26.032  1.00  0.00     0.261 C 
BRANCH   3   4
ATOM      4  O   UNL A   1      33.036  29.112  24.855  1.00  0.00    -0.462 OA
BRANCH   4   5
ATOM      5  C   UNL A   1      33.214  28.390  23.712  1.00  0.00     0.328 C 
ATOM      6  O   UNL A   1      33.578  28.904  22.657  1.00  0.00    -0.250 OA
BRANCH   5   7
ATOM      7  C   UNL A   1      32.836  26.878  23.836  1.00  0.00     0.196 C 
BRANCH   7   8
ATOM      8  C   UNL A   1      33.529  25.804  22.959  1.00  0.00     0.034 C 
ATOM      9  C   UNL A   1      32.772  24.522  22.656  1.00  0.00     0.007 C 
ENDBRANCH   7   8
BRANCH   7  10
ATOM     10  N   UNL A   1      31.325  26.801  23.792  1.00  0.00    -0.314 N 
ATOM     11  C   UNL A   1      30.694  26.360  25.021  1.00  0.00     0.149 C 
BRANCH  10  12
ATOM     12  C   UNL A   1      30.658  27.390  22.730  1.00  0.00     0.320 C 
ATOM     13  O   UNL A   1      30.982  27.119  21.573  1.00  0.00    -0.248 OA
BRANCH  12  14
ATOM     14  N   UNL A   1      29.720  28.383  22.920  1.00  0.00    -0.325 N 
ATOM     15  C   UNL A   1      28.291  28.154  23.117  1.00  0.00     0.148 C 
BRANCH  14  16
ATOM     16  C   UNL A   1      30.067  29.710  22.337  1.00  0.00     0.155 C 
BRANCH  16  17
ATOM     17  C   UNL A   1      28.956  30.827  22.308  1.00  0.00     0.077 C 
ATOM     18  C   UNL A   1      28.044  30.505  21.130  1.00  0.00     0.043 C 
ATOM     19  C   UNL A   1      28.026  30.951  23.529  1.00  0.00     0.043 C 
BRANCH  17  20
ATOM     20  O   UNL A   1      29.538  32.115  22.104  1.00  0.00    -0.389 OA
ATOM     21  H   UNL A   1      29.564  32.311  21.154  1.00  0.00     0.211 HD
ENDBRANCH  17  20
ENDBRANCH  16  17
ENDBRANCH  14  16
ENDBRANCH  12  14
ENDBRANCH  10  12
ENDBRANCH   7  10
ENDBRANCH   5   7
ENDBRANCH   4   5
ENDBRANCH   3   4
ENDBRANCH   2   3
ENDBRANCH   1   2
BRANCH   1  22
ATOM     22  C   UNL A   1      33.485  31.834  28.038  1.00  0.00     0.188 C 
BRANCH  22  23
ATOM     23  C   UNL A   1      34.679  32.292  28.833  1.00  0.00     0.188 C 
BRANCH  23  24
ATOM     24  O   UNL A   1      34.276  32.685  30.145  1.00  0.00    -0.376 OA
BRANCH  24  25
ATOM     25  C   UNL A   1      35.172  32.224  31.138  1.00  0.00     0.202 C 
BRANCH  25  26
ATOM     26  C   UNL A   1      35.700  30.810  30.848  1.00  0.00     0.261 C 
BRANCH  26  27
ATOM     27  O   UNL A   1      36.326  30.149  31.975  1.00  0.00    -0.460 OA
BRANCH  27  28
ATOM     28  C   UNL A   1      37.434  30.757  32.513  1.00  0.00     0.338 C 
ATOM     29  O   UNL A   1      37.463  31.436  33.511  1.00  0.00    -0.246 OA
BRANCH  28  30
ATOM     30  C   UNL A   1      38.660  30.365  31.729  1.00  0.00     0.060 A 
ATOM     31  C   UNL A   1      39.668  29.578  32.315  1.00  0.00     0.016 A 
ATOM     32  C   UNL A   1      38.838  30.784  30.413  1.00  0.00     0.016 A 
ATOM     33  C   UNL A   1      40.832  29.199  31.587  1.00  0.00     0.010 A 
ATOM     34  C   UNL A   1      39.994  30.416  29.698  1.00  0.00     0.010 A 
ATOM     35  C   UNL A   1      41.009  29.589  30.249  1.00  0.00    -0.014 A 
BRANCH  35  36
ATOM     36  C   UNL A   1      42.305  29.450  29.462  1.00  0.00     0.031 A 
ATOM     37  C   UNL A   1      42.608  28.040  29.026  1.00  0.00     0.074 A 
ATOM     38  C   UNL A   1      43.267  30.383  29.209  1.00  0.00     0.049 A 
ATOM     39  N   UNL A   1      43.695  27.558  28.488  1.00  0.00    -0.248 NA
ATOM     40  C   UNL A   1      41.528  27.053  29.208  1.00  0.00     0.031 C 
ATOM     41  C   UNL A   1      43.181  31.822  29.356  1.00  0.00     0.029 A 
ATOM     42  N   UNL A   1      44.594  30.241  28.815  1.00  0.00    -0.354 N 
ATOM     43  C   UNL A   1      43.406  26.234  28.208  1.00  0.00     0.074 A 
ATOM     44  C   UNL A   1      42.094  25.953  28.744  1.00  0.00     0.031 C 
ATOM     45  C   UNL A   1      44.380  32.411  29.268  1.00  0.00     0.029 A 
ATOM     46  C   UNL A   1      45.352  31.399  28.940  1.00  0.00     0.049 A 
ATOM     47  H   UNL A   1      44.963  29.394  28.477  1.00  0.00     0.167 HD
ATOM     48  C   UNL A   1      44.138  25.342  27.506  1.00  0.00     0.037 A 
ATOM     49  C   UNL A   1      46.662  31.681  28.783  1.00  0.00     0.037 A 
ATOM     50  C   UNL A   1      45.458  25.589  27.005  1.00  0.00     0.049 A 
ATOM     51  C   UNL A   1      47.532  30.623  28.185  1.00  0.00     0.074 A 
ATOM     52  C   UNL A   1      46.272  24.732  26.289  1.00  0.00     0.029 A 
ATOM     53  N   UNL A   1      46.168  26.766  27.182  1.00  0.00    -0.354 N 
ATOM     54  N   UNL A   1      47.203  29.400  27.858  1.00  0.00    -0.248 NA
ATOM     55  C   UNL A   1      48.911  30.997  27.846  1.00  0.00     0.031 C 
ATOM     56  C   UNL A   1      47.499  25.369  26.081  1.00  0.00     0.029 A 
ATOM     57  C   UNL A   1      47.426  26.645  26.615  1.00  0.00     0.049 A 
ATOM     58  H   UNL A   1      45.830  27.568  27.642  1.00  0.00     0.167 HD
ATOM     59  C   UNL A   1      48.303  28.886  27.191  1.00  0.00     0.074 A 
ATOM     60  C   UNL A   1      49.318  29.919  27.189  1.00  0.00     0.031 C 
ATOM     61  C   UNL A   1      48.431  27.676  26.604  1.00  0.00     0.037 A 
BRANCH  48  62
ATOM     62  C   UNL A   1      43.485  24.023  27.240  1.00  0.00     0.058 A 
ATOM     63  C   UNL A   1      42.817  23.779  26.028  1.00  0.00     0.135 A 
ATOM     64  C   UNL A   1      43.497  23.010  28.207  1.00  0.00     0.135 A 
ATOM     65  F   UNL A   1      42.748  24.736  25.087  1.00  0.00    -0.206 F 
ATOM     66  C   UNL A   1      42.157  22.581  25.795  1.00  0.00     0.059 A 
ATOM     67  C   UNL A   1      42.869  21.791  27.983  1.00  0.00     0.059 A 
ATOM     68  F   UNL A   1      44.105  23.207  29.387  1.00  0.00    -0.206 F 
ATOM     69  C   UNL A   1      42.191  21.593  26.779  1.00  0.00     0.060 A 
BRANCH  69  70
ATOM     70  S   UNL A   1      41.336  20.038  26.457  1.00  0.00     0.124 S 
ATOM     71  O   UNL A   1      40.014  20.511  26.059  1.00  0.00    -0.237 OA
ATOM     72  O   UNL A   1      42.148  19.453  25.395  1.00  0.00    -0.237 OA
ATOM     73  O   UNL A   1      41.395  19.347  27.741  1.00  0.00    -0.744 OA
ENDBRANCH  69  70
ENDBRANCH  48  62
BRANCH  49  74
ATOM     74  C   UNL A   1      47.217  33.040  29.083  1.00  0.00     0.058 A 
ATOM     75  C   UNL A   1      47.232  34.055  28.114  1.00  0.00     0.135 A 
ATOM     76  C   UNL A   1      47.778  33.341  30.336  1.00  0.00     0.135 A 
ATOM     77  F   UNL A   1      46.707  33.828  26.900  1.00  0.00    -0.206 F 
ATOM     78  C   UNL A   1      47.818  35.297  28.356  1.00  0.00     0.059 A 
ATOM     79  C   UNL A   1      48.353  34.584  30.609  1.00  0.00     0.059 A 
ATOM     80  F   UNL A   1      47.774  32.419  31.313  1.00  0.00    -0.206 F 
ATOM     81  C   UNL A   1      48.385  35.551  29.605  1.00  0.00     0.060 A 
BRANCH  81  82
ATOM     82  S   UNL A   1      49.153  37.163  29.896  1.00  0.00     0.124 S 
ATOM     83  O   UNL A   1      50.158  36.834  30.901  1.00  0.00    -0.237 OA
ATOM     84  O   UNL A   1      49.662  37.502  28.572  1.00  0.00    -0.237 OA
ATOM     85  O   UNL A   1      48.042  37.986  30.364  1.00  0.00    -0.744 OA
ENDBRANCH  81  82
ENDBRANCH  49  74
BRANCH  61  86
ATOM     86  C   UNL A   1      49.699  27.407  25.853  1.00  0.00     0.058 A 
ATOM     87  C   UNL A   1      50.886  27.057  26.510  1.00  0.00     0.135 A 
ATOM     88  C   UNL A   1      49.701  27.443  24.449  1.00  0.00     0.135 A 
ATOM     89  F   UNL A   1      50.936  27.030  27.852  1.00  0.00    -0.206 F 
ATOM     90  C   UNL A   1      52.040  26.757  25.799  1.00  0.00     0.059 A 
ATOM     91  C   UNL A   1      50.834  27.114  23.718  1.00  0.00     0.059 A 
ATOM     92  F   UNL A   1      48.587  27.776  23.778  1.00  0.00    -0.206 F 
ATOM     93  C   UNL A   1      52.000  26.776  24.403  1.00  0.00     0.060 A 
BRANCH  93  94
ATOM     94  S   UNL A   1      53.485  26.306  23.494  1.00  0.00     0.124 S 
ATOM     95  O   UNL A   1      52.969  26.176  22.136  1.00  0.00    -0.237 OA
ATOM     96  O   UNL A   1      54.367  27.444  23.733  1.00  0.00    -0.237 OA
ATOM     97  O   UNL A   1      53.894  25.058  24.134  1.00  0.00    -0.744 OA
ENDBRANCH  93  94
ENDBRANCH  61  86
ENDBRANCH  35  36
ENDBRANCH  28  30
ENDBRANCH  27  28
ENDBRANCH  26  27
ENDBRANCH  25  26
ENDBRANCH  24  25
ENDBRANCH  23  24
ENDBRANCH  22  23
ENDBRANCH   1  22
TORSDOF 27
ENDMDL
MODEL 2
REMARK VINA RESULT:      -8.7      2.091      3.413
REMARK SMILES CC[C@@H](C(=O)OCCOCCOCCOC(=O)c1ccc(-c2c3nc(c(-c4c(F)cc(S(=O)(=O)[O-])cc4F)c4ccc([nH]4)c(-c4c(F)cc(S(=O)(=O)[O-])cc4F)c4nc(c(-c5c(F)cc(S(=O)(=O)[O-])cc5F)c5ccc2[nH]5)C=C4)C=C3)cc1)N(C)C(=O)N(C)CC(C)(C)O
REMARK SMILES IDX 9 1 8 2 7 3 6 4 4 5 5 6 3 7 2 8 1 9 84 10 85 11 86 12 87 13
REMARK SMILES IDX 88 14 89 15 90 16 91 17 92 18 93 19 94 20 10 22 11 23 12 24
REMARK SMILES IDX 13 25 14 26 15 27 16 28 17 29 18 30 19 31 83 32 20 33 82 34
REMARK SMILES IDX 21 35 22 36 23 37 76 38 24 39 81 40 75 41 77 42 25 43 80 44
REMARK SMILES IDX 74 45 73 46 26 48 60 49 39 50 59 51 40 52 43 53 58 54 78 55
REMARK SMILES IDX 41 56 42 57 57 59 79 60 44 61 27 62 28 63 37 64 29 65 30 66
REMARK SMILES IDX 36 67 38 68 31 69 32 70 33 71 34 72 35 73 61 74 62 75 71 76
REMARK SMILES IDX 63 77 64 78 70 79 72 80 65 81 66 82 67 83 68 84 69 85 45 86
REMARK SMILES IDX 46 87 55 88 47 89 48 90 54 91 56 92 49 93 50 94 51 95 52 96
REMARK SMILES IDX 53 97
REMARK H PARENT 94 21 77 47 43 58
REMARK Flexibility Score: inf
ROOT
ATOM      1  O   UNL A   1      34.410  29.611  27.710  1.00  0.00    -0.376 OA
ENDROOT
BRANCH   1   2
ATOM      2  C   UNL A   1      33.144  29.227  27.178  1.00  0.00     0.202 C 
BRANCH   2   3
ATOM      3  C   UNL A   1      33.033  27.983  26.258  1.00  0.00     0.261 C 
BRANCH   3   4
ATOM      4  O   UNL A   1      32.389  26.834  26.854  1.00  0.00    -0.462 OA
BRANCH   4   5
ATOM      5  C   UNL A   1      31.583  26.104  26.031  1.00  0.00     0.328 C 
ATOM      6  O   UNL A   1      30.405  25.877  26.295  1.00  0.00    -0.250 OA
BRANCH   5   7
ATOM      7  C   UNL A   1      32.303  25.516  24.775  1.00  0.00     0.196 C 
BRANCH   7   8
ATOM      8  C   UNL A   1      31.495  24.945  23.581  1.00  0.00     0.034 C 
ATOM      9  C   UNL A   1      30.756  23.631  23.773  1.00  0.00     0.007 C 
ENDBRANCH   7   8
BRANCH   7  10
ATOM     10  N   UNL A   1      33.364  24.565  25.286  1.00  0.00    -0.314 N 
ATOM     11  C   UNL A   1      34.731  25.028  25.136  1.00  0.00     0.149 C 
BRANCH  10  12
ATOM     12  C   UNL A   1      32.977  23.495  26.076  1.00  0.00     0.320 C 
ATOM     13  O   UNL A   1      32.017  23.609  26.839  1.00  0.00    -0.248 OA
BRANCH  12  14
ATOM     14  N   UNL A   1      33.716  22.332  26.141  1.00  0.00    -0.325 N 
ATOM     15  C   UNL A   1      34.865  22.122  27.016  1.00  0.00     0.148 C 
BRANCH  14  16
ATOM     16  C   UNL A   1      33.714  21.503  24.902  1.00  0.00     0.155 C 
BRANCH  16  17
ATOM     17  C   UNL A   1      32.640  20.357  24.771  1.00  0.00     0.077 C 
ATOM     18  C   UNL A   1      32.232  20.309  23.303  1.00  0.00     0.043 C 
ATOM     19  C   UNL A   1      33.069  18.923  25.128  1.00  0.00     0.043 C 
BRANCH  17  20
ATOM     20  O   UNL A   1      31.488  20.650  25.562  1.00  0.00    -0.389 OA
ATOM     21  H   UNL A   1      31.390  21.611  25.647  1.00  0.00     0.211 HD
ENDBRANCH  17  20
ENDBRANCH  16  17
ENDBRANCH  14  16
ENDBRANCH  12  14
ENDBRANCH  10  12
ENDBRANCH   7  10
ENDBRANCH   5   7
ENDBRANCH   4   5
ENDBRANCH   3   4
ENDBRANCH   2   3
ENDBRANCH   1   2
BRANCH   1  22
ATOM     22  C   UNL A   1      34.745  30.971  27.447  1.00  0.00     0.188 C 
BRANCH  22  23
ATOM     23  C   UNL A   1      33.746  31.971  27.970  1.00  0.00     0.188 C 
BRANCH  23  24
ATOM     24  O   UNL A   1      34.338  32.768  28.994  1.00  0.00    -0.376 OA
BRANCH  24  25
ATOM     25  C   UNL A   1      35.642  32.329  29.325  1.00  0.00     0.202 C 
BRANCH  25  26
ATOM     26  C   UNL A   1      35.728  31.745  30.744  1.00  0.00     0.261 C 
BRANCH  26  27
ATOM     27  O   UNL A   1      35.986  30.320  30.802  1.00  0.00    -0.460 OA
BRANCH  27  28
ATOM     28  C   UNL A   1      36.986  29.906  31.649  1.00  0.00     0.338 C 
ATOM     29  O   UNL A   1      36.849  29.533  32.789  1.00  0.00    -0.246 OA
BRANCH  28  30
ATOM     30  C   UNL A   1      38.299  29.878  30.909  1.00  0.00     0.060 A 
ATOM     31  C   UNL A   1      38.334  29.736  29.510  1.00  0.00     0.016 A 
ATOM     32  C   UNL A   1      39.510  29.972  31.589  1.00  0.00     0.016 A 
ATOM     33  C   UNL A   1      39.566  29.709  28.797  1.00  0.00     0.010 A 
ATOM     34  C   UNL A   1      40.728  29.935  30.882  1.00  0.00     0.010 A 
ATOM     35  C   UNL A   1      40.794  29.834  29.467  1.00  0.00    -0.014 A 
BRANCH  35  36
ATOM     36  C   UNL A   1      42.161  29.576  28.845  1.00  0.00     0.031 A 
ATOM     37  C   UNL A   1      42.438  28.124  28.558  1.00  0.00     0.074 A 
ATOM     38  C   UNL A   1      43.190  30.445  28.630  1.00  0.00     0.049 A 
ATOM     39  N   UNL A   1      43.552  27.554  28.187  1.00  0.00    -0.248 NA
ATOM     40  C   UNL A   1      41.296  27.200  28.694  1.00  0.00     0.031 C 
ATOM     41  C   UNL A   1      43.162  31.893  28.652  1.00  0.00     0.029 A 
ATOM     42  N   UNL A   1      44.543  30.215  28.401  1.00  0.00    -0.354 N 
ATOM     43  C   UNL A   1      43.228  26.224  27.981  1.00  0.00     0.074 A 
ATOM     44  C   UNL A   1      41.853  26.043  28.386  1.00  0.00     0.031 C 
ATOM     45  C   UNL A   1      44.391  32.422  28.655  1.00  0.00     0.029 A 
ATOM     46  C   UNL A   1      45.341  31.348  28.519  1.00  0.00     0.049 A 
ATOM     47  H   UNL A   1      44.904  29.328  28.174  1.00  0.00     0.167 HD
ATOM     48  C   UNL A   1      43.987  25.247  27.438  1.00  0.00     0.037 A 
ATOM     49  C   UNL A   1      46.673  31.560  28.490  1.00  0.00     0.037 A 
ATOM     50  C   UNL A   1      45.365  25.397  27.071  1.00  0.00     0.049 A 
ATOM     51  C   UNL A   1      47.548  30.422  28.078  1.00  0.00     0.074 A 
ATOM     52  C   UNL A   1      46.208  24.449  26.522  1.00  0.00     0.029 A 
ATOM     53  N   UNL A   1      46.110  26.554  27.235  1.00  0.00    -0.354 N 
ATOM     54  N   UNL A   1      47.196  29.190  27.814  1.00  0.00    -0.248 NA
ATOM     55  C   UNL A   1      48.973  30.708  27.869  1.00  0.00     0.031 C 
ATOM     56  C   UNL A   1      47.480  25.015  26.405  1.00  0.00     0.029 A 
ATOM     57  C   UNL A   1      47.414  26.333  26.825  1.00  0.00     0.049 A 
ATOM     58  H   UNL A   1      45.763  27.405  27.589  1.00  0.00     0.167 HD
ATOM     59  C   UNL A   1      48.335  28.577  27.318  1.00  0.00     0.074 A 
ATOM     60  C   UNL A   1      49.394  29.563  27.350  1.00  0.00     0.031 C 
ATOM     61  C   UNL A   1      48.465  27.318  26.846  1.00  0.00     0.037 A 
BRANCH  48  62
ATOM     62  C   UNL A   1      43.301  23.938  27.205  1.00  0.00     0.058 A 
ATOM     63  C   UNL A   1      42.437  23.761  26.111  1.00  0.00     0.135 A 
ATOM     64  C   UNL A   1      43.481  22.867  28.090  1.00  0.00     0.135 A 
ATOM     65  F   UNL A   1      42.205  24.773  25.258  1.00  0.00    -0.206 F 
ATOM     66  C   UNL A   1      41.750  22.571  25.919  1.00  0.00     0.059 A 
ATOM     67  C   UNL A   1      42.826  21.657  27.900  1.00  0.00     0.059 A 
ATOM     68  F   UNL A   1      44.281  23.000  29.159  1.00  0.00    -0.206 F 
ATOM     69  C   UNL A   1      41.954  21.524  26.819  1.00  0.00     0.060 A 
BRANCH  69  70
ATOM     70  S   UNL A   1      41.060  19.981  26.550  1.00  0.00     0.124 S 
ATOM     71  O   UNL A   1      40.766  19.573  27.920  1.00  0.00    -0.237 OA
ATOM     72  O   UNL A   1      39.915  20.421  25.758  1.00  0.00    -0.237 OA
ATOM     73  O   UNL A   1      42.027  19.149  25.841  1.00  0.00    -0.744 OA
ENDBRANCH  69  70
ENDBRANCH  48  62
BRANCH  49  74
ATOM     74  C   UNL A   1      47.259  32.916  28.742  1.00  0.00     0.058 A 
ATOM     75  C   UNL A   1      47.480  33.826  27.696  1.00  0.00     0.135 A 
ATOM     76  C   UNL A   1      47.645  33.317  30.033  1.00  0.00     0.135 A 
ATOM     77  F   UNL A   1      47.128  33.500  26.443  1.00  0.00    -0.206 F 
ATOM     78  C   UNL A   1      48.098  35.057  27.908  1.00  0.00     0.059 A 
ATOM     79  C   UNL A   1      48.248  34.553  30.273  1.00  0.00     0.059 A 
ATOM     80  F   UNL A   1      47.440  32.501  31.080  1.00  0.00    -0.206 F 
ATOM     81  C   UNL A   1      48.488  35.410  29.200  1.00  0.00     0.060 A 
BRANCH  81  82
ATOM     82  S   UNL A   1      49.302  37.006  29.453  1.00  0.00     0.124 S 
ATOM     83  O   UNL A   1      50.693  36.679  29.157  1.00  0.00    -0.237 OA
ATOM     84  O   UNL A   1      48.625  37.853  28.477  1.00  0.00    -0.237 OA
ATOM     85  O   UNL A   1      49.012  37.315  30.850  1.00  0.00    -0.744 OA
ENDBRANCH  81  82
ENDBRANCH  49  74
BRANCH  61  86
ATOM     86  C   UNL A   1      49.792  26.935  26.267  1.00  0.00     0.058 A 
ATOM     87  C   UNL A   1      50.802  26.361  27.051  1.00  0.00     0.135 A 
ATOM     88  C   UNL A   1      50.026  27.091  24.892  1.00  0.00     0.135 A 
ATOM     89  F   UNL A   1      50.630  26.211  28.374  1.00  0.00    -0.206 F 
ATOM     90  C   UNL A   1      52.007  25.961  26.490  1.00  0.00     0.059 A 
ATOM     91  C   UNL A   1      51.210  26.667  24.305  1.00  0.00     0.059 A 
ATOM     92  F   UNL A   1      49.088  27.639  24.103  1.00  0.00    -0.206 F 
ATOM     93  C   UNL A   1      52.197  26.107  25.115  1.00  0.00     0.060 A 
BRANCH  93  94
ATOM     94  S   UNL A   1      53.736  25.507  24.391  1.00  0.00     0.124 S 
ATOM     95  O   UNL A   1      53.669  24.082  24.696  1.00  0.00    -0.237 OA
ATOM     96  O   UNL A   1      53.575  25.864  22.984  1.00  0.00    -0.237 OA
ATOM     97  O   UNL A   1      54.764  26.257  25.108  1.00  0.00    -0.744 OA
ENDBRANCH  93  94
ENDBRANCH  61  86
ENDBRANCH  35  36
ENDBRANCH  28  30
ENDBRANCH  27  28
ENDBRANCH  26  27
ENDBRANCH  25  26
ENDBRANCH  24  25
ENDBRANCH  23  24
ENDBRANCH  22  23
ENDBRANCH   1  22
TORSDOF 27
ENDMDL
MODEL 3
REMARK VINA RESULT:      -8.5      1.314      8.298
REMARK SMILES CC[C@@H](C(=O)OCCOCCOCCOC(=O)c1ccc(-c2c3nc(c(-c4c(F)cc(S(=O)(=O)[O-])cc4F)c4ccc([nH]4)c(-c4c(F)cc(S(=O)(=O)[O-])cc4F)c4nc(c(-c5c(F)cc(S(=O)(=O)[O-])cc5F)c5ccc2[nH]5)C=C4)C=C3)cc1)N(C)C(=O)N(C)CC(C)(C)O
REMARK SMILES IDX 9 1 8 2 7 3 6 4 4 5 5 6 3 7 2 8 1 9 84 10 85 11 86 12 87 13
REMARK SMILES IDX 88 14 89 15 90 16 91 17 92 18 93 19 94 20 10 22 11 23 12 24
REMARK SMILES IDX 13 25 14 26 15 27 16 28 17 29 18 30 19 31 83 32 20 33 82 34
REMARK SMILES IDX 21 35 22 36 23 37 76 38 24 39 81 40 75 41 77 42 25 43 80 44
REMARK SMILES IDX 74 45 73 46 26 48 60 49 39 50 59 51 40 52 43 53 58 54 78 55
REMARK SMILES IDX 41 56 42 57 57 59 79 60 44 61 27 62 28 63 37 64 29 65 30 66
REMARK SMILES IDX 36 67 38 68 31 69 32 70 33 71 34 72 35 73 61 74 62 75 71 76
REMARK SMILES IDX 63 77 64 78 70 79 72 80 65 81 66 82 67 83 68 84 69 85 45 86
REMARK SMILES IDX 46 87 55 88 47 89 48 90 54 91 56 92 49 93 50 94 51 95 52 96
REMARK SMILES IDX 53 97
REMARK H PARENT 94 21 77 47 43 58
REMARK Flexibility Score: inf
ROOT
ATOM      1  O   UNL A   1      35.341  30.597  27.754  1.00  0.00    -0.376 OA
ENDROOT
BRANCH   1   2
ATOM      2  C   UNL A   1      34.110  30.158  27.182  1.00  0.00     0.202 C 
BRANCH   2   3
ATOM      3  C   UNL A   1      33.828  28.642  27.018  1.00  0.00     0.261 C 
BRANCH   3   4
ATOM      4  O   UNL A   1      32.753  28.313  26.109  1.00  0.00    -0.462 OA
BRANCH   4   5
ATOM      5  C   UNL A   1      32.024  27.202  26.419  1.00  0.00     0.328 C 
ATOM      6  O   UNL A   1      31.148  27.208  27.281  1.00  0.00    -0.250 OA
BRANCH   5   7
ATOM      7  C   UNL A   1      32.452  25.912  25.648  1.00  0.00     0.196 C 
BRANCH   7   8
ATOM      8  C   UNL A   1      33.738  25.884  24.782  1.00  0.00     0.034 C 
ATOM      9  C   UNL A   1      35.021  25.368  25.412  1.00  0.00     0.007 C 
ENDBRANCH   7   8
BRANCH   7  10
ATOM     10  N   UNL A   1      31.226  25.417  24.910  1.00  0.00    -0.314 N 
ATOM     11  C   UNL A   1      30.910  24.016  25.110  1.00  0.00     0.149 C 
BRANCH  10  12
ATOM     12  C   UNL A   1      30.368  26.346  24.345  1.00  0.00     0.320 C 
ATOM     13  O   UNL A   1      29.206  26.433  24.743  1.00  0.00    -0.248 OA
BRANCH  12  14
ATOM     14  N   UNL A   1      30.730  27.098  23.246  1.00  0.00    -0.325 N 
ATOM     15  C   UNL A   1      31.587  26.629  22.160  1.00  0.00     0.148 C 
BRANCH  14  16
ATOM     16  C   UNL A   1      30.736  28.574  23.455  1.00  0.00     0.155 C 
BRANCH  16  17
ATOM     17  C   UNL A   1      29.528  29.413  22.890  1.00  0.00     0.077 C 
ATOM     18  C   UNL A   1      29.359  30.611  23.817  1.00  0.00     0.043 C 
ATOM     19  C   UNL A   1      29.659  30.002  21.474  1.00  0.00     0.043 C 
BRANCH  17  20
ATOM     20  O   UNL A   1      28.326  28.644  22.905  1.00  0.00    -0.389 OA
ATOM     21  H   UNL A   1      27.652  29.108  23.425  1.00  0.00     0.211 HD
ENDBRANCH  17  20
ENDBRANCH  16  17
ENDBRANCH  14  16
ENDBRANCH  12  14
ENDBRANCH  10  12
ENDBRANCH   7  10
ENDBRANCH   5   7
ENDBRANCH   4   5
ENDBRANCH   3   4
ENDBRANCH   2   3
ENDBRANCH   1   2
BRANCH   1  22
ATOM     22  C   UNL A   1      35.279  31.922  28.278  1.00  0.00     0.188 C 
BRANCH  22  23
ATOM     23  C   UNL A   1      33.884  32.468  28.430  1.00  0.00     0.188 C 
BRANCH  23  24
ATOM     24  O   UNL A   1      33.725  33.061  29.718  1.00  0.00    -0.376 OA
BRANCH  24  25
ATOM     25  C   UNL A   1      34.904  33.710  30.155  1.00  0.00     0.202 C 
BRANCH  25  26
ATOM     26  C   UNL A   1      35.372  33.219  31.534  1.00  0.00     0.261 C 
BRANCH  26  27
ATOM     27  O   UNL A   1      36.633  32.504  31.531  1.00  0.00    -0.460 OA
BRANCH  27  28
ATOM     28  C   UNL A   1      37.754  33.227  31.197  1.00  0.00     0.338 C 
ATOM     29  O   UNL A   1      37.865  34.429  31.231  1.00  0.00    -0.246 OA
BRANCH  28  30
ATOM     30  C   UNL A   1      38.888  32.287  30.879  1.00  0.00     0.060 A 
ATOM     31  C   UNL A   1      39.712  31.781  31.900  1.00  0.00     0.016 A 
ATOM     32  C   UNL A   1      39.164  31.911  29.566  1.00  0.00     0.016 A 
ATOM     33  C   UNL A   1      40.787  30.892  31.614  1.00  0.00     0.010 A 
ATOM     34  C   UNL A   1      40.234  31.039  29.286  1.00  0.00     0.010 A 
ATOM     35  C   UNL A   1      41.056  30.479  30.299  1.00  0.00    -0.014 A 
BRANCH  35  36
ATOM     36  C   UNL A   1      42.310  29.738  29.854  1.00  0.00     0.031 A 
ATOM     37  C   UNL A   1      43.495  30.635  29.606  1.00  0.00     0.074 A 
ATOM     38  C   UNL A   1      42.470  28.420  29.541  1.00  0.00     0.049 A 
ATOM     39  N   UNL A   1      44.650  30.347  29.070  1.00  0.00    -0.248 NA
ATOM     40  C   UNL A   1      43.356  32.037  30.039  1.00  0.00     0.031 C 
ATOM     41  C   UNL A   1      41.579  27.314  29.830  1.00  0.00     0.029 A 
ATOM     42  N   UNL A   1      43.464  27.770  28.815  1.00  0.00    -0.354 N 
ATOM     43  C   UNL A   1      45.394  31.510  29.163  1.00  0.00     0.074 A 
ATOM     44  C   UNL A   1      44.527  32.539  29.689  1.00  0.00     0.031 C 
ATOM     45  C   UNL A   1      41.916  26.206  29.160  1.00  0.00     0.029 A 
ATOM     46  C   UNL A   1      43.142  26.468  28.450  1.00  0.00     0.049 A 
ATOM     47  H   UNL A   1      44.320  28.195  28.581  1.00  0.00     0.167 HD
ATOM     48  C   UNL A   1      46.705  31.695  28.899  1.00  0.00     0.037 A 
ATOM     49  C   UNL A   1      43.740  25.539  27.675  1.00  0.00     0.037 A 
ATOM     50  C   UNL A   1      47.570  30.698  28.336  1.00  0.00     0.049 A 
ATOM     51  C   UNL A   1      45.131  25.819  27.206  1.00  0.00     0.074 A 
ATOM     52  C   UNL A   1      48.913  30.810  28.029  1.00  0.00     0.029 A 
ATOM     53  N   UNL A   1      47.178  29.419  27.975  1.00  0.00    -0.354 N 
ATOM     54  N   UNL A   1      45.837  26.906  27.382  1.00  0.00    -0.248 NA
ATOM     55  C   UNL A   1      45.844  24.731  26.523  1.00  0.00     0.031 C 
ATOM     56  C   UNL A   1      49.322  29.616  27.429  1.00  0.00     0.029 A 
ATOM     57  C   UNL A   1      48.249  28.741  27.418  1.00  0.00     0.049 A 
ATOM     58  H   UNL A   1      46.274  29.048  28.097  1.00  0.00     0.167 HD
ATOM     59  C   UNL A   1      47.105  26.604  26.914  1.00  0.00     0.074 A 
ATOM     60  C   UNL A   1      47.062  25.244  26.420  1.00  0.00     0.031 C 
ATOM     61  C   UNL A   1      48.209  27.384  26.936  1.00  0.00     0.037 A 
BRANCH  48  62
ATOM     62  C   UNL A   1      47.261  33.039  29.245  1.00  0.00     0.058 A 
ATOM     63  C   UNL A   1      47.792  33.295  30.521  1.00  0.00     0.135 A 
ATOM     64  C   UNL A   1      47.237  34.086  28.315  1.00  0.00     0.135 A 
ATOM     65  F   UNL A   1      47.800  32.332  31.458  1.00  0.00    -0.206 F 
ATOM     66  C   UNL A   1      48.255  34.555  30.872  1.00  0.00     0.059 A 
ATOM     67  C   UNL A   1      47.723  35.348  28.635  1.00  0.00     0.059 A 
ATOM     68  F   UNL A   1      46.720  33.892  27.091  1.00  0.00    -0.206 F 
ATOM     69  C   UNL A   1      48.217  35.574  29.919  1.00  0.00     0.060 A 
BRANCH  69  70
ATOM     70  S   UNL A   1      48.831  37.203  30.389  1.00  0.00     0.124 S 
ATOM     71  O   UNL A   1      50.080  36.861  31.061  1.00  0.00    -0.237 OA
ATOM     72  O   UNL A   1      48.965  37.868  29.097  1.00  0.00    -0.237 OA
ATOM     73  O   UNL A   1      47.777  37.726  31.254  1.00  0.00    -0.744 OA
ENDBRANCH  69  70
ENDBRANCH  48  62
BRANCH  49  74
ATOM     74  C   UNL A   1      43.092  24.219  27.387  1.00  0.00     0.058 A 
ATOM     75  C   UNL A   1      42.552  23.929  26.124  1.00  0.00     0.135 A 
ATOM     76  C   UNL A   1      42.967  23.233  28.380  1.00  0.00     0.135 A 
ATOM     77  F   UNL A   1      42.646  24.830  25.134  1.00  0.00    -0.206 F 
ATOM     78  C   UNL A   1      41.876  22.736  25.867  1.00  0.00     0.059 A 
ATOM     79  C   UNL A   1      42.311  22.023  28.142  1.00  0.00     0.059 A 
ATOM     80  F   UNL A   1      43.482  23.442  29.603  1.00  0.00    -0.206 F 
ATOM     81  C   UNL A   1      41.752  21.792  26.886  1.00  0.00     0.060 A 
BRANCH  81  82
ATOM     82  S   UNL A   1      40.860  20.256  26.539  1.00  0.00     0.124 S 
ATOM     83  O   UNL A   1      40.919  19.581  27.831  1.00  0.00    -0.237 OA
ATOM     84  O   UNL A   1      39.547  20.750  26.137  1.00  0.00    -0.237 OA
ATOM     85  O   UNL A   1      41.646  19.643  25.472  1.00  0.00    -0.744 OA
ENDBRANCH  81  82
ENDBRANCH  49  74
BRANCH  61  86
ATOM     86  C   UNL A   1      49.490  26.774  26.459  1.00  0.00     0.058 A 
ATOM     87  C   UNL A   1      49.910  26.885  25.127  1.00  0.00     0.135 A 
ATOM     88  C   UNL A   1      50.336  26.122  27.371  1.00  0.00     0.135 A 
ATOM     89  F   UNL A   1      49.125  27.482  24.216  1.00  0.00    -0.206 F 
ATOM     90  C   UNL A   1      51.127  26.362  24.710  1.00  0.00     0.059 A 
ATOM     91  C   UNL A   1      51.572  25.622  26.983  1.00  0.00     0.059 A 
ATOM     92  F   UNL A   1      49.973  25.990  28.656  1.00  0.00    -0.206 F 
ATOM     93  C   UNL A   1      51.956  25.743  25.648  1.00  0.00     0.060 A 
BRANCH  93  94
ATOM     94  S   UNL A   1      53.567  25.141  25.107  1.00  0.00     0.124 S 
ATOM     95  O   UNL A   1      54.441  25.664  26.151  1.00  0.00    -0.237 OA
ATOM     96  O   UNL A   1      53.373  23.694  25.108  1.00  0.00    -0.237 OA
ATOM     97  O   UNL A   1      53.731  25.746  23.788  1.00  0.00    -0.744 OA
ENDBRANCH  93  94
ENDBRANCH  61  86
ENDBRANCH  35  36
ENDBRANCH  28  30
ENDBRANCH  27  28
ENDBRANCH  26  27
ENDBRANCH  25  26
ENDBRANCH  24  25
ENDBRANCH  23  24
ENDBRANCH  22  23
ENDBRANCH   1  22
TORSDOF 27
ENDMDL
