MODEL 1
REMARK VINA RESULT:     -10.0      0.000      0.000
REMARK SMILES [NH3+][C@@]1(C(=O)OCCOCCOCCOC(=O)c2ccc(-c3c4nc(c(-c5c(F)cc(S(=O)(=O)[O-])cc5F)c5ccc([nH]5)c(-c5c(F)cc(S(=O)(=O)[O-])cc5F)c5nc(c(-c6c(F)cc(S(=O)(=O)[O-])cc6F)c6ccc3[nH]6)C=C5)C=C4)cc2)CC[C@H](Sc2ccc(Cl)cn2)C1
REMARK SMILES IDX 10 1 9 2 8 3 7 4 6 5 5 6 3 7 4 8 2 9 83 10 94 11 84 12 85 13
REMARK SMILES IDX 1 14 86 18 87 19 88 20 93 21 89 22 92 23 90 24 91 25 11 26
REMARK SMILES IDX 12 27 13 28 14 29 15 30 16 31 17 32 18 33 82 34 19 35 81 36
REMARK SMILES IDX 20 37 21 38 22 39 75 40 23 41 80 42 74 43 76 44 24 45 79 46
REMARK SMILES IDX 73 47 72 48 25 50 59 51 38 52 58 53 39 54 42 55 57 56 77 57
REMARK SMILES IDX 40 58 41 59 56 61 78 62 43 63 26 64 27 65 36 66 28 67 29 68
REMARK SMILES IDX 35 69 37 70 30 71 31 72 32 73 33 74 34 75 60 76 61 77 70 78
REMARK SMILES IDX 62 79 63 80 69 81 71 82 64 83 65 84 66 85 67 86 68 87 44 88
REMARK SMILES IDX 45 89 54 90 46 91 47 92 53 93 55 94 48 95 49 96 50 97 51 98
REMARK SMILES IDX 52 99
REMARK H PARENT 1 15 1 16 1 17 76 49 42 60
REMARK Flexibility Score: inf
ROOT
ATOM      1  C   UNL A   1      34.566  22.215  26.445  1.00  0.00     0.188 C 
ENDROOT
BRANCH   1   2
ATOM      2  C   UNL A   1      33.782  22.047  27.749  1.00  0.00     0.188 C 
BRANCH   2   3
ATOM      3  O   UNL A   1      32.498  22.640  27.855  1.00  0.00    -0.376 OA
BRANCH   3   4
ATOM      4  C   UNL A   1      32.025  23.454  26.786  1.00  0.00     0.202 C 
BRANCH   4   5
ATOM      5  C   UNL A   1      30.963  22.902  25.815  1.00  0.00     0.261 C 
BRANCH   5   6
ATOM      6  O   UNL A   1      31.047  23.362  24.445  1.00  0.00    -0.459 OA
BRANCH   6   7
ATOM      7  C   UNL A   1      32.084  22.877  23.719  1.00  0.00     0.368 C 
ATOM      8  O   UNL A   1      32.456  21.706  23.755  1.00  0.00    -0.245 OA
BRANCH   7   9
ATOM      9  C   UNL A   1      32.761  23.905  22.753  1.00  0.00     0.193 C 
ATOM     10  C   UNL A   1      34.185  24.135  23.264  1.00  0.00     0.082 C 
ATOM     11  C   UNL A   1      32.230  25.344  22.650  1.00  0.00     0.096 C 
ATOM     12  C   UNL A   1      33.986  25.210  24.328  1.00  0.00     0.022 C 
ATOM     13  C   UNL A   1      32.983  26.179  23.697  1.00  0.00     0.060 C 
BRANCH   9  14
ATOM     14  N   UNL A   1      32.795  23.294  21.403  1.00  0.00    -0.343 N 
ATOM     15  H   UNL A   1      33.427  22.493  21.408  1.00  0.00     0.345 HD
ATOM     16  H   UNL A   1      33.124  23.983  20.727  1.00  0.00     0.345 HD
ATOM     17  H   UNL A   1      31.857  22.986  21.146  1.00  0.00     0.345 HD
ENDBRANCH   9  14
BRANCH  13  18
ATOM     18  S   UNL A   1      31.757  26.900  24.846  1.00  0.00    -0.103 SA
BRANCH  18  19
ATOM     19  C   UNL A   1      32.632  28.151  25.738  1.00  0.00     0.096 A 
ATOM     20  C   UNL A   1      33.842  27.968  26.396  1.00  0.00     0.037 A 
ATOM     21  N   UNL A   1      31.991  29.346  25.749  1.00  0.00    -0.248 NA
ATOM     22  C   UNL A   1      34.375  29.016  27.148  1.00  0.00     0.025 A 
ATOM     23  C   UNL A   1      32.541  30.356  26.460  1.00  0.00     0.132 A 
ATOM     24  C   UNL A   1      33.710  30.232  27.186  1.00  0.00     0.059 A 
ATOM     25  Cl  UNL A   1      34.321  31.538  28.111  1.00  0.00    -0.083 Cl
ENDBRANCH  18  19
ENDBRANCH  13  18
ENDBRANCH   7   9
ENDBRANCH   6   7
ENDBRANCH   5   6
ENDBRANCH   4   5
ENDBRANCH   3   4
ENDBRANCH   2   3
ENDBRANCH   1   2
BRANCH   1  26
ATOM     26  O   UNL A   1      35.384  21.125  26.093  1.00  0.00    -0.376 OA
BRANCH  26  27
ATOM     27  C   UNL A   1      36.124  21.193  24.885  1.00  0.00     0.202 C 
BRANCH  27  28
ATOM     28  C   UNL A   1      37.651  21.401  24.959  1.00  0.00     0.261 C 
BRANCH  28  29
ATOM     29  O   UNL A   1      38.139  22.250  26.016  1.00  0.00    -0.460 OA
BRANCH  29  30
ATOM     30  C   UNL A   1      39.429  22.081  26.399  1.00  0.00     0.338 C 
ATOM     31  O   UNL A   1      40.148  21.132  26.122  1.00  0.00    -0.246 OA
BRANCH  30  32
ATOM     32  C   UNL A   1      39.913  23.371  26.958  1.00  0.00     0.060 A 
ATOM     33  C   UNL A   1      39.300  24.559  26.530  1.00  0.00     0.016 A 
ATOM     34  C   UNL A   1      40.912  23.415  27.933  1.00  0.00     0.016 A 
ATOM     35  C   UNL A   1      39.703  25.791  27.052  1.00  0.00     0.010 A 
ATOM     36  C   UNL A   1      41.333  24.654  28.435  1.00  0.00     0.010 A 
ATOM     37  C   UNL A   1      40.752  25.851  27.978  1.00  0.00    -0.014 A 
BRANCH  37  38
ATOM     38  C   UNL A   1      41.349  27.169  28.327  1.00  0.00     0.031 A 
ATOM     39  C   UNL A   1      42.801  27.410  28.003  1.00  0.00     0.074 A 
ATOM     40  C   UNL A   1      40.616  28.152  28.883  1.00  0.00     0.049 A 
ATOM     41  N   UNL A   1      43.537  28.472  28.213  1.00  0.00    -0.248 NA
ATOM     42  C   UNL A   1      43.519  26.302  27.353  1.00  0.00     0.031 C 
ATOM     43  C   UNL A   1      39.197  28.063  29.217  1.00  0.00     0.029 A 
ATOM     44  N   UNL A   1      40.973  29.422  29.267  1.00  0.00    -0.354 N 
ATOM     45  C   UNL A   1      44.801  28.161  27.725  1.00  0.00     0.074 A 
ATOM     46  C   UNL A   1      44.743  26.798  27.242  1.00  0.00     0.031 C 
ATOM     47  C   UNL A   1      38.803  29.228  29.763  1.00  0.00     0.029 A 
ATOM     48  C   UNL A   1      39.947  30.135  29.844  1.00  0.00     0.049 A 
ATOM     49  H   UNL A   1      41.878  29.788  29.141  1.00  0.00     0.167 HD
ATOM     50  C   UNL A   1      45.909  28.939  27.676  1.00  0.00     0.037 A 
ATOM     51  C   UNL A   1      39.938  31.368  30.391  1.00  0.00     0.037 A 
ATOM     52  C   UNL A   1      45.970  30.294  28.165  1.00  0.00     0.049 A 
ATOM     53  C   UNL A   1      41.200  32.195  30.381  1.00  0.00     0.074 A 
ATOM     54  C   UNL A   1      47.043  31.168  28.144  1.00  0.00     0.029 A 
ATOM     55  N   UNL A   1      44.921  30.969  28.772  1.00  0.00    -0.354 N 
ATOM     56  N   UNL A   1      42.383  31.897  29.894  1.00  0.00    -0.248 NA
ATOM     57  C   UNL A   1      41.124  33.532  30.987  1.00  0.00     0.031 C 
ATOM     58  C   UNL A   1      46.662  32.348  28.793  1.00  0.00     0.029 A 
ATOM     59  C   UNL A   1      45.329  32.236  29.156  1.00  0.00     0.049 A 
ATOM     60  H   UNL A   1      44.017  30.600  28.911  1.00  0.00     0.167 HD
ATOM     61  C   UNL A   1      43.180  33.019  30.108  1.00  0.00     0.074 A 
ATOM     62  C   UNL A   1      42.338  34.008  30.750  1.00  0.00     0.031 C 
ATOM     63  C   UNL A   1      44.488  33.215  29.801  1.00  0.00     0.037 A 
BRANCH  50  64
ATOM     64  C   UNL A   1      47.160  28.335  27.096  1.00  0.00     0.058 A 
ATOM     65  C   UNL A   1      47.401  28.309  25.712  1.00  0.00     0.135 A 
ATOM     66  C   UNL A   1      48.150  27.803  27.939  1.00  0.00     0.135 A 
ATOM     67  F   UNL A   1      46.483  28.785  24.855  1.00  0.00    -0.206 F 
ATOM     68  C   UNL A   1      48.564  27.756  25.185  1.00  0.00     0.059 A 
ATOM     69  C   UNL A   1      49.334  27.273  27.436  1.00  0.00     0.059 A 
ATOM     70  F   UNL A   1      47.971  27.797  29.270  1.00  0.00    -0.206 F 
ATOM     71  C   UNL A   1      49.527  27.242  26.057  1.00  0.00     0.060 A 
BRANCH  71  72
ATOM     72  S   UNL A   1      51.034  26.537  25.357  1.00  0.00     0.124 S 
ATOM     73  O   UNL A   1      50.768  26.642  23.925  1.00  0.00    -0.237 OA
ATOM     74  O   UNL A   1      52.065  27.429  25.878  1.00  0.00    -0.237 OA
ATOM     75  O   UNL A   1      51.055  25.179  25.892  1.00  0.00    -0.744 OA
ENDBRANCH  71  72
ENDBRANCH  50  64
BRANCH  51  76
ATOM     76  C   UNL A   1      38.690  31.905  31.004  1.00  0.00     0.058 A 
ATOM     77  C   UNL A   1      38.429  31.759  32.374  1.00  0.00     0.135 A 
ATOM     78  C   UNL A   1      37.726  32.564  30.224  1.00  0.00     0.135 A 
ATOM     79  F   UNL A   1      39.310  31.121  33.160  1.00  0.00    -0.206 F 
ATOM     80  C   UNL A   1      37.251  32.230  32.948  1.00  0.00     0.059 A 
ATOM     81  C   UNL A   1      36.555  33.071  30.781  1.00  0.00     0.059 A 
ATOM     82  F   UNL A   1      37.926  32.736  28.909  1.00  0.00    -0.206 F 
ATOM     83  C   UNL A   1      36.322  32.889  32.143  1.00  0.00     0.060 A 
BRANCH  83  84
ATOM     84  S   UNL A   1      34.821  33.542  32.907  1.00  0.00     0.124 S 
ATOM     85  O   UNL A   1      35.096  33.329  34.324  1.00  0.00    -0.237 OA
ATOM     86  O   UNL A   1      34.830  34.931  32.457  1.00  0.00    -0.237 OA
ATOM     87  O   UNL A   1      33.764  32.712  32.338  1.00  0.00    -0.744 OA
ENDBRANCH  83  84
ENDBRANCH  51  76
BRANCH  63  88
ATOM     88  C   UNL A   1      45.079  34.564  30.122  1.00  0.00     0.058 A 
ATOM     89  C   UNL A   1      45.678  34.841  31.362  1.00  0.00     0.135 A 
ATOM     90  C   UNL A   1      45.051  35.598  29.170  1.00  0.00     0.135 A 
ATOM     91  F   UNL A   1      45.738  33.892  32.310  1.00  0.00    -0.206 F 
ATOM     92  C   UNL A   1      46.175  36.106  31.667  1.00  0.00     0.059 A 
ATOM     93  C   UNL A   1      45.575  36.859  29.440  1.00  0.00     0.059 A 
ATOM     94  F   UNL A   1      44.509  35.389  27.959  1.00  0.00    -0.206 F 
ATOM     95  C   UNL A   1      46.111  37.111  30.700  1.00  0.00     0.060 A 
BRANCH  95  96
ATOM     96  S   UNL A   1      46.738  38.753  31.115  1.00  0.00     0.124 S 
ATOM     97  O   UNL A   1      46.003  39.594  30.175  1.00  0.00    -0.237 OA
ATOM     98  O   UNL A   1      46.357  38.889  32.517  1.00  0.00    -0.237 OA
ATOM     99  O   UNL A   1      48.173  38.643  30.868  1.00  0.00    -0.744 OA
ENDBRANCH  95  96
ENDBRANCH  63  88
ENDBRANCH  37  38
ENDBRANCH  30  32
ENDBRANCH  29  30
ENDBRANCH  28  29
ENDBRANCH  27  28
ENDBRANCH  26  27
ENDBRANCH   1  26
TORSDOF 23
ENDMDL
MODEL 2
REMARK VINA RESULT:      -9.9      1.481      2.173
REMARK SMILES [NH3+][C@@]1(C(=O)OCCOCCOCCOC(=O)c2ccc(-c3c4nc(c(-c5c(F)cc(S(=O)(=O)[O-])cc5F)c5ccc([nH]5)c(-c5c(F)cc(S(=O)(=O)[O-])cc5F)c5nc(c(-c6c(F)cc(S(=O)(=O)[O-])cc6F)c6ccc3[nH]6)C=C5)C=C4)cc2)CC[C@H](Sc2ccc(Cl)cn2)C1
REMARK SMILES IDX 10 1 9 2 8 3 7 4 6 5 5 6 3 7 4 8 2 9 83 10 94 11 84 12 85 13
REMARK SMILES IDX 1 14 86 18 87 19 88 20 93 21 89 22 92 23 90 24 91 25 11 26
REMARK SMILES IDX 12 27 13 28 14 29 15 30 16 31 17 32 18 33 82 34 19 35 81 36
REMARK SMILES IDX 20 37 21 38 22 39 75 40 23 41 80 42 74 43 76 44 24 45 79 46
REMARK SMILES IDX 73 47 72 48 25 50 59 51 38 52 58 53 39 54 42 55 57 56 77 57
REMARK SMILES IDX 40 58 41 59 56 61 78 62 43 63 26 64 27 65 36 66 28 67 29 68
REMARK SMILES IDX 35 69 37 70 30 71 31 72 32 73 33 74 34 75 60 76 61 77 70 78
REMARK SMILES IDX 62 79 63 80 69 81 71 82 64 83 65 84 66 85 67 86 68 87 44 88
REMARK SMILES IDX 45 89 54 90 46 91 47 92 53 93 55 94 48 95 49 96 50 97 51 98
REMARK SMILES IDX 52 99
REMARK H PARENT 1 15 1 16 1 17 76 49 42 60
REMARK Flexibility Score: inf
ROOT
ATOM      1  C   UNL A   1      34.437  22.337  26.617  1.00  0.00     0.188 C 
ENDROOT
BRANCH   1   2
ATOM      2  C   UNL A   1      33.365  21.920  27.627  1.00  0.00     0.188 C 
BRANCH   2   3
ATOM      3  O   UNL A   1      32.205  22.725  27.762  1.00  0.00    -0.376 OA
BRANCH   3   4
ATOM      4  C   UNL A   1      31.719  23.430  26.624  1.00  0.00     0.202 C 
BRANCH   4   5
ATOM      5  C   UNL A   1      30.904  22.685  25.549  1.00  0.00     0.261 C 
BRANCH   5   6
ATOM      6  O   UNL A   1      31.064  23.149  24.188  1.00  0.00    -0.459 OA
BRANCH   6   7
ATOM      7  C   UNL A   1      32.228  22.817  23.580  1.00  0.00     0.368 C 
ATOM      8  O   UNL A   1      32.757  21.710  23.673  1.00  0.00    -0.245 OA
BRANCH   7   9
ATOM      9  C   UNL A   1      32.850  23.929  22.672  1.00  0.00     0.193 C 
ATOM     10  C   UNL A   1      34.266  24.194  23.188  1.00  0.00     0.082 C 
ATOM     11  C   UNL A   1      32.253  25.346  22.657  1.00  0.00     0.096 C 
ATOM     12  C   UNL A   1      34.027  25.195  24.313  1.00  0.00     0.022 C 
ATOM     13  C   UNL A   1      32.975  26.152  23.747  1.00  0.00     0.060 C 
BRANCH   9  14
ATOM     14  N   UNL A   1      32.900  23.400  21.288  1.00  0.00    -0.343 N 
ATOM     15  H   UNL A   1      33.411  24.053  20.694  1.00  0.00     0.345 HD
ATOM     16  H   UNL A   1      31.950  23.288  20.933  1.00  0.00     0.345 HD
ATOM     17  H   UNL A   1      33.373  22.497  21.287  1.00  0.00     0.345 HD
ENDBRANCH   9  14
BRANCH  13  18
ATOM     18  S   UNL A   1      31.727  26.747  24.943  1.00  0.00    -0.103 SA
BRANCH  18  19
ATOM     19  C   UNL A   1      30.598  27.723  23.994  1.00  0.00     0.096 A 
ATOM     20  C   UNL A   1      29.243  27.457  23.839  1.00  0.00     0.037 A 
ATOM     21  N   UNL A   1      31.188  28.780  23.385  1.00  0.00    -0.248 NA
ATOM     22  C   UNL A   1      28.485  28.253  22.979  1.00  0.00     0.025 A 
ATOM     23  C   UNL A   1      30.428  29.556  22.579  1.00  0.00     0.132 A 
ATOM     24  C   UNL A   1      29.089  29.319  22.331  1.00  0.00     0.059 A 
ATOM     25  Cl  UNL A   1      28.199  30.311  21.254  1.00  0.00    -0.083 Cl
ENDBRANCH  18  19
ENDBRANCH  13  18
ENDBRANCH   7   9
ENDBRANCH   6   7
ENDBRANCH   5   6
ENDBRANCH   4   5
ENDBRANCH   3   4
ENDBRANCH   2   3
ENDBRANCH   1   2
BRANCH   1  26
ATOM     26  O   UNL A   1      35.532  21.459  26.510  1.00  0.00    -0.376 OA
BRANCH  26  27
ATOM     27  C   UNL A   1      36.026  21.144  25.217  1.00  0.00     0.202 C 
BRANCH  27  28
ATOM     28  C   UNL A   1      37.548  21.184  24.974  1.00  0.00     0.261 C 
BRANCH  28  29
ATOM     29  O   UNL A   1      38.260  22.321  25.502  1.00  0.00    -0.460 OA
BRANCH  29  30
ATOM     30  C   UNL A   1      39.318  22.067  26.311  1.00  0.00     0.338 C 
ATOM     31  O   UNL A   1      39.941  21.018  26.381  1.00  0.00    -0.246 OA
BRANCH  30  32
ATOM     32  C   UNL A   1      39.780  23.362  26.879  1.00  0.00     0.060 A 
ATOM     33  C   UNL A   1      39.196  24.547  26.406  1.00  0.00     0.016 A 
ATOM     34  C   UNL A   1      40.727  23.412  27.903  1.00  0.00     0.016 A 
ATOM     35  C   UNL A   1      39.579  25.783  26.934  1.00  0.00     0.010 A 
ATOM     36  C   UNL A   1      41.129  24.655  28.412  1.00  0.00     0.010 A 
ATOM     37  C   UNL A   1      40.579  25.850  27.912  1.00  0.00    -0.014 A 
BRANCH  37  38
ATOM     38  C   UNL A   1      41.165  27.168  28.276  1.00  0.00     0.031 A 
ATOM     39  C   UNL A   1      42.647  27.372  28.099  1.00  0.00     0.074 A 
ATOM     40  C   UNL A   1      40.399  28.184  28.717  1.00  0.00     0.049 A 
ATOM     41  N   UNL A   1      43.379  28.427  28.349  1.00  0.00    -0.248 NA
ATOM     42  C   UNL A   1      43.405  26.228  27.567  1.00  0.00     0.031 C 
ATOM     43  C   UNL A   1      38.951  28.132  28.903  1.00  0.00     0.029 A 
ATOM     44  N   UNL A   1      40.740  29.461  29.093  1.00  0.00    -0.354 N 
ATOM     45  C   UNL A   1      44.681  28.076  28.007  1.00  0.00     0.074 A 
ATOM     46  C   UNL A   1      44.644  26.697  27.568  1.00  0.00     0.031 C 
ATOM     47  C   UNL A   1      38.527  29.324  29.364  1.00  0.00     0.029 A 
ATOM     48  C   UNL A   1      39.676  30.213  29.533  1.00  0.00     0.049 A 
ATOM     49  H   UNL A   1      41.662  29.806  29.050  1.00  0.00     0.167 HD
ATOM     50  C   UNL A   1      45.804  28.832  28.048  1.00  0.00     0.037 A 
ATOM     51  C   UNL A   1      39.636  31.465  30.033  1.00  0.00     0.037 A 
ATOM     52  C   UNL A   1      45.843  30.203  28.493  1.00  0.00     0.049 A 
ATOM     53  C   UNL A   1      40.910  32.268  30.127  1.00  0.00     0.074 A 
ATOM     54  C   UNL A   1      46.931  31.056  28.556  1.00  0.00     0.029 A 
ATOM     55  N   UNL A   1      44.751  30.918  28.963  1.00  0.00    -0.354 N 
ATOM     56  N   UNL A   1      42.130  31.932  29.778  1.00  0.00    -0.248 NA
ATOM     57  C   UNL A   1      40.800  33.628  30.676  1.00  0.00     0.031 C 
ATOM     58  C   UNL A   1      46.510  32.266  29.120  1.00  0.00     0.029 A 
ATOM     59  C   UNL A   1      45.144  32.191  29.344  1.00  0.00     0.049 A 
ATOM     60  H   UNL A   1      43.830  30.571  29.019  1.00  0.00     0.167 HD
ATOM     61  C   UNL A   1      42.924  33.047  30.036  1.00  0.00     0.074 A 
ATOM     62  C   UNL A   1      42.042  34.074  30.551  1.00  0.00     0.031 C 
ATOM     63  C   UNL A   1      44.261  33.208  29.862  1.00  0.00     0.037 A 
BRANCH  50  64
ATOM     64  C   UNL A   1      47.096  28.185  27.624  1.00  0.00     0.058 A 
ATOM     65  C   UNL A   1      47.924  27.510  28.537  1.00  0.00     0.135 A 
ATOM     66  C   UNL A   1      47.496  28.211  26.277  1.00  0.00     0.135 A 
ATOM     67  F   UNL A   1      47.603  27.469  29.840  1.00  0.00    -0.206 F 
ATOM     68  C   UNL A   1      49.112  26.907  28.135  1.00  0.00     0.059 A 
ATOM     69  C   UNL A   1      48.664  27.587  25.849  1.00  0.00     0.059 A 
ATOM     70  F   UNL A   1      46.746  28.845  25.363  1.00  0.00    -0.206 F 
ATOM     71  C   UNL A   1      49.473  26.950  26.787  1.00  0.00     0.060 A 
BRANCH  71  72
ATOM     72  S   UNL A   1      51.012  26.154  26.281  1.00  0.00     0.124 S 
ATOM     73  O   UNL A   1      50.866  24.830  26.878  1.00  0.00    -0.237 OA
ATOM     74  O   UNL A   1      50.925  26.206  24.825  1.00  0.00    -0.237 OA
ATOM     75  O   UNL A   1      52.043  26.999  26.876  1.00  0.00    -0.744 OA
ENDBRANCH  71  72
ENDBRANCH  50  64
BRANCH  51  76
ATOM     76  C   UNL A   1      38.343  32.047  30.492  1.00  0.00     0.058 A 
ATOM     77  C   UNL A   1      37.849  31.800  31.782  1.00  0.00     0.135 A 
ATOM     78  C   UNL A   1      37.567  32.850  29.641  1.00  0.00     0.135 A 
ATOM     79  F   UNL A   1      38.543  31.024  32.628  1.00  0.00    -0.206 F 
ATOM     80  C   UNL A   1      36.627  32.314  32.207  1.00  0.00     0.059 A 
ATOM     81  C   UNL A   1      36.357  33.400  30.054  1.00  0.00     0.059 A 
ATOM     82  F   UNL A   1      37.994  33.122  28.398  1.00  0.00    -0.206 F 
ATOM     83  C   UNL A   1      35.890  33.117  31.336  1.00  0.00     0.060 A 
BRANCH  83  84
ATOM     84  S   UNL A   1      34.331  33.821  31.916  1.00  0.00     0.124 S 
ATOM     85  O   UNL A   1      34.798  34.923  32.749  1.00  0.00    -0.237 OA
ATOM     86  O   UNL A   1      33.682  34.198  30.663  1.00  0.00    -0.237 OA
ATOM     87  O   UNL A   1      33.706  32.712  32.630  1.00  0.00    -0.744 OA
ENDBRANCH  83  84
ENDBRANCH  51  76
BRANCH  63  88
ATOM     88  C   UNL A   1      44.845  34.557  30.197  1.00  0.00     0.058 A 
ATOM     89  C   UNL A   1      44.948  35.583  29.243  1.00  0.00     0.135 A 
ATOM     90  C   UNL A   1      45.306  34.831  31.496  1.00  0.00     0.135 A 
ATOM     91  F   UNL A   1      44.521  35.382  27.986  1.00  0.00    -0.206 F 
ATOM     92  C   UNL A   1      45.536  36.808  29.549  1.00  0.00     0.059 A 
ATOM     93  C   UNL A   1      45.864  36.061  31.833  1.00  0.00     0.059 A 
ATOM     94  F   UNL A   1      45.217  33.896  32.457  1.00  0.00    -0.206 F 
ATOM     95  C   UNL A   1      45.998  37.034  30.846  1.00  0.00     0.060 A 
BRANCH  95  96
ATOM     96  S   UNL A   1      46.780  38.617  31.224  1.00  0.00     0.124 S 
ATOM     97  O   UNL A   1      47.947  38.585  30.348  1.00  0.00    -0.237 OA
ATOM     98  O   UNL A   1      45.740  39.575  30.861  1.00  0.00    -0.237 OA
ATOM     99  O   UNL A   1      47.066  38.523  32.653  1.00  0.00    -0.744 OA
ENDBRANCH  95  96
ENDBRANCH  63  88
ENDBRANCH  37  38
ENDBRANCH  30  32
ENDBRANCH  29  30
ENDBRANCH  28  29
ENDBRANCH  27  28
ENDBRANCH  26  27
ENDBRANCH   1  26
TORSDOF 23
ENDMDL
MODEL 3
REMARK VINA RESULT:      -9.9      4.617      9.969
REMARK SMILES [NH3+][C@@]1(C(=O)OCCOCCOCCOC(=O)c2ccc(-c3c4nc(c(-c5c(F)cc(S(=O)(=O)[O-])cc5F)c5ccc([nH]5)c(-c5c(F)cc(S(=O)(=O)[O-])cc5F)c5nc(c(-c6c(F)cc(S(=O)(=O)[O-])cc6F)c6ccc3[nH]6)C=C5)C=C4)cc2)CC[C@H](Sc2ccc(Cl)cn2)C1
REMARK SMILES IDX 10 1 9 2 8 3 7 4 6 5 5 6 3 7 4 8 2 9 83 10 94 11 84 12 85 13
REMARK SMILES IDX 1 14 86 18 87 19 88 20 93 21 89 22 92 23 90 24 91 25 11 26
REMARK SMILES IDX 12 27 13 28 14 29 15 30 16 31 17 32 18 33 82 34 19 35 81 36
REMARK SMILES IDX 20 37 21 38 22 39 75 40 23 41 80 42 74 43 76 44 24 45 79 46
REMARK SMILES IDX 73 47 72 48 25 50 59 51 38 52 58 53 39 54 42 55 57 56 77 57
REMARK SMILES IDX 40 58 41 59 56 61 78 62 43 63 26 64 27 65 36 66 28 67 29 68
REMARK SMILES IDX 35 69 37 70 30 71 31 72 32 73 33 74 34 75 60 76 61 77 70 78
REMARK SMILES IDX 62 79 63 80 69 81 71 82 64 83 65 84 66 85 67 86 68 87 44 88
REMARK SMILES IDX 45 89 54 90 46 91 47 92 53 93 55 94 48 95 49 96 50 97 51 98
REMARK SMILES IDX 52 99
REMARK H PARENT 1 15 1 16 1 17 76 49 42 60
REMARK Flexibility Score: inf
ROOT
ATOM      1  C   UNL A   1      32.040  28.791  22.756  1.00  0.00     0.188 C 
ENDROOT
BRANCH   1   2
ATOM      2  C   UNL A   1      30.640  29.174  23.242  1.00  0.00     0.188 C 
BRANCH   2   3
ATOM      3  O   UNL A   1      29.513  28.694  22.526  1.00  0.00    -0.376 OA
BRANCH   3   4
ATOM      4  C   UNL A   1      28.458  28.063  23.245  1.00  0.00     0.202 C 
BRANCH   4   5
ATOM      5  C   UNL A   1      28.656  26.642  23.807  1.00  0.00     0.261 C 
BRANCH   5   6
ATOM      6  O   UNL A   1      29.870  26.414  24.561  1.00  0.00    -0.459 OA
BRANCH   6   7
ATOM      7  C   UNL A   1      30.414  25.178  24.453  1.00  0.00     0.368 C 
ATOM      8  O   UNL A   1      30.560  24.586  23.385  1.00  0.00    -0.245 OA
BRANCH   7   9
ATOM      9  C   UNL A   1      30.921  24.551  25.793  1.00  0.00     0.193 C 
ATOM     10  C   UNL A   1      31.785  25.606  26.487  1.00  0.00     0.082 C 
ATOM     11  C   UNL A   1      31.862  23.336  25.778  1.00  0.00     0.096 C 
ATOM     12  C   UNL A   1      33.148  25.400  25.834  1.00  0.00     0.022 C 
ATOM     13  C   UNL A   1      33.299  23.878  25.755  1.00  0.00     0.060 C 
BRANCH   9  14
ATOM     14  N   UNL A   1      29.729  24.241  26.620  1.00  0.00    -0.343 N 
ATOM     15  H   UNL A   1      29.986  23.574  27.348  1.00  0.00     0.345 HD
ATOM     16  H   UNL A   1      29.002  23.839  26.029  1.00  0.00     0.345 HD
ATOM     17  H   UNL A   1      29.383  25.098  27.050  1.00  0.00     0.345 HD
ENDBRANCH   9  14
BRANCH  13  18
ATOM     18  S   UNL A   1      34.127  23.247  24.253  1.00  0.00    -0.103 SA
BRANCH  18  19
ATOM     19  C   UNL A   1      35.758  22.799  24.771  1.00  0.00     0.096 A 
ATOM     20  C   UNL A   1      36.337  21.547  24.601  1.00  0.00     0.037 A 
ATOM     21  N   UNL A   1      36.416  23.807  25.395  1.00  0.00    -0.248 NA
ATOM     22  C   UNL A   1      37.596  21.298  25.148  1.00  0.00     0.025 A 
ATOM     23  C   UNL A   1      37.647  23.552  25.891  1.00  0.00     0.132 A 
ATOM     24  C   UNL A   1      38.263  22.317  25.812  1.00  0.00     0.059 A 
ATOM     25  Cl  UNL A   1      39.803  22.049  26.513  1.00  0.00    -0.083 Cl
ENDBRANCH  18  19
ENDBRANCH  13  18
ENDBRANCH   7   9
ENDBRANCH   6   7
ENDBRANCH   5   6
ENDBRANCH   4   5
ENDBRANCH   3   4
ENDBRANCH   2   3
ENDBRANCH   1   2
BRANCH   1  26
ATOM     26  O   UNL A   1      33.049  28.845  23.735  1.00  0.00    -0.376 OA
BRANCH  26  27
ATOM     27  C   UNL A   1      32.727  29.368  25.014  1.00  0.00     0.202 C 
BRANCH  27  28
ATOM     28  C   UNL A   1      33.663  29.060  26.201  1.00  0.00     0.261 C 
BRANCH  28  29
ATOM     29  O   UNL A   1      33.457  29.824  27.405  1.00  0.00    -0.460 OA
BRANCH  29  30
ATOM     30  C   UNL A   1      34.278  30.882  27.615  1.00  0.00     0.338 C 
ATOM     31  O   UNL A   1      33.950  32.059  27.637  1.00  0.00    -0.246 OA
BRANCH  30  32
ATOM     32  C   UNL A   1      35.581  30.360  28.106  1.00  0.00     0.060 A 
ATOM     33  C   UNL A   1      35.612  29.686  29.337  1.00  0.00     0.016 A 
ATOM     34  C   UNL A   1      36.746  30.475  27.346  1.00  0.00     0.016 A 
ATOM     35  C   UNL A   1      36.809  29.153  29.821  1.00  0.00     0.010 A 
ATOM     36  C   UNL A   1      37.952  29.963  27.847  1.00  0.00     0.010 A 
ATOM     37  C   UNL A   1      37.997  29.324  29.100  1.00  0.00    -0.014 A 
BRANCH  37  38
ATOM     38  C   UNL A   1      39.299  28.992  29.738  1.00  0.00     0.031 A 
ATOM     39  C   UNL A   1      39.727  29.772  30.954  1.00  0.00     0.074 A 
ATOM     40  C   UNL A   1      40.076  27.991  29.279  1.00  0.00     0.049 A 
ATOM     41  N   UNL A   1      40.813  29.664  31.674  1.00  0.00    -0.248 NA
ATOM     42  C   UNL A   1      38.799  30.817  31.419  1.00  0.00     0.031 C 
ATOM     43  C   UNL A   1      39.767  27.138  28.134  1.00  0.00     0.029 A 
ATOM     44  N   UNL A   1      41.290  27.528  29.726  1.00  0.00    -0.354 N 
ATOM     45  C   UNL A   1      40.703  30.625  32.674  1.00  0.00     0.074 A 
ATOM     46  C   UNL A   1      39.461  31.331  32.445  1.00  0.00     0.031 C 
ATOM     47  C   UNL A   1      40.770  26.257  27.964  1.00  0.00     0.029 A 
ATOM     48  C   UNL A   1      41.805  26.502  28.968  1.00  0.00     0.049 A 
ATOM     49  H   UNL A   1      41.749  27.897  30.515  1.00  0.00     0.167 HD
ATOM     50  C   UNL A   1      41.553  30.890  33.695  1.00  0.00     0.037 A 
ATOM     51  C   UNL A   1      42.982  25.850  29.062  1.00  0.00     0.037 A 
ATOM     52  C   UNL A   1      42.795  30.193  33.919  1.00  0.00     0.049 A 
ATOM     53  C   UNL A   1      43.942  26.206  30.170  1.00  0.00     0.074 A 
ATOM     54  C   UNL A   1      43.715  30.382  34.934  1.00  0.00     0.029 A 
ATOM     55  N   UNL A   1      43.297  29.184  33.110  1.00  0.00    -0.354 N 
ATOM     56  N   UNL A   1      43.814  27.100  31.123  1.00  0.00    -0.248 NA
ATOM     57  C   UNL A   1      45.205  25.455  30.221  1.00  0.00     0.031 C 
ATOM     58  C   UNL A   1      44.802  29.529  34.707  1.00  0.00     0.029 A 
ATOM     59  C   UNL A   1      44.526  28.759  33.588  1.00  0.00     0.049 A 
ATOM     60  H   UNL A   1      42.845  28.822  32.313  1.00  0.00     0.167 HD
ATOM     61  C   UNL A   1      44.964  26.997  31.902  1.00  0.00     0.074 A 
ATOM     62  C   UNL A   1      45.765  25.940  31.320  1.00  0.00     0.031 C 
ATOM     63  C   UNL A   1      45.324  27.710  33.000  1.00  0.00     0.037 A 
BRANCH  50  64
ATOM     64  C   UNL A   1      41.183  32.006  34.637  1.00  0.00     0.058 A 
ATOM     65  C   UNL A   1      40.467  31.771  35.823  1.00  0.00     0.135 A 
ATOM     66  C   UNL A   1      41.581  33.326  34.367  1.00  0.00     0.135 A 
ATOM     67  F   UNL A   1      40.044  30.533  36.124  1.00  0.00    -0.206 F 
ATOM     68  C   UNL A   1      40.137  32.806  36.692  1.00  0.00     0.059 A 
ATOM     69  C   UNL A   1      41.288  34.372  35.237  1.00  0.00     0.059 A 
ATOM     70  F   UNL A   1      42.263  33.609  33.246  1.00  0.00    -0.206 F 
ATOM     71  C   UNL A   1      40.555  34.104  36.391  1.00  0.00     0.060 A 
BRANCH  71  72
ATOM     72  S   UNL A   1      40.126  35.434  37.534  1.00  0.00     0.124 S 
ATOM     73  O   UNL A   1      41.257  35.402  38.457  1.00  0.00    -0.237 OA
ATOM     74  O   UNL A   1      40.062  36.594  36.651  1.00  0.00    -0.237 OA
ATOM     75  O   UNL A   1      38.849  35.004  38.093  1.00  0.00    -0.744 OA
ENDBRANCH  71  72
ENDBRANCH  50  64
BRANCH  51  76
ATOM     76  C   UNL A   1      43.331  24.790  28.074  1.00  0.00     0.058 A 
ATOM     77  C   UNL A   1      43.995  25.098  26.877  1.00  0.00     0.135 A 
ATOM     78  C   UNL A   1      42.991  23.447  28.302  1.00  0.00     0.135 A 
ATOM     79  F   UNL A   1      44.326  26.369  26.602  1.00  0.00    -0.206 F 
ATOM     80  C   UNL A   1      44.296  24.119  25.935  1.00  0.00     0.059 A 
ATOM     81  C   UNL A   1      43.309  22.445  27.389  1.00  0.00     0.059 A 
ATOM     82  F   UNL A   1      42.359  23.095  29.431  1.00  0.00    -0.206 F 
ATOM     83  C   UNL A   1      43.952  22.793  26.203  1.00  0.00     0.060 A 
BRANCH  83  84
ATOM     84  S   UNL A   1      44.394  21.523  24.997  1.00  0.00     0.124 S 
ATOM     85  O   UNL A   1      45.765  21.212  25.387  1.00  0.00    -0.237 OA
ATOM     86  O   UNL A   1      43.402  20.486  25.269  1.00  0.00    -0.237 OA
ATOM     87  O   UNL A   1      44.242  22.207  23.717  1.00  0.00    -0.744 OA
ENDBRANCH  83  84
ENDBRANCH  51  76
BRANCH  63  88
ATOM     88  C   UNL A   1      46.626  27.345  33.666  1.00  0.00     0.058 A 
ATOM     89  C   UNL A   1      47.839  27.965  33.324  1.00  0.00     0.135 A 
ATOM     90  C   UNL A   1      46.661  26.360  34.669  1.00  0.00     0.135 A 
ATOM     91  F   UNL A   1      47.869  28.915  32.376  1.00  0.00    -0.206 F 
ATOM     92  C   UNL A   1      49.045  27.583  33.908  1.00  0.00     0.059 A 
ATOM     93  C   UNL A   1      47.849  25.989  35.293  1.00  0.00     0.059 A 
ATOM     94  F   UNL A   1      45.531  25.745  35.053  1.00  0.00    -0.206 F 
ATOM     95  C   UNL A   1      49.039  26.588  34.887  1.00  0.00     0.060 A 
BRANCH  95  96
ATOM     96  S   UNL A   1      50.611  26.086  35.621  1.00  0.00     0.124 S 
ATOM     97  O   UNL A   1      50.261  24.798  36.211  1.00  0.00    -0.237 OA
ATOM     98  O   UNL A   1      51.496  26.033  34.462  1.00  0.00    -0.237 OA
ATOM     99  O   UNL A   1      50.898  27.154  36.575  1.00  0.00    -0.744 OA
ENDBRANCH  95  96
ENDBRANCH  63  88
ENDBRANCH  37  38
ENDBRANCH  30  32
ENDBRANCH  29  30
ENDBRANCH  28  29
ENDBRANCH  27  28
ENDBRANCH  26  27
ENDBRANCH   1  26
TORSDOF 23
ENDMDL
