MODEL 1
REMARK VINA RESULT:      -9.0      0.000      0.000
REMARK SMILES O=C(/C=C\c1ccc(OCc2ccc(Br)cc2)cc1)OCCOCCOCCOC(=O)c1ccc(-c2c3nc(c(-c4c(F)cc(S(=O)(=O)[O-])cc4F)c4ccc([nH]4)c(-c4c(F)cc(S(=O)(=O)[O-])cc4F)c4nc(c(-c5c(F)cc(S(=O)(=O)[O-])cc5F)c5ccc2[nH]5)C=C4)C=C3)cc1
REMARK SMILES IDX 24 1 23 2 22 3 21 4 20 5 2 6 1 7 3 8 4 9 5 10 6 11 19 12
REMARK SMILES IDX 7 13 18 14 8 15 9 16 10 17 11 18 12 19 17 20 13 21 16 22
REMARK SMILES IDX 14 23 15 24 25 25 26 26 27 27 28 28 29 29 30 30 31 31 32 32
REMARK SMILES IDX 33 33 97 34 34 35 96 36 35 37 36 38 37 39 90 40 38 41 95 42
REMARK SMILES IDX 89 43 91 44 39 45 94 46 88 47 87 48 40 50 74 51 53 52 73 53
REMARK SMILES IDX 54 54 57 55 72 56 92 57 55 58 56 59 71 61 93 62 58 63 41 64
REMARK SMILES IDX 42 65 51 66 43 67 44 68 50 69 52 70 45 71 46 72 47 73 48 74
REMARK SMILES IDX 49 75 75 76 76 77 85 78 77 79 78 80 84 81 86 82 79 83 80 84
REMARK SMILES IDX 81 85 82 86 83 87 59 88 60 89 69 90 61 91 62 92 68 93 70 94
REMARK SMILES IDX 63 95 64 96 65 97 66 98 67 99
REMARK H PARENT 91 49 57 60
REMARK Flexibility Score: inf
ROOT
ATOM      1  C   UNL A   1      32.960  35.395  29.403  1.00  0.00     0.188 C 
ENDROOT
BRANCH   1   2
ATOM      2  O   UNL A   1      32.701  36.737  29.812  1.00  0.00    -0.376 OA
BRANCH   2   3
ATOM      3  C   UNL A   1      32.943  37.054  31.184  1.00  0.00     0.202 C 
BRANCH   3   4
ATOM      4  C   UNL A   1      32.842  35.891  32.178  1.00  0.00     0.261 C 
BRANCH   4   5
ATOM      5  O   UNL A   1      34.092  35.460  32.739  1.00  0.00    -0.460 OA
BRANCH   5   6
ATOM      6  C   UNL A   1      34.391  34.267  33.280  1.00  0.00     0.330 C 
ATOM      7  O   UNL A   1      33.908  33.244  32.796  1.00  0.00    -0.247 OA
BRANCH   6   8
ATOM      8  C   UNL A   1      35.176  34.126  34.521  1.00  0.00     0.094 C 
ATOM      9  C   UNL A   1      36.472  33.947  34.834  1.00  0.00     0.015 C 
BRANCH   9  10
ATOM     10  C   UNL A   1      37.663  33.846  33.992  1.00  0.00    -0.025 A 
ATOM     11  C   UNL A   1      37.772  34.606  32.827  1.00  0.00     0.012 A 
ATOM     12  C   UNL A   1      38.672  32.921  34.291  1.00  0.00     0.012 A 
ATOM     13  C   UNL A   1      38.924  34.519  32.039  1.00  0.00     0.047 A 
ATOM     14  C   UNL A   1      39.850  32.879  33.540  1.00  0.00     0.047 A 
ATOM     15  C   UNL A   1      39.997  33.717  32.439  1.00  0.00     0.119 A 
BRANCH  15  16
ATOM     16  O   UNL A   1      41.146  33.902  31.724  1.00  0.00    -0.489 OA
BRANCH  16  17
ATOM     17  C   UNL A   1      41.039  34.022  30.299  1.00  0.00     0.265 C 
BRANCH  17  18
ATOM     18  C   UNL A   1      41.915  35.070  29.621  1.00  0.00    -0.011 A 
ATOM     19  C   UNL A   1      43.181  35.449  30.091  1.00  0.00     0.008 A 
ATOM     20  C   UNL A   1      41.464  35.643  28.419  1.00  0.00     0.008 A 
ATOM     21  C   UNL A   1      43.980  36.351  29.383  1.00  0.00     0.016 A 
ATOM     22  C   UNL A   1      42.253  36.558  27.714  1.00  0.00     0.016 A 
ATOM     23  C   UNL A   1      43.513  36.901  28.196  1.00  0.00     0.017 A 
ATOM     24  Br  UNL A   1      44.596  38.114  27.234  1.00  0.00    -0.051 Br
ENDBRANCH  17  18
ENDBRANCH  16  17
ENDBRANCH  15  16
ENDBRANCH   9  10
ENDBRANCH   6   8
ENDBRANCH   5   6
ENDBRANCH   4   5
ENDBRANCH   3   4
ENDBRANCH   2   3
ENDBRANCH   1   2
BRANCH   1  25
ATOM     25  C   UNL A   1      34.156  35.203  28.460  1.00  0.00     0.188 C 
BRANCH  25  26
ATOM     26  O   UNL A   1      34.338  33.836  28.079  1.00  0.00    -0.376 OA
BRANCH  26  27
ATOM     27  C   UNL A   1      35.707  33.433  28.090  1.00  0.00     0.202 C 
BRANCH  27  28
ATOM     28  C   UNL A   1      36.247  32.983  29.465  1.00  0.00     0.261 C 
BRANCH  28  29
ATOM     29  O   UNL A   1      36.463  31.572  29.617  1.00  0.00    -0.460 OA
BRANCH  29  30
ATOM     30  C   UNL A   1      37.227  31.198  30.669  1.00  0.00     0.338 C 
ATOM     31  O   UNL A   1      36.963  31.357  31.847  1.00  0.00    -0.246 OA
BRANCH  30  32
ATOM     32  C   UNL A   1      38.390  30.428  30.183  1.00  0.00     0.060 A 
ATOM     33  C   UNL A   1      39.341  30.005  31.118  1.00  0.00     0.016 A 
ATOM     34  C   UNL A   1      38.605  30.235  28.815  1.00  0.00     0.016 A 
ATOM     35  C   UNL A   1      40.532  29.425  30.685  1.00  0.00     0.010 A 
ATOM     36  C   UNL A   1      39.814  29.674  28.382  1.00  0.00     0.010 A 
ATOM     37  C   UNL A   1      40.798  29.309  29.316  1.00  0.00    -0.014 A 
BRANCH  37  38
ATOM     38  C   UNL A   1      42.193  29.046  28.886  1.00  0.00     0.031 A 
ATOM     39  C   UNL A   1      42.536  27.656  28.418  1.00  0.00     0.074 A 
ATOM     40  C   UNL A   1      43.116  30.021  28.853  1.00  0.00     0.049 A 
ATOM     41  N   UNL A   1      43.653  27.196  27.918  1.00  0.00    -0.248 NA
ATOM     42  C   UNL A   1      41.464  26.650  28.519  1.00  0.00     0.031 C 
ATOM     43  C   UNL A   1      42.890  31.412  29.242  1.00  0.00     0.029 A 
ATOM     44  N   UNL A   1      44.432  29.988  28.465  1.00  0.00    -0.354 N 
ATOM     45  C   UNL A   1      43.415  25.856  27.632  1.00  0.00     0.074 A 
ATOM     46  C   UNL A   1      42.058  25.568  28.042  1.00  0.00     0.031 C 
ATOM     47  C   UNL A   1      44.033  32.102  29.073  1.00  0.00     0.029 A 
ATOM     48  C   UNL A   1      45.072  31.199  28.578  1.00  0.00     0.049 A 
ATOM     49  H   UNL A   1      44.875  29.174  28.136  1.00  0.00     0.167 HD
ATOM     50  C   UNL A   1      44.249  24.947  27.073  1.00  0.00     0.037 A 
ATOM     51  C   UNL A   1      46.350  31.534  28.310  1.00  0.00     0.037 A 
ATOM     52  C   UNL A   1      45.608  25.230  26.699  1.00  0.00     0.049 A 
ATOM     53  C   UNL A   1      47.284  30.489  27.755  1.00  0.00     0.074 A 
ATOM     54  C   UNL A   1      46.544  24.381  26.136  1.00  0.00     0.029 A 
ATOM     55  N   UNL A   1      46.232  26.457  26.869  1.00  0.00    -0.354 N 
ATOM     56  N   UNL A   1      47.037  29.234  27.458  1.00  0.00    -0.248 NA
ATOM     57  C   UNL A   1      48.667  30.907  27.489  1.00  0.00     0.031 C 
ATOM     58  C   UNL A   1      47.748  25.084  26.006  1.00  0.00     0.029 A 
ATOM     59  C   UNL A   1      47.547  26.384  26.443  1.00  0.00     0.049 A 
ATOM     60  H   UNL A   1      45.802  27.263  27.239  1.00  0.00     0.167 HD
ATOM     61  C   UNL A   1      48.222  28.724  26.935  1.00  0.00     0.074 A 
ATOM     62  C   UNL A   1      49.185  29.807  26.960  1.00  0.00     0.031 C 
ATOM     63  C   UNL A   1      48.486  27.478  26.468  1.00  0.00     0.037 A 
BRANCH  50  64
ATOM     64  C   UNL A   1      43.712  23.557  26.882  1.00  0.00     0.058 A 
ATOM     65  C   UNL A   1      43.346  23.074  25.614  1.00  0.00     0.135 A 
ATOM     66  C   UNL A   1      43.532  22.706  27.984  1.00  0.00     0.135 A 
ATOM     67  F   UNL A   1      43.477  23.854  24.530  1.00  0.00    -0.206 F 
ATOM     68  C   UNL A   1      42.782  21.812  25.452  1.00  0.00     0.059 A 
ATOM     69  C   UNL A   1      42.992  21.431  27.841  1.00  0.00     0.059 A 
ATOM     70  F   UNL A   1      43.860  23.121  29.218  1.00  0.00    -0.206 F 
ATOM     71  C   UNL A   1      42.600  21.002  26.575  1.00  0.00     0.060 A 
BRANCH  71  72
ATOM     72  S   UNL A   1      41.831  19.382  26.360  1.00  0.00     0.124 S 
ATOM     73  O   UNL A   1      42.408  18.954  25.088  1.00  0.00    -0.237 OA
ATOM     74  O   UNL A   1      42.290  18.655  27.538  1.00  0.00    -0.237 OA
ATOM     75  O   UNL A   1      40.404  19.686  26.331  1.00  0.00    -0.744 OA
ENDBRANCH  71  72
ENDBRANCH  50  64
BRANCH  51  76
ATOM     76  C   UNL A   1      46.817  32.927  28.544  1.00  0.00     0.058 A 
ATOM     77  C   UNL A   1      46.707  33.906  27.547  1.00  0.00     0.135 A 
ATOM     78  C   UNL A   1      47.376  33.306  29.775  1.00  0.00     0.135 A 
ATOM     79  F   UNL A   1      46.192  33.589  26.350  1.00  0.00    -0.206 F 
ATOM     80  C   UNL A   1      47.141  35.212  27.757  1.00  0.00     0.059 A 
ATOM     81  C   UNL A   1      47.797  34.611  30.015  1.00  0.00     0.059 A 
ATOM     82  F   UNL A   1      47.498  32.407  30.764  1.00  0.00    -0.206 F 
ATOM     83  C   UNL A   1      47.683  35.556  28.996  1.00  0.00     0.060 A 
BRANCH  83  84
ATOM     84  S   UNL A   1      48.194  37.266  29.279  1.00  0.00     0.124 S 
ATOM     85  O   UNL A   1      49.383  37.083  30.102  1.00  0.00    -0.237 OA
ATOM     86  O   UNL A   1      48.424  37.746  27.920  1.00  0.00    -0.237 OA
ATOM     87  O   UNL A   1      47.042  37.852  29.957  1.00  0.00    -0.744 OA
ENDBRANCH  83  84
ENDBRANCH  51  76
BRANCH  63  88
ATOM     88  C   UNL A   1      49.856  27.229  25.901  1.00  0.00     0.058 A 
ATOM     89  C   UNL A   1      50.938  26.857  26.712  1.00  0.00     0.135 A 
ATOM     90  C   UNL A   1      50.073  27.315  24.516  1.00  0.00     0.135 A 
ATOM     91  F   UNL A   1      50.784  26.762  28.042  1.00  0.00    -0.206 F 
ATOM     92  C   UNL A   1      52.196  26.603  26.173  1.00  0.00     0.059 A 
ATOM     93  C   UNL A   1      51.316  27.042  23.953  1.00  0.00     0.059 A 
ATOM     94  F   UNL A   1      49.067  27.652  23.693  1.00  0.00    -0.206 F 
ATOM     95  C   UNL A   1      52.375  26.700  24.792  1.00  0.00     0.060 A 
BRANCH  95  96
ATOM     96  S   UNL A   1      54.003  26.345  24.098  1.00  0.00     0.124 S 
ATOM     97  O   UNL A   1      54.281  25.027  24.657  1.00  0.00    -0.237 OA
ATOM     98  O   UNL A   1      53.748  26.383  22.661  1.00  0.00    -0.237 OA
ATOM     99  O   UNL A   1      54.833  27.432  24.607  1.00  0.00    -0.744 OA
ENDBRANCH  95  96
ENDBRANCH  63  88
ENDBRANCH  37  38
ENDBRANCH  30  32
ENDBRANCH  29  30
ENDBRANCH  28  29
ENDBRANCH  27  28
ENDBRANCH  26  27
ENDBRANCH  25  26
ENDBRANCH   1  25
TORSDOF 24
ENDMDL
MODEL 2
REMARK VINA RESULT:      -8.8      4.045     10.373
REMARK SMILES O=C(/C=C\c1ccc(OCc2ccc(Br)cc2)cc1)OCCOCCOCCOC(=O)c1ccc(-c2c3nc(c(-c4c(F)cc(S(=O)(=O)[O-])cc4F)c4ccc([nH]4)c(-c4c(F)cc(S(=O)(=O)[O-])cc4F)c4nc(c(-c5c(F)cc(S(=O)(=O)[O-])cc5F)c5ccc2[nH]5)C=C4)C=C3)cc1
REMARK SMILES IDX 24 1 23 2 22 3 21 4 20 5 2 6 1 7 3 8 4 9 5 10 6 11 19 12
REMARK SMILES IDX 7 13 18 14 8 15 9 16 10 17 11 18 12 19 17 20 13 21 16 22
REMARK SMILES IDX 14 23 15 24 25 25 26 26 27 27 28 28 29 29 30 30 31 31 32 32
REMARK SMILES IDX 33 33 97 34 34 35 96 36 35 37 36 38 37 39 90 40 38 41 95 42
REMARK SMILES IDX 89 43 91 44 39 45 94 46 88 47 87 48 40 50 74 51 53 52 73 53
REMARK SMILES IDX 54 54 57 55 72 56 92 57 55 58 56 59 71 61 93 62 58 63 41 64
REMARK SMILES IDX 42 65 51 66 43 67 44 68 50 69 52 70 45 71 46 72 47 73 48 74
REMARK SMILES IDX 49 75 75 76 76 77 85 78 77 79 78 80 84 81 86 82 79 83 80 84
REMARK SMILES IDX 81 85 82 86 83 87 59 88 60 89 69 90 61 91 62 92 68 93 70 94
REMARK SMILES IDX 63 95 64 96 65 97 66 98 67 99
REMARK H PARENT 91 49 57 60
REMARK Flexibility Score: inf
ROOT
ATOM      1  C   UNL A   1      33.673  33.920  28.466  1.00  0.00     0.188 C 
ENDROOT
BRANCH   1   2
ATOM      2  O   UNL A   1      33.183  32.898  27.599  1.00  0.00    -0.376 OA
BRANCH   2   3
ATOM      3  C   UNL A   1      31.868  33.073  27.071  1.00  0.00     0.202 C 
BRANCH   3   4
ATOM      4  C   UNL A   1      31.278  31.882  26.306  1.00  0.00     0.261 C 
BRANCH   4   5
ATOM      5  O   UNL A   1      32.093  30.699  26.301  1.00  0.00    -0.460 OA
BRANCH   5   6
ATOM      6  C   UNL A   1      32.206  29.773  25.333  1.00  0.00     0.330 C 
ATOM      7  O   UNL A   1      33.300  29.254  25.117  1.00  0.00    -0.247 OA
BRANCH   6   8
ATOM      8  C   UNL A   1      31.101  29.437  24.415  1.00  0.00     0.094 C 
ATOM      9  C   UNL A   1      30.570  28.310  23.908  1.00  0.00     0.015 C 
BRANCH   9  10
ATOM     10  C   UNL A   1      30.909  26.903  24.122  1.00  0.00    -0.025 A 
ATOM     11  C   UNL A   1      31.714  26.222  23.209  1.00  0.00     0.012 A 
ATOM     12  C   UNL A   1      30.358  26.193  25.197  1.00  0.00     0.012 A 
ATOM     13  C   UNL A   1      32.049  24.883  23.433  1.00  0.00     0.047 A 
ATOM     14  C   UNL A   1      30.743  24.874  25.456  1.00  0.00     0.047 A 
ATOM     15  C   UNL A   1      31.632  24.234  24.598  1.00  0.00     0.119 A 
BRANCH  15  16
ATOM     16  O   UNL A   1      32.219  23.020  24.818  1.00  0.00    -0.489 OA
BRANCH  16  17
ATOM     17  C   UNL A   1      33.266  22.609  23.927  1.00  0.00     0.265 C 
BRANCH  17  18
ATOM     18  C   UNL A   1      34.693  22.662  24.460  1.00  0.00    -0.011 A 
ATOM     19  C   UNL A   1      35.393  23.855  24.694  1.00  0.00     0.008 A 
ATOM     20  C   UNL A   1      35.325  21.454  24.803  1.00  0.00     0.008 A 
ATOM     21  C   UNL A   1      36.668  23.850  25.267  1.00  0.00     0.016 A 
ATOM     22  C   UNL A   1      36.607  21.442  25.362  1.00  0.00     0.016 A 
ATOM     23  C   UNL A   1      37.270  22.643  25.599  1.00  0.00     0.017 A 
ATOM     24  Br  UNL A   1      38.990  22.635  26.381  1.00  0.00    -0.051 Br
ENDBRANCH  17  18
ENDBRANCH  16  17
ENDBRANCH  15  16
ENDBRANCH   9  10
ENDBRANCH   6   8
ENDBRANCH   5   6
ENDBRANCH   4   5
ENDBRANCH   3   4
ENDBRANCH   2   3
ENDBRANCH   1   2
BRANCH   1  25
ATOM     25  C   UNL A   1      35.197  33.972  28.644  1.00  0.00     0.188 C 
BRANCH  25  26
ATOM     26  O   UNL A   1      35.582  34.176  30.006  1.00  0.00    -0.376 OA
BRANCH  26  27
ATOM     27  C   UNL A   1      35.034  33.199  30.891  1.00  0.00     0.202 C 
BRANCH  27  28
ATOM     28  C   UNL A   1      35.590  31.769  30.714  1.00  0.00     0.261 C 
BRANCH  28  29
ATOM     29  O   UNL A   1      36.470  31.312  31.752  1.00  0.00    -0.460 OA
BRANCH  29  30
ATOM     30  C   UNL A   1      37.708  31.858  31.763  1.00  0.00     0.338 C 
ATOM     31  O   UNL A   1      38.046  32.873  32.345  1.00  0.00    -0.246 OA
BRANCH  30  32
ATOM     32  C   UNL A   1      38.649  30.956  31.068  1.00  0.00     0.060 A 
ATOM     33  C   UNL A   1      39.643  30.326  31.826  1.00  0.00     0.016 A 
ATOM     34  C   UNL A   1      38.631  30.830  29.676  1.00  0.00     0.016 A 
ATOM     35  C   UNL A   1      40.649  29.602  31.190  1.00  0.00     0.010 A 
ATOM     36  C   UNL A   1      39.658  30.122  29.038  1.00  0.00     0.010 A 
ATOM     37  C   UNL A   1      40.694  29.545  29.792  1.00  0.00    -0.014 A 
BRANCH  37  38
ATOM     38  C   UNL A   1      41.952  29.102  29.142  1.00  0.00     0.031 A 
ATOM     39  C   UNL A   1      43.070  30.104  29.015  1.00  0.00     0.074 A 
ATOM     40  C   UNL A   1      42.124  27.835  28.729  1.00  0.00     0.049 A 
ATOM     41  N   UNL A   1      44.287  29.943  28.566  1.00  0.00    -0.248 NA
ATOM     42  C   UNL A   1      42.774  31.474  29.471  1.00  0.00     0.031 C 
ATOM     43  C   UNL A   1      41.130  26.769  28.837  1.00  0.00     0.029 A 
ATOM     44  N   UNL A   1      43.207  27.230  28.141  1.00  0.00    -0.354 N 
ATOM     45  C   UNL A   1      44.904  31.182  28.697  1.00  0.00     0.074 A 
ATOM     46  C   UNL A   1      43.920  32.092  29.240  1.00  0.00     0.031 C 
ATOM     47  C   UNL A   1      41.650  25.637  28.329  1.00  0.00     0.029 A 
ATOM     48  C   UNL A   1      43.007  25.903  27.849  1.00  0.00     0.049 A 
ATOM     49  H   UNL A   1      44.048  27.704  27.949  1.00  0.00     0.167 HD
ATOM     50  C   UNL A   1      46.179  31.530  28.399  1.00  0.00     0.037 A 
ATOM     51  C   UNL A   1      43.828  25.009  27.263  1.00  0.00     0.037 A 
ATOM     52  C   UNL A   1      47.143  30.630  27.827  1.00  0.00     0.049 A 
ATOM     53  C   UNL A   1      45.220  25.436  26.872  1.00  0.00     0.074 A 
ATOM     54  C   UNL A   1      48.457  30.880  27.475  1.00  0.00     0.029 A 
ATOM     55  N   UNL A   1      46.888  29.304  27.507  1.00  0.00    -0.354 N 
ATOM     56  N   UNL A   1      45.803  26.601  27.033  1.00  0.00    -0.248 NA
ATOM     57  C   UNL A   1      46.070  24.424  26.229  1.00  0.00     0.031 C 
ATOM     58  C   UNL A   1      48.984  29.717  26.901  1.00  0.00     0.029 A 
ATOM     59  C   UNL A   1      48.012  28.728  26.941  1.00  0.00     0.049 A 
ATOM     60  H   UNL A   1      46.033  28.840  27.660  1.00  0.00     0.167 HD
ATOM     61  C   UNL A   1      47.099  26.452  26.546  1.00  0.00     0.074 A 
ATOM     62  C   UNL A   1      47.212  25.083  26.083  1.00  0.00     0.031 C 
ATOM     63  C   UNL A   1      48.106  27.360  26.496  1.00  0.00     0.037 A 
BRANCH  50  64
ATOM     64  C   UNL A   1      46.571  32.959  28.649  1.00  0.00     0.058 A 
ATOM     65  C   UNL A   1      47.091  33.376  29.886  1.00  0.00     0.135 A 
ATOM     66  C   UNL A   1      46.397  33.930  27.651  1.00  0.00     0.135 A 
ATOM     67  F   UNL A   1      47.257  32.493  30.883  1.00  0.00    -0.206 F 
ATOM     68  C   UNL A   1      47.385  34.714  30.136  1.00  0.00     0.059 A 
ATOM     69  C   UNL A   1      46.707  35.268  27.871  1.00  0.00     0.059 A 
ATOM     70  F   UNL A   1      45.898  33.585  26.453  1.00  0.00    -0.206 F 
ATOM     71  C   UNL A   1      47.180  35.653  29.124  1.00  0.00     0.060 A 
BRANCH  71  72
ATOM     72  S   UNL A   1      47.527  37.391  29.472  1.00  0.00     0.124 S 
ATOM     73  O   UNL A   1      48.854  37.545  28.884  1.00  0.00    -0.237 OA
ATOM     74  O   UNL A   1      46.443  38.076  28.775  1.00  0.00    -0.237 OA
ATOM     75  O   UNL A   1      47.475  37.462  30.929  1.00  0.00    -0.744 OA
ENDBRANCH  71  72
ENDBRANCH  50  64
BRANCH  51  76
ATOM     76  C   UNL A   1      43.364  23.616  27.027  1.00  0.00     0.058 A 
ATOM     77  C   UNL A   1      42.946  23.197  25.756  1.00  0.00     0.135 A 
ATOM     78  C   UNL A   1      43.337  22.675  28.068  1.00  0.00     0.135 A 
ATOM     79  F   UNL A   1      42.940  24.064  24.733  1.00  0.00    -0.206 F 
ATOM     80  C   UNL A   1      42.510  21.895  25.525  1.00  0.00     0.059 A 
ATOM     81  C   UNL A   1      42.926  21.362  27.856  1.00  0.00     0.059 A 
ATOM     82  F   UNL A   1      43.733  23.025  29.302  1.00  0.00    -0.206 F 
ATOM     83  C   UNL A   1      42.506  20.983  26.581  1.00  0.00     0.060 A 
BRANCH  83  84
ATOM     84  S   UNL A   1      41.990  19.282  26.261  1.00  0.00     0.124 S 
ATOM     85  O   UNL A   1      40.606  19.470  25.843  1.00  0.00    -0.237 OA
ATOM     86  O   UNL A   1      42.922  18.869  25.217  1.00  0.00    -0.237 OA
ATOM     87  O   UNL A   1      42.176  18.627  27.552  1.00  0.00    -0.744 OA
ENDBRANCH  83  84
ENDBRANCH  51  76
BRANCH  63  88
ATOM     88  C   UNL A   1      49.432  26.892  25.966  1.00  0.00     0.058 A 
ATOM     89  C   UNL A   1      49.798  27.066  24.622  1.00  0.00     0.135 A 
ATOM     90  C   UNL A   1      50.371  26.307  26.831  1.00  0.00     0.135 A 
ATOM     91  F   UNL A   1      48.936  27.618  23.755  1.00  0.00    -0.206 F 
ATOM     92  C   UNL A   1      51.039  26.652  24.148  1.00  0.00     0.059 A 
ATOM     93  C   UNL A   1      51.627  25.908  26.384  1.00  0.00     0.059 A 
ATOM     94  F   UNL A   1      50.078  26.131  28.129  1.00  0.00    -0.206 F 
ATOM     95  C   UNL A   1      51.947  26.073  25.037  1.00  0.00     0.060 A 
BRANCH  95  96
ATOM     96  S   UNL A   1      53.564  25.561  24.420  1.00  0.00     0.124 S 
ATOM     97  O   UNL A   1      54.460  26.382  25.228  1.00  0.00    -0.237 OA
ATOM     98  O   UNL A   1      53.576  24.131  24.714  1.00  0.00    -0.237 OA
ATOM     99  O   UNL A   1      53.508  25.900  23.001  1.00  0.00    -0.744 OA
ENDBRANCH  95  96
ENDBRANCH  63  88
ENDBRANCH  37  38
ENDBRANCH  30  32
ENDBRANCH  29  30
ENDBRANCH  28  29
ENDBRANCH  27  28
ENDBRANCH  26  27
ENDBRANCH  25  26
ENDBRANCH   1  25
TORSDOF 24
ENDMDL
MODEL 3
REMARK VINA RESULT:      -8.5      6.592     12.007
REMARK SMILES O=C(/C=C\c1ccc(OCc2ccc(Br)cc2)cc1)OCCOCCOCCOC(=O)c1ccc(-c2c3nc(c(-c4c(F)cc(S(=O)(=O)[O-])cc4F)c4ccc([nH]4)c(-c4c(F)cc(S(=O)(=O)[O-])cc4F)c4nc(c(-c5c(F)cc(S(=O)(=O)[O-])cc5F)c5ccc2[nH]5)C=C4)C=C3)cc1
REMARK SMILES IDX 24 1 23 2 22 3 21 4 20 5 2 6 1 7 3 8 4 9 5 10 6 11 19 12
REMARK SMILES IDX 7 13 18 14 8 15 9 16 10 17 11 18 12 19 17 20 13 21 16 22
REMARK SMILES IDX 14 23 15 24 25 25 26 26 27 27 28 28 29 29 30 30 31 31 32 32
REMARK SMILES IDX 33 33 97 34 34 35 96 36 35 37 36 38 37 39 90 40 38 41 95 42
REMARK SMILES IDX 89 43 91 44 39 45 94 46 88 47 87 48 40 50 74 51 53 52 73 53
REMARK SMILES IDX 54 54 57 55 72 56 92 57 55 58 56 59 71 61 93 62 58 63 41 64
REMARK SMILES IDX 42 65 51 66 43 67 44 68 50 69 52 70 45 71 46 72 47 73 48 74
REMARK SMILES IDX 49 75 75 76 76 77 85 78 77 79 78 80 84 81 86 82 79 83 80 84
REMARK SMILES IDX 81 85 82 86 83 87 59 88 60 89 69 90 61 91 62 92 68 93 70 94
REMARK SMILES IDX 63 95 64 96 65 97 66 98 67 99
REMARK H PARENT 91 49 57 60
REMARK Flexibility Score: inf
ROOT
ATOM      1  C   UNL A   1      47.331  42.953  26.430  1.00  0.00     0.188 C 
ENDROOT
BRANCH   1   2
ATOM      2  O   UNL A   1      46.611  44.042  25.854  1.00  0.00    -0.376 OA
BRANCH   2   3
ATOM      3  C   UNL A   1      45.305  43.760  25.350  1.00  0.00     0.202 C 
BRANCH   3   4
ATOM      4  C   UNL A   1      44.814  44.645  24.198  1.00  0.00     0.261 C 
BRANCH   4   5
ATOM      5  O   UNL A   1      44.391  43.936  23.023  1.00  0.00    -0.460 OA
BRANCH   5   6
ATOM      6  C   UNL A   1      43.141  43.591  22.667  1.00  0.00     0.330 C 
ATOM      7  O   UNL A   1      42.184  44.123  23.226  1.00  0.00    -0.247 OA
BRANCH   6   8
ATOM      8  C   UNL A   1      42.853  42.497  21.720  1.00  0.00     0.094 C 
ATOM      9  C   UNL A   1      42.539  42.401  20.416  1.00  0.00     0.015 C 
BRANCH   9  10
ATOM     10  C   UNL A   1      42.384  43.425  19.383  1.00  0.00    -0.025 A 
ATOM     11  C   UNL A   1      43.406  43.665  18.466  1.00  0.00     0.012 A 
ATOM     12  C   UNL A   1      41.246  44.241  19.354  1.00  0.00     0.012 A 
ATOM     13  C   UNL A   1      43.240  44.631  17.468  1.00  0.00     0.047 A 
ATOM     14  C   UNL A   1      41.052  45.163  18.321  1.00  0.00     0.047 A 
ATOM     15  C   UNL A   1      42.031  45.322  17.346  1.00  0.00     0.119 A 
BRANCH  15  16
ATOM     16  O   UNL A   1      41.905  46.054  16.199  1.00  0.00    -0.489 OA
BRANCH  16  17
ATOM     17  C   UNL A   1      41.894  47.483  16.311  1.00  0.00     0.265 C 
BRANCH  17  18
ATOM     18  C   UNL A   1      43.130  48.143  16.912  1.00  0.00    -0.011 A 
ATOM     19  C   UNL A   1      44.436  47.912  16.456  1.00  0.00     0.008 A 
ATOM     20  C   UNL A   1      42.951  49.090  17.936  1.00  0.00     0.008 A 
ATOM     21  C   UNL A   1      45.526  48.610  16.985  1.00  0.00     0.016 A 
ATOM     22  C   UNL A   1      44.040  49.781  18.479  1.00  0.00     0.016 A 
ATOM     23  C   UNL A   1      45.323  49.542  17.994  1.00  0.00     0.017 A 
ATOM     24  Br  UNL A   1      46.794  50.493  18.703  1.00  0.00    -0.051 Br
ENDBRANCH  17  18
ENDBRANCH  16  17
ENDBRANCH  15  16
ENDBRANCH   9  10
ENDBRANCH   6   8
ENDBRANCH   5   6
ENDBRANCH   4   5
ENDBRANCH   3   4
ENDBRANCH   2   3
ENDBRANCH   1   2
BRANCH   1  25
ATOM     25  C   UNL A   1      46.525  41.667  26.661  1.00  0.00     0.188 C 
BRANCH  25  26
ATOM     26  O   UNL A   1      47.145  40.520  26.073  1.00  0.00    -0.376 OA
BRANCH  26  27
ATOM     27  C   UNL A   1      46.537  39.292  26.473  1.00  0.00     0.202 C 
BRANCH  27  28
ATOM     28  C   UNL A   1      46.691  38.941  27.969  1.00  0.00     0.261 C 
BRANCH  28  29
ATOM     29  O   UNL A   1      46.396  37.581  28.321  1.00  0.00    -0.460 OA
BRANCH  29  30
ATOM     30  C   UNL A   1      47.320  36.953  29.086  1.00  0.00     0.338 C 
ATOM     31  O   UNL A   1      47.992  37.457  29.968  1.00  0.00    -0.246 OA
BRANCH  30  32
ATOM     32  C   UNL A   1      47.301  35.506  28.790  1.00  0.00     0.060 A 
ATOM     33  C   UNL A   1      47.001  35.102  27.485  1.00  0.00     0.016 A 
ATOM     34  C   UNL A   1      47.453  34.561  29.808  1.00  0.00     0.016 A 
ATOM     35  C   UNL A   1      46.808  33.752  27.201  1.00  0.00     0.010 A 
ATOM     36  C   UNL A   1      47.234  33.206  29.525  1.00  0.00     0.010 A 
ATOM     37  C   UNL A   1      46.868  32.805  28.230  1.00  0.00    -0.014 A 
BRANCH  37  38
ATOM     38  C   UNL A   1      46.299  31.457  27.984  1.00  0.00     0.031 A 
ATOM     39  C   UNL A   1      47.230  30.378  27.496  1.00  0.00     0.074 A 
ATOM     40  C   UNL A   1      45.011  31.177  28.241  1.00  0.00     0.049 A 
ATOM     41  N   UNL A   1      47.000  29.108  27.288  1.00  0.00    -0.248 NA
ATOM     42  C   UNL A   1      48.617  30.790  27.216  1.00  0.00     0.031 C 
ATOM     43  C   UNL A   1      44.026  32.127  28.755  1.00  0.00     0.029 A 
ATOM     44  N   UNL A   1      44.312  30.003  28.112  1.00  0.00    -0.354 N 
ATOM     45  C   UNL A   1      48.210  28.568  26.868  1.00  0.00     0.074 A 
ATOM     46  C   UNL A   1      49.165  29.652  26.821  1.00  0.00     0.031 C 
ATOM     47  C   UNL A   1      42.846  31.497  28.896  1.00  0.00     0.029 A 
ATOM     48  C   UNL A   1      42.989  30.105  28.471  1.00  0.00     0.049 A 
ATOM     49  H   UNL A   1      44.720  29.167  27.793  1.00  0.00     0.167 HD
ATOM     50  C   UNL A   1      48.502  27.283  26.554  1.00  0.00     0.037 A 
ATOM     51  C   UNL A   1      42.012  29.177  28.457  1.00  0.00     0.037 A 
ATOM     52  C   UNL A   1      47.539  26.215  26.568  1.00  0.00     0.049 A 
ATOM     53  C   UNL A   1      42.341  27.768  28.035  1.00  0.00     0.074 A 
ATOM     54  C   UNL A   1      47.725  24.881  26.258  1.00  0.00     0.029 A 
ATOM     55  N   UNL A   1      46.200  26.368  26.897  1.00  0.00    -0.354 N 
ATOM     56  N   UNL A   1      43.497  27.263  27.672  1.00  0.00    -0.248 NA
ATOM     57  C   UNL A   1      41.236  26.799  28.030  1.00  0.00     0.031 C 
ATOM     58  C   UNL A   1      46.487  24.234  26.357  1.00  0.00     0.029 A 
ATOM     59  C   UNL A   1      45.541  25.157  26.776  1.00  0.00     0.049 A 
ATOM     60  H   UNL A   1      45.780  27.214  27.176  1.00  0.00     0.167 HD
ATOM     61  C   UNL A   1      43.266  25.911  27.433  1.00  0.00     0.074 A 
ATOM     62  C   UNL A   1      41.859  25.679  27.690  1.00  0.00     0.031 C 
ATOM     63  C   UNL A   1      44.140  24.947  27.047  1.00  0.00     0.037 A 
BRANCH  50  64
ATOM     64  C   UNL A   1      49.913  26.990  26.127  1.00  0.00     0.058 A 
ATOM     65  C   UNL A   1      50.301  27.039  24.777  1.00  0.00     0.135 A 
ATOM     66  C   UNL A   1      50.882  26.626  27.074  1.00  0.00     0.135 A 
ATOM     67  F   UNL A   1      49.408  27.361  23.828  1.00  0.00    -0.206 F 
ATOM     68  C   UNL A   1      51.590  26.698  24.379  1.00  0.00     0.059 A 
ATOM     69  C   UNL A   1      52.183  26.304  26.701  1.00  0.00     0.059 A 
ATOM     70  F   UNL A   1      50.562  26.558  28.376  1.00  0.00    -0.206 F 
ATOM     71  C   UNL A   1      52.521  26.321  25.349  1.00  0.00     0.060 A 
BRANCH  71  72
ATOM     72  S   UNL A   1      54.180  25.841  24.819  1.00  0.00     0.124 S 
ATOM     73  O   UNL A   1      54.086  24.385  24.856  1.00  0.00    -0.237 OA
ATOM     74  O   UNL A   1      54.271  26.435  23.490  1.00  0.00    -0.237 OA
ATOM     75  O   UNL A   1      55.045  26.440  25.830  1.00  0.00    -0.744 OA
ENDBRANCH  71  72
ENDBRANCH  50  64
BRANCH  51  76
ATOM     76  C   UNL A   1      40.632  29.545  28.872  1.00  0.00     0.058 A 
ATOM     77  C   UNL A   1      39.599  29.665  27.932  1.00  0.00     0.135 A 
ATOM     78  C   UNL A   1      40.318  29.776  30.221  1.00  0.00     0.135 A 
ATOM     79  F   UNL A   1      39.852  29.467  26.630  1.00  0.00    -0.206 F 
ATOM     80  C   UNL A   1      38.304  30.008  28.310  1.00  0.00     0.059 A 
ATOM     81  C   UNL A   1      39.027  30.100  30.626  1.00  0.00     0.059 A 
ATOM     82  F   UNL A   1      41.271  29.669  31.161  1.00  0.00    -0.206 F 
ATOM     83  C   UNL A   1      38.027  30.221  29.662  1.00  0.00     0.060 A 
BRANCH  83  84
ATOM     84  S   UNL A   1      36.333  30.614  30.151  1.00  0.00     0.124 S 
ATOM     85  O   UNL A   1      36.143  29.722  31.290  1.00  0.00    -0.237 OA
ATOM     86  O   UNL A   1      36.424  32.036  30.462  1.00  0.00    -0.237 OA
ATOM     87  O   UNL A   1      35.556  30.288  28.960  1.00  0.00    -0.744 OA
ENDBRANCH  83  84
ENDBRANCH  51  76
BRANCH  63  88
ATOM     88  C   UNL A   1      43.613  23.545  26.923  1.00  0.00     0.058 A 
ATOM     89  C   UNL A   1      43.347  22.750  28.049  1.00  0.00     0.135 A 
ATOM     90  C   UNL A   1      43.321  23.009  25.658  1.00  0.00     0.135 A 
ATOM     91  F   UNL A   1      43.610  23.215  29.280  1.00  0.00    -0.206 F 
ATOM     92  C   UNL A   1      42.835  21.463  27.924  1.00  0.00     0.059 A 
ATOM     93  C   UNL A   1      42.786  21.733  25.511  1.00  0.00     0.059 A 
ATOM     94  F   UNL A   1      43.543  23.733  24.550  1.00  0.00    -0.206 F 
ATOM     95  C   UNL A   1      42.559  20.962  26.650  1.00  0.00     0.060 A 
BRANCH  95  96
ATOM     96  S   UNL A   1      41.872  19.300  26.497  1.00  0.00     0.124 S 
ATOM     97  O   UNL A   1      40.465  19.587  26.233  1.00  0.00    -0.237 OA
ATOM     98  O   UNL A   1      42.627  18.748  25.376  1.00  0.00    -0.237 OA
ATOM     99  O   UNL A   1      42.158  18.695  27.794  1.00  0.00    -0.744 OA
ENDBRANCH  95  96
ENDBRANCH  63  88
ENDBRANCH  37  38
ENDBRANCH  30  32
ENDBRANCH  29  30
ENDBRANCH  28  29
ENDBRANCH  27  28
ENDBRANCH  26  27
ENDBRANCH  25  26
ENDBRANCH   1  25
TORSDOF 24
ENDMDL
