MODEL 1
REMARK VINA RESULT:     -10.7      0.000      0.000
REMARK SMILES Cc1ccn2c([C@H]3C[C@@H]3C(=O)OCCOCCOCCOC(=O)c3ccc(-c4c5nc(c(-c6c(F)cc(S(=O)(=O)[O-])cc6F)c6ccc([nH]6)c(-c6c(F)cc(S(=O)(=O)[O-])cc6F)c6nc(c(-c7c(F)cc(S(=O)(=O)[O-])cc7F)c7ccc4[nH]7)C=C6)C=C5)cc3)nnc2c1
REMARK SMILES IDX 17 1 16 2 15 3 14 4 13 5 12 6 10 7 11 8 9 9 7 10 8 11 6 12
REMARK SMILES IDX 1 13 2 14 3 15 93 16 4 17 92 18 5 19 91 20 90 21 18 22 19 23
REMARK SMILES IDX 20 24 21 25 22 26 23 27 24 28 25 29 89 30 26 31 88 32 27 33
REMARK SMILES IDX 28 34 29 35 82 36 30 37 87 38 81 39 83 40 31 41 86 42 80 43
REMARK SMILES IDX 79 44 32 46 66 47 45 48 65 49 46 50 49 51 64 52 84 53 47 54
REMARK SMILES IDX 48 55 63 57 85 58 50 59 33 60 34 61 43 62 35 63 36 64 42 65
REMARK SMILES IDX 44 66 37 67 38 68 39 69 40 70 41 71 67 72 68 73 77 74 69 75
REMARK SMILES IDX 70 76 76 77 78 78 71 79 72 80 73 81 74 82 75 83 51 84 52 85
REMARK SMILES IDX 61 86 53 87 54 88 60 89 62 90 55 91 56 92 57 93 58 94 59 95
REMARK H PARENT 83 45 49 56
REMARK Flexibility Score: inf
ROOT
ATOM      1  C   UNL A   1      38.939  22.124  26.145  1.00  0.00     0.188 C 
ENDROOT
BRANCH   1   2
ATOM      2  C   UNL A   1      38.212  21.170  25.170  1.00  0.00     0.188 C 
BRANCH   2   3
ATOM      3  O   UNL A   1      36.935  21.689  24.868  1.00  0.00    -0.376 OA
BRANCH   3   4
ATOM      4  C   UNL A   1      35.920  21.552  25.829  1.00  0.00     0.202 C 
BRANCH   4   5
ATOM      5  C   UNL A   1      34.702  20.669  25.507  1.00  0.00     0.261 C 
BRANCH   5   6
ATOM      6  O   UNL A   1      33.866  21.147  24.441  1.00  0.00    -0.463 OA
BRANCH   6   7
ATOM      7  C   UNL A   1      33.283  22.369  24.634  1.00  0.00     0.309 C 
ATOM      8  O   UNL A   1      32.536  22.660  25.526  1.00  0.00    -0.252 OA
BRANCH   7   9
ATOM      9  C   UNL A   1      33.807  23.392  23.677  1.00  0.00     0.110 C 
ATOM     10  C   UNL A   1      32.834  24.209  22.862  1.00  0.00     0.073 C 
ATOM     11  C   UNL A   1      33.758  23.242  22.187  1.00  0.00     0.028 C 
BRANCH  10  12
ATOM     12  C   UNL A   1      33.074  25.686  22.590  1.00  0.00     0.141 A 
ATOM     13  C   UNL A   1      33.397  29.804  26.267  1.00  0.00     0.044 C 
ATOM     14  C   UNL A   1      33.149  28.785  25.195  1.00  0.00    -0.046 A 
ATOM     15  C   UNL A   1      32.388  27.613  25.616  1.00  0.00     0.022 A 
ATOM     16  C   UNL A   1      33.624  28.890  23.930  1.00  0.00     0.053 A 
ATOM     17  C   UNL A   1      32.307  26.567  24.790  1.00  0.00     0.095 A 
ATOM     18  C   UNL A   1      33.482  27.793  23.027  1.00  0.00     0.161 A 
ATOM     19  N   UNL A   1      32.904  26.650  23.542  1.00  0.00    -0.286 N 
ATOM     20  N   UNL A   1      33.803  27.573  21.766  1.00  0.00    -0.130 NA
ATOM     21  N   UNL A   1      33.520  26.239  21.481  1.00  0.00    -0.134 NA
ENDBRANCH  10  12
ENDBRANCH   7   9
ENDBRANCH   6   7
ENDBRANCH   5   6
ENDBRANCH   4   5
ENDBRANCH   3   4
ENDBRANCH   2   3
ENDBRANCH   1   2
BRANCH   1  22
ATOM     22  O   UNL A   1      39.873  21.583  27.071  1.00  0.00    -0.376 OA
BRANCH  22  23
ATOM     23  C   UNL A   1      40.690  20.527  26.594  1.00  0.00     0.202 C 
BRANCH  23  24
ATOM     24  C   UNL A   1      42.192  20.835  26.406  1.00  0.00     0.261 C 
BRANCH  24  25
ATOM     25  O   UNL A   1      42.594  22.150  26.873  1.00  0.00    -0.460 OA
BRANCH  25  26
ATOM     26  C   UNL A   1      42.743  23.145  25.947  1.00  0.00     0.338 C 
ATOM     27  O   UNL A   1      42.927  22.974  24.753  1.00  0.00    -0.246 OA
BRANCH  26  28
ATOM     28  C   UNL A   1      42.306  24.460  26.548  1.00  0.00     0.060 A 
ATOM     29  C   UNL A   1      41.399  25.329  25.936  1.00  0.00     0.016 A 
ATOM     30  C   UNL A   1      43.013  24.923  27.670  1.00  0.00     0.016 A 
ATOM     31  C   UNL A   1      41.287  26.669  26.387  1.00  0.00     0.010 A 
ATOM     32  C   UNL A   1      42.904  26.260  28.109  1.00  0.00     0.010 A 
ATOM     33  C   UNL A   1      42.062  27.177  27.461  1.00  0.00    -0.014 A 
BRANCH  33  34
ATOM     34  C   UNL A   1      41.633  28.422  28.195  1.00  0.00     0.031 A 
ATOM     35  C   UNL A   1      42.671  29.439  27.970  1.00  0.00     0.074 A 
ATOM     36  C   UNL A   1      40.611  28.817  29.014  1.00  0.00     0.049 A 
ATOM     37  N   UNL A   1      43.626  29.641  28.818  1.00  0.00    -0.248 NA
ATOM     38  C   UNL A   1      42.866  30.070  26.666  1.00  0.00     0.031 C 
ATOM     39  C   UNL A   1      39.613  27.991  29.671  1.00  0.00     0.029 A 
ATOM     40  N   UNL A   1      40.247  30.088  29.483  1.00  0.00    -0.354 N 
ATOM     41  C   UNL A   1      44.347  30.687  28.292  1.00  0.00     0.074 A 
ATOM     42  C   UNL A   1      44.005  30.734  26.891  1.00  0.00     0.031 C 
ATOM     43  C   UNL A   1      38.661  28.751  30.261  1.00  0.00     0.029 A 
ATOM     44  C   UNL A   1      38.965  30.174  30.069  1.00  0.00     0.049 A 
ATOM     45  H   UNL A   1      40.845  30.867  29.409  1.00  0.00     0.167 HD
ATOM     46  C   UNL A   1      44.824  31.624  29.151  1.00  0.00     0.037 A 
ATOM     47  C   UNL A   1      38.420  31.083  30.938  1.00  0.00     0.037 A 
ATOM     48  C   UNL A   1      44.839  31.135  30.517  1.00  0.00     0.049 A 
ATOM     49  C   UNL A   1      39.490  31.586  31.808  1.00  0.00     0.074 A 
ATOM     50  C   UNL A   1      45.605  30.294  31.300  1.00  0.00     0.029 A 
ATOM     51  N   UNL A   1      43.650  31.297  31.172  1.00  0.00    -0.354 N 
ATOM     52  N   UNL A   1      40.020  30.894  32.773  1.00  0.00    -0.248 NA
ATOM     53  C   UNL A   1      40.186  32.812  31.433  1.00  0.00     0.031 C 
ATOM     54  C   UNL A   1      44.817  29.948  32.443  1.00  0.00     0.029 A 
ATOM     55  C   UNL A   1      43.597  30.597  32.349  1.00  0.00     0.049 A 
ATOM     56  H   UNL A   1      42.912  31.855  30.836  1.00  0.00     0.167 HD
ATOM     57  C   UNL A   1      41.317  31.352  32.806  1.00  0.00     0.074 A 
ATOM     58  C   UNL A   1      41.322  32.624  32.101  1.00  0.00     0.031 C 
ATOM     59  C   UNL A   1      42.340  30.491  33.044  1.00  0.00     0.037 A 
BRANCH  46  60
ATOM     60  C   UNL A   1      44.737  33.108  28.865  1.00  0.00     0.058 A 
ATOM     61  C   UNL A   1      45.925  33.866  28.862  1.00  0.00     0.135 A 
ATOM     62  C   UNL A   1      43.539  33.860  28.883  1.00  0.00     0.135 A 
ATOM     63  F   UNL A   1      47.123  33.259  28.870  1.00  0.00    -0.206 F 
ATOM     64  C   UNL A   1      45.921  35.259  28.920  1.00  0.00     0.059 A 
ATOM     65  C   UNL A   1      43.512  35.246  28.887  1.00  0.00     0.059 A 
ATOM     66  F   UNL A   1      42.330  33.300  28.995  1.00  0.00    -0.206 F 
ATOM     67  C   UNL A   1      44.707  35.939  28.937  1.00  0.00     0.060 A 
BRANCH  67  68
ATOM     68  S   UNL A   1      44.693  37.733  29.059  1.00  0.00     0.124 S 
ATOM     69  O   UNL A   1      43.895  37.936  30.262  1.00  0.00    -0.237 OA
ATOM     70  O   UNL A   1      46.116  38.034  29.173  1.00  0.00    -0.237 OA
ATOM     71  O   UNL A   1      44.069  38.150  27.806  1.00  0.00    -0.744 OA
ENDBRANCH  67  68
ENDBRANCH  46  60
BRANCH  47  72
ATOM     72  C   UNL A   1      37.231  31.971  30.730  1.00  0.00     0.058 A 
ATOM     73  C   UNL A   1      36.209  32.069  31.698  1.00  0.00     0.135 A 
ATOM     74  C   UNL A   1      37.144  32.872  29.658  1.00  0.00     0.135 A 
ATOM     75  F   UNL A   1      36.239  31.285  32.786  1.00  0.00    -0.206 F 
ATOM     76  C   UNL A   1      35.123  32.952  31.570  1.00  0.00     0.059 A 
ATOM     77  C   UNL A   1      36.065  33.753  29.499  1.00  0.00     0.059 A 
ATOM     78  F   UNL A   1      38.117  32.910  28.737  1.00  0.00    -0.206 F 
ATOM     79  C   UNL A   1      35.048  33.779  30.451  1.00  0.00     0.060 A 
BRANCH  79  80
ATOM     80  S   UNL A   1      33.562  34.774  30.138  1.00  0.00     0.124 S 
ATOM     81  O   UNL A   1      34.109  36.058  29.704  1.00  0.00    -0.237 OA
ATOM     82  O   UNL A   1      32.878  33.997  29.111  1.00  0.00    -0.237 OA
ATOM     83  O   UNL A   1      32.920  34.801  31.449  1.00  0.00    -0.744 OA
ENDBRANCH  79  80
ENDBRANCH  47  72
BRANCH  59  84
ATOM     84  C   UNL A   1      42.076  29.366  33.983  1.00  0.00     0.058 A 
ATOM     85  C   UNL A   1      41.602  28.099  33.619  1.00  0.00     0.135 A 
ATOM     86  C   UNL A   1      42.358  29.595  35.336  1.00  0.00     0.135 A 
ATOM     87  F   UNL A   1      41.339  27.807  32.337  1.00  0.00    -0.206 F 
ATOM     88  C   UNL A   1      41.425  27.090  34.569  1.00  0.00     0.059 A 
ATOM     89  C   UNL A   1      42.205  28.604  36.296  1.00  0.00     0.059 A 
ATOM     90  F   UNL A   1      42.822  30.792  35.732  1.00  0.00    -0.206 F 
ATOM     91  C   UNL A   1      41.738  27.351  35.906  1.00  0.00     0.060 A 
BRANCH  91  92
ATOM     92  S   UNL A   1      41.621  26.021  37.123  1.00  0.00     0.124 S 
ATOM     93  O   UNL A   1      42.696  26.354  38.051  1.00  0.00    -0.237 OA
ATOM     94  O   UNL A   1      40.265  26.179  37.639  1.00  0.00    -0.237 OA
ATOM     95  O   UNL A   1      41.835  24.814  36.327  1.00  0.00    -0.744 OA
ENDBRANCH  91  92
ENDBRANCH  59  84
ENDBRANCH  33  34
ENDBRANCH  26  28
ENDBRANCH  25  26
ENDBRANCH  24  25
ENDBRANCH  23  24
ENDBRANCH  22  23
ENDBRANCH   1  22
TORSDOF 21
ENDMDL
MODEL 2
REMARK VINA RESULT:     -10.7      4.808     11.887
REMARK SMILES Cc1ccn2c([C@H]3C[C@@H]3C(=O)OCCOCCOCCOC(=O)c3ccc(-c4c5nc(c(-c6c(F)cc(S(=O)(=O)[O-])cc6F)c6ccc([nH]6)c(-c6c(F)cc(S(=O)(=O)[O-])cc6F)c6nc(c(-c7c(F)cc(S(=O)(=O)[O-])cc7F)c7ccc4[nH]7)C=C6)C=C5)cc3)nnc2c1
REMARK SMILES IDX 17 1 16 2 15 3 14 4 13 5 12 6 10 7 11 8 9 9 7 10 8 11 6 12
REMARK SMILES IDX 1 13 2 14 3 15 93 16 4 17 92 18 5 19 91 20 90 21 18 22 19 23
REMARK SMILES IDX 20 24 21 25 22 26 23 27 24 28 25 29 89 30 26 31 88 32 27 33
REMARK SMILES IDX 28 34 29 35 82 36 30 37 87 38 81 39 83 40 31 41 86 42 80 43
REMARK SMILES IDX 79 44 32 46 66 47 45 48 65 49 46 50 49 51 64 52 84 53 47 54
REMARK SMILES IDX 48 55 63 57 85 58 50 59 33 60 34 61 43 62 35 63 36 64 42 65
REMARK SMILES IDX 44 66 37 67 38 68 39 69 40 70 41 71 67 72 68 73 77 74 69 75
REMARK SMILES IDX 70 76 76 77 78 78 71 79 72 80 73 81 74 82 75 83 51 84 52 85
REMARK SMILES IDX 61 86 53 87 54 88 60 89 62 90 55 91 56 92 57 93 58 94 59 95
REMARK H PARENT 83 45 49 56
REMARK Flexibility Score: inf
ROOT
ATOM      1  C   UNL A   1      33.272  35.395  29.990  1.00  0.00     0.188 C 
ENDROOT
BRANCH   1   2
ATOM      2  C   UNL A   1      32.560  36.292  31.027  1.00  0.00     0.188 C 
BRANCH   2   3
ATOM      3  O   UNL A   1      33.276  37.499  31.177  1.00  0.00    -0.376 OA
BRANCH   3   4
ATOM      4  C   UNL A   1      33.836  37.786  32.432  1.00  0.00     0.202 C 
BRANCH   4   5
ATOM      5  C   UNL A   1      34.175  36.623  33.382  1.00  0.00     0.261 C 
BRANCH   5   6
ATOM      6  O   UNL A   1      35.257  35.781  32.954  1.00  0.00    -0.463 OA
BRANCH   6   7
ATOM      7  C   UNL A   1      35.176  34.465  33.318  1.00  0.00     0.309 C 
ATOM      8  O   UNL A   1      34.177  33.883  33.641  1.00  0.00    -0.252 OA
BRANCH   7   9
ATOM      9  C   UNL A   1      36.476  33.752  33.118  1.00  0.00     0.110 C 
ATOM     10  C   UNL A   1      37.459  33.675  34.261  1.00  0.00     0.073 C 
ATOM     11  C   UNL A   1      37.800  34.446  33.023  1.00  0.00     0.028 C 
BRANCH  10  12
ATOM     12  C   UNL A   1      38.268  32.414  34.524  1.00  0.00     0.141 A 
ATOM     13  C   UNL A   1      43.394  32.037  36.566  1.00  0.00     0.044 C 
ATOM     14  C   UNL A   1      42.079  32.052  35.846  1.00  0.00    -0.046 A 
ATOM     15  C   UNL A   1      41.748  33.310  35.184  1.00  0.00     0.022 A 
ATOM     16  C   UNL A   1      41.215  31.008  35.832  1.00  0.00     0.053 A 
ATOM     17  C   UNL A   1      40.512  33.480  34.706  1.00  0.00     0.095 A 
ATOM     18  C   UNL A   1      39.915  31.173  35.264  1.00  0.00     0.161 A 
ATOM     19  N   UNL A   1      39.604  32.438  34.808  1.00  0.00    -0.286 N 
ATOM     20  N   UNL A   1      38.870  30.389  35.078  1.00  0.00    -0.130 NA
ATOM     21  N   UNL A   1      37.830  31.173  34.583  1.00  0.00    -0.134 NA
ENDBRANCH  10  12
ENDBRANCH   7   9
ENDBRANCH   6   7
ENDBRANCH   5   6
ENDBRANCH   4   5
ENDBRANCH   3   4
ENDBRANCH   2   3
ENDBRANCH   1   2
BRANCH   1  22
ATOM     22  O   UNL A   1      32.494  34.510  29.194  1.00  0.00    -0.376 OA
BRANCH  22  23
ATOM     23  C   UNL A   1      33.069  34.100  27.964  1.00  0.00     0.202 C 
BRANCH  23  24
ATOM     24  C   UNL A   1      33.487  32.618  27.847  1.00  0.00     0.261 C 
BRANCH  24  25
ATOM     25  O   UNL A   1      34.902  32.377  28.072  1.00  0.00    -0.460 OA
BRANCH  25  26
ATOM     26  C   UNL A   1      35.318  32.125  29.349  1.00  0.00     0.338 C 
ATOM     27  O   UNL A   1      34.664  32.335  30.357  1.00  0.00    -0.246 OA
BRANCH  26  28
ATOM     28  C   UNL A   1      36.543  31.242  29.314  1.00  0.00     0.060 A 
ATOM     29  C   UNL A   1      36.495  29.855  29.159  1.00  0.00     0.016 A 
ATOM     30  C   UNL A   1      37.770  31.827  29.671  1.00  0.00     0.016 A 
ATOM     31  C   UNL A   1      37.637  29.069  29.460  1.00  0.00     0.010 A 
ATOM     32  C   UNL A   1      38.900  31.038  29.977  1.00  0.00     0.010 A 
ATOM     33  C   UNL A   1      38.855  29.638  29.910  1.00  0.00    -0.014 A 
BRANCH  33  34
ATOM     34  C   UNL A   1      40.148  28.868  29.802  1.00  0.00     0.031 A 
ATOM     35  C   UNL A   1      40.628  28.631  31.171  1.00  0.00     0.074 A 
ATOM     36  C   UNL A   1      40.974  28.403  28.815  1.00  0.00     0.049 A 
ATOM     37  N   UNL A   1      41.496  29.405  31.736  1.00  0.00    -0.248 NA
ATOM     38  C   UNL A   1      39.954  27.702  32.077  1.00  0.00     0.031 C 
ATOM     39  C   UNL A   1      40.957  28.727  27.400  1.00  0.00     0.029 A 
ATOM     40  N   UNL A   1      42.071  27.531  28.870  1.00  0.00    -0.354 N 
ATOM     41  C   UNL A   1      41.728  28.835  32.965  1.00  0.00     0.074 A 
ATOM     42  C   UNL A   1      40.599  27.972  33.218  1.00  0.00     0.031 C 
ATOM     43  C   UNL A   1      41.815  27.942  26.708  1.00  0.00     0.029 A 
ATOM     44  C   UNL A   1      42.510  27.031  27.625  1.00  0.00     0.049 A 
ATOM     45  H   UNL A   1      42.505  27.285  29.719  1.00  0.00     0.167 HD
ATOM     46  C   UNL A   1      43.002  28.838  33.435  1.00  0.00     0.037 A 
ATOM     47  C   UNL A   1      43.707  26.493  27.231  1.00  0.00     0.037 A 
ATOM     48  C   UNL A   1      43.823  29.812  32.740  1.00  0.00     0.049 A 
ATOM     49  C   UNL A   1      44.776  27.131  28.009  1.00  0.00     0.074 A 
ATOM     50  C   UNL A   1      44.016  31.179  32.737  1.00  0.00     0.029 A 
ATOM     51  N   UNL A   1      44.369  29.342  31.578  1.00  0.00    -0.354 N 
ATOM     52  N   UNL A   1      45.189  28.348  27.804  1.00  0.00    -0.248 NA
ATOM     53  C   UNL A   1      45.234  26.490  29.237  1.00  0.00     0.031 C 
ATOM     54  C   UNL A   1      44.687  31.508  31.517  1.00  0.00     0.029 A 
ATOM     55  C   UNL A   1      44.909  30.338  30.808  1.00  0.00     0.049 A 
ATOM     56  H   UNL A   1      44.373  28.391  31.322  1.00  0.00     0.167 HD
ATOM     57  C   UNL A   1      45.568  28.761  29.060  1.00  0.00     0.074 A 
ATOM     58  C   UNL A   1      45.741  27.555  29.855  1.00  0.00     0.031 C 
ATOM     59  C   UNL A   1      45.326  30.035  29.464  1.00  0.00     0.037 A 
BRANCH  46  60
ATOM     60  C   UNL A   1      43.630  27.626  34.087  1.00  0.00     0.058 A 
ATOM     61  C   UNL A   1      44.179  27.761  35.378  1.00  0.00     0.135 A 
ATOM     62  C   UNL A   1      43.976  26.436  33.404  1.00  0.00     0.135 A 
ATOM     63  F   UNL A   1      43.938  28.861  36.111  1.00  0.00    -0.206 F 
ATOM     64  C   UNL A   1      45.039  26.811  35.927  1.00  0.00     0.059 A 
ATOM     65  C   UNL A   1      44.788  25.454  33.952  1.00  0.00     0.059 A 
ATOM     66  F   UNL A   1      43.631  26.199  32.135  1.00  0.00    -0.206 F 
ATOM     67  C   UNL A   1      45.340  25.662  35.201  1.00  0.00     0.060 A 
BRANCH  67  68
ATOM     68  S   UNL A   1      46.485  24.455  35.882  1.00  0.00     0.124 S 
ATOM     69  O   UNL A   1      47.052  23.877  34.669  1.00  0.00    -0.237 OA
ATOM     70  O   UNL A   1      47.378  25.301  36.668  1.00  0.00    -0.237 OA
ATOM     71  O   UNL A   1      45.621  23.573  36.661  1.00  0.00    -0.744 OA
ENDBRANCH  67  68
ENDBRANCH  46  60
BRANCH  47  72
ATOM     72  C   UNL A   1      43.979  25.122  26.690  1.00  0.00     0.058 A 
ATOM     73  C   UNL A   1      43.498  23.967  27.342  1.00  0.00     0.135 A 
ATOM     74  C   UNL A   1      44.569  24.913  25.434  1.00  0.00     0.135 A 
ATOM     75  F   UNL A   1      42.869  24.075  28.521  1.00  0.00    -0.206 F 
ATOM     76  C   UNL A   1      43.665  22.673  26.817  1.00  0.00     0.059 A 
ATOM     77  C   UNL A   1      44.762  23.633  24.895  1.00  0.00     0.059 A 
ATOM     78  F   UNL A   1      44.976  25.961  24.704  1.00  0.00    -0.206 F 
ATOM     79  C   UNL A   1      44.321  22.514  25.598  1.00  0.00     0.060 A 
BRANCH  79  80
ATOM     80  S   UNL A   1      44.749  20.857  24.991  1.00  0.00     0.124 S 
ATOM     81  O   UNL A   1      44.643  20.998  23.541  1.00  0.00    -0.237 OA
ATOM     82  O   UNL A   1      46.098  20.674  25.513  1.00  0.00    -0.237 OA
ATOM     83  O   UNL A   1      43.714  20.024  25.595  1.00  0.00    -0.744 OA
ENDBRANCH  79  80
ENDBRANCH  47  72
BRANCH  59  84
ATOM     84  C   UNL A   1      45.412  31.102  28.429  1.00  0.00     0.058 A 
ATOM     85  C   UNL A   1      44.364  31.508  27.593  1.00  0.00     0.135 A 
ATOM     86  C   UNL A   1      46.639  31.770  28.312  1.00  0.00     0.135 A 
ATOM     87  F   UNL A   1      43.158  30.928  27.673  1.00  0.00    -0.206 F 
ATOM     88  C   UNL A   1      44.529  32.552  26.678  1.00  0.00     0.059 A 
ATOM     89  C   UNL A   1      46.821  32.819  27.422  1.00  0.00     0.059 A 
ATOM     90  F   UNL A   1      47.671  31.421  29.098  1.00  0.00    -0.206 F 
ATOM     91  C   UNL A   1      45.761  33.207  26.607  1.00  0.00     0.060 A 
BRANCH  91  92
ATOM     92  S   UNL A   1      45.949  34.630  25.510  1.00  0.00     0.124 S 
ATOM     93  O   UNL A   1      45.463  35.727  26.338  1.00  0.00    -0.237 OA
ATOM     94  O   UNL A   1      47.382  34.631  25.231  1.00  0.00    -0.237 OA
ATOM     95  O   UNL A   1      45.104  34.290  24.366  1.00  0.00    -0.744 OA
ENDBRANCH  91  92
ENDBRANCH  59  84
ENDBRANCH  33  34
ENDBRANCH  26  28
ENDBRANCH  25  26
ENDBRANCH  24  25
ENDBRANCH  23  24
ENDBRANCH  22  23
ENDBRANCH   1  22
TORSDOF 21
ENDMDL
MODEL 3
REMARK VINA RESULT:     -10.4      4.735     11.842
REMARK SMILES Cc1ccn2c([C@H]3C[C@@H]3C(=O)OCCOCCOCCOC(=O)c3ccc(-c4c5nc(c(-c6c(F)cc(S(=O)(=O)[O-])cc6F)c6ccc([nH]6)c(-c6c(F)cc(S(=O)(=O)[O-])cc6F)c6nc(c(-c7c(F)cc(S(=O)(=O)[O-])cc7F)c7ccc4[nH]7)C=C6)C=C5)cc3)nnc2c1
REMARK SMILES IDX 17 1 16 2 15 3 14 4 13 5 12 6 10 7 11 8 9 9 7 10 8 11 6 12
REMARK SMILES IDX 1 13 2 14 3 15 93 16 4 17 92 18 5 19 91 20 90 21 18 22 19 23
REMARK SMILES IDX 20 24 21 25 22 26 23 27 24 28 25 29 89 30 26 31 88 32 27 33
REMARK SMILES IDX 28 34 29 35 82 36 30 37 87 38 81 39 83 40 31 41 86 42 80 43
REMARK SMILES IDX 79 44 32 46 66 47 45 48 65 49 46 50 49 51 64 52 84 53 47 54
REMARK SMILES IDX 48 55 63 57 85 58 50 59 33 60 34 61 43 62 35 63 36 64 42 65
REMARK SMILES IDX 44 66 37 67 38 68 39 69 40 70 41 71 67 72 68 73 77 74 69 75
REMARK SMILES IDX 70 76 76 77 78 78 71 79 72 80 73 81 74 82 75 83 51 84 52 85
REMARK SMILES IDX 61 86 53 87 54 88 60 89 62 90 55 91 56 92 57 93 58 94 59 95
REMARK H PARENT 83 45 49 56
REMARK Flexibility Score: inf
ROOT
ATOM      1  C   UNL A   1      33.382  35.351  30.065  1.00  0.00     0.188 C 
ENDROOT
BRANCH   1   2
ATOM      2  C   UNL A   1      32.763  36.442  30.968  1.00  0.00     0.188 C 
BRANCH   2   3
ATOM      3  O   UNL A   1      33.784  37.289  31.449  1.00  0.00    -0.376 OA
BRANCH   3   4
ATOM      4  C   UNL A   1      33.990  37.358  32.836  1.00  0.00     0.202 C 
BRANCH   4   5
ATOM      5  C   UNL A   1      34.043  36.052  33.649  1.00  0.00     0.261 C 
BRANCH   5   6
ATOM      6  O   UNL A   1      35.096  35.147  33.281  1.00  0.00    -0.463 OA
BRANCH   6   7
ATOM      7  C   UNL A   1      35.770  34.555  34.313  1.00  0.00     0.309 C 
ATOM      8  O   UNL A   1      35.414  34.520  35.459  1.00  0.00    -0.252 OA
BRANCH   7   9
ATOM      9  C   UNL A   1      36.963  33.791  33.833  1.00  0.00     0.110 C 
ATOM     10  C   UNL A   1      37.939  34.458  32.893  1.00  0.00     0.073 C 
ATOM     11  C   UNL A   1      37.122  33.291  32.429  1.00  0.00     0.028 C 
BRANCH  10  12
ATOM     12  C   UNL A   1      39.437  34.236  33.021  1.00  0.00     0.141 A 
ATOM     13  C   UNL A   1      43.355  35.288  29.261  1.00  0.00     0.044 C 
ATOM     14  C   UNL A   1      42.350  34.808  30.265  1.00  0.00    -0.046 A 
ATOM     15  C   UNL A   1      41.007  34.580  29.740  1.00  0.00     0.022 A 
ATOM     16  C   UNL A   1      42.621  34.637  31.582  1.00  0.00     0.053 A 
ATOM     17  C   UNL A   1      40.008  34.362  30.599  1.00  0.00     0.095 A 
ATOM     18  C   UNL A   1      41.561  34.342  32.491  1.00  0.00     0.161 A 
ATOM     19  N   UNL A   1      40.289  34.308  31.955  1.00  0.00    -0.286 N 
ATOM     20  N   UNL A   1      41.478  34.107  33.788  1.00  0.00    -0.130 NA
ATOM     21  N   UNL A   1      40.129  34.014  34.120  1.00  0.00    -0.134 NA
ENDBRANCH  10  12
ENDBRANCH   7   9
ENDBRANCH   6   7
ENDBRANCH   5   6
ENDBRANCH   4   5
ENDBRANCH   3   4
ENDBRANCH   2   3
ENDBRANCH   1   2
BRANCH   1  22
ATOM     22  O   UNL A   1      32.528  34.584  29.226  1.00  0.00    -0.376 OA
BRANCH  22  23
ATOM     23  C   UNL A   1      33.082  34.149  27.995  1.00  0.00     0.202 C 
BRANCH  23  24
ATOM     24  C   UNL A   1      33.489  32.663  27.897  1.00  0.00     0.261 C 
BRANCH  24  25
ATOM     25  O   UNL A   1      34.884  32.404  28.205  1.00  0.00    -0.460 OA
BRANCH  25  26
ATOM     26  C   UNL A   1      35.202  32.013  29.475  1.00  0.00     0.338 C 
ATOM     27  O   UNL A   1      34.467  32.104  30.445  1.00  0.00    -0.246 OA
BRANCH  26  28
ATOM     28  C   UNL A   1      36.440  31.149  29.441  1.00  0.00     0.060 A 
ATOM     29  C   UNL A   1      36.421  29.760  29.593  1.00  0.00     0.016 A 
ATOM     30  C   UNL A   1      37.684  31.801  29.473  1.00  0.00     0.016 A 
ATOM     31  C   UNL A   1      37.623  29.061  29.874  1.00  0.00     0.010 A 
ATOM     32  C   UNL A   1      38.876  31.101  29.761  1.00  0.00     0.010 A 
ATOM     33  C   UNL A   1      38.873  29.719  30.001  1.00  0.00    -0.014 A 
BRANCH  33  34
ATOM     34  C   UNL A   1      40.163  28.950  29.861  1.00  0.00     0.031 A 
ATOM     35  C   UNL A   1      40.685  28.728  31.217  1.00  0.00     0.074 A 
ATOM     36  C   UNL A   1      40.958  28.474  28.855  1.00  0.00     0.049 A 
ATOM     37  N   UNL A   1      41.569  29.509  31.747  1.00  0.00    -0.248 NA
ATOM     38  C   UNL A   1      40.041  27.809  32.154  1.00  0.00     0.031 C 
ATOM     39  C   UNL A   1      40.897  28.784  27.437  1.00  0.00     0.029 A 
ATOM     40  N   UNL A   1      42.057  27.604  28.885  1.00  0.00    -0.354 N 
ATOM     41  C   UNL A   1      41.840  28.952  32.974  1.00  0.00     0.074 A 
ATOM     42  C   UNL A   1      40.721  28.092  33.271  1.00  0.00     0.031 C 
ATOM     43  C   UNL A   1      41.734  27.991  26.727  1.00  0.00     0.029 A 
ATOM     44  C   UNL A   1      42.459  27.091  27.632  1.00  0.00     0.049 A 
ATOM     45  H   UNL A   1      42.518  27.368  29.722  1.00  0.00     0.167 HD
ATOM     46  C   UNL A   1      43.128  28.962  33.404  1.00  0.00     0.037 A 
ATOM     47  C   UNL A   1      43.644  26.550  27.206  1.00  0.00     0.037 A 
ATOM     48  C   UNL A   1      43.925  29.929  32.673  1.00  0.00     0.049 A 
ATOM     49  C   UNL A   1      44.736  27.198  27.944  1.00  0.00     0.074 A 
ATOM     50  C   UNL A   1      44.117  31.296  32.649  1.00  0.00     0.029 A 
ATOM     51  N   UNL A   1      44.436  29.446  31.500  1.00  0.00    -0.354 N 
ATOM     52  N   UNL A   1      45.140  28.412  27.714  1.00  0.00    -0.248 NA
ATOM     53  C   UNL A   1      45.232  26.571  29.164  1.00  0.00     0.031 C 
ATOM     54  C   UNL A   1      44.750  31.612  31.406  1.00  0.00     0.029 A 
ATOM     55  C   UNL A   1      44.951  30.434  30.704  1.00  0.00     0.049 A 
ATOM     56  H   UNL A   1      44.434  28.493  31.255  1.00  0.00     0.167 HD
ATOM     57  C   UNL A   1      45.558  28.839  28.953  1.00  0.00     0.074 A 
ATOM     58  C   UNL A   1      45.756  27.642  29.755  1.00  0.00     0.031 C 
ATOM     59  C   UNL A   1      45.327  30.117  29.350  1.00  0.00     0.037 A 
BRANCH  46  60
ATOM     60  C   UNL A   1      43.778  27.757  34.050  1.00  0.00     0.058 A 
ATOM     61  C   UNL A   1      43.859  26.558  33.314  1.00  0.00     0.135 A 
ATOM     62  C   UNL A   1      44.054  27.639  35.432  1.00  0.00     0.135 A 
ATOM     63  F   UNL A   1      43.593  26.545  31.997  1.00  0.00    -0.206 F 
ATOM     64  C   UNL A   1      44.147  25.332  33.913  1.00  0.00     0.059 A 
ATOM     65  C   UNL A   1      44.394  26.439  36.039  1.00  0.00     0.059 A 
ATOM     66  F   UNL A   1      43.917  28.653  36.291  1.00  0.00    -0.206 F 
ATOM     67  C   UNL A   1      44.409  25.285  35.279  1.00  0.00     0.060 A 
BRANCH  67  68
ATOM     68  S   UNL A   1      44.735  23.702  36.067  1.00  0.00     0.124 S 
ATOM     69  O   UNL A   1      43.680  22.872  35.499  1.00  0.00    -0.237 OA
ATOM     70  O   UNL A   1      46.092  23.417  35.612  1.00  0.00    -0.237 OA
ATOM     71  O   UNL A   1      44.609  24.003  37.490  1.00  0.00    -0.744 OA
ENDBRANCH  67  68
ENDBRANCH  46  60
BRANCH  47  72
ATOM     72  C   UNL A   1      43.900  25.173  26.672  1.00  0.00     0.058 A 
ATOM     73  C   UNL A   1      43.463  24.024  27.365  1.00  0.00     0.135 A 
ATOM     74  C   UNL A   1      44.429  24.950  25.392  1.00  0.00     0.135 A 
ATOM     75  F   UNL A   1      42.893  24.145  28.573  1.00  0.00    -0.206 F 
ATOM     76  C   UNL A   1      43.616  22.724  26.851  1.00  0.00     0.059 A 
ATOM     77  C   UNL A   1      44.605  23.665  24.862  1.00  0.00     0.059 A 
ATOM     78  F   UNL A   1      44.788  25.991  24.627  1.00  0.00    -0.206 F 
ATOM     79  C   UNL A   1      44.211  22.552  25.602  1.00  0.00     0.060 A 
BRANCH  79  80
ATOM     80  S   UNL A   1      44.622  20.891  24.998  1.00  0.00     0.124 S 
ATOM     81  O   UNL A   1      44.539  21.035  23.547  1.00  0.00    -0.237 OA
ATOM     82  O   UNL A   1      45.961  20.686  25.539  1.00  0.00    -0.237 OA
ATOM     83  O   UNL A   1      43.566  20.072  25.586  1.00  0.00    -0.744 OA
ENDBRANCH  79  80
ENDBRANCH  47  72
BRANCH  59  84
ATOM     84  C   UNL A   1      45.379  31.173  28.302  1.00  0.00     0.058 A 
ATOM     85  C   UNL A   1      46.549  31.695  27.732  1.00  0.00     0.135 A 
ATOM     86  C   UNL A   1      44.151  31.656  27.831  1.00  0.00     0.135 A 
ATOM     87  F   UNL A   1      47.755  31.256  28.119  1.00  0.00    -0.206 F 
ATOM     88  C   UNL A   1      46.495  32.657  26.720  1.00  0.00     0.059 A 
ATOM     89  C   UNL A   1      44.073  32.600  26.816  1.00  0.00     0.059 A 
ATOM     90  F   UNL A   1      43.003  31.181  28.341  1.00  0.00    -0.206 F 
ATOM     91  C   UNL A   1      45.250  33.097  26.262  1.00  0.00     0.060 A 
BRANCH  91  92
ATOM     92  S   UNL A   1      45.170  34.254  24.878  1.00  0.00     0.124 S 
ATOM     93  O   UNL A   1      44.528  33.454  23.841  1.00  0.00    -0.237 OA
ATOM     94  O   UNL A   1      44.370  35.348  25.422  1.00  0.00    -0.237 OA
ATOM     95  O   UNL A   1      46.572  34.586  24.632  1.00  0.00    -0.744 OA
ENDBRANCH  91  92
ENDBRANCH  59  84
ENDBRANCH  33  34
ENDBRANCH  26  28
ENDBRANCH  25  26
ENDBRANCH  24  25
ENDBRANCH  23  24
ENDBRANCH  22  23
ENDBRANCH   1  22
TORSDOF 21
ENDMDL
