MODEL 1
REMARK VINA RESULT:     -10.9      0.000      0.000
REMARK SMILES CCCn1cc(S(=O)(=O)N[C@H]2C=C[C@@H](C(=O)OCCOCCOCCOC(=O)c3ccc(-c4c5nc(c(-c6c(F)cc(S(=O)(=O)[O-])cc6F)c6ccc([nH]6)c(-c6c(F)cc(S(=O)(=O)[O-])cc6F)c6nc(c(-c7c(F)cc(S(=O)(=O)[O-])cc7F)c7ccc4[nH]7)C=C6)C=C5)cc3)C2)nc1C
REMARK SMILES IDX 21 1 20 2 19 3 18 4 17 5 15 6 16 7 14 8 11 9 12 10 95 11
REMARK SMILES IDX 13 12 10 13 7 15 8 16 9 17 6 18 4 19 5 20 97 21 96 22 98 23
REMARK SMILES IDX 3 24 2 25 1 26 22 27 23 28 24 29 25 30 26 31 27 32 28 33
REMARK SMILES IDX 29 34 30 35 94 36 31 37 93 38 32 39 33 40 34 41 87 42 35 43
REMARK SMILES IDX 92 44 86 45 88 46 36 47 91 48 85 49 84 50 37 52 71 53 50 54
REMARK SMILES IDX 70 55 51 56 54 57 69 58 89 59 52 60 53 61 68 63 90 64 55 65
REMARK SMILES IDX 38 66 39 67 48 68 40 69 41 70 47 71 49 72 42 73 43 74 44 75
REMARK SMILES IDX 45 76 46 77 72 78 73 79 82 80 74 81 75 82 81 83 83 84 76 85
REMARK SMILES IDX 77 86 78 87 79 88 80 89 56 90 57 91 66 92 58 93 59 94 65 95
REMARK SMILES IDX 67 96 60 97 61 98 62 99 63 100 64 101
REMARK H PARENT 10 14 88 51 54 62
REMARK Flexibility Score: inf
ROOT
ATOM      1  C   UNL A   1      40.889  21.136  26.953  1.00  0.00     0.188 C 
ENDROOT
BRANCH   1   2
ATOM      2  O   UNL A   1      40.237  21.827  25.914  1.00  0.00    -0.376 OA
BRANCH   2   3
ATOM      3  C   UNL A   1      38.885  22.228  26.121  1.00  0.00     0.202 C 
BRANCH   3   4
ATOM      4  C   UNL A   1      37.751  21.748  25.198  1.00  0.00     0.261 C 
BRANCH   4   5
ATOM      5  O   UNL A   1      36.427  21.695  25.779  1.00  0.00    -0.463 OA
BRANCH   5   6
ATOM      6  C   UNL A   1      35.626  20.717  25.274  1.00  0.00     0.312 C 
ATOM      7  O   UNL A   1      36.067  19.611  24.957  1.00  0.00    -0.252 OA
BRANCH   6   8
ATOM      8  C   UNL A   1      34.114  21.015  25.192  1.00  0.00     0.123 C 
ATOM      9  C   UNL A   1      32.310  21.987  23.786  1.00  0.00     0.093 C 
ATOM     10  C   UNL A   1      32.513  20.527  23.528  1.00  0.00    -0.011 C 
ATOM     11  C   UNL A   1      33.534  22.329  24.642  1.00  0.00     0.043 C 
ATOM     12  C   UNL A   1      33.483  20.001  24.281  1.00  0.00    -0.015 C 
BRANCH   9  13
ATOM     13  N   UNL A   1      32.171  22.615  22.469  1.00  0.00    -0.203 NA
ATOM     14  H   UNL A   1      32.024  21.856  21.805  1.00  0.00     0.142 HD
BRANCH  13  15
ATOM     15  S   UNL A   1      33.393  23.594  21.817  1.00  0.00     0.260 S 
ATOM     16  O   UNL A   1      33.217  23.634  20.390  1.00  0.00    -0.205 OA
ATOM     17  O   UNL A   1      34.612  23.127  22.453  1.00  0.00    -0.205 OA
BRANCH  15  18
ATOM     18  C   UNL A   1      33.156  25.207  22.438  1.00  0.00     0.188 A 
ATOM     19  N   UNL A   1      32.228  26.882  23.501  1.00  0.00    -0.334 N 
ATOM     20  C   UNL A   1      32.165  25.533  23.336  1.00  0.00     0.129 A 
ATOM     21  C   UNL A   1      33.286  27.340  22.732  1.00  0.00     0.107 A 
ATOM     22  N   UNL A   1      33.890  26.334  22.123  1.00  0.00    -0.221 NA
ATOM     23  C   UNL A   1      33.572  28.778  22.467  1.00  0.00     0.088 C 
BRANCH  19  24
ATOM     24  C   UNL A   1      31.235  27.698  24.177  1.00  0.00     0.123 C 
BRANCH  24  25
ATOM     25  C   UNL A   1      31.399  27.897  25.692  1.00  0.00     0.018 C 
ATOM     26  C   UNL A   1      32.161  29.149  26.091  1.00  0.00     0.006 C 
ENDBRANCH  24  25
ENDBRANCH  19  24
ENDBRANCH  15  18
ENDBRANCH  13  15
ENDBRANCH   9  13
ENDBRANCH   6   8
ENDBRANCH   5   6
ENDBRANCH   4   5
ENDBRANCH   3   4
ENDBRANCH   2   3
ENDBRANCH   1   2
BRANCH   1  27
ATOM     27  C   UNL A   1      42.173  20.374  26.593  1.00  0.00     0.188 C 
BRANCH  27  28
ATOM     28  O   UNL A   1      42.909  20.553  25.390  1.00  0.00    -0.376 OA
BRANCH  28  29
ATOM     29  C   UNL A   1      44.237  21.047  25.340  1.00  0.00     0.202 C 
BRANCH  29  30
ATOM     30  C   UNL A   1      44.548  22.453  24.845  1.00  0.00     0.261 C 
BRANCH  30  31
ATOM     31  O   UNL A   1      44.607  23.296  25.961  1.00  0.00    -0.460 OA
BRANCH  31  32
ATOM     32  C   UNL A   1      43.975  24.463  25.695  1.00  0.00     0.338 C 
ATOM     33  O   UNL A   1      44.338  25.358  24.971  1.00  0.00    -0.246 OA
BRANCH  32  34
ATOM     34  C   UNL A   1      42.722  24.448  26.459  1.00  0.00     0.060 A 
ATOM     35  C   UNL A   1      41.715  25.204  25.880  1.00  0.00     0.016 A 
ATOM     36  C   UNL A   1      42.777  24.146  27.819  1.00  0.00     0.016 A 
ATOM     37  C   UNL A   1      41.208  26.176  26.684  1.00  0.00     0.010 A 
ATOM     38  C   UNL A   1      42.258  25.097  28.625  1.00  0.00     0.010 A 
ATOM     39  C   UNL A   1      41.665  26.193  27.999  1.00  0.00    -0.014 A 
BRANCH  39  40
ATOM     40  C   UNL A   1      41.554  27.409  28.749  1.00  0.00     0.031 A 
ATOM     41  C   UNL A   1      42.743  28.230  28.509  1.00  0.00     0.074 A 
ATOM     42  C   UNL A   1      40.429  27.739  29.406  1.00  0.00     0.049 A 
ATOM     43  N   UNL A   1      43.864  28.162  29.152  1.00  0.00    -0.248 NA
ATOM     44  C   UNL A   1      42.853  28.834  27.167  1.00  0.00     0.031 C 
ATOM     45  C   UNL A   1      39.114  27.089  29.433  1.00  0.00     0.029 A 
ATOM     46  N   UNL A   1      40.237  28.848  30.162  1.00  0.00    -0.354 N 
ATOM     47  C   UNL A   1      44.707  28.950  28.389  1.00  0.00     0.074 A 
ATOM     48  C   UNL A   1      44.181  28.891  27.059  1.00  0.00     0.031 C 
ATOM     49  C   UNL A   1      38.209  27.942  29.975  1.00  0.00     0.029 A 
ATOM     50  C   UNL A   1      38.900  29.135  30.429  1.00  0.00     0.049 A 
ATOM     51  H   UNL A   1      40.979  29.403  30.494  1.00  0.00     0.167 HD
ATOM     52  C   UNL A   1      45.444  29.948  28.949  1.00  0.00     0.037 A 
ATOM     53  C   UNL A   1      38.480  30.352  30.867  1.00  0.00     0.037 A 
ATOM     54  C   UNL A   1      45.486  29.795  30.387  1.00  0.00     0.049 A 
ATOM     55  C   UNL A   1      39.705  31.033  31.414  1.00  0.00     0.074 A 
ATOM     56  C   UNL A   1      45.941  28.799  31.231  1.00  0.00     0.029 A 
ATOM     57  N   UNL A   1      44.592  30.539  31.127  1.00  0.00    -0.354 N 
ATOM     58  N   UNL A   1      40.379  30.582  32.445  1.00  0.00    -0.248 NA
ATOM     59  C   UNL A   1      40.478  31.851  30.486  1.00  0.00     0.031 C 
ATOM     60  C   UNL A   1      44.975  28.722  32.278  1.00  0.00     0.029 A 
ATOM     61  C   UNL A   1      44.021  29.721  32.074  1.00  0.00     0.049 A 
ATOM     62  H   UNL A   1      44.394  31.495  30.998  1.00  0.00     0.167 HD
ATOM     63  C   UNL A   1      41.722  30.716  32.095  1.00  0.00     0.074 A 
ATOM     64  C   UNL A   1      41.715  31.542  30.888  1.00  0.00     0.031 C 
ATOM     65  C   UNL A   1      42.689  29.908  32.628  1.00  0.00     0.037 A 
BRANCH  52  66
ATOM     66  C   UNL A   1      45.769  31.242  28.237  1.00  0.00     0.058 A 
ATOM     67  C   UNL A   1      44.723  32.146  27.986  1.00  0.00     0.135 A 
ATOM     68  C   UNL A   1      47.002  31.566  27.611  1.00  0.00     0.135 A 
ATOM     69  F   UNL A   1      43.511  31.952  28.528  1.00  0.00    -0.206 F 
ATOM     70  C   UNL A   1      44.872  33.242  27.133  1.00  0.00     0.059 A 
ATOM     71  C   UNL A   1      47.188  32.679  26.811  1.00  0.00     0.059 A 
ATOM     72  F   UNL A   1      48.088  30.790  27.654  1.00  0.00    -0.206 F 
ATOM     73  C   UNL A   1      46.107  33.491  26.541  1.00  0.00     0.060 A 
BRANCH  73  74
ATOM     74  S   UNL A   1      46.293  34.835  25.367  1.00  0.00     0.124 S 
ATOM     75  O   UNL A   1      47.719  34.765  25.070  1.00  0.00    -0.237 OA
ATOM     76  O   UNL A   1      45.391  34.424  24.298  1.00  0.00    -0.237 OA
ATOM     77  O   UNL A   1      45.865  36.008  26.124  1.00  0.00    -0.744 OA
ENDBRANCH  73  74
ENDBRANCH  52  66
BRANCH  53  78
ATOM     78  C   UNL A   1      37.260  31.084  30.426  1.00  0.00     0.058 A 
ATOM     79  C   UNL A   1      36.396  31.719  31.337  1.00  0.00     0.135 A 
ATOM     80  C   UNL A   1      37.050  31.392  29.066  1.00  0.00     0.135 A 
ATOM     81  F   UNL A   1      36.543  31.516  32.655  1.00  0.00    -0.206 F 
ATOM     82  C   UNL A   1      35.400  32.618  30.924  1.00  0.00     0.059 A 
ATOM     83  C   UNL A   1      36.062  32.275  28.631  1.00  0.00     0.059 A 
ATOM     84  F   UNL A   1      37.861  30.910  28.113  1.00  0.00    -0.206 F 
ATOM     85  C   UNL A   1      35.250  32.902  29.566  1.00  0.00     0.060 A 
BRANCH  85  86
ATOM     86  S   UNL A   1      34.070  34.165  29.028  1.00  0.00     0.124 S 
ATOM     87  O   UNL A   1      33.277  33.440  28.042  1.00  0.00    -0.237 OA
ATOM     88  O   UNL A   1      33.389  34.502  30.273  1.00  0.00    -0.237 OA
ATOM     89  O   UNL A   1      34.924  35.219  28.485  1.00  0.00    -0.744 OA
ENDBRANCH  85  86
ENDBRANCH  53  78
BRANCH  65  90
ATOM     90  C   UNL A   1      42.300  28.977  33.759  1.00  0.00     0.058 A 
ATOM     91  C   UNL A   1      41.738  27.699  33.576  1.00  0.00     0.135 A 
ATOM     92  C   UNL A   1      42.695  29.310  35.062  1.00  0.00     0.135 A 
ATOM     93  F   UNL A   1      41.425  27.260  32.350  1.00  0.00    -0.206 F 
ATOM     94  C   UNL A   1      41.550  26.807  34.636  1.00  0.00     0.059 A 
ATOM     95  C   UNL A   1      42.545  28.427  36.131  1.00  0.00     0.059 A 
ATOM     96  F   UNL A   1      43.298  30.486  35.298  1.00  0.00    -0.206 F 
ATOM     97  C   UNL A   1      41.964  27.180  35.914  1.00  0.00     0.060 A 
BRANCH  97  98
ATOM     98  S   UNL A   1      41.806  26.001  37.275  1.00  0.00     0.124 S 
ATOM     99  O   UNL A   1      42.860  26.436  38.183  1.00  0.00    -0.237 OA
ATOM    100  O   UNL A   1      40.438  26.227  37.734  1.00  0.00    -0.237 OA
ATOM    101  O   UNL A   1      42.031  24.708  36.633  1.00  0.00    -0.744 OA
ENDBRANCH  97  98
ENDBRANCH  65  90
ENDBRANCH  39  40
ENDBRANCH  32  34
ENDBRANCH  31  32
ENDBRANCH  30  31
ENDBRANCH  29  30
ENDBRANCH  28  29
ENDBRANCH  27  28
ENDBRANCH   1  27
TORSDOF 25
ENDMDL
MODEL 2
REMARK VINA RESULT:     -10.9      2.513      9.995
REMARK SMILES CCCn1cc(S(=O)(=O)N[C@H]2C=C[C@@H](C(=O)OCCOCCOCCOC(=O)c3ccc(-c4c5nc(c(-c6c(F)cc(S(=O)(=O)[O-])cc6F)c6ccc([nH]6)c(-c6c(F)cc(S(=O)(=O)[O-])cc6F)c6nc(c(-c7c(F)cc(S(=O)(=O)[O-])cc7F)c7ccc4[nH]7)C=C6)C=C5)cc3)C2)nc1C
REMARK SMILES IDX 21 1 20 2 19 3 18 4 17 5 15 6 16 7 14 8 11 9 12 10 95 11
REMARK SMILES IDX 13 12 10 13 7 15 8 16 9 17 6 18 4 19 5 20 97 21 96 22 98 23
REMARK SMILES IDX 3 24 2 25 1 26 22 27 23 28 24 29 25 30 26 31 27 32 28 33
REMARK SMILES IDX 29 34 30 35 94 36 31 37 93 38 32 39 33 40 34 41 87 42 35 43
REMARK SMILES IDX 92 44 86 45 88 46 36 47 91 48 85 49 84 50 37 52 71 53 50 54
REMARK SMILES IDX 70 55 51 56 54 57 69 58 89 59 52 60 53 61 68 63 90 64 55 65
REMARK SMILES IDX 38 66 39 67 48 68 40 69 41 70 47 71 49 72 42 73 43 74 44 75
REMARK SMILES IDX 45 76 46 77 72 78 73 79 82 80 74 81 75 82 81 83 83 84 76 85
REMARK SMILES IDX 77 86 78 87 79 88 80 89 56 90 57 91 66 92 58 93 59 94 65 95
REMARK SMILES IDX 67 96 60 97 61 98 62 99 63 100 64 101
REMARK H PARENT 10 14 88 51 54 62
REMARK Flexibility Score: inf
ROOT
ATOM      1  C   UNL A   1      33.734  35.055  29.171  1.00  0.00     0.188 C 
ENDROOT
BRANCH   1   2
ATOM      2  O   UNL A   1      33.383  33.835  28.562  1.00  0.00    -0.376 OA
BRANCH   2   3
ATOM      3  C   UNL A   1      34.319  32.762  28.622  1.00  0.00     0.202 C 
BRANCH   3   4
ATOM      4  C   UNL A   1      34.289  31.607  27.607  1.00  0.00     0.261 C 
BRANCH   4   5
ATOM      5  O   UNL A   1      33.116  30.759  27.630  1.00  0.00    -0.463 OA
BRANCH   5   6
ATOM      6  C   UNL A   1      33.238  29.604  26.921  1.00  0.00     0.312 C 
ATOM      7  O   UNL A   1      33.455  28.521  27.468  1.00  0.00    -0.252 OA
BRANCH   6   8
ATOM      8  C   UNL A   1      33.009  29.684  25.397  1.00  0.00     0.123 C 
ATOM      9  C   UNL A   1      32.355  28.400  23.372  1.00  0.00     0.093 C 
ATOM     10  C   UNL A   1      31.181  29.029  24.054  1.00  0.00    -0.011 C 
ATOM     11  C   UNL A   1      33.465  28.597  24.409  1.00  0.00     0.043 C 
ATOM     12  C   UNL A   1      31.529  29.719  25.145  1.00  0.00    -0.015 C 
BRANCH   9  13
ATOM     13  N   UNL A   1      31.942  27.036  23.030  1.00  0.00    -0.203 NA
ATOM     14  H   UNL A   1      31.943  26.510  23.904  1.00  0.00     0.142 HD
BRANCH  13  15
ATOM     15  S   UNL A   1      32.803  26.100  21.906  1.00  0.00     0.260 S 
ATOM     16  O   UNL A   1      33.980  26.834  21.525  1.00  0.00    -0.205 OA
ATOM     17  O   UNL A   1      31.798  25.661  20.954  1.00  0.00    -0.205 OA
BRANCH  15  18
ATOM     18  C   UNL A   1      33.311  24.645  22.722  1.00  0.00     0.188 A 
ATOM     19  N   UNL A   1      33.242  22.904  24.049  1.00  0.00    -0.334 N 
ATOM     20  C   UNL A   1      32.473  23.885  23.505  1.00  0.00     0.129 A 
ATOM     21  C   UNL A   1      34.524  23.064  23.548  1.00  0.00     0.107 A 
ATOM     22  N   UNL A   1      34.572  24.081  22.705  1.00  0.00    -0.221 NA
ATOM     23  C   UNL A   1      35.719  22.327  24.046  1.00  0.00     0.088 C 
BRANCH  19  24
ATOM     24  C   UNL A   1      32.838  22.007  25.118  1.00  0.00     0.123 C 
BRANCH  24  25
ATOM     25  C   UNL A   1      32.657  22.614  26.517  1.00  0.00     0.018 C 
ATOM     26  C   UNL A   1      33.567  22.033  27.587  1.00  0.00     0.006 C 
ENDBRANCH  24  25
ENDBRANCH  19  24
ENDBRANCH  15  18
ENDBRANCH  13  15
ENDBRANCH   9  13
ENDBRANCH   6   8
ENDBRANCH   5   6
ENDBRANCH   4   5
ENDBRANCH   3   4
ENDBRANCH   2   3
ENDBRANCH   1   2
BRANCH   1  27
ATOM     27  C   UNL A   1      33.203  35.310  30.590  1.00  0.00     0.188 C 
BRANCH  27  28
ATOM     28  O   UNL A   1      33.561  34.549  31.736  1.00  0.00    -0.376 OA
BRANCH  28  29
ATOM     29  C   UNL A   1      34.877  34.096  32.006  1.00  0.00     0.202 C 
BRANCH  29  30
ATOM     30  C   UNL A   1      35.134  32.790  32.745  1.00  0.00     0.261 C 
BRANCH  30  31
ATOM     31  O   UNL A   1      35.144  31.758  31.800  1.00  0.00    -0.460 OA
BRANCH  31  32
ATOM     32  C   UNL A   1      36.305  31.067  31.878  1.00  0.00     0.338 C 
ATOM     33  O   UNL A   1      36.879  30.685  32.870  1.00  0.00    -0.246 OA
BRANCH  32  34
ATOM     34  C   UNL A   1      36.759  30.845  30.500  1.00  0.00     0.060 A 
ATOM     35  C   UNL A   1      36.753  29.510  30.127  1.00  0.00     0.016 A 
ATOM     36  C   UNL A   1      37.568  31.811  29.905  1.00  0.00     0.016 A 
ATOM     37  C   UNL A   1      37.954  29.040  29.702  1.00  0.00     0.010 A 
ATOM     38  C   UNL A   1      38.757  31.349  29.462  1.00  0.00     0.010 A 
ATOM     39  C   UNL A   1      38.977  29.977  29.575  1.00  0.00    -0.014 A 
BRANCH  39  40
ATOM     40  C   UNL A   1      40.335  29.518  29.592  1.00  0.00     0.031 A 
ATOM     41  C   UNL A   1      40.768  29.357  30.982  1.00  0.00     0.074 A 
ATOM     42  C   UNL A   1      40.977  29.155  28.469  1.00  0.00     0.049 A 
ATOM     43  N   UNL A   1      41.272  30.278  31.739  1.00  0.00    -0.248 NA
ATOM     44  C   UNL A   1      40.169  28.231  31.721  1.00  0.00     0.031 C 
ATOM     45  C   UNL A   1      40.489  29.020  27.092  1.00  0.00     0.029 A 
ATOM     46  N   UNL A   1      42.263  28.737  28.380  1.00  0.00    -0.354 N 
ATOM     47  C   UNL A   1      41.272  29.686  32.989  1.00  0.00     0.074 A 
ATOM     48  C   UNL A   1      40.205  28.732  32.956  1.00  0.00     0.031 C 
ATOM     49  C   UNL A   1      41.404  28.333  26.363  1.00  0.00     0.029 A 
ATOM     50  C   UNL A   1      42.572  28.085  27.187  1.00  0.00     0.049 A 
ATOM     51  H   UNL A   1      42.923  28.881  29.096  1.00  0.00     0.167 HD
ATOM     52  C   UNL A   1      42.394  29.654  33.758  1.00  0.00     0.037 A 
ATOM     53  C   UNL A   1      43.679  27.310  27.036  1.00  0.00     0.037 A 
ATOM     54  C   UNL A   1      43.372  30.596  33.260  1.00  0.00     0.049 A 
ATOM     55  C   UNL A   1      44.611  27.708  28.147  1.00  0.00     0.074 A 
ATOM     56  C   UNL A   1      43.375  31.966  33.072  1.00  0.00     0.029 A 
ATOM     57  N   UNL A   1      44.364  30.101  32.439  1.00  0.00    -0.354 N 
ATOM     58  N   UNL A   1      45.126  28.910  28.258  1.00  0.00    -0.248 NA
ATOM     59  C   UNL A   1      44.503  26.970  29.400  1.00  0.00     0.031 C 
ATOM     60  C   UNL A   1      44.049  32.176  31.833  1.00  0.00     0.029 A 
ATOM     61  C   UNL A   1      44.499  30.941  31.359  1.00  0.00     0.049 A 
ATOM     62  H   UNL A   1      44.887  29.282  32.600  1.00  0.00     0.167 HD
ATOM     63  C   UNL A   1      45.033  29.228  29.612  1.00  0.00     0.074 A 
ATOM     64  C   UNL A   1      44.674  27.972  30.269  1.00  0.00     0.031 C 
ATOM     65  C   UNL A   1      44.957  30.524  30.044  1.00  0.00     0.037 A 
BRANCH  52  66
ATOM     66  C   UNL A   1      42.735  28.508  34.686  1.00  0.00     0.058 A 
ATOM     67  C   UNL A   1      42.843  28.773  36.061  1.00  0.00     0.135 A 
ATOM     68  C   UNL A   1      43.156  27.211  34.292  1.00  0.00     0.135 A 
ATOM     69  F   UNL A   1      42.469  29.963  36.556  1.00  0.00    -0.206 F 
ATOM     70  C   UNL A   1      43.383  27.851  36.959  1.00  0.00     0.059 A 
ATOM     71  C   UNL A   1      43.639  26.260  35.174  1.00  0.00     0.059 A 
ATOM     72  F   UNL A   1      43.215  26.797  33.023  1.00  0.00    -0.206 F 
ATOM     73  C   UNL A   1      43.790  26.600  36.500  1.00  0.00     0.060 A 
BRANCH  73  74
ATOM     74  S   UNL A   1      44.576  25.438  37.619  1.00  0.00     0.124 S 
ATOM     75  O   UNL A   1      44.186  25.977  38.917  1.00  0.00    -0.237 OA
ATOM     76  O   UNL A   1      43.951  24.179  37.229  1.00  0.00    -0.237 OA
ATOM     77  O   UNL A   1      45.993  25.556  37.289  1.00  0.00    -0.744 OA
ENDBRANCH  73  74
ENDBRANCH  52  66
BRANCH  53  78
ATOM     78  C   UNL A   1      43.758  26.002  26.325  1.00  0.00     0.058 A 
ATOM     79  C   UNL A   1      44.746  25.733  25.360  1.00  0.00     0.135 A 
ATOM     80  C   UNL A   1      43.011  24.889  26.764  1.00  0.00     0.135 A 
ATOM     81  F   UNL A   1      45.532  26.722  24.909  1.00  0.00    -0.206 F 
ATOM     82  C   UNL A   1      44.989  24.437  24.878  1.00  0.00     0.059 A 
ATOM     83  C   UNL A   1      43.229  23.595  26.294  1.00  0.00     0.059 A 
ATOM     84  F   UNL A   1      42.098  25.010  27.739  1.00  0.00    -0.206 F 
ATOM     85  C   UNL A   1      44.233  23.370  25.363  1.00  0.00     0.060 A 
BRANCH  85  86
ATOM     86  S   UNL A   1      44.628  21.676  24.860  1.00  0.00     0.124 S 
ATOM     87  O   UNL A   1      44.672  21.793  23.407  1.00  0.00    -0.237 OA
ATOM     88  O   UNL A   1      45.908  21.448  25.521  1.00  0.00    -0.237 OA
ATOM     89  O   UNL A   1      43.510  20.896  25.387  1.00  0.00    -0.744 OA
ENDBRANCH  85  86
ENDBRANCH  53  78
BRANCH  65  90
ATOM     90  C   UNL A   1      45.166  31.630  29.028  1.00  0.00     0.058 A 
ATOM     91  C   UNL A   1      46.428  32.047  28.560  1.00  0.00     0.135 A 
ATOM     92  C   UNL A   1      44.046  32.145  28.363  1.00  0.00     0.135 A 
ATOM     93  F   UNL A   1      47.551  31.529  29.072  1.00  0.00    -0.206 F 
ATOM     94  C   UNL A   1      46.570  32.950  27.503  1.00  0.00     0.059 A 
ATOM     95  C   UNL A   1      44.162  33.025  27.287  1.00  0.00     0.059 A 
ATOM     96  F   UNL A   1      42.815  31.740  28.713  1.00  0.00    -0.206 F 
ATOM     97  C   UNL A   1      45.427  33.431  26.867  1.00  0.00     0.060 A 
BRANCH  97  98
ATOM     98  S   UNL A   1      45.603  34.532  25.443  1.00  0.00     0.124 S 
ATOM     99  O   UNL A   1      45.202  35.819  26.000  1.00  0.00    -0.237 OA
ATOM    100  O   UNL A   1      47.017  34.396  25.110  1.00  0.00    -0.237 OA
ATOM    101  O   UNL A   1      44.683  33.965  24.459  1.00  0.00    -0.744 OA
ENDBRANCH  97  98
ENDBRANCH  65  90
ENDBRANCH  39  40
ENDBRANCH  32  34
ENDBRANCH  31  32
ENDBRANCH  30  31
ENDBRANCH  29  30
ENDBRANCH  28  29
ENDBRANCH  27  28
ENDBRANCH   1  27
TORSDOF 25
ENDMDL
MODEL 3
REMARK VINA RESULT:     -10.4      2.668      3.709
REMARK SMILES CCCn1cc(S(=O)(=O)N[C@H]2C=C[C@@H](C(=O)OCCOCCOCCOC(=O)c3ccc(-c4c5nc(c(-c6c(F)cc(S(=O)(=O)[O-])cc6F)c6ccc([nH]6)c(-c6c(F)cc(S(=O)(=O)[O-])cc6F)c6nc(c(-c7c(F)cc(S(=O)(=O)[O-])cc7F)c7ccc4[nH]7)C=C6)C=C5)cc3)C2)nc1C
REMARK SMILES IDX 21 1 20 2 19 3 18 4 17 5 15 6 16 7 14 8 11 9 12 10 95 11
REMARK SMILES IDX 13 12 10 13 7 15 8 16 9 17 6 18 4 19 5 20 97 21 96 22 98 23
REMARK SMILES IDX 3 24 2 25 1 26 22 27 23 28 24 29 25 30 26 31 27 32 28 33
REMARK SMILES IDX 29 34 30 35 94 36 31 37 93 38 32 39 33 40 34 41 87 42 35 43
REMARK SMILES IDX 92 44 86 45 88 46 36 47 91 48 85 49 84 50 37 52 71 53 50 54
REMARK SMILES IDX 70 55 51 56 54 57 69 58 89 59 52 60 53 61 68 63 90 64 55 65
REMARK SMILES IDX 38 66 39 67 48 68 40 69 41 70 47 71 49 72 42 73 43 74 44 75
REMARK SMILES IDX 45 76 46 77 72 78 73 79 82 80 74 81 75 82 81 83 83 84 76 85
REMARK SMILES IDX 77 86 78 87 79 88 80 89 56 90 57 91 66 92 58 93 59 94 65 95
REMARK SMILES IDX 67 96 60 97 61 98 62 99 63 100 64 101
REMARK H PARENT 10 14 88 51 54 62
REMARK Flexibility Score: inf
ROOT
ATOM      1  C   UNL A   1      38.693  23.586  26.601  1.00  0.00     0.188 C 
ENDROOT
BRANCH   1   2
ATOM      2  O   UNL A   1      37.898  23.945  25.495  1.00  0.00    -0.376 OA
BRANCH   2   3
ATOM      3  C   UNL A   1      36.615  23.338  25.369  1.00  0.00     0.202 C 
BRANCH   3   4
ATOM      4  C   UNL A   1      36.302  22.340  24.240  1.00  0.00     0.261 C 
BRANCH   4   5
ATOM      5  O   UNL A   1      34.904  22.149  23.917  1.00  0.00    -0.463 OA
BRANCH   5   6
ATOM      6  C   UNL A   1      34.185  21.505  24.875  1.00  0.00     0.312 C 
ATOM      7  O   UNL A   1      34.356  20.311  25.129  1.00  0.00    -0.252 OA
BRANCH   6   8
ATOM      8  C   UNL A   1      33.193  22.350  25.702  1.00  0.00     0.123 C 
ATOM      9  C   UNL A   1      31.568  24.229  25.623  1.00  0.00     0.093 C 
ATOM     10  C   UNL A   1      30.929  22.907  25.335  1.00  0.00    -0.011 C 
ATOM     11  C   UNL A   1      33.058  23.876  25.569  1.00  0.00     0.043 C 
ATOM     12  C   UNL A   1      31.800  21.894  25.376  1.00  0.00    -0.015 C 
BRANCH   9  13
ATOM     13  N   UNL A   1      31.028  25.164  24.631  1.00  0.00    -0.203 NA
ATOM     14  H   UNL A   1      30.986  24.652  23.750  1.00  0.00     0.142 HD
BRANCH  13  15
ATOM     15  S   UNL A   1      31.791  26.641  24.292  1.00  0.00     0.260 S 
ATOM     16  O   UNL A   1      32.658  26.444  23.161  1.00  0.00    -0.205 OA
ATOM     17  O   UNL A   1      32.263  27.111  25.582  1.00  0.00    -0.205 OA
BRANCH  15  18
ATOM     18  C   UNL A   1      30.548  27.775  23.831  1.00  0.00     0.188 A 
ATOM     19  N   UNL A   1      29.489  29.678  23.599  1.00  0.00    -0.334 N 
ATOM     20  C   UNL A   1      30.686  29.139  23.955  1.00  0.00     0.129 A 
ATOM     21  C   UNL A   1      28.663  28.630  23.224  1.00  0.00     0.107 A 
ATOM     22  N   UNL A   1      29.305  27.477  23.310  1.00  0.00    -0.221 NA
ATOM     23  C   UNL A   1      27.203  28.763  22.961  1.00  0.00     0.088 C 
BRANCH  19  24
ATOM     24  C   UNL A   1      29.094  31.063  23.792  1.00  0.00     0.123 C 
BRANCH  24  25
ATOM     25  C   UNL A   1      29.018  31.955  22.544  1.00  0.00     0.018 C 
ATOM     26  C   UNL A   1      28.716  33.418  22.824  1.00  0.00     0.006 C 
ENDBRANCH  24  25
ENDBRANCH  19  24
ENDBRANCH  15  18
ENDBRANCH  13  15
ENDBRANCH   9  13
ENDBRANCH   6   8
ENDBRANCH   5   6
ENDBRANCH   4   5
ENDBRANCH   3   4
ENDBRANCH   2   3
ENDBRANCH   1   2
BRANCH   1  27
ATOM     27  C   UNL A   1      39.362  22.204  26.567  1.00  0.00     0.188 C 
BRANCH  27  28
ATOM     28  O   UNL A   1      40.109  21.642  27.638  1.00  0.00    -0.376 OA
BRANCH  28  29
ATOM     29  C   UNL A   1      41.464  21.238  27.532  1.00  0.00     0.202 C 
BRANCH  29  30
ATOM     30  C   UNL A   1      42.168  21.154  26.185  1.00  0.00     0.261 C 
BRANCH  30  31
ATOM     31  O   UNL A   1      43.478  21.616  26.357  1.00  0.00    -0.460 OA
BRANCH  31  32
ATOM     32  C   UNL A   1      44.191  21.424  25.223  1.00  0.00     0.338 C 
ATOM     33  O   UNL A   1      44.265  20.424  24.550  1.00  0.00    -0.246 OA
BRANCH  32  34
ATOM     34  C   UNL A   1      44.876  22.690  24.935  1.00  0.00     0.060 A 
ATOM     35  C   UNL A   1      45.994  22.904  25.726  1.00  0.00     0.016 A 
ATOM     36  C   UNL A   1      44.150  23.714  24.329  1.00  0.00     0.016 A 
ATOM     37  C   UNL A   1      45.964  24.059  26.441  1.00  0.00     0.010 A 
ATOM     38  C   UNL A   1      44.131  24.873  25.022  1.00  0.00     0.010 A 
ATOM     39  C   UNL A   1      44.899  24.919  26.186  1.00  0.00    -0.014 A 
BRANCH  39  40
ATOM     40  C   UNL A   1      44.543  25.887  27.181  1.00  0.00     0.031 A 
ATOM     41  C   UNL A   1      45.545  26.956  27.187  1.00  0.00     0.074 A 
ATOM     42  C   UNL A   1      43.373  25.833  27.839  1.00  0.00     0.049 A 
ATOM     43  N   UNL A   1      46.654  26.962  27.853  1.00  0.00    -0.248 NA
ATOM     44  C   UNL A   1      45.536  27.858  26.020  1.00  0.00     0.031 C 
ATOM     45  C   UNL A   1      42.215  24.951  27.658  1.00  0.00     0.029 A 
ATOM     46  N   UNL A   1      42.961  26.682  28.812  1.00  0.00    -0.354 N 
ATOM     47  C   UNL A   1      47.325  28.052  27.326  1.00  0.00     0.074 A 
ATOM     48  C   UNL A   1      46.826  28.195  25.992  1.00  0.00     0.031 C 
ATOM     49  C   UNL A   1      41.156  25.466  28.330  1.00  0.00     0.029 A 
ATOM     50  C   UNL A   1      41.592  26.635  29.071  1.00  0.00     0.049 A 
ATOM     51  H   UNL A   1      43.576  27.281  29.295  1.00  0.00     0.167 HD
ATOM     52  C   UNL A   1      47.845  29.020  28.129  1.00  0.00     0.037 A 
ATOM     53  C   UNL A   1      40.936  27.615  29.748  1.00  0.00     0.037 A 
ATOM     54  C   UNL A   1      47.913  28.555  29.497  1.00  0.00     0.049 A 
ATOM     55  C   UNL A   1      41.998  28.379  30.491  1.00  0.00     0.074 A 
ATOM     56  C   UNL A   1      48.555  27.502  30.120  1.00  0.00     0.029 A 
ATOM     57  N   UNL A   1      46.885  28.922  30.340  1.00  0.00    -0.354 N 
ATOM     58  N   UNL A   1      42.745  27.845  31.428  1.00  0.00    -0.248 NA
ATOM     59  C   UNL A   1      42.594  29.521  29.807  1.00  0.00     0.031 C 
ATOM     60  C   UNL A   1      47.621  27.001  31.075  1.00  0.00     0.029 A 
ATOM     61  C   UNL A   1      46.487  27.816  31.052  1.00  0.00     0.049 A 
ATOM     62  H   UNL A   1      46.501  29.826  30.417  1.00  0.00     0.167 HD
ATOM     63  C   UNL A   1      44.035  28.314  31.182  1.00  0.00     0.074 A 
ATOM     64  C   UNL A   1      43.867  29.375  30.190  1.00  0.00     0.031 C 
ATOM     65  C   UNL A   1      45.143  27.610  31.568  1.00  0.00     0.037 A 
BRANCH  52  66
ATOM     66  C   UNL A   1      47.907  30.480  27.739  1.00  0.00     0.058 A 
ATOM     67  C   UNL A   1      46.705  31.206  27.681  1.00  0.00     0.135 A 
ATOM     68  C   UNL A   1      49.042  31.162  27.227  1.00  0.00     0.135 A 
ATOM     69  F   UNL A   1      45.564  30.671  28.142  1.00  0.00    -0.206 F 
ATOM     70  C   UNL A   1      46.627  32.476  27.106  1.00  0.00     0.059 A 
ATOM     71  C   UNL A   1      48.998  32.444  26.707  1.00  0.00     0.059 A 
ATOM     72  F   UNL A   1      50.254  30.613  27.111  1.00  0.00    -0.206 F 
ATOM     73  C   UNL A   1      47.780  33.079  26.610  1.00  0.00     0.060 A 
BRANCH  73  74
ATOM     74  S   UNL A   1      47.683  34.667  25.779  1.00  0.00     0.124 S 
ATOM     75  O   UNL A   1      48.959  34.702  25.073  1.00  0.00    -0.237 OA
ATOM     76  O   UNL A   1      46.493  34.500  24.953  1.00  0.00    -0.237 OA
ATOM     77  O   UNL A   1      47.546  35.617  26.880  1.00  0.00    -0.744 OA
ENDBRANCH  73  74
ENDBRANCH  52  66
BRANCH  53  78
ATOM     78  C   UNL A   1      39.595  28.177  29.421  1.00  0.00     0.058 A 
ATOM     79  C   UNL A   1      38.587  28.323  30.392  1.00  0.00     0.135 A 
ATOM     80  C   UNL A   1      39.358  28.822  28.190  1.00  0.00     0.135 A 
ATOM     81  F   UNL A   1      38.740  27.776  31.608  1.00  0.00    -0.206 F 
ATOM     82  C   UNL A   1      37.427  29.079  30.160  1.00  0.00     0.059 A 
ATOM     83  C   UNL A   1      38.210  29.571  27.933  1.00  0.00     0.059 A 
ATOM     84  F   UNL A   1      40.281  28.820  27.218  1.00  0.00    -0.206 F 
ATOM     85  C   UNL A   1      37.254  29.712  28.930  1.00  0.00     0.060 A 
BRANCH  85  86
ATOM     86  S   UNL A   1      35.836  30.806  28.664  1.00  0.00     0.124 S 
ATOM     87  O   UNL A   1      34.898  29.926  27.976  1.00  0.00    -0.237 OA
ATOM     88  O   UNL A   1      35.476  31.183  30.026  1.00  0.00    -0.237 OA
ATOM     89  O   UNL A   1      36.387  31.886  27.848  1.00  0.00    -0.744 OA
ENDBRANCH  85  86
ENDBRANCH  53  78
BRANCH  65  90
ATOM     90  C   UNL A   1      44.945  26.389  32.444  1.00  0.00     0.058 A 
ATOM     91  C   UNL A   1      44.810  25.075  31.954  1.00  0.00     0.135 A 
ATOM     92  C   UNL A   1      45.096  26.531  33.830  1.00  0.00     0.135 A 
ATOM     93  F   UNL A   1      44.761  24.839  30.637  1.00  0.00    -0.206 F 
ATOM     94  C   UNL A   1      44.799  23.960  32.798  1.00  0.00     0.059 A 
ATOM     95  C   UNL A   1      45.117  25.433  34.690  1.00  0.00     0.059 A 
ATOM     96  F   UNL A   1      45.296  27.748  34.360  1.00  0.00    -0.206 F 
ATOM     97  C   UNL A   1      44.959  24.151  34.170  1.00  0.00     0.060 A 
BRANCH  97  98
ATOM     98  S   UNL A   1      45.032  22.711  35.260  1.00  0.00     0.124 S 
ATOM     99  O   UNL A   1      43.869  21.943  34.833  1.00  0.00    -0.237 OA
ATOM    100  O   UNL A   1      46.332  22.130  34.933  1.00  0.00    -0.237 OA
ATOM    101  O   UNL A   1      44.939  23.291  36.598  1.00  0.00    -0.744 OA
ENDBRANCH  97  98
ENDBRANCH  65  90
ENDBRANCH  39  40
ENDBRANCH  32  34
ENDBRANCH  31  32
ENDBRANCH  30  31
ENDBRANCH  29  30
ENDBRANCH  28  29
ENDBRANCH  27  28
ENDBRANCH   1  27
TORSDOF 25
ENDMDL
