MODEL 1
REMARK VINA RESULT:      -9.2      0.000      0.000
REMARK SMILES CC(=O)N[C@@]1(C(=O)OCCOCCOCCOC(=O)c2ccc(-c3c4nc(c(-c5c(F)cc(S(=O)(=O)[O-])cc5F)c5ccc([nH]5)c(-c5c(F)cc(S(=O)(=O)[O-])cc5F)c5nc(c(-c6c(F)cc(S(=O)(=O)[O-])cc6F)c6ccc3[nH]6)C=C5)C=C4)cc2)CCCc2ccccc21
REMARK SMILES IDX 13 1 12 2 11 3 10 4 9 5 8 6 6 7 7 8 5 9 86 10 94 11 87 12
REMARK SMILES IDX 89 13 93 14 88 15 90 16 92 17 91 18 4 19 1 20 2 21 3 22
REMARK SMILES IDX 14 24 15 25 16 26 17 27 18 28 19 29 20 30 21 31 85 32 22 33
REMARK SMILES IDX 84 34 23 35 24 36 25 37 78 38 26 39 83 40 77 41 79 42 27 43
REMARK SMILES IDX 82 44 76 45 75 46 28 48 62 49 41 50 61 51 42 52 45 53 60 54
REMARK SMILES IDX 80 55 43 56 44 57 59 59 81 60 46 61 29 62 30 63 39 64 31 65
REMARK SMILES IDX 32 66 38 67 40 68 33 69 34 70 35 71 36 72 37 73 63 74 64 75
REMARK SMILES IDX 73 76 65 77 66 78 72 79 74 80 67 81 68 82 69 83 70 84 71 85
REMARK SMILES IDX 47 86 48 87 57 88 49 89 50 90 56 91 58 92 51 93 52 94 53 95
REMARK SMILES IDX 54 96 55 97
REMARK H PARENT 4 23 79 47 45 58
REMARK Flexibility Score: inf
ROOT
ATOM      1  C   UNL A   1      42.734  18.660  26.186  1.00  0.00     0.188 C 
ENDROOT
BRANCH   1   2
ATOM      2  C   UNL A   1      43.875  19.170  25.300  1.00  0.00     0.188 C 
BRANCH   2   3
ATOM      3  O   UNL A   1      43.896  20.540  24.969  1.00  0.00    -0.376 OA
BRANCH   3   4
ATOM      4  C   UNL A   1      45.001  21.040  24.226  1.00  0.00     0.202 C 
BRANCH   4   5
ATOM      5  C   UNL A   1      45.234  22.545  24.036  1.00  0.00     0.261 C 
BRANCH   5   6
ATOM      6  O   UNL A   1      45.459  23.280  25.254  1.00  0.00    -0.461 OA
BRANCH   6   7
ATOM      7  C   UNL A   1      45.819  24.579  25.076  1.00  0.00     0.336 C 
ATOM      8  O   UNL A   1      46.721  24.900  24.303  1.00  0.00    -0.249 OA
BRANCH   7   9
ATOM      9  C   UNL A   1      44.961  25.638  25.895  1.00  0.00     0.164 C 
ATOM     10  C   UNL A   1      45.970  26.739  26.379  1.00  0.00     0.046 C 
ATOM     11  C   UNL A   1      44.433  24.894  27.131  1.00  0.00    -0.008 A 
ATOM     12  C   UNL A   1      47.086  26.240  27.284  1.00  0.00     0.008 C 
ATOM     13  C   UNL A   1      45.302  24.631  28.212  1.00  0.00    -0.042 A 
ATOM     14  C   UNL A   1      43.179  24.260  27.115  1.00  0.00     0.007 A 
ATOM     15  C   UNL A   1      46.559  25.434  28.462  1.00  0.00     0.036 C 
ATOM     16  C   UNL A   1      44.972  23.623  29.130  1.00  0.00     0.004 A 
ATOM     17  C   UNL A   1      42.861  23.267  28.037  1.00  0.00     0.000 A 
ATOM     18  C   UNL A   1      43.777  22.916  29.017  1.00  0.00     0.000 A 
BRANCH   9  19
ATOM     19  N   UNL A   1      43.903  26.427  25.199  1.00  0.00    -0.337 N 
ATOM     20  C   UNL A   1      43.404  28.417  26.638  1.00  0.00     0.114 C 
ATOM     21  C   UNL A   1      43.307  27.631  25.361  1.00  0.00     0.218 C 
ATOM     22  O   UNL A   1      42.647  28.065  24.412  1.00  0.00    -0.275 OA
ATOM     23  H   UNL A   1      43.545  25.947  24.416  1.00  0.00     0.164 HD
ENDBRANCH   9  19
ENDBRANCH   7   9
ENDBRANCH   6   7
ENDBRANCH   5   6
ENDBRANCH   4   5
ENDBRANCH   3   4
ENDBRANCH   2   3
ENDBRANCH   1   2
BRANCH   1  24
ATOM     24  O   UNL A   1      41.380  18.921  25.906  1.00  0.00    -0.376 OA
BRANCH  24  25
ATOM     25  C   UNL A   1      40.655  19.924  26.597  1.00  0.00     0.202 C 
BRANCH  25  26
ATOM     26  C   UNL A   1      40.374  21.337  26.056  1.00  0.00     0.261 C 
BRANCH  26  27
ATOM     27  O   UNL A   1      39.772  22.269  26.951  1.00  0.00    -0.460 OA
BRANCH  27  28
ATOM     28  C   UNL A   1      39.087  23.275  26.339  1.00  0.00     0.338 C 
ATOM     29  O   UNL A   1      38.253  23.170  25.464  1.00  0.00    -0.246 OA
BRANCH  28  30
ATOM     30  C   UNL A   1      39.333  24.518  27.107  1.00  0.00     0.060 A 
ATOM     31  C   UNL A   1      40.025  25.563  26.471  1.00  0.00     0.016 A 
ATOM     32  C   UNL A   1      38.851  24.671  28.406  1.00  0.00     0.016 A 
ATOM     33  C   UNL A   1      40.268  26.755  27.148  1.00  0.00     0.010 A 
ATOM     34  C   UNL A   1      39.128  25.853  29.097  1.00  0.00     0.010 A 
ATOM     35  C   UNL A   1      39.871  26.880  28.484  1.00  0.00    -0.014 A 
BRANCH  35  36
ATOM     36  C   UNL A   1      40.464  27.950  29.320  1.00  0.00     0.031 A 
ATOM     37  C   UNL A   1      39.632  29.183  29.556  1.00  0.00     0.074 A 
ATOM     38  C   UNL A   1      41.685  27.835  29.871  1.00  0.00     0.049 A 
ATOM     39  N   UNL A   1      39.942  30.289  30.177  1.00  0.00    -0.248 NA
ATOM     40  C   UNL A   1      38.264  29.163  29.007  1.00  0.00     0.031 C 
ATOM     41  C   UNL A   1      42.561  26.670  29.761  1.00  0.00     0.029 A 
ATOM     42  N   UNL A   1      42.403  28.727  30.628  1.00  0.00    -0.354 N 
ATOM     43  C   UNL A   1      38.815  31.099  30.086  1.00  0.00     0.074 A 
ATOM     44  C   UNL A   1      37.828  30.371  29.319  1.00  0.00     0.031 C 
ATOM     45  C   UNL A   1      43.709  26.927  30.415  1.00  0.00     0.029 A 
ATOM     46  C   UNL A   1      43.662  28.284  30.958  1.00  0.00     0.049 A 
ATOM     47  H   UNL A   1      42.049  29.601  30.910  1.00  0.00     0.167 HD
ATOM     48  C   UNL A   1      38.616  32.333  30.602  1.00  0.00     0.037 A 
ATOM     49  C   UNL A   1      44.664  28.918  31.601  1.00  0.00     0.037 A 
ATOM     50  C   UNL A   1      39.604  33.055  31.358  1.00  0.00     0.049 A 
ATOM     51  C   UNL A   1      44.448  30.328  32.097  1.00  0.00     0.074 A 
ATOM     52  C   UNL A   1      39.505  34.313  31.923  1.00  0.00     0.029 A 
ATOM     53  N   UNL A   1      40.876  32.584  31.650  1.00  0.00    -0.354 N 
ATOM     54  N   UNL A   1      43.378  31.083  32.011  1.00  0.00    -0.248 NA
ATOM     55  C   UNL A   1      45.577  30.969  32.787  1.00  0.00     0.031 C 
ATOM     56  C   UNL A   1      40.735  34.625  32.510  1.00  0.00     0.029 A 
ATOM     57  C   UNL A   1      41.578  33.534  32.371  1.00  0.00     0.049 A 
ATOM     58  H   UNL A   1      41.228  31.703  31.384  1.00  0.00     0.167 HD
ATOM     59  C   UNL A   1      43.691  32.268  32.671  1.00  0.00     0.074 A 
ATOM     60  C   UNL A   1      45.048  32.127  33.156  1.00  0.00     0.031 C 
ATOM     61  C   UNL A   1      42.925  33.372  32.864  1.00  0.00     0.037 A 
BRANCH  48  62
ATOM     62  C   UNL A   1      37.289  32.990  30.337  1.00  0.00     0.058 A 
ATOM     63  C   UNL A   1      36.216  32.885  31.236  1.00  0.00     0.135 A 
ATOM     64  C   UNL A   1      37.095  33.754  29.174  1.00  0.00     0.135 A 
ATOM     65  F   UNL A   1      36.337  32.146  32.351  1.00  0.00    -0.206 F 
ATOM     66  C   UNL A   1      34.990  33.490  30.980  1.00  0.00     0.059 A 
ATOM     67  C   UNL A   1      35.888  34.396  28.914  1.00  0.00     0.059 A 
ATOM     68  F   UNL A   1      38.084  33.883  28.277  1.00  0.00    -0.206 F 
ATOM     69  C   UNL A   1      34.837  34.246  29.817  1.00  0.00     0.060 A 
BRANCH  69  70
ATOM     70  S   UNL A   1      33.244  35.036  29.507  1.00  0.00     0.124 S 
ATOM     71  O   UNL A   1      32.666  34.142  28.507  1.00  0.00    -0.237 OA
ATOM     72  O   UNL A   1      32.619  35.002  30.824  1.00  0.00    -0.237 OA
ATOM     73  O   UNL A   1      33.611  36.363  29.023  1.00  0.00    -0.744 OA
ENDBRANCH  69  70
ENDBRANCH  48  62
BRANCH  49  74
ATOM     74  C   UNL A   1      45.972  28.236  31.809  1.00  0.00     0.058 A 
ATOM     75  C   UNL A   1      46.953  28.228  30.805  1.00  0.00     0.135 A 
ATOM     76  C   UNL A   1      46.259  27.559  33.004  1.00  0.00     0.135 A 
ATOM     77  F   UNL A   1      46.725  28.849  29.639  1.00  0.00    -0.206 F 
ATOM     78  C   UNL A   1      48.161  27.555  30.970  1.00  0.00     0.059 A 
ATOM     79  C   UNL A   1      47.471  26.905  33.204  1.00  0.00     0.059 A 
ATOM     80  F   UNL A   1      45.358  27.541  34.000  1.00  0.00    -0.206 F 
ATOM     81  C   UNL A   1      48.411  26.899  32.175  1.00  0.00     0.060 A 
BRANCH  81  82
ATOM     82  S   UNL A   1      49.998  26.064  32.392  1.00  0.00     0.124 S 
ATOM     83  O   UNL A   1      49.966  25.734  33.812  1.00  0.00    -0.237 OA
ATOM     84  O   UNL A   1      49.877  24.938  31.471  1.00  0.00    -0.237 OA
ATOM     85  O   UNL A   1      50.969  27.081  32.002  1.00  0.00    -0.744 OA
ENDBRANCH  81  82
ENDBRANCH  49  74
BRANCH  61  86
ATOM     86  C   UNL A   1      43.504  34.492  33.690  1.00  0.00     0.058 A 
ATOM     87  C   UNL A   1      43.408  34.515  35.090  1.00  0.00     0.135 A 
ATOM     88  C   UNL A   1      44.207  35.537  33.066  1.00  0.00     0.135 A 
ATOM     89  F   UNL A   1      42.748  33.543  35.739  1.00  0.00    -0.206 F 
ATOM     90  C   UNL A   1      43.955  35.553  35.838  1.00  0.00     0.059 A 
ATOM     91  C   UNL A   1      44.791  36.566  33.796  1.00  0.00     0.059 A 
ATOM     92  F   UNL A   1      44.343  35.558  31.729  1.00  0.00    -0.206 F 
ATOM     93  C   UNL A   1      44.645  36.575  35.182  1.00  0.00     0.060 A 
BRANCH  93  94
ATOM     94  S   UNL A   1      45.361  37.908  36.166  1.00  0.00     0.124 S 
ATOM     95  O   UNL A   1      44.180  38.699  36.495  1.00  0.00    -0.237 OA
ATOM     96  O   UNL A   1      45.970  37.184  37.278  1.00  0.00    -0.237 OA
ATOM     97  O   UNL A   1      46.304  38.541  35.247  1.00  0.00    -0.744 OA
ENDBRANCH  93  94
ENDBRANCH  61  86
ENDBRANCH  35  36
ENDBRANCH  28  30
ENDBRANCH  27  28
ENDBRANCH  26  27
ENDBRANCH  25  26
ENDBRANCH  24  25
ENDBRANCH   1  24
TORSDOF 21
ENDMDL
MODEL 2
REMARK VINA RESULT:      -8.5      5.040     11.252
REMARK SMILES CC(=O)N[C@@]1(C(=O)OCCOCCOCCOC(=O)c2ccc(-c3c4nc(c(-c5c(F)cc(S(=O)(=O)[O-])cc5F)c5ccc([nH]5)c(-c5c(F)cc(S(=O)(=O)[O-])cc5F)c5nc(c(-c6c(F)cc(S(=O)(=O)[O-])cc6F)c6ccc3[nH]6)C=C5)C=C4)cc2)CCCc2ccccc21
REMARK SMILES IDX 13 1 12 2 11 3 10 4 9 5 8 6 6 7 7 8 5 9 86 10 94 11 87 12
REMARK SMILES IDX 89 13 93 14 88 15 90 16 92 17 91 18 4 19 1 20 2 21 3 22
REMARK SMILES IDX 14 24 15 25 16 26 17 27 18 28 19 29 20 30 21 31 85 32 22 33
REMARK SMILES IDX 84 34 23 35 24 36 25 37 78 38 26 39 83 40 77 41 79 42 27 43
REMARK SMILES IDX 82 44 76 45 75 46 28 48 62 49 41 50 61 51 42 52 45 53 60 54
REMARK SMILES IDX 80 55 43 56 44 57 59 59 81 60 46 61 29 62 30 63 39 64 31 65
REMARK SMILES IDX 32 66 38 67 40 68 33 69 34 70 35 71 36 72 37 73 63 74 64 75
REMARK SMILES IDX 73 76 65 77 66 78 72 79 74 80 67 81 68 82 69 83 70 84 71 85
REMARK SMILES IDX 47 86 48 87 57 88 49 89 50 90 56 91 58 92 51 93 52 94 53 95
REMARK SMILES IDX 54 96 55 97
REMARK H PARENT 4 23 79 47 45 58
REMARK Flexibility Score: inf
ROOT
ATOM      1  C   UNL A   1      32.688  29.754  27.069  1.00  0.00     0.188 C 
ENDROOT
BRANCH   1   2
ATOM      2  C   UNL A   1      31.705  29.508  25.919  1.00  0.00     0.188 C 
BRANCH   2   3
ATOM      3  O   UNL A   1      31.968  28.438  25.039  1.00  0.00    -0.376 OA
BRANCH   3   4
ATOM      4  C   UNL A   1      32.902  28.641  23.986  1.00  0.00     0.202 C 
BRANCH   4   5
ATOM      5  C   UNL A   1      33.133  27.588  22.895  1.00  0.00     0.261 C 
BRANCH   5   6
ATOM      6  O   UNL A   1      32.582  26.288  23.183  1.00  0.00    -0.461 OA
BRANCH   6   7
ATOM      7  C   UNL A   1      33.115  25.270  22.455  1.00  0.00     0.336 C 
ATOM      8  O   UNL A   1      33.699  25.473  21.392  1.00  0.00    -0.249 OA
BRANCH   7   9
ATOM      9  C   UNL A   1      32.970  23.827  23.104  1.00  0.00     0.164 C 
ATOM     10  C   UNL A   1      31.824  23.939  24.172  1.00  0.00     0.046 C 
ATOM     11  C   UNL A   1      34.289  23.556  23.844  1.00  0.00    -0.008 A 
ATOM     12  C   UNL A   1      32.081  24.933  25.294  1.00  0.00     0.008 C 
ATOM     13  C   UNL A   1      34.535  24.184  25.084  1.00  0.00    -0.042 A 
ATOM     14  C   UNL A   1      35.353  22.893  23.210  1.00  0.00     0.007 A 
ATOM     15  C   UNL A   1      33.427  24.710  25.967  1.00  0.00     0.036 C 
ATOM     16  C   UNL A   1      35.854  24.285  25.553  1.00  0.00     0.004 A 
ATOM     17  C   UNL A   1      36.655  22.993  23.691  1.00  0.00     0.000 A 
ATOM     18  C   UNL A   1      36.912  23.729  24.838  1.00  0.00     0.000 A 
BRANCH   9  19
ATOM     19  N   UNL A   1      32.536  22.677  22.257  1.00  0.00    -0.337 N 
ATOM     20  C   UNL A   1      32.463  20.658  23.739  1.00  0.00     0.114 C 
ATOM     21  C   UNL A   1      32.178  21.387  22.458  1.00  0.00     0.218 C 
ATOM     22  O   UNL A   1      31.615  20.808  21.524  1.00  0.00    -0.275 OA
ATOM     23  H   UNL A   1      32.499  22.920  21.303  1.00  0.00     0.164 HD
ENDBRANCH   9  19
ENDBRANCH   7   9
ENDBRANCH   6   7
ENDBRANCH   5   6
ENDBRANCH   4   5
ENDBRANCH   3   4
ENDBRANCH   2   3
ENDBRANCH   1   2
BRANCH   1  24
ATOM     24  O   UNL A   1      33.748  30.675  26.977  1.00  0.00    -0.376 OA
BRANCH  24  25
ATOM     25  C   UNL A   1      33.999  31.627  27.996  1.00  0.00     0.202 C 
BRANCH  25  26
ATOM     26  C   UNL A   1      35.135  31.532  29.029  1.00  0.00     0.261 C 
BRANCH  26  27
ATOM     27  O   UNL A   1      35.831  30.290  29.120  1.00  0.00    -0.460 OA
BRANCH  27  28
ATOM     28  C   UNL A   1      36.528  30.119  30.277  1.00  0.00     0.338 C 
ATOM     29  O   UNL A   1      36.076  29.905  31.382  1.00  0.00    -0.246 OA
BRANCH  28  30
ATOM     30  C   UNL A   1      37.959  29.970  29.922  1.00  0.00     0.060 A 
ATOM     31  C   UNL A   1      38.303  29.936  28.560  1.00  0.00     0.016 A 
ATOM     32  C   UNL A   1      38.944  29.916  30.906  1.00  0.00     0.016 A 
ATOM     33  C   UNL A   1      39.636  29.810  28.179  1.00  0.00     0.010 A 
ATOM     34  C   UNL A   1      40.277  29.753  30.523  1.00  0.00     0.010 A 
ATOM     35  C   UNL A   1      40.621  29.659  29.161  1.00  0.00    -0.014 A 
BRANCH  35  36
ATOM     36  C   UNL A   1      41.952  29.131  28.779  1.00  0.00     0.031 A 
ATOM     37  C   UNL A   1      43.101  30.104  28.758  1.00  0.00     0.074 A 
ATOM     38  C   UNL A   1      42.149  27.836  28.479  1.00  0.00     0.049 A 
ATOM     39  N   UNL A   1      44.339  29.921  28.386  1.00  0.00    -0.248 NA
ATOM     40  C   UNL A   1      42.805  31.473  29.216  1.00  0.00     0.031 C 
ATOM     41  C   UNL A   1      41.129  26.790  28.516  1.00  0.00     0.029 A 
ATOM     42  N   UNL A   1      43.286  27.184  28.069  1.00  0.00    -0.354 N 
ATOM     43  C   UNL A   1      44.967  31.150  28.554  1.00  0.00     0.074 A 
ATOM     44  C   UNL A   1      43.965  32.079  29.027  1.00  0.00     0.031 C 
ATOM     45  C   UNL A   1      41.685  25.627  28.127  1.00  0.00     0.029 A 
ATOM     46  C   UNL A   1      43.087  25.855  27.780  1.00  0.00     0.049 A 
ATOM     47  H   UNL A   1      44.161  27.627  27.990  1.00  0.00     0.167 HD
ATOM     48  C   UNL A   1      46.263  31.474  28.343  1.00  0.00     0.037 A 
ATOM     49  C   UNL A   1      43.938  24.941  27.271  1.00  0.00     0.037 A 
ATOM     50  C   UNL A   1      47.254  30.547  27.866  1.00  0.00     0.049 A 
ATOM     51  C   UNL A   1      45.360  25.346  26.965  1.00  0.00     0.074 A 
ATOM     52  C   UNL A   1      48.595  30.774  27.616  1.00  0.00     0.029 A 
ATOM     53  N   UNL A   1      47.009  29.215  27.562  1.00  0.00    -0.354 N 
ATOM     54  N   UNL A   1      45.946  26.509  27.132  1.00  0.00    -0.248 NA
ATOM     55  C   UNL A   1      46.241  24.309  26.407  1.00  0.00     0.031 C 
ATOM     56  C   UNL A   1      49.149  29.595  27.108  1.00  0.00     0.029 A 
ATOM     57  C   UNL A   1      48.170  28.613  27.108  1.00  0.00     0.049 A 
ATOM     58  H   UNL A   1      46.139  28.764  27.655  1.00  0.00     0.167 HD
ATOM     59  C   UNL A   1      47.270  26.330  26.741  1.00  0.00     0.074 A 
ATOM     60  C   UNL A   1      47.401  24.947  26.335  1.00  0.00     0.031 C 
ATOM     61  C   UNL A   1      48.289  27.228  26.723  1.00  0.00     0.037 A 
BRANCH  48  62
ATOM     62  C   UNL A   1      46.672  32.899  28.598  1.00  0.00     0.058 A 
ATOM     63  C   UNL A   1      47.150  33.321  29.849  1.00  0.00     0.135 A 
ATOM     64  C   UNL A   1      46.605  33.852  27.569  1.00  0.00     0.135 A 
ATOM     65  F   UNL A   1      47.212  32.458  30.877  1.00  0.00    -0.206 F 
ATOM     66  C   UNL A   1      47.521  34.642  30.079  1.00  0.00     0.059 A 
ATOM     67  C   UNL A   1      47.001  35.171  27.766  1.00  0.00     0.059 A 
ATOM     68  F   UNL A   1      46.149  33.505  26.355  1.00  0.00    -0.206 F 
ATOM     69  C   UNL A   1      47.445  35.559  29.030  1.00  0.00     0.060 A 
BRANCH  69  70
ATOM     70  S   UNL A   1      47.942  37.266  29.340  1.00  0.00     0.124 S 
ATOM     71  O   UNL A   1      49.349  37.235  28.949  1.00  0.00    -0.237 OA
ATOM     72  O   UNL A   1      47.054  38.013  28.455  1.00  0.00    -0.237 OA
ATOM     73  O   UNL A   1      47.693  37.440  30.767  1.00  0.00    -0.744 OA
ENDBRANCH  69  70
ENDBRANCH  48  62
BRANCH  49  74
ATOM     74  C   UNL A   1      43.475  23.550  27.003  1.00  0.00     0.058 A 
ATOM     75  C   UNL A   1      43.132  23.137  25.707  1.00  0.00     0.135 A 
ATOM     76  C   UNL A   1      43.343  22.614  28.041  1.00  0.00     0.135 A 
ATOM     77  F   UNL A   1      43.227  23.996  24.682  1.00  0.00    -0.206 F 
ATOM     78  C   UNL A   1      42.654  21.855  25.452  1.00  0.00     0.059 A 
ATOM     79  C   UNL A   1      42.895  21.317  27.807  1.00  0.00     0.059 A 
ATOM     80  F   UNL A   1      43.664  22.955  29.300  1.00  0.00    -0.206 F 
ATOM     81  C   UNL A   1      42.542  20.951  26.509  1.00  0.00     0.060 A 
BRANCH  81  82
ATOM     82  S   UNL A   1      41.958  19.278  26.159  1.00  0.00     0.124 S 
ATOM     83  O   UNL A   1      42.404  18.557  27.345  1.00  0.00    -0.237 OA
ATOM     84  O   UNL A   1      40.519  19.478  26.034  1.00  0.00    -0.237 OA
ATOM     85  O   UNL A   1      42.646  18.936  24.918  1.00  0.00    -0.744 OA
ENDBRANCH  81  82
ENDBRANCH  49  74
BRANCH  61  86
ATOM     86  C   UNL A   1      49.653  26.732  26.317  1.00  0.00     0.058 A 
ATOM     87  C   UNL A   1      50.144  26.880  25.010  1.00  0.00     0.135 A 
ATOM     88  C   UNL A   1      50.499  26.137  27.269  1.00  0.00     0.135 A 
ATOM     89  F   UNL A   1      49.379  27.440  24.060  1.00  0.00    -0.206 F 
ATOM     90  C   UNL A   1      51.409  26.422  24.653  1.00  0.00     0.059 A 
ATOM     91  C   UNL A   1      51.779  25.704  26.943  1.00  0.00     0.059 A 
ATOM     92  F   UNL A   1      50.087  25.983  28.538  1.00  0.00    -0.206 F 
ATOM     93  C   UNL A   1      52.219  25.835  25.627  1.00  0.00     0.060 A 
BRANCH  93  94
ATOM     94  S   UNL A   1      53.863  25.258  25.154  1.00  0.00     0.124 S 
ATOM     95  O   UNL A   1      53.978  25.778  23.796  1.00  0.00    -0.237 OA
ATOM     96  O   UNL A   1      54.717  25.895  26.152  1.00  0.00    -0.237 OA
ATOM     97  O   UNL A   1      53.759  23.805  25.263  1.00  0.00    -0.744 OA
ENDBRANCH  93  94
ENDBRANCH  61  86
ENDBRANCH  35  36
ENDBRANCH  28  30
ENDBRANCH  27  28
ENDBRANCH  26  27
ENDBRANCH  25  26
ENDBRANCH  24  25
ENDBRANCH   1  24
TORSDOF 21
ENDMDL
MODEL 3
REMARK VINA RESULT:      -8.4      5.046     11.763
REMARK SMILES CC(=O)N[C@@]1(C(=O)OCCOCCOCCOC(=O)c2ccc(-c3c4nc(c(-c5c(F)cc(S(=O)(=O)[O-])cc5F)c5ccc([nH]5)c(-c5c(F)cc(S(=O)(=O)[O-])cc5F)c5nc(c(-c6c(F)cc(S(=O)(=O)[O-])cc6F)c6ccc3[nH]6)C=C5)C=C4)cc2)CCCc2ccccc21
REMARK SMILES IDX 13 1 12 2 11 3 10 4 9 5 8 6 6 7 7 8 5 9 86 10 94 11 87 12
REMARK SMILES IDX 89 13 93 14 88 15 90 16 92 17 91 18 4 19 1 20 2 21 3 22
REMARK SMILES IDX 14 24 15 25 16 26 17 27 18 28 19 29 20 30 21 31 85 32 22 33
REMARK SMILES IDX 84 34 23 35 24 36 25 37 78 38 26 39 83 40 77 41 79 42 27 43
REMARK SMILES IDX 82 44 76 45 75 46 28 48 62 49 41 50 61 51 42 52 45 53 60 54
REMARK SMILES IDX 80 55 43 56 44 57 59 59 81 60 46 61 29 62 30 63 39 64 31 65
REMARK SMILES IDX 32 66 38 67 40 68 33 69 34 70 35 71 36 72 37 73 63 74 64 75
REMARK SMILES IDX 73 76 65 77 66 78 72 79 74 80 67 81 68 82 69 83 70 84 71 85
REMARK SMILES IDX 47 86 48 87 57 88 49 89 50 90 56 91 58 92 51 93 52 94 53 95
REMARK SMILES IDX 54 96 55 97
REMARK H PARENT 4 23 79 47 45 58
REMARK Flexibility Score: inf
ROOT
ATOM      1  C   UNL A   1      35.026  31.356  27.686  1.00  0.00     0.188 C 
ENDROOT
BRANCH   1   2
ATOM      2  C   UNL A   1      33.496  31.313  27.629  1.00  0.00     0.188 C 
BRANCH   2   3
ATOM      3  O   UNL A   1      32.877  30.079  27.341  1.00  0.00    -0.376 OA
BRANCH   3   4
ATOM      4  C   UNL A   1      33.688  28.912  27.283  1.00  0.00     0.202 C 
BRANCH   4   5
ATOM      5  C   UNL A   1      33.958  28.179  25.962  1.00  0.00     0.261 C 
BRANCH   5   6
ATOM      6  O   UNL A   1      33.515  26.808  25.931  1.00  0.00    -0.461 OA
BRANCH   6   7
ATOM      7  C   UNL A   1      32.379  26.594  25.216  1.00  0.00     0.336 C 
ATOM      8  O   UNL A   1      31.433  27.380  25.255  1.00  0.00    -0.249 OA
BRANCH   7   9
ATOM      9  C   UNL A   1      32.391  25.295  24.300  1.00  0.00     0.164 C 
ATOM     10  C   UNL A   1      30.983  24.621  24.477  1.00  0.00     0.046 C 
ATOM     11  C   UNL A   1      33.450  24.359  24.901  1.00  0.00    -0.008 A 
ATOM     12  C   UNL A   1      30.647  24.191  25.897  1.00  0.00     0.008 C 
ATOM     13  C   UNL A   1      33.155  23.635  26.076  1.00  0.00    -0.042 A 
ATOM     14  C   UNL A   1      34.781  24.386  24.452  1.00  0.00     0.007 A 
ATOM     15  C   UNL A   1      31.740  23.332  26.515  1.00  0.00     0.036 C 
ATOM     16  C   UNL A   1      34.208  23.123  26.850  1.00  0.00     0.004 A 
ATOM     17  C   UNL A   1      35.815  23.867  25.226  1.00  0.00     0.000 A 
ATOM     18  C   UNL A   1      35.532  23.277  26.448  1.00  0.00     0.000 A 
BRANCH   9  19
ATOM     19  N   UNL A   1      32.517  25.436  22.820  1.00  0.00    -0.337 N 
ATOM     20  C   UNL A   1      33.621  27.643  22.383  1.00  0.00     0.114 C 
ATOM     21  C   UNL A   1      33.119  26.292  21.961  1.00  0.00     0.218 C 
ATOM     22  O   UNL A   1      33.225  25.928  20.786  1.00  0.00    -0.275 OA
ATOM     23  H   UNL A   1      32.038  24.720  22.342  1.00  0.00     0.164 HD
ENDBRANCH   9  19
ENDBRANCH   7   9
ENDBRANCH   6   7
ENDBRANCH   5   6
ENDBRANCH   4   5
ENDBRANCH   3   4
ENDBRANCH   2   3
ENDBRANCH   1   2
BRANCH   1  24
ATOM     24  O   UNL A   1      35.753  32.561  27.680  1.00  0.00    -0.376 OA
BRANCH  24  25
ATOM     25  C   UNL A   1      35.571  33.547  28.680  1.00  0.00     0.202 C 
BRANCH  25  26
ATOM     26  C   UNL A   1      35.900  33.359  30.171  1.00  0.00     0.261 C 
BRANCH  26  27
ATOM     27  O   UNL A   1      37.170  32.794  30.492  1.00  0.00    -0.460 OA
BRANCH  27  28
ATOM     28  C   UNL A   1      37.130  31.476  30.831  1.00  0.00     0.338 C 
ATOM     29  O   UNL A   1      36.193  30.866  31.301  1.00  0.00    -0.246 OA
BRANCH  28  30
ATOM     30  C   UNL A   1      38.347  30.834  30.283  1.00  0.00     0.060 A 
ATOM     31  C   UNL A   1      39.384  30.510  31.175  1.00  0.00     0.016 A 
ATOM     32  C   UNL A   1      38.446  30.512  28.930  1.00  0.00     0.016 A 
ATOM     33  C   UNL A   1      40.541  29.893  30.707  1.00  0.00     0.010 A 
ATOM     34  C   UNL A   1      39.623  29.928  28.456  1.00  0.00     0.010 A 
ATOM     35  C   UNL A   1      40.688  29.654  29.336  1.00  0.00    -0.014 A 
BRANCH  35  36
ATOM     36  C   UNL A   1      42.037  29.383  28.786  1.00  0.00     0.031 A 
ATOM     37  C   UNL A   1      42.328  27.976  28.335  1.00  0.00     0.074 A 
ATOM     38  C   UNL A   1      42.969  30.344  28.669  1.00  0.00     0.049 A 
ATOM     39  N   UNL A   1      43.443  27.457  27.895  1.00  0.00    -0.248 NA
ATOM     40  C   UNL A   1      41.204  27.025  28.396  1.00  0.00     0.031 C 
ATOM     41  C   UNL A   1      42.788  31.751  29.020  1.00  0.00     0.029 A 
ATOM     42  N   UNL A   1      44.267  30.270  28.229  1.00  0.00    -0.354 N 
ATOM     43  C   UNL A   1      43.159  26.121  27.638  1.00  0.00     0.074 A 
ATOM     44  C   UNL A   1      41.778  25.900  28.004  1.00  0.00     0.031 C 
ATOM     45  C   UNL A   1      43.942  32.407  28.795  1.00  0.00     0.029 A 
ATOM     46  C   UNL A   1      44.950  31.459  28.320  1.00  0.00     0.049 A 
ATOM     47  H   UNL A   1      44.670  29.443  27.879  1.00  0.00     0.167 HD
ATOM     48  C   UNL A   1      43.973  25.165  27.133  1.00  0.00     0.037 A 
ATOM     49  C   UNL A   1      46.246  31.737  28.072  1.00  0.00     0.037 A 
ATOM     50  C   UNL A   1      45.348  25.390  26.777  1.00  0.00     0.049 A 
ATOM     51  C   UNL A   1      47.158  30.635  27.586  1.00  0.00     0.074 A 
ATOM     52  C   UNL A   1      46.260  24.488  26.259  1.00  0.00     0.029 A 
ATOM     53  N   UNL A   1      46.011  26.602  26.906  1.00  0.00    -0.354 N 
ATOM     54  N   UNL A   1      46.879  29.376  27.341  1.00  0.00    -0.248 NA
ATOM     55  C   UNL A   1      48.561  30.995  27.336  1.00  0.00     0.031 C 
ATOM     56  C   UNL A   1      47.490  25.141  26.127  1.00  0.00     0.029 A 
ATOM     57  C   UNL A   1      47.326  26.467  26.497  1.00  0.00     0.049 A 
ATOM     58  H   UNL A   1      45.606  27.435  27.240  1.00  0.00     0.167 HD
ATOM     59  C   UNL A   1      48.060  28.808  26.869  1.00  0.00     0.074 A 
ATOM     60  C   UNL A   1      49.052  29.861  26.857  1.00  0.00     0.031 C 
ATOM     61  C   UNL A   1      48.301  27.531  26.474  1.00  0.00     0.037 A 
BRANCH  48  62
ATOM     62  C   UNL A   1      43.401  23.784  26.967  1.00  0.00     0.058 A 
ATOM     63  C   UNL A   1      43.088  23.258  25.703  1.00  0.00     0.135 A 
ATOM     64  C   UNL A   1      43.181  22.968  28.087  1.00  0.00     0.135 A 
ATOM     65  F   UNL A   1      43.254  24.004  24.598  1.00  0.00    -0.206 F 
ATOM     66  C   UNL A   1      42.553  21.981  25.558  1.00  0.00     0.059 A 
ATOM     67  C   UNL A   1      42.678  21.676  27.964  1.00  0.00     0.059 A 
ATOM     68  F   UNL A   1      43.454  23.422  29.320  1.00  0.00    -0.206 F 
ATOM     69  C   UNL A   1      42.354  21.197  26.695  1.00  0.00     0.060 A 
BRANCH  69  70
ATOM     70  S   UNL A   1      41.672  19.539  26.489  1.00  0.00     0.124 S 
ATOM     71  O   UNL A   1      42.185  19.175  25.171  1.00  0.00    -0.237 OA
ATOM     72  O   UNL A   1      42.256  18.821  27.617  1.00  0.00    -0.237 OA
ATOM     73  O   UNL A   1      40.230  19.752  26.563  1.00  0.00    -0.744 OA
ENDBRANCH  69  70
ENDBRANCH  48  62
BRANCH  49  74
ATOM     74  C   UNL A   1      46.774  33.114  28.285  1.00  0.00     0.058 A 
ATOM     75  C   UNL A   1      47.329  33.496  29.516  1.00  0.00     0.135 A 
ATOM     76  C   UNL A   1      46.712  34.083  27.271  1.00  0.00     0.135 A 
ATOM     77  F   UNL A   1      47.400  32.612  30.523  1.00  0.00    -0.206 F 
ATOM     78  C   UNL A   1      47.782  34.792  29.743  1.00  0.00     0.059 A 
ATOM     79  C   UNL A   1      47.186  35.377  27.463  1.00  0.00     0.059 A 
ATOM     80  F   UNL A   1      46.197  33.769  26.071  1.00  0.00    -0.206 F 
ATOM     81  C   UNL A   1      47.709  35.725  28.708  1.00  0.00     0.060 A 
BRANCH  81  82
ATOM     82  S   UNL A   1      48.338  37.393  29.001  1.00  0.00     0.124 S 
ATOM     83  O   UNL A   1      48.964  37.245  30.309  1.00  0.00    -0.237 OA
ATOM     84  O   UNL A   1      49.245  37.578  27.874  1.00  0.00    -0.237 OA
ATOM     85  O   UNL A   1      47.133  38.216  28.967  1.00  0.00    -0.744 OA
ENDBRANCH  81  82
ENDBRANCH  49  74
BRANCH  61  86
ATOM     86  C   UNL A   1      49.670  27.212  25.932  1.00  0.00     0.058 A 
ATOM     87  C   UNL A   1      50.722  26.788  26.759  1.00  0.00     0.135 A 
ATOM     88  C   UNL A   1      49.916  27.291  24.550  1.00  0.00     0.135 A 
ATOM     89  F   UNL A   1      50.543  26.695  28.086  1.00  0.00    -0.206 F 
ATOM     90  C   UNL A   1      51.978  26.490  26.240  1.00  0.00     0.059 A 
ATOM     91  C   UNL A   1      51.153  26.965  24.006  1.00  0.00     0.059 A 
ATOM     92  F   UNL A   1      48.942  27.676  23.710  1.00  0.00    -0.206 F 
ATOM     93  C   UNL A   1      52.185  26.582  24.862  1.00  0.00     0.060 A 
BRANCH  93  94
ATOM     94  S   UNL A   1      53.816  26.180  24.201  1.00  0.00     0.124 S 
ATOM     95  O   UNL A   1      54.606  27.319  24.654  1.00  0.00    -0.237 OA
ATOM     96  O   UNL A   1      54.110  24.905  24.849  1.00  0.00    -0.237 OA
ATOM     97  O   UNL A   1      53.591  26.106  22.760  1.00  0.00    -0.744 OA
ENDBRANCH  93  94
ENDBRANCH  61  86
ENDBRANCH  35  36
ENDBRANCH  28  30
ENDBRANCH  27  28
ENDBRANCH  26  27
ENDBRANCH  25  26
ENDBRANCH  24  25
ENDBRANCH   1  24
TORSDOF 21
ENDMDL
