MODEL 1
REMARK VINA RESULT:      -9.4      0.000      0.000
REMARK SMILES Cc1cc(Br)cc([N+](=O)[O-])c1OCCC(=O)OCCOCCOCCOC(=O)c1ccc(-c2c3nc(c(-c4c(F)cc(S(=O)(=O)[O-])cc4F)c4ccc([nH]4)c(-c4c(F)cc(S(=O)(=O)[O-])cc4F)c4nc(c(-c5c(F)cc(S(=O)(=O)[O-])cc5F)c5ccc2[nH]5)C=C4)C=C3)cc1
REMARK SMILES IDX 21 1 20 2 19 3 18 4 17 5 15 6 16 7 14 8 13 9 12 10 11 11
REMARK SMILES IDX 1 12 2 13 3 14 4 15 7 16 5 17 6 18 8 19 9 20 10 21 22 22
REMARK SMILES IDX 23 23 24 24 25 25 26 26 27 27 28 28 29 29 30 30 94 31 31 32
REMARK SMILES IDX 93 33 32 34 33 35 34 36 87 37 35 38 92 39 86 40 88 41 36 42
REMARK SMILES IDX 91 43 85 44 84 45 37 47 71 48 50 49 70 50 51 51 54 52 69 53
REMARK SMILES IDX 89 54 52 55 53 56 68 58 90 59 55 60 38 61 39 62 48 63 40 64
REMARK SMILES IDX 41 65 47 66 49 67 42 68 43 69 44 70 45 71 46 72 72 73 73 74
REMARK SMILES IDX 82 75 74 76 75 77 81 78 83 79 76 80 77 81 78 82 79 83 80 84
REMARK SMILES IDX 56 85 57 86 66 87 58 88 59 89 65 90 67 91 60 92 61 93 62 94
REMARK SMILES IDX 63 95 64 96
REMARK H PARENT 88 46 54 57
REMARK Flexibility Score: inf
ROOT
ATOM      1  C   UNL A   1      33.077  28.932  25.949  1.00  0.00     0.188 C 
ENDROOT
BRANCH   1   2
ATOM      2  O   UNL A   1      32.631  29.329  24.663  1.00  0.00    -0.376 OA
BRANCH   2   3
ATOM      3  C   UNL A   1      31.910  28.476  23.775  1.00  0.00     0.202 C 
BRANCH   3   4
ATOM      4  C   UNL A   1      30.763  27.564  24.303  1.00  0.00     0.261 C 
BRANCH   4   5
ATOM      5  O   UNL A   1      30.458  26.358  23.528  1.00  0.00    -0.463 OA
BRANCH   5   6
ATOM      6  C   UNL A   1      30.536  25.179  24.216  1.00  0.00     0.309 C 
ATOM      7  O   UNL A   1      30.407  25.137  25.440  1.00  0.00    -0.252 OA
BRANCH   6   8
ATOM      8  C   UNL A   1      31.001  23.913  23.454  1.00  0.00     0.164 C 
BRANCH   8   9
ATOM      9  C   UNL A   1      31.962  22.770  23.861  1.00  0.00     0.241 C 
BRANCH   9  10
ATOM     10  O   UNL A   1      33.354  22.790  23.512  1.00  0.00    -0.486 OA
BRANCH  10  11
ATOM     11  C   UNL A   1      34.332  22.652  24.444  1.00  0.00     0.200 A 
ATOM     12  C   UNL A   1      34.158  20.133  24.849  1.00  0.00     0.049 C 
ATOM     13  C   UNL A   1      34.900  21.449  24.800  1.00  0.00    -0.001 A 
ATOM     14  C   UNL A   1      36.236  21.511  25.249  1.00  0.00     0.023 A 
ATOM     15  C   UNL A   1      36.908  22.682  25.560  1.00  0.00     0.025 A 
ATOM     16  C   UNL A   1      34.916  23.829  24.972  1.00  0.00     0.312 A 
ATOM     17  Br  UNL A   1      38.715  22.626  26.100  1.00  0.00    -0.051 Br
ATOM     18  C   UNL A   1      36.208  23.857  25.523  1.00  0.00     0.105 A 
BRANCH  16  19
ATOM     19  N   UNL A   1      34.139  25.056  25.074  1.00  0.00     0.066 N 
ATOM     20  O   UNL A   1      34.164  25.826  24.100  1.00  0.00    -0.258 OA
ATOM     21  O   UNL A   1      33.586  25.307  26.153  1.00  0.00    -0.258 OA
ENDBRANCH  16  19
ENDBRANCH  10  11
ENDBRANCH   9  10
ENDBRANCH   8   9
ENDBRANCH   6   8
ENDBRANCH   5   6
ENDBRANCH   4   5
ENDBRANCH   3   4
ENDBRANCH   2   3
ENDBRANCH   1   2
BRANCH   1  22
ATOM     22  C   UNL A   1      32.769  29.817  27.165  1.00  0.00     0.188 C 
BRANCH  22  23
ATOM     23  O   UNL A   1      32.834  31.222  27.043  1.00  0.00    -0.376 OA
BRANCH  23  24
ATOM     24  C   UNL A   1      33.825  31.871  27.827  1.00  0.00     0.202 C 
BRANCH  24  25
ATOM     25  C   UNL A   1      35.141  31.095  28.006  1.00  0.00     0.261 C 
BRANCH  25  26
ATOM     26  O   UNL A   1      35.590  31.137  29.380  1.00  0.00    -0.460 OA
BRANCH  26  27
ATOM     27  C   UNL A   1      36.743  31.828  29.614  1.00  0.00     0.338 C 
ATOM     28  O   UNL A   1      36.844  32.951  30.057  1.00  0.00    -0.246 OA
BRANCH  27  29
ATOM     29  C   UNL A   1      37.894  30.901  29.484  1.00  0.00     0.060 A 
ATOM     30  C   UNL A   1      38.678  30.619  30.616  1.00  0.00     0.016 A 
ATOM     31  C   UNL A   1      38.230  30.367  28.243  1.00  0.00     0.016 A 
ATOM     32  C   UNL A   1      39.850  29.864  30.489  1.00  0.00     0.010 A 
ATOM     33  C   UNL A   1      39.402  29.625  28.115  1.00  0.00     0.010 A 
ATOM     34  C   UNL A   1      40.245  29.413  29.224  1.00  0.00    -0.014 A 
BRANCH  34  35
ATOM     35  C   UNL A   1      41.621  28.919  28.964  1.00  0.00     0.031 A 
ATOM     36  C   UNL A   1      42.736  29.932  28.926  1.00  0.00     0.074 A 
ATOM     37  C   UNL A   1      41.867  27.631  28.672  1.00  0.00     0.049 A 
ATOM     38  N   UNL A   1      43.965  29.805  28.501  1.00  0.00    -0.248 NA
ATOM     39  C   UNL A   1      42.404  31.280  29.418  1.00  0.00     0.031 C 
ATOM     40  C   UNL A   1      40.885  26.550  28.712  1.00  0.00     0.029 A 
ATOM     41  N   UNL A   1      43.022  27.024  28.242  1.00  0.00    -0.354 N 
ATOM     42  C   UNL A   1      44.545  31.061  28.644  1.00  0.00     0.074 A 
ATOM     43  C   UNL A   1      43.526  31.940  29.174  1.00  0.00     0.031 C 
ATOM     44  C   UNL A   1      41.471  25.416  28.288  1.00  0.00     0.029 A 
ATOM     45  C   UNL A   1      42.853  25.702  27.905  1.00  0.00     0.049 A 
ATOM     46  H   UNL A   1      43.887  27.490  28.182  1.00  0.00     0.167 HD
ATOM     47  C   UNL A   1      45.812  31.446  28.358  1.00  0.00     0.037 A 
ATOM     48  C   UNL A   1      43.705  24.836  27.316  1.00  0.00     0.037 A 
ATOM     49  C   UNL A   1      46.817  30.563  27.825  1.00  0.00     0.049 A 
ATOM     50  C   UNL A   1      45.091  25.299  26.943  1.00  0.00     0.074 A 
ATOM     51  C   UNL A   1      48.138  30.843  27.523  1.00  0.00     0.029 A 
ATOM     52  N   UNL A   1      46.609  29.228  27.505  1.00  0.00    -0.354 N 
ATOM     53  N   UNL A   1      45.638  26.483  27.098  1.00  0.00    -0.248 NA
ATOM     54  C   UNL A   1      45.978  24.309  26.315  1.00  0.00     0.031 C 
ATOM     55  C   UNL A   1      48.711  29.695  26.967  1.00  0.00     0.029 A 
ATOM     56  C   UNL A   1      47.768  28.679  26.983  1.00  0.00     0.049 A 
ATOM     57  H   UNL A   1      45.762  28.743  27.631  1.00  0.00     0.167 HD
ATOM     58  C   UNL A   1      46.941  26.369  26.617  1.00  0.00     0.074 A 
ATOM     59  C   UNL A   1      47.101  24.999  26.174  1.00  0.00     0.031 C 
ATOM     60  C   UNL A   1      47.917  27.310  26.552  1.00  0.00     0.037 A 
BRANCH  47  61
ATOM     61  C   UNL A   1      46.170  32.891  28.581  1.00  0.00     0.058 A 
ATOM     62  C   UNL A   1      46.033  33.856  27.571  1.00  0.00     0.135 A 
ATOM     63  C   UNL A   1      46.641  33.321  29.833  1.00  0.00     0.135 A 
ATOM     64  F   UNL A   1      45.606  33.501  26.349  1.00  0.00    -0.206 F 
ATOM     65  C   UNL A   1      46.383  35.187  27.781  1.00  0.00     0.059 A 
ATOM     66  C   UNL A   1      46.965  34.653  30.077  1.00  0.00     0.059 A 
ATOM     67  F   UNL A   1      46.794  32.443  30.837  1.00  0.00    -0.206 F 
ATOM     68  C   UNL A   1      46.850  35.575  29.038  1.00  0.00     0.060 A 
BRANCH  68  69
ATOM     69  S   UNL A   1      47.305  37.303  29.292  1.00  0.00     0.124 S 
ATOM     70  O   UNL A   1      48.629  37.348  28.679  1.00  0.00    -0.237 OA
ATOM     71  O   UNL A   1      46.251  38.012  28.573  1.00  0.00    -0.237 OA
ATOM     72  O   UNL A   1      47.281  37.453  30.744  1.00  0.00    -0.744 OA
ENDBRANCH  68  69
ENDBRANCH  47  61
BRANCH  48  73
ATOM     73  C   UNL A   1      43.268  23.442  27.034  1.00  0.00     0.058 A 
ATOM     74  C   UNL A   1      42.947  23.038  25.730  1.00  0.00     0.135 A 
ATOM     75  C   UNL A   1      43.172  22.482  28.056  1.00  0.00     0.135 A 
ATOM     76  F   UNL A   1      43.006  23.921  24.723  1.00  0.00    -0.206 F 
ATOM     77  C   UNL A   1      42.541  21.737  25.447  1.00  0.00     0.059 A 
ATOM     78  C   UNL A   1      42.795  21.168  27.794  1.00  0.00     0.059 A 
ATOM     79  F   UNL A   1      43.473  22.814  29.321  1.00  0.00    -0.206 F 
ATOM     80  C   UNL A   1      42.477  20.806  26.486  1.00  0.00     0.060 A 
BRANCH  80  81
ATOM     81  S   UNL A   1      42.014  19.105  26.092  1.00  0.00     0.124 S 
ATOM     82  O   UNL A   1      42.363  18.411  27.326  1.00  0.00    -0.237 OA
ATOM     83  O   UNL A   1      40.587  19.235  25.814  1.00  0.00    -0.237 OA
ATOM     84  O   UNL A   1      42.845  18.791  24.934  1.00  0.00    -0.744 OA
ENDBRANCH  80  81
ENDBRANCH  48  73
BRANCH  60  85
ATOM     85  C   UNL A   1      49.264  26.887  26.027  1.00  0.00     0.058 A 
ATOM     86  C   UNL A   1      49.637  27.089  24.688  1.00  0.00     0.135 A 
ATOM     87  C   UNL A   1      50.217  26.324  26.893  1.00  0.00     0.135 A 
ATOM     88  F   UNL A   1      48.766  27.619  23.816  1.00  0.00    -0.206 F 
ATOM     89  C   UNL A   1      50.897  26.725  24.223  1.00  0.00     0.059 A 
ATOM     90  C   UNL A   1      51.493  25.983  26.456  1.00  0.00     0.059 A 
ATOM     91  F   UNL A   1      49.918  26.121  28.186  1.00  0.00    -0.206 F 
ATOM     92  C   UNL A   1      51.821  26.175  25.116  1.00  0.00     0.060 A 
BRANCH  92  93
ATOM     93  S   UNL A   1      53.462  25.738  24.504  1.00  0.00     0.124 S 
ATOM     94  O   UNL A   1      53.623  24.388  25.032  1.00  0.00    -0.237 OA
ATOM     95  O   UNL A   1      53.292  25.838  23.058  1.00  0.00    -0.237 OA
ATOM     96  O   UNL A   1      54.328  26.752  25.099  1.00  0.00    -0.744 OA
ENDBRANCH  92  93
ENDBRANCH  60  85
ENDBRANCH  34  35
ENDBRANCH  27  29
ENDBRANCH  26  27
ENDBRANCH  25  26
ENDBRANCH  24  25
ENDBRANCH  23  24
ENDBRANCH  22  23
ENDBRANCH   1  22
TORSDOF 24
ENDMDL
MODEL 2
REMARK VINA RESULT:      -9.1      6.427     11.667
REMARK SMILES Cc1cc(Br)cc([N+](=O)[O-])c1OCCC(=O)OCCOCCOCCOC(=O)c1ccc(-c2c3nc(c(-c4c(F)cc(S(=O)(=O)[O-])cc4F)c4ccc([nH]4)c(-c4c(F)cc(S(=O)(=O)[O-])cc4F)c4nc(c(-c5c(F)cc(S(=O)(=O)[O-])cc5F)c5ccc2[nH]5)C=C4)C=C3)cc1
REMARK SMILES IDX 21 1 20 2 19 3 18 4 17 5 15 6 16 7 14 8 13 9 12 10 11 11
REMARK SMILES IDX 1 12 2 13 3 14 4 15 7 16 5 17 6 18 8 19 9 20 10 21 22 22
REMARK SMILES IDX 23 23 24 24 25 25 26 26 27 27 28 28 29 29 30 30 94 31 31 32
REMARK SMILES IDX 93 33 32 34 33 35 34 36 87 37 35 38 92 39 86 40 88 41 36 42
REMARK SMILES IDX 91 43 85 44 84 45 37 47 71 48 50 49 70 50 51 51 54 52 69 53
REMARK SMILES IDX 89 54 52 55 53 56 68 58 90 59 55 60 38 61 39 62 48 63 40 64
REMARK SMILES IDX 41 65 47 66 49 67 42 68 43 69 44 70 45 71 46 72 72 73 73 74
REMARK SMILES IDX 82 75 74 76 75 77 81 78 83 79 76 80 77 81 78 82 79 83 80 84
REMARK SMILES IDX 56 85 57 86 66 87 58 88 59 89 65 90 67 91 60 92 61 93 62 94
REMARK SMILES IDX 63 95 64 96
REMARK H PARENT 88 46 54 57
REMARK Flexibility Score: inf
ROOT
ATOM      1  C   UNL A   1      39.304  22.456  26.425  1.00  0.00     0.188 C 
ENDROOT
BRANCH   1   2
ATOM      2  O   UNL A   1      37.996  21.966  26.180  1.00  0.00    -0.376 OA
BRANCH   2   3
ATOM      3  C   UNL A   1      37.643  21.178  25.044  1.00  0.00     0.202 C 
BRANCH   3   4
ATOM      4  C   UNL A   1      36.249  20.492  24.953  1.00  0.00     0.261 C 
BRANCH   4   5
ATOM      5  O   UNL A   1      35.163  21.078  25.744  1.00  0.00    -0.463 OA
BRANCH   5   6
ATOM      6  C   UNL A   1      33.899  20.840  25.279  1.00  0.00     0.309 C 
ATOM      7  O   UNL A   1      33.702  20.385  24.152  1.00  0.00    -0.252 OA
BRANCH   6   8
ATOM      8  C   UNL A   1      32.699  21.351  26.116  1.00  0.00     0.164 C 
BRANCH   8   9
ATOM      9  C   UNL A   1      32.526  22.619  26.985  1.00  0.00     0.241 C 
BRANCH   9  10
ATOM     10  O   UNL A   1      33.407  23.745  26.865  1.00  0.00    -0.486 OA
BRANCH  10  11
ATOM     11  C   UNL A   1      33.442  24.515  25.747  1.00  0.00     0.200 A 
ATOM     12  C   UNL A   1      35.937  24.346  25.211  1.00  0.00     0.049 C 
ATOM     13  C   UNL A   1      34.482  24.525  24.843  1.00  0.00    -0.001 A 
ATOM     14  C   UNL A   1      34.134  24.837  23.512  1.00  0.00     0.023 A 
ATOM     15  C   UNL A   1      32.905  25.338  23.117  1.00  0.00     0.025 A 
ATOM     16  C   UNL A   1      32.274  25.237  25.402  1.00  0.00     0.312 A 
ATOM     17  Br  UNL A   1      32.553  25.663  21.292  1.00  0.00    -0.051 Br
ATOM     18  C   UNL A   1      31.991  25.645  24.088  1.00  0.00     0.105 A 
BRANCH  16  19
ATOM     19  N   UNL A   1      31.359  25.698  26.437  1.00  0.00     0.066 N 
ATOM     20  O   UNL A   1      30.246  25.152  26.494  1.00  0.00    -0.258 OA
ATOM     21  O   UNL A   1      31.703  26.666  27.128  1.00  0.00    -0.258 OA
ENDBRANCH  16  19
ENDBRANCH  10  11
ENDBRANCH   9  10
ENDBRANCH   8   9
ENDBRANCH   6   8
ENDBRANCH   5   6
ENDBRANCH   4   5
ENDBRANCH   3   4
ENDBRANCH   2   3
ENDBRANCH   1   2
BRANCH   1  22
ATOM     22  C   UNL A   1      40.407  21.484  26.865  1.00  0.00     0.188 C 
BRANCH  22  23
ATOM     23  O   UNL A   1      41.436  21.136  25.963  1.00  0.00    -0.376 OA
BRANCH  23  24
ATOM     24  C   UNL A   1      42.731  21.630  26.274  1.00  0.00     0.202 C 
BRANCH  24  25
ATOM     25  C   UNL A   1      43.037  23.052  25.771  1.00  0.00     0.261 C 
BRANCH  25  26
ATOM     26  O   UNL A   1      42.931  24.018  26.841  1.00  0.00    -0.460 OA
BRANCH  26  27
ATOM     27  C   UNL A   1      43.263  25.303  26.524  1.00  0.00     0.338 C 
ATOM     28  O   UNL A   1      43.803  25.690  25.510  1.00  0.00    -0.246 OA
BRANCH  27  29
ATOM     29  C   UNL A   1      42.630  26.219  27.504  1.00  0.00     0.060 A 
ATOM     30  C   UNL A   1      43.167  27.505  27.689  1.00  0.00     0.016 A 
ATOM     31  C   UNL A   1      41.556  25.787  28.278  1.00  0.00     0.016 A 
ATOM     32  C   UNL A   1      42.678  28.333  28.706  1.00  0.00     0.010 A 
ATOM     33  C   UNL A   1      41.076  26.607  29.298  1.00  0.00     0.010 A 
ATOM     34  C   UNL A   1      41.668  27.860  29.551  1.00  0.00    -0.014 A 
BRANCH  34  35
ATOM     35  C   UNL A   1      41.350  28.528  30.840  1.00  0.00     0.031 A 
ATOM     36  C   UNL A   1      40.217  29.522  30.856  1.00  0.00     0.074 A 
ATOM     37  C   UNL A   1      42.099  28.338  31.938  1.00  0.00     0.049 A 
ATOM     38  N   UNL A   1      39.887  30.396  31.769  1.00  0.00    -0.248 NA
ATOM     39  C   UNL A   1      39.355  29.541  29.662  1.00  0.00     0.031 C 
ATOM     40  C   UNL A   1      43.194  27.379  32.062  1.00  0.00     0.029 A 
ATOM     41  N   UNL A   1      42.072  28.981  33.152  1.00  0.00    -0.354 N 
ATOM     42  C   UNL A   1      38.800  31.091  31.250  1.00  0.00     0.074 A 
ATOM     43  C   UNL A   1      38.542  30.550  29.933  1.00  0.00     0.031 C 
ATOM     44  C   UNL A   1      43.759  27.520  33.275  1.00  0.00     0.029 A 
ATOM     45  C   UNL A   1      43.095  28.609  33.992  1.00  0.00     0.049 A 
ATOM     46  H   UNL A   1      41.386  29.643  33.398  1.00  0.00     0.167 HD
ATOM     47  C   UNL A   1      38.083  32.089  31.820  1.00  0.00     0.037 A 
ATOM     48  C   UNL A   1      43.475  29.118  35.183  1.00  0.00     0.037 A 
ATOM     49  C   UNL A   1      38.353  32.623  33.129  1.00  0.00     0.049 A 
ATOM     50  C   UNL A   1      42.706  30.274  35.773  1.00  0.00     0.074 A 
ATOM     51  C   UNL A   1      37.674  33.616  33.812  1.00  0.00     0.029 A 
ATOM     52  N   UNL A   1      39.394  32.214  33.952  1.00  0.00    -0.354 N 
ATOM     53  N   UNL A   1      41.668  30.913  35.285  1.00  0.00    -0.248 NA
ATOM     54  C   UNL A   1      43.160  30.779  37.077  1.00  0.00     0.031 C 
ATOM     55  C   UNL A   1      38.337  33.848  35.021  1.00  0.00     0.029 A 
ATOM     56  C   UNL A   1      39.391  32.953  35.123  1.00  0.00     0.049 A 
ATOM     57  H   UNL A   1      40.038  31.502  33.735  1.00  0.00     0.167 HD
ATOM     58  C   UNL A   1      41.327  31.872  36.237  1.00  0.00     0.074 A 
ATOM     59  C   UNL A   1      42.264  31.723  37.331  1.00  0.00     0.031 C 
ATOM     60  C   UNL A   1      40.326  32.789  36.210  1.00  0.00     0.037 A 
BRANCH  47  61
ATOM     61  C   UNL A   1      36.963  32.692  31.014  1.00  0.00     0.058 A 
ATOM     62  C   UNL A   1      35.623  32.320  31.208  1.00  0.00     0.135 A 
ATOM     63  C   UNL A   1      37.233  33.671  30.043  1.00  0.00     0.135 A 
ATOM     64  F   UNL A   1      35.307  31.375  32.108  1.00  0.00    -0.206 F 
ATOM     65  C   UNL A   1      34.596  32.869  30.446  1.00  0.00     0.059 A 
ATOM     66  C   UNL A   1      36.218  34.259  29.292  1.00  0.00     0.059 A 
ATOM     67  F   UNL A   1      38.495  34.065  29.812  1.00  0.00    -0.206 F 
ATOM     68  C   UNL A   1      34.904  33.837  29.489  1.00  0.00     0.060 A 
BRANCH  68  69
ATOM     69  S   UNL A   1      33.561  34.534  28.505  1.00  0.00     0.124 S 
ATOM     70  O   UNL A   1      33.201  33.400  27.660  1.00  0.00    -0.237 OA
ATOM     71  O   UNL A   1      32.583  34.898  29.527  1.00  0.00    -0.237 OA
ATOM     72  O   UNL A   1      34.190  35.656  27.815  1.00  0.00    -0.744 OA
ENDBRANCH  68  69
ENDBRANCH  47  61
BRANCH  48  73
ATOM     73  C   UNL A   1      44.648  28.542  35.895  1.00  0.00     0.058 A 
ATOM     74  C   UNL A   1      44.486  27.511  36.832  1.00  0.00     0.135 A 
ATOM     75  C   UNL A   1      45.953  29.000  35.650  1.00  0.00     0.135 A 
ATOM     76  F   UNL A   1      43.259  27.050  37.114  1.00  0.00    -0.206 F 
ATOM     77  C   UNL A   1      45.572  26.958  37.504  1.00  0.00     0.059 A 
ATOM     78  C   UNL A   1      47.057  28.444  36.289  1.00  0.00     0.059 A 
ATOM     79  F   UNL A   1      46.165  29.982  34.759  1.00  0.00    -0.206 F 
ATOM     80  C   UNL A   1      46.856  27.426  37.219  1.00  0.00     0.060 A 
BRANCH  80  81
ATOM     81  S   UNL A   1      48.261  26.651  38.049  1.00  0.00     0.124 S 
ATOM     82  O   UNL A   1      48.092  25.253  37.673  1.00  0.00    -0.237 OA
ATOM     83  O   UNL A   1      49.392  27.344  37.441  1.00  0.00    -0.237 OA
ATOM     84  O   UNL A   1      48.030  26.959  39.457  1.00  0.00    -0.744 OA
ENDBRANCH  80  81
ENDBRANCH  48  73
BRANCH  60  85
ATOM     85  C   UNL A   1      40.156  33.675  37.416  1.00  0.00     0.058 A 
ATOM     86  C   UNL A   1      40.889  34.862  37.576  1.00  0.00     0.135 A 
ATOM     87  C   UNL A   1      39.201  33.360  38.397  1.00  0.00     0.135 A 
ATOM     88  F   UNL A   1      41.817  35.211  36.672  1.00  0.00    -0.206 F 
ATOM     89  C   UNL A   1      40.698  35.691  38.678  1.00  0.00     0.059 A 
ATOM     90  C   UNL A   1      38.971  34.189  39.490  1.00  0.00     0.059 A 
ATOM     91  F   UNL A   1      38.463  32.244  38.287  1.00  0.00    -0.206 F 
ATOM     92  C   UNL A   1      39.733  35.347  39.629  1.00  0.00     0.060 A 
BRANCH  92  93
ATOM     93  S   UNL A   1      39.475  36.448  41.037  1.00  0.00     0.124 S 
ATOM     94  O   UNL A   1      40.828  36.931  41.286  1.00  0.00    -0.237 OA
ATOM     95  O   UNL A   1      38.540  37.430  40.496  1.00  0.00    -0.237 OA
ATOM     96  O   UNL A   1      38.923  35.566  42.061  1.00  0.00    -0.744 OA
ENDBRANCH  92  93
ENDBRANCH  60  85
ENDBRANCH  34  35
ENDBRANCH  27  29
ENDBRANCH  26  27
ENDBRANCH  25  26
ENDBRANCH  24  25
ENDBRANCH  23  24
ENDBRANCH  22  23
ENDBRANCH   1  22
TORSDOF 24
ENDMDL
MODEL 3
REMARK VINA RESULT:      -8.9      6.714      8.775
REMARK SMILES Cc1cc(Br)cc([N+](=O)[O-])c1OCCC(=O)OCCOCCOCCOC(=O)c1ccc(-c2c3nc(c(-c4c(F)cc(S(=O)(=O)[O-])cc4F)c4ccc([nH]4)c(-c4c(F)cc(S(=O)(=O)[O-])cc4F)c4nc(c(-c5c(F)cc(S(=O)(=O)[O-])cc5F)c5ccc2[nH]5)C=C4)C=C3)cc1
REMARK SMILES IDX 21 1 20 2 19 3 18 4 17 5 15 6 16 7 14 8 13 9 12 10 11 11
REMARK SMILES IDX 1 12 2 13 3 14 4 15 7 16 5 17 6 18 8 19 9 20 10 21 22 22
REMARK SMILES IDX 23 23 24 24 25 25 26 26 27 27 28 28 29 29 30 30 94 31 31 32
REMARK SMILES IDX 93 33 32 34 33 35 34 36 87 37 35 38 92 39 86 40 88 41 36 42
REMARK SMILES IDX 91 43 85 44 84 45 37 47 71 48 50 49 70 50 51 51 54 52 69 53
REMARK SMILES IDX 89 54 52 55 53 56 68 58 90 59 55 60 38 61 39 62 48 63 40 64
REMARK SMILES IDX 41 65 47 66 49 67 42 68 43 69 44 70 45 71 46 72 72 73 73 74
REMARK SMILES IDX 82 75 74 76 75 77 81 78 83 79 76 80 77 81 78 82 79 83 80 84
REMARK SMILES IDX 56 85 57 86 66 87 58 88 59 89 65 90 67 91 60 92 61 93 62 94
REMARK SMILES IDX 63 95 64 96
REMARK H PARENT 88 46 54 57
REMARK Flexibility Score: inf
ROOT
ATOM      1  C   UNL A   1      34.174  30.359  27.254  1.00  0.00     0.188 C 
ENDROOT
BRANCH   1   2
ATOM      2  O   UNL A   1      33.090  29.835  26.505  1.00  0.00    -0.376 OA
BRANCH   2   3
ATOM      3  C   UNL A   1      33.171  28.650  25.714  1.00  0.00     0.202 C 
BRANCH   3   4
ATOM      4  C   UNL A   1      31.889  28.010  25.105  1.00  0.00     0.261 C 
BRANCH   4   5
ATOM      5  O   UNL A   1      31.952  26.588  24.756  1.00  0.00    -0.463 OA
BRANCH   5   6
ATOM      6  C   UNL A   1      31.358  25.735  25.644  1.00  0.00     0.309 C 
ATOM      7  O   UNL A   1      31.393  25.942  26.858  1.00  0.00    -0.252 OA
BRANCH   6   8
ATOM      8  C   UNL A   1      30.816  24.384  25.115  1.00  0.00     0.164 C 
BRANCH   8   9
ATOM      9  C   UNL A   1      31.259  22.927  25.391  1.00  0.00     0.241 C 
BRANCH   9  10
ATOM     10  O   UNL A   1      31.710  22.061  24.338  1.00  0.00    -0.486 OA
BRANCH  10  11
ATOM     11  C   UNL A   1      33.029  21.833  24.109  1.00  0.00     0.200 A 
ATOM     12  C   UNL A   1      33.556  23.887  22.679  1.00  0.00     0.049 C 
ATOM     13  C   UNL A   1      33.912  22.786  23.650  1.00  0.00    -0.001 A 
ATOM     14  C   UNL A   1      35.255  22.619  24.052  1.00  0.00     0.023 A 
ATOM     15  C   UNL A   1      35.759  21.481  24.660  1.00  0.00     0.025 A 
ATOM     16  C   UNL A   1      33.566  20.587  24.512  1.00  0.00     0.312 A 
ATOM     17  Br  UNL A   1      37.567  21.412  25.195  1.00  0.00    -0.051 Br
ATOM     18  C   UNL A   1      34.929  20.403  24.800  1.00  0.00     0.105 A 
BRANCH  16  19
ATOM     19  N   UNL A   1      32.731  19.394  24.530  1.00  0.00     0.066 N 
ATOM     20  O   UNL A   1      32.355  18.982  25.639  1.00  0.00    -0.258 OA
ATOM     21  O   UNL A   1      32.531  18.808  23.457  1.00  0.00    -0.258 OA
ENDBRANCH  16  19
ENDBRANCH  10  11
ENDBRANCH   9  10
ENDBRANCH   8   9
ENDBRANCH   6   8
ENDBRANCH   5   6
ENDBRANCH   4   5
ENDBRANCH   3   4
ENDBRANCH   2   3
ENDBRANCH   1   2
BRANCH   1  22
ATOM     22  C   UNL A   1      34.002  31.683  28.012  1.00  0.00     0.188 C 
BRANCH  22  23
ATOM     23  O   UNL A   1      34.767  32.809  27.638  1.00  0.00    -0.376 OA
BRANCH  23  24
ATOM     24  C   UNL A   1      34.875  33.839  28.610  1.00  0.00     0.202 C 
BRANCH  24  25
ATOM     25  C   UNL A   1      33.543  34.442  29.087  1.00  0.00     0.261 C 
BRANCH  25  26
ATOM     26  O   UNL A   1      33.763  35.525  30.019  1.00  0.00    -0.460 OA
BRANCH  26  27
ATOM     27  C   UNL A   1      33.289  35.334  31.284  1.00  0.00     0.338 C 
ATOM     28  O   UNL A   1      32.137  35.414  31.653  1.00  0.00    -0.246 OA
BRANCH  27  29
ATOM     29  C   UNL A   1      34.369  34.755  32.120  1.00  0.00     0.060 A 
ATOM     30  C   UNL A   1      35.672  35.269  32.011  1.00  0.00     0.016 A 
ATOM     31  C   UNL A   1      34.107  33.673  32.957  1.00  0.00     0.016 A 
ATOM     32  C   UNL A   1      36.733  34.647  32.680  1.00  0.00     0.010 A 
ATOM     33  C   UNL A   1      35.164  33.048  33.615  1.00  0.00     0.010 A 
ATOM     34  C   UNL A   1      36.487  33.498  33.440  1.00  0.00    -0.014 A 
BRANCH  34  35
ATOM     35  C   UNL A   1      37.587  32.603  33.882  1.00  0.00     0.031 A 
ATOM     36  C   UNL A   1      38.307  32.951  35.159  1.00  0.00     0.074 A 
ATOM     37  C   UNL A   1      38.004  31.570  33.130  1.00  0.00     0.049 A 
ATOM     38  N   UNL A   1      39.428  32.482  35.640  1.00  0.00    -0.248 NA
ATOM     39  C   UNL A   1      37.681  33.991  35.993  1.00  0.00     0.031 C 
ATOM     40  C   UNL A   1      37.370  31.108  31.898  1.00  0.00     0.029 A 
ATOM     41  N   UNL A   1      39.094  30.747  33.280  1.00  0.00    -0.354 N 
ATOM     42  C   UNL A   1      39.658  33.188  36.816  1.00  0.00     0.074 A 
ATOM     43  C   UNL A   1      38.572  34.132  36.962  1.00  0.00     0.031 C 
ATOM     44  C   UNL A   1      38.103  30.104  31.383  1.00  0.00     0.029 A 
ATOM     45  C   UNL A   1      39.279  29.886  32.224  1.00  0.00     0.049 A 
ATOM     46  H   UNL A   1      39.685  30.771  34.067  1.00  0.00     0.167 HD
ATOM     47  C   UNL A   1      40.683  33.061  37.692  1.00  0.00     0.037 A 
ATOM     48  C   UNL A   1      40.301  29.048  31.950  1.00  0.00     0.037 A 
ATOM     49  C   UNL A   1      41.762  32.121  37.532  1.00  0.00     0.049 A 
ATOM     50  C   UNL A   1      41.468  28.967  32.904  1.00  0.00     0.074 A 
ATOM     51  C   UNL A   1      42.837  31.893  38.374  1.00  0.00     0.029 A 
ATOM     52  N   UNL A   1      41.910  31.260  36.454  1.00  0.00    -0.354 N 
ATOM     53  N   UNL A   1      41.669  29.625  34.023  1.00  0.00    -0.248 NA
ATOM     54  C   UNL A   1      42.546  28.030  32.559  1.00  0.00     0.031 C 
ATOM     55  C   UNL A   1      43.663  30.936  37.776  1.00  0.00     0.029 A 
ATOM     56  C   UNL A   1      43.070  30.518  36.594  1.00  0.00     0.049 A 
ATOM     57  H   UNL A   1      41.280  31.187  35.701  1.00  0.00     0.167 HD
ATOM     58  C   UNL A   1      42.880  29.156  34.529  1.00  0.00     0.074 A 
ATOM     59  C   UNL A   1      43.360  28.155  33.599  1.00  0.00     0.031 C 
ATOM     60  C   UNL A   1      43.533  29.518  35.663  1.00  0.00     0.037 A 
BRANCH  47  61
ATOM     61  C   UNL A   1      40.703  33.985  38.881  1.00  0.00     0.058 A 
ATOM     62  C   UNL A   1      40.102  33.640  40.102  1.00  0.00     0.135 A 
ATOM     63  C   UNL A   1      41.351  35.230  38.802  1.00  0.00     0.135 A 
ATOM     64  F   UNL A   1      39.453  32.472  40.230  1.00  0.00    -0.206 F 
ATOM     65  C   UNL A   1      40.110  34.508  41.189  1.00  0.00     0.059 A 
ATOM     66  C   UNL A   1      41.401  36.100  39.888  1.00  0.00     0.059 A 
ATOM     67  F   UNL A   1      41.942  35.615  37.660  1.00  0.00    -0.206 F 
ATOM     68  C   UNL A   1      40.761  35.737  41.072  1.00  0.00     0.060 A 
BRANCH  68  69
ATOM     69  S   UNL A   1      40.756  36.854  42.490  1.00  0.00     0.124 S 
ATOM     70  O   UNL A   1      39.470  37.525  42.327  1.00  0.00    -0.237 OA
ATOM     71  O   UNL A   1      40.849  35.928  43.615  1.00  0.00    -0.237 OA
ATOM     72  O   UNL A   1      41.933  37.690  42.271  1.00  0.00    -0.744 OA
ENDBRANCH  68  69
ENDBRANCH  47  61
BRANCH  48  73
ATOM     73  C   UNL A   1      40.273  28.223  30.713  1.00  0.00     0.058 A 
ATOM     74  C   UNL A   1      41.139  28.499  29.644  1.00  0.00     0.135 A 
ATOM     75  C   UNL A   1      39.392  27.138  30.573  1.00  0.00     0.135 A 
ATOM     76  F   UNL A   1      41.987  29.534  29.720  1.00  0.00    -0.206 F 
ATOM     77  C   UNL A   1      41.129  27.735  28.480  1.00  0.00     0.059 A 
ATOM     78  C   UNL A   1      39.383  26.343  29.432  1.00  0.00     0.059 A 
ATOM     79  F   UNL A   1      38.546  26.827  31.568  1.00  0.00    -0.206 F 
ATOM     80  C   UNL A   1      40.253  26.652  28.388  1.00  0.00     0.060 A 
BRANCH  80  81
ATOM     81  S   UNL A   1      40.300  25.630  26.900  1.00  0.00     0.124 S 
ATOM     82  O   UNL A   1      40.724  26.594  25.892  1.00  0.00    -0.237 OA
ATOM     83  O   UNL A   1      41.282  24.612  27.262  1.00  0.00    -0.237 OA
ATOM     84  O   UNL A   1      38.927  25.150  26.778  1.00  0.00    -0.744 OA
ENDBRANCH  80  81
ENDBRANCH  48  73
BRANCH  60  85
ATOM     85  C   UNL A   1      44.814  28.798  35.993  1.00  0.00     0.058 A 
ATOM     86  C   UNL A   1      46.069  29.298  35.608  1.00  0.00     0.135 A 
ATOM     87  C   UNL A   1      44.788  27.620  36.758  1.00  0.00     0.135 A 
ATOM     88  F   UNL A   1      46.154  30.417  34.872  1.00  0.00    -0.206 F 
ATOM     89  C   UNL A   1      47.248  28.642  35.948  1.00  0.00     0.059 A 
ATOM     90  C   UNL A   1      45.956  26.965  37.137  1.00  0.00     0.059 A 
ATOM     91  F   UNL A   1      43.617  27.105  37.165  1.00  0.00    -0.206 F 
ATOM     92  C   UNL A   1      47.182  27.477  36.717  1.00  0.00     0.060 A 
BRANCH  92  93
ATOM     93  S   UNL A   1      48.721  26.654  37.177  1.00  0.00     0.124 S 
ATOM     94  O   UNL A   1      49.707  27.691  36.892  1.00  0.00    -0.237 OA
ATOM     95  O   UNL A   1      48.504  26.357  38.590  1.00  0.00    -0.237 OA
ATOM     96  O   UNL A   1      48.761  25.490  36.298  1.00  0.00    -0.744 OA
ENDBRANCH  92  93
ENDBRANCH  60  85
ENDBRANCH  34  35
ENDBRANCH  27  29
ENDBRANCH  26  27
ENDBRANCH  25  26
ENDBRANCH  24  25
ENDBRANCH  23  24
ENDBRANCH  22  23
ENDBRANCH   1  22
TORSDOF 24
ENDMDL
