MODEL 1
REMARK VINA RESULT:     -10.2      0.000      0.000
REMARK SMILES Cc1cc(Cl)c2c(c1)C=C(C(=O)OCCOCCOCCOC(=O)c1ccc(-c3c4nc(c(-c5c(F)cc(S(=O)(=O)[O-])cc5F)c5ccc([nH]5)c(-c5c(F)cc(S(=O)(=O)[O-])cc5F)c5nc(c(-c6c(F)cc(S(=O)(=O)[O-])cc6F)c6ccc3[nH]6)C=C5)C=C4)cc1)[C@@H](C(F)(F)F)O2
REMARK SMILES IDX 18 1 17 2 16 3 15 4 14 5 13 6 11 7 12 8 10 9 1 10 2 11 3 12
REMARK SMILES IDX 8 13 4 14 7 15 5 16 6 17 9 18 96 19 91 20 92 21 93 22 94 23
REMARK SMILES IDX 95 24 19 25 20 26 21 27 22 28 23 29 24 30 25 31 26 32 90 33
REMARK SMILES IDX 27 34 89 35 28 36 29 37 30 38 83 39 31 40 88 41 82 42 84 43
REMARK SMILES IDX 32 44 87 45 81 46 80 47 33 49 67 50 46 51 66 52 47 53 50 54
REMARK SMILES IDX 65 55 85 56 48 57 49 58 64 60 86 61 51 62 34 63 35 64 44 65
REMARK SMILES IDX 36 66 37 67 43 68 45 69 38 70 39 71 40 72 41 73 42 74 68 75
REMARK SMILES IDX 69 76 78 77 70 78 71 79 77 80 79 81 72 82 73 83 74 84 75 85
REMARK SMILES IDX 76 86 52 87 53 88 62 89 54 90 55 91 61 92 63 93 56 94 57 95
REMARK SMILES IDX 58 96 59 97 60 98
REMARK H PARENT 84 48 50 59
REMARK Flexibility Score: inf
ROOT
ATOM      1  C   UNL A   1      31.032  30.070  24.744  1.00  0.00     0.188 C 
ENDROOT
BRANCH   1   2
ATOM      2  C   UNL A   1      32.221  29.250  24.197  1.00  0.00     0.188 C 
BRANCH   2   3
ATOM      3  O   UNL A   1      32.055  27.861  23.929  1.00  0.00    -0.376 OA
BRANCH   3   4
ATOM      4  C   UNL A   1      31.565  27.430  22.665  1.00  0.00     0.202 C 
BRANCH   4   5
ATOM      5  C   UNL A   1      31.388  25.929  22.411  1.00  0.00     0.261 C 
BRANCH   5   6
ATOM      6  O   UNL A   1      32.414  25.111  22.997  1.00  0.00    -0.460 OA
BRANCH   6   7
ATOM      7  C   UNL A   1      32.044  24.416  24.099  1.00  0.00     0.338 C 
ATOM      8  O   UNL A   1      31.005  24.538  24.727  1.00  0.00    -0.246 OA
BRANCH   7   9
ATOM      9  C   UNL A   1      33.047  23.371  24.389  1.00  0.00     0.087 C 
ATOM     10  C   UNL A   1      38.931  22.741  26.123  1.00  0.00     0.044 C 
ATOM     11  C   UNL A   1      37.576  22.287  25.659  1.00  0.00    -0.049 A 
ATOM     12  C   UNL A   1      37.324  20.938  25.392  1.00  0.00     0.028 A 
ATOM     13  C   UNL A   1      36.537  23.213  25.514  1.00  0.00     0.015 A 
ATOM     14  C   UNL A   1      36.052  20.526  24.980  1.00  0.00     0.084 A 
ATOM     15  C   UNL A   1      35.268  22.806  25.076  1.00  0.00     0.019 A 
ATOM     16  Cl  UNL A   1      35.806  18.847  24.646  1.00  0.00    -0.080 Cl
ATOM     17  C   UNL A   1      35.015  21.456  24.823  1.00  0.00     0.146 A 
ATOM     18  C   UNL A   1      34.234  23.798  24.838  1.00  0.00     0.027 C 
ATOM     19  O   UNL A   1      33.791  20.992  24.423  1.00  0.00    -0.474 OA
ATOM     20  C   UNL A   1      32.706  21.925  24.167  1.00  0.00     0.316 C 
BRANCH  20  21
ATOM     21  C   UNL A   1      32.166  21.659  22.755  1.00  0.00     0.430 C 
ATOM     22  F   UNL A   1      30.901  22.128  22.616  1.00  0.00    -0.167 F 
ATOM     23  F   UNL A   1      32.908  22.278  21.806  1.00  0.00    -0.167 F 
ATOM     24  F   UNL A   1      32.144  20.342  22.455  1.00  0.00    -0.167 F 
ENDBRANCH  20  21
ENDBRANCH   7   9
ENDBRANCH   6   7
ENDBRANCH   5   6
ENDBRANCH   4   5
ENDBRANCH   3   4
ENDBRANCH   2   3
ENDBRANCH   1   2
BRANCH   1  25
ATOM     25  O   UNL A   1      31.379  30.930  25.807  1.00  0.00    -0.376 OA
BRANCH  25  26
ATOM     26  C   UNL A   1      32.152  30.417  26.877  1.00  0.00     0.202 C 
BRANCH  26  27
ATOM     27  C   UNL A   1      33.356  31.179  27.462  1.00  0.00     0.261 C 
BRANCH  27  28
ATOM     28  O   UNL A   1      34.351  30.423  28.160  1.00  0.00    -0.460 OA
BRANCH  28  29
ATOM     29  C   UNL A   1      35.162  31.096  29.008  1.00  0.00     0.338 C 
ATOM     30  O   UNL A   1      34.840  31.979  29.782  1.00  0.00    -0.246 OA
BRANCH  29  31
ATOM     31  C   UNL A   1      36.490  30.445  28.966  1.00  0.00     0.060 A 
ATOM     32  C   UNL A   1      37.113  30.090  30.168  1.00  0.00     0.016 A 
ATOM     33  C   UNL A   1      37.113  30.185  27.742  1.00  0.00     0.016 A 
ATOM     34  C   UNL A   1      38.378  29.498  30.151  1.00  0.00     0.010 A 
ATOM     35  C   UNL A   1      38.388  29.615  27.727  1.00  0.00     0.010 A 
ATOM     36  C   UNL A   1      39.038  29.294  28.932  1.00  0.00    -0.014 A 
BRANCH  36  37
ATOM     37  C   UNL A   1      40.474  28.922  28.907  1.00  0.00     0.031 A 
ATOM     38  C   UNL A   1      41.493  29.991  29.190  1.00  0.00     0.074 A 
ATOM     39  C   UNL A   1      40.869  27.666  28.627  1.00  0.00     0.049 A 
ATOM     40  N   UNL A   1      42.795  29.941  29.106  1.00  0.00    -0.248 NA
ATOM     41  C   UNL A   1      40.967  31.296  29.629  1.00  0.00     0.031 C 
ATOM     42  C   UNL A   1      39.979  26.531  28.391  1.00  0.00     0.029 A 
ATOM     43  N   UNL A   1      42.129  27.143  28.478  1.00  0.00    -0.354 N 
ATOM     44  C   UNL A   1      43.246  31.202  29.475  1.00  0.00     0.074 A 
ATOM     45  C   UNL A   1      42.078  32.003  29.768  1.00  0.00     0.031 C 
ATOM     46  C   UNL A   1      40.722  25.448  28.105  1.00  0.00     0.029 A 
ATOM     47  C   UNL A   1      42.136  25.822  28.099  1.00  0.00     0.049 A 
ATOM     48  H   UNL A   1      42.950  27.665  28.629  1.00  0.00     0.167 HD
ATOM     49  C   UNL A   1      44.520  31.652  29.563  1.00  0.00     0.037 A 
ATOM     50  C   UNL A   1      43.163  25.019  27.756  1.00  0.00     0.037 A 
ATOM     51  C   UNL A   1      45.680  30.856  29.253  1.00  0.00     0.049 A 
ATOM     52  C   UNL A   1      44.570  25.567  27.778  1.00  0.00     0.074 A 
ATOM     53  C   UNL A   1      47.012  31.227  29.288  1.00  0.00     0.029 A 
ATOM     54  N   UNL A   1      45.644  29.531  28.846  1.00  0.00    -0.354 N 
ATOM     55  N   UNL A   1      44.983  26.768  28.105  1.00  0.00    -0.248 NA
ATOM     56  C   UNL A   1      45.648  24.649  27.382  1.00  0.00     0.031 C 
ATOM     57  C   UNL A   1      47.781  30.138  28.866  1.00  0.00     0.029 A 
ATOM     58  C   UNL A   1      46.930  29.072  28.619  1.00  0.00     0.049 A 
ATOM     59  H   UNL A   1      44.825  28.996  28.737  1.00  0.00     0.167 HD
ATOM     60  C   UNL A   1      46.369  26.741  27.983  1.00  0.00     0.074 A 
ATOM     61  C   UNL A   1      46.724  25.403  27.559  1.00  0.00     0.031 C 
ATOM     62  C   UNL A   1      47.268  27.733  28.205  1.00  0.00     0.037 A 
BRANCH  49  63
ATOM     63  C   UNL A   1      44.729  33.077  29.990  1.00  0.00     0.058 A 
ATOM     64  C   UNL A   1      44.943  33.416  31.335  1.00  0.00     0.135 A 
ATOM     65  C   UNL A   1      44.768  34.107  29.039  1.00  0.00     0.135 A 
ATOM     66  F   UNL A   1      44.891  32.471  32.288  1.00  0.00    -0.206 F 
ATOM     67  C   UNL A   1      45.183  34.730  31.722  1.00  0.00     0.059 A 
ATOM     68  C   UNL A   1      45.028  35.425  29.400  1.00  0.00     0.059 A 
ATOM     69  F   UNL A   1      44.558  33.837  27.741  1.00  0.00    -0.206 F 
ATOM     70  C   UNL A   1      45.230  35.727  30.746  1.00  0.00     0.060 A 
BRANCH  70  71
ATOM     71  S   UNL A   1      45.576  37.422  31.263  1.00  0.00     0.124 S 
ATOM     72  O   UNL A   1      46.220  37.965  30.071  1.00  0.00    -0.237 OA
ATOM     73  O   UNL A   1      44.242  37.936  31.553  1.00  0.00    -0.237 OA
ATOM     74  O   UNL A   1      46.447  37.254  32.423  1.00  0.00    -0.744 OA
ENDBRANCH  70  71
ENDBRANCH  49  63
BRANCH  50  75
ATOM     75  C   UNL A   1      42.907  23.613  27.344  1.00  0.00     0.058 A 
ATOM     76  C   UNL A   1      42.889  22.576  28.288  1.00  0.00     0.135 A 
ATOM     77  C   UNL A   1      42.677  23.278  26.001  1.00  0.00     0.135 A 
ATOM     78  F   UNL A   1      43.118  22.843  29.583  1.00  0.00    -0.206 F 
ATOM     79  C   UNL A   1      42.661  21.255  27.915  1.00  0.00     0.059 A 
ATOM     80  C   UNL A   1      42.422  21.968  25.607  1.00  0.00     0.059 A 
ATOM     81  F   UNL A   1      42.679  24.234  25.059  1.00  0.00    -0.206 F 
ATOM     82  C   UNL A   1      42.423  20.961  26.571  1.00  0.00     0.060 A 
BRANCH  82  83
ATOM     83  S   UNL A   1      42.072  19.251  26.109  1.00  0.00     0.124 S 
ATOM     84  O   UNL A   1      42.997  19.050  25.000  1.00  0.00    -0.237 OA
ATOM     85  O   UNL A   1      42.385  18.533  27.341  1.00  0.00    -0.237 OA
ATOM     86  O   UNL A   1      40.657  19.283  25.753  1.00  0.00    -0.744 OA
ENDBRANCH  82  83
ENDBRANCH  50  75
BRANCH  62  87
ATOM     87  C   UNL A   1      48.726  27.399  28.045  1.00  0.00     0.058 A 
ATOM     88  C   UNL A   1      49.406  27.610  26.837  1.00  0.00     0.135 A 
ATOM     89  C   UNL A   1      49.461  26.903  29.134  1.00  0.00     0.135 A 
ATOM     90  F   UNL A   1      48.750  28.082  25.765  1.00  0.00    -0.206 F 
ATOM     91  C   UNL A   1      50.759  27.309  26.704  1.00  0.00     0.059 A 
ATOM     92  C   UNL A   1      50.820  26.621  29.033  1.00  0.00     0.059 A 
ATOM     93  F   UNL A   1      48.861  26.698  30.318  1.00  0.00    -0.206 F 
ATOM     94  C   UNL A   1      51.457  26.813  27.807  1.00  0.00     0.060 A 
BRANCH  94  95
ATOM     95  S   UNL A   1      53.212  26.436  27.624  1.00  0.00     0.124 S 
ATOM     96  O   UNL A   1      53.169  25.227  26.808  1.00  0.00    -0.237 OA
ATOM     97  O   UNL A   1      53.722  27.632  26.959  1.00  0.00    -0.237 OA
ATOM     98  O   UNL A   1      53.666  26.249  28.999  1.00  0.00    -0.744 OA
ENDBRANCH  94  95
ENDBRANCH  62  87
ENDBRANCH  36  37
ENDBRANCH  29  31
ENDBRANCH  28  29
ENDBRANCH  27  28
ENDBRANCH  26  27
ENDBRANCH  25  26
ENDBRANCH   1  25
TORSDOF 21
ENDMDL
MODEL 2
REMARK VINA RESULT:     -10.1      1.635      2.471
REMARK SMILES Cc1cc(Cl)c2c(c1)C=C(C(=O)OCCOCCOCCOC(=O)c1ccc(-c3c4nc(c(-c5c(F)cc(S(=O)(=O)[O-])cc5F)c5ccc([nH]5)c(-c5c(F)cc(S(=O)(=O)[O-])cc5F)c5nc(c(-c6c(F)cc(S(=O)(=O)[O-])cc6F)c6ccc3[nH]6)C=C5)C=C4)cc1)[C@@H](C(F)(F)F)O2
REMARK SMILES IDX 18 1 17 2 16 3 15 4 14 5 13 6 11 7 12 8 10 9 1 10 2 11 3 12
REMARK SMILES IDX 8 13 4 14 7 15 5 16 6 17 9 18 96 19 91 20 92 21 93 22 94 23
REMARK SMILES IDX 95 24 19 25 20 26 21 27 22 28 23 29 24 30 25 31 26 32 90 33
REMARK SMILES IDX 27 34 89 35 28 36 29 37 30 38 83 39 31 40 88 41 82 42 84 43
REMARK SMILES IDX 32 44 87 45 81 46 80 47 33 49 67 50 46 51 66 52 47 53 50 54
REMARK SMILES IDX 65 55 85 56 48 57 49 58 64 60 86 61 51 62 34 63 35 64 44 65
REMARK SMILES IDX 36 66 37 67 43 68 45 69 38 70 39 71 40 72 41 73 42 74 68 75
REMARK SMILES IDX 69 76 78 77 70 78 71 79 77 80 79 81 72 82 73 83 74 84 75 85
REMARK SMILES IDX 76 86 52 87 53 88 62 89 54 90 55 91 61 92 63 93 56 94 57 95
REMARK SMILES IDX 58 96 59 97 60 98
REMARK H PARENT 84 48 50 59
REMARK Flexibility Score: inf
ROOT
ATOM      1  C   UNL A   1      31.165  29.650  25.115  1.00  0.00     0.188 C 
ENDROOT
BRANCH   1   2
ATOM      2  C   UNL A   1      31.993  28.428  24.663  1.00  0.00     0.188 C 
BRANCH   2   3
ATOM      3  O   UNL A   1      31.801  27.170  25.303  1.00  0.00    -0.376 OA
BRANCH   3   4
ATOM      4  C   UNL A   1      30.617  26.419  25.064  1.00  0.00     0.202 C 
BRANCH   4   5
ATOM      5  C   UNL A   1      30.459  25.049  25.734  1.00  0.00     0.261 C 
BRANCH   5   6
ATOM      6  O   UNL A   1      31.187  23.994  25.085  1.00  0.00    -0.460 OA
BRANCH   6   7
ATOM      7  C   UNL A   1      31.071  22.772  25.656  1.00  0.00     0.338 C 
ATOM      8  O   UNL A   1      30.100  22.329  26.250  1.00  0.00    -0.246 OA
BRANCH   7   9
ATOM      9  C   UNL A   1      32.274  21.968  25.362  1.00  0.00     0.087 C 
ATOM     10  C   UNL A   1      33.936  16.219  23.874  1.00  0.00     0.044 C 
ATOM     11  C   UNL A   1      34.144  17.657  24.252  1.00  0.00    -0.049 A 
ATOM     12  C   UNL A   1      35.431  18.172  24.440  1.00  0.00     0.028 A 
ATOM     13  C   UNL A   1      33.044  18.512  24.394  1.00  0.00     0.015 A 
ATOM     14  C   UNL A   1      35.611  19.519  24.772  1.00  0.00     0.084 A 
ATOM     15  C   UNL A   1      33.221  19.856  24.751  1.00  0.00     0.019 A 
ATOM     16  Cl  UNL A   1      37.224  20.092  25.011  1.00  0.00    -0.080 Cl
ATOM     17  C   UNL A   1      34.508  20.371  24.926  1.00  0.00     0.146 A 
ATOM     18  C   UNL A   1      32.062  20.699  24.990  1.00  0.00     0.027 C 
ATOM     19  O   UNL A   1      34.748  21.680  25.246  1.00  0.00    -0.474 OA
ATOM     20  C   UNL A   1      33.637  22.584  25.496  1.00  0.00     0.316 C 
BRANCH  20  21
ATOM     21  C   UNL A   1      33.852  23.241  26.867  1.00  0.00     0.430 C 
ATOM     22  F   UNL A   1      33.087  22.653  27.820  1.00  0.00    -0.167 F 
ATOM     23  F   UNL A   1      35.135  23.126  27.286  1.00  0.00    -0.167 F 
ATOM     24  F   UNL A   1      33.546  24.557  26.858  1.00  0.00    -0.167 F 
ENDBRANCH  20  21
ENDBRANCH   7   9
ENDBRANCH   6   7
ENDBRANCH   5   6
ENDBRANCH   4   5
ENDBRANCH   3   4
ENDBRANCH   2   3
ENDBRANCH   1   2
BRANCH   1  25
ATOM     25  O   UNL A   1      31.912  30.607  25.833  1.00  0.00    -0.376 OA
BRANCH  25  26
ATOM     26  C   UNL A   1      32.548  30.214  27.036  1.00  0.00     0.202 C 
BRANCH  26  27
ATOM     27  C   UNL A   1      33.729  31.000  27.638  1.00  0.00     0.261 C 
BRANCH  27  28
ATOM     28  O   UNL A   1      34.723  30.265  28.359  1.00  0.00    -0.460 OA
BRANCH  28  29
ATOM     29  C   UNL A   1      35.606  30.974  29.098  1.00  0.00     0.338 C 
ATOM     30  O   UNL A   1      35.357  31.900  29.847  1.00  0.00    -0.246 OA
BRANCH  29  31
ATOM     31  C   UNL A   1      36.923  30.309  28.979  1.00  0.00     0.060 A 
ATOM     32  C   UNL A   1      37.676  30.079  30.137  1.00  0.00     0.016 A 
ATOM     33  C   UNL A   1      37.406  29.912  27.729  1.00  0.00     0.016 A 
ATOM     34  C   UNL A   1      38.933  29.476  30.044  1.00  0.00     0.010 A 
ATOM     35  C   UNL A   1      38.673  29.330  27.636  1.00  0.00     0.010 A 
ATOM     36  C   UNL A   1      39.454  29.135  28.789  1.00  0.00    -0.014 A 
BRANCH  36  37
ATOM     37  C   UNL A   1      40.878  28.747  28.645  1.00  0.00     0.031 A 
ATOM     38  C   UNL A   1      41.926  29.816  28.791  1.00  0.00     0.074 A 
ATOM     39  C   UNL A   1      41.236  27.478  28.378  1.00  0.00     0.049 A 
ATOM     40  N   UNL A   1      43.215  29.748  28.588  1.00  0.00    -0.248 NA
ATOM     41  C   UNL A   1      41.453  31.141  29.225  1.00  0.00     0.031 C 
ATOM     42  C   UNL A   1      40.321  26.344  28.270  1.00  0.00     0.029 A 
ATOM     43  N   UNL A   1      42.474  26.936  28.133  1.00  0.00    -0.354 N 
ATOM     44  C   UNL A   1      43.707  31.018  28.865  1.00  0.00     0.074 A 
ATOM     45  C   UNL A   1      42.577  31.841  29.234  1.00  0.00     0.031 C 
ATOM     46  C   UNL A   1      41.027  25.242  27.958  1.00  0.00     0.029 A 
ATOM     47  C   UNL A   1      42.436  25.601  27.806  1.00  0.00     0.049 A 
ATOM     48  H   UNL A   1      43.309  27.454  28.187  1.00  0.00     0.167 HD
ATOM     49  C   UNL A   1      44.986  31.458  28.817  1.00  0.00     0.037 A 
ATOM     50  C   UNL A   1      43.422  24.776  27.401  1.00  0.00     0.037 A 
ATOM     51  C   UNL A   1      46.106  30.639  28.431  1.00  0.00     0.049 A 
ATOM     52  C   UNL A   1      44.828  25.309  27.271  1.00  0.00     0.074 A 
ATOM     53  C   UNL A   1      47.439  30.998  28.329  1.00  0.00     0.029 A 
ATOM     54  N   UNL A   1      46.024  29.300  28.081  1.00  0.00    -0.354 N 
ATOM     55  N   UNL A   1      45.278  26.518  27.512  1.00  0.00    -0.248 NA
ATOM     56  C   UNL A   1      45.858  24.366  26.813  1.00  0.00     0.031 C 
ATOM     57  C   UNL A   1      48.157  29.885  27.880  1.00  0.00     0.029 A 
ATOM     58  C   UNL A   1      47.280  28.819  27.754  1.00  0.00     0.049 A 
ATOM     59  H   UNL A   1      45.195  28.769  28.070  1.00  0.00     0.167 HD
ATOM     60  C   UNL A   1      46.647  26.472  27.264  1.00  0.00     0.074 A 
ATOM     61  C   UNL A   1      46.952  25.115  26.860  1.00  0.00     0.031 C 
ATOM     62  C   UNL A   1      47.569  27.462  27.363  1.00  0.00     0.037 A 
BRANCH  49  63
ATOM     63  C   UNL A   1      45.244  32.896  29.167  1.00  0.00     0.058 A 
ATOM     64  C   UNL A   1      45.169  33.911  28.201  1.00  0.00     0.135 A 
ATOM     65  C   UNL A   1      45.515  33.269  30.492  1.00  0.00     0.135 A 
ATOM     66  F   UNL A   1      44.936  33.605  26.914  1.00  0.00    -0.206 F 
ATOM     67  C   UNL A   1      45.361  35.247  28.537  1.00  0.00     0.059 A 
ATOM     68  C   UNL A   1      45.688  34.601  30.855  1.00  0.00     0.059 A 
ATOM     69  F   UNL A   1      45.609  32.335  31.452  1.00  0.00    -0.206 F 
ATOM     70  C   UNL A   1      45.613  35.582  29.868  1.00  0.00     0.060 A 
BRANCH  70  71
ATOM     71  S   UNL A   1      45.826  37.325  30.290  1.00  0.00     0.124 S 
ATOM     72  O   UNL A   1      44.837  37.958  29.424  1.00  0.00    -0.237 OA
ATOM     73  O   UNL A   1      45.520  37.338  31.716  1.00  0.00    -0.237 OA
ATOM     74  O   UNL A   1      47.220  37.591  29.948  1.00  0.00    -0.744 OA
ENDBRANCH  70  71
ENDBRANCH  49  63
BRANCH  50  75
ATOM     75  C   UNL A   1      43.119  23.358  27.070  1.00  0.00     0.058 A 
ATOM     76  C   UNL A   1      42.954  22.946  25.739  1.00  0.00     0.135 A 
ATOM     77  C   UNL A   1      42.987  22.388  28.075  1.00  0.00     0.135 A 
ATOM     78  F   UNL A   1      43.056  23.839  24.743  1.00  0.00    -0.206 F 
ATOM     79  C   UNL A   1      42.659  21.625  25.416  1.00  0.00     0.059 A 
ATOM     80  C   UNL A   1      42.717  21.055  27.776  1.00  0.00     0.059 A 
ATOM     81  F   UNL A   1      43.141  22.729  29.364  1.00  0.00    -0.206 F 
ATOM     82  C   UNL A   1      42.548  20.685  26.442  1.00  0.00     0.060 A 
BRANCH  82  83
ATOM     83  S   UNL A   1      42.222  18.963  26.005  1.00  0.00     0.124 S 
ATOM     84  O   UNL A   1      42.663  18.266  27.208  1.00  0.00    -0.237 OA
ATOM     85  O   UNL A   1      40.782  18.978  25.766  1.00  0.00    -0.237 OA
ATOM     86  O   UNL A   1      43.046  18.757  24.818  1.00  0.00    -0.744 OA
ENDBRANCH  82  83
ENDBRANCH  50  75
BRANCH  62  87
ATOM     87  C   UNL A   1      49.003  27.107  27.081  1.00  0.00     0.058 A 
ATOM     88  C   UNL A   1      49.578  27.292  25.815  1.00  0.00     0.135 A 
ATOM     89  C   UNL A   1      49.825  26.617  28.110  1.00  0.00     0.135 A 
ATOM     90  F   UNL A   1      48.837  27.758  24.797  1.00  0.00    -0.206 F 
ATOM     91  C   UNL A   1      50.911  26.973  25.569  1.00  0.00     0.059 A 
ATOM     92  C   UNL A   1      51.166  26.317  27.894  1.00  0.00     0.059 A 
ATOM     93  F   UNL A   1      49.329  26.436  29.344  1.00  0.00    -0.206 F 
ATOM     94  C   UNL A   1      51.696  26.484  26.615  1.00  0.00     0.060 A 
BRANCH  94  95
ATOM     95  S   UNL A   1      53.425  26.081  26.285  1.00  0.00     0.124 S 
ATOM     96  O   UNL A   1      53.428  24.633  26.465  1.00  0.00    -0.237 OA
ATOM     97  O   UNL A   1      53.599  26.550  24.914  1.00  0.00    -0.237 OA
ATOM     98  O   UNL A   1      54.151  26.842  27.299  1.00  0.00    -0.744 OA
ENDBRANCH  94  95
ENDBRANCH  62  87
ENDBRANCH  36  37
ENDBRANCH  29  31
ENDBRANCH  28  29
ENDBRANCH  27  28
ENDBRANCH  26  27
ENDBRANCH  25  26
ENDBRANCH   1  25
TORSDOF 21
ENDMDL
MODEL 3
REMARK VINA RESULT:     -10.0      3.919      8.666
REMARK SMILES Cc1cc(Cl)c2c(c1)C=C(C(=O)OCCOCCOCCOC(=O)c1ccc(-c3c4nc(c(-c5c(F)cc(S(=O)(=O)[O-])cc5F)c5ccc([nH]5)c(-c5c(F)cc(S(=O)(=O)[O-])cc5F)c5nc(c(-c6c(F)cc(S(=O)(=O)[O-])cc6F)c6ccc3[nH]6)C=C5)C=C4)cc1)[C@@H](C(F)(F)F)O2
REMARK SMILES IDX 18 1 17 2 16 3 15 4 14 5 13 6 11 7 12 8 10 9 1 10 2 11 3 12
REMARK SMILES IDX 8 13 4 14 7 15 5 16 6 17 9 18 96 19 91 20 92 21 93 22 94 23
REMARK SMILES IDX 95 24 19 25 20 26 21 27 22 28 23 29 24 30 25 31 26 32 90 33
REMARK SMILES IDX 27 34 89 35 28 36 29 37 30 38 83 39 31 40 88 41 82 42 84 43
REMARK SMILES IDX 32 44 87 45 81 46 80 47 33 49 67 50 46 51 66 52 47 53 50 54
REMARK SMILES IDX 65 55 85 56 48 57 49 58 64 60 86 61 51 62 34 63 35 64 44 65
REMARK SMILES IDX 36 66 37 67 43 68 45 69 38 70 39 71 40 72 41 73 42 74 68 75
REMARK SMILES IDX 69 76 78 77 70 78 71 79 77 80 79 81 72 82 73 83 74 84 75 85
REMARK SMILES IDX 76 86 52 87 53 88 62 89 54 90 55 91 61 92 63 93 56 94 57 95
REMARK SMILES IDX 58 96 59 97 60 98
REMARK H PARENT 84 48 50 59
REMARK Flexibility Score: inf
ROOT
ATOM      1  C   UNL A   1      31.678  28.517  23.586  1.00  0.00     0.188 C 
ENDROOT
BRANCH   1   2
ATOM      2  C   UNL A   1      30.786  27.525  22.808  1.00  0.00     0.188 C 
BRANCH   2   3
ATOM      3  O   UNL A   1      30.849  26.134  23.110  1.00  0.00    -0.376 OA
BRANCH   3   4
ATOM      4  C   UNL A   1      30.085  25.601  24.185  1.00  0.00     0.202 C 
BRANCH   4   5
ATOM      5  C   UNL A   1      30.797  25.245  25.495  1.00  0.00     0.261 C 
BRANCH   5   6
ATOM      6  O   UNL A   1      31.917  24.359  25.330  1.00  0.00    -0.460 OA
BRANCH   6   7
ATOM      7  C   UNL A   1      32.150  23.518  26.365  1.00  0.00     0.338 C 
ATOM      8  O   UNL A   1      31.378  23.236  27.268  1.00  0.00    -0.246 OA
BRANCH   7   9
ATOM      9  C   UNL A   1      33.466  22.871  26.196  1.00  0.00     0.087 C 
ATOM     10  C   UNL A   1      39.488  24.197  26.267  1.00  0.00     0.044 C 
ATOM     11  C   UNL A   1      38.270  23.340  26.076  1.00  0.00    -0.049 A 
ATOM     12  C   UNL A   1      38.384  22.019  25.631  1.00  0.00     0.028 A 
ATOM     13  C   UNL A   1      36.999  23.850  26.370  1.00  0.00     0.015 A 
ATOM     14  C   UNL A   1      37.242  21.226  25.476  1.00  0.00     0.084 A 
ATOM     15  C   UNL A   1      35.852  23.064  26.192  1.00  0.00     0.019 A 
ATOM     16  Cl  UNL A   1      37.444  19.607  24.903  1.00  0.00    -0.080 Cl
ATOM     17  C   UNL A   1      35.969  21.741  25.759  1.00  0.00     0.146 A 
ATOM     18  C   UNL A   1      34.538  23.645  26.409  1.00  0.00     0.027 C 
ATOM     19  O   UNL A   1      34.890  20.915  25.595  1.00  0.00    -0.474 OA
ATOM     20  C   UNL A   1      33.544  21.425  25.797  1.00  0.00     0.316 C 
BRANCH  20  21
ATOM     21  C   UNL A   1      32.720  21.118  24.538  1.00  0.00     0.430 C 
ATOM     22  F   UNL A   1      32.928  22.050  23.575  1.00  0.00    -0.167 F 
ATOM     23  F   UNL A   1      33.057  19.926  23.992  1.00  0.00    -0.167 F 
ATOM     24  F   UNL A   1      31.393  21.087  24.790  1.00  0.00    -0.167 F 
ENDBRANCH  20  21
ENDBRANCH   7   9
ENDBRANCH   6   7
ENDBRANCH   5   6
ENDBRANCH   4   5
ENDBRANCH   3   4
ENDBRANCH   2   3
ENDBRANCH   1   2
BRANCH   1  25
ATOM     25  O   UNL A   1      30.992  29.221  24.598  1.00  0.00    -0.376 OA
BRANCH  25  26
ATOM     26  C   UNL A   1      31.731  30.059  25.469  1.00  0.00     0.202 C 
BRANCH  26  27
ATOM     27  C   UNL A   1      32.463  29.515  26.710  1.00  0.00     0.261 C 
BRANCH  27  28
ATOM     28  O   UNL A   1      33.886  29.657  26.763  1.00  0.00    -0.460 OA
BRANCH  28  29
ATOM     29  C   UNL A   1      34.382  30.685  27.489  1.00  0.00     0.338 C 
ATOM     30  O   UNL A   1      33.818  31.729  27.760  1.00  0.00    -0.246 OA
BRANCH  29  31
ATOM     31  C   UNL A   1      35.675  30.245  28.059  1.00  0.00     0.060 A 
ATOM     32  C   UNL A   1      35.696  29.664  29.332  1.00  0.00     0.016 A 
ATOM     33  C   UNL A   1      36.859  30.405  27.334  1.00  0.00     0.016 A 
ATOM     34  C   UNL A   1      36.909  29.266  29.899  1.00  0.00     0.010 A 
ATOM     35  C   UNL A   1      38.074  30.028  27.911  1.00  0.00     0.010 A 
ATOM     36  C   UNL A   1      38.108  29.482  29.207  1.00  0.00    -0.014 A 
BRANCH  36  37
ATOM     37  C   UNL A   1      39.413  29.318  29.893  1.00  0.00     0.031 A 
ATOM     38  C   UNL A   1      40.333  28.225  29.422  1.00  0.00     0.074 A 
ATOM     39  C   UNL A   1      39.772  30.111  30.919  1.00  0.00     0.049 A 
ATOM     40  N   UNL A   1      41.460  27.809  29.936  1.00  0.00    -0.248 NA
ATOM     41  C   UNL A   1      39.923  27.504  28.204  1.00  0.00     0.031 C 
ATOM     42  C   UNL A   1      38.995  31.238  31.430  1.00  0.00     0.029 A 
ATOM     43  N   UNL A   1      40.882  30.073  31.726  1.00  0.00    -0.354 N 
ATOM     44  C   UNL A   1      41.892  26.778  29.111  1.00  0.00     0.074 A 
ATOM     45  C   UNL A   1      40.899  26.619  28.072  1.00  0.00     0.031 C 
ATOM     46  C   UNL A   1      39.642  31.773  32.480  1.00  0.00     0.029 A 
ATOM     47  C   UNL A   1      40.858  31.002  32.739  1.00  0.00     0.049 A 
ATOM     48  H   UNL A   1      41.625  29.441  31.591  1.00  0.00     0.167 HD
ATOM     49  C   UNL A   1      43.018  26.032  29.210  1.00  0.00     0.037 A 
ATOM     50  C   UNL A   1      41.705  31.186  33.772  1.00  0.00     0.037 A 
ATOM     51  C   UNL A   1      43.994  26.181  30.257  1.00  0.00     0.049 A 
ATOM     52  C   UNL A   1      42.908  30.285  33.912  1.00  0.00     0.074 A 
ATOM     53  C   UNL A   1      45.157  25.457  30.459  1.00  0.00     0.029 A 
ATOM     54  N   UNL A   1      43.921  27.115  31.280  1.00  0.00    -0.354 N 
ATOM     55  N   UNL A   1      43.294  29.298  33.140  1.00  0.00    -0.248 NA
ATOM     56  C   UNL A   1      43.787  30.525  35.066  1.00  0.00     0.031 C 
ATOM     57  C   UNL A   1      45.767  25.928  31.625  1.00  0.00     0.029 A 
ATOM     58  C   UNL A   1      45.013  26.980  32.121  1.00  0.00     0.049 A 
ATOM     59  H   UNL A   1      43.201  27.776  31.390  1.00  0.00     0.167 HD
ATOM     60  C   UNL A   1      44.477  28.818  33.697  1.00  0.00     0.074 A 
ATOM     61  C   UNL A   1      44.745  29.628  34.867  1.00  0.00     0.031 C 
ATOM     62  C   UNL A   1      45.270  27.801  33.277  1.00  0.00     0.037 A 
BRANCH  49  63
ATOM     63  C   UNL A   1      43.243  24.968  28.173  1.00  0.00     0.058 A 
ATOM     64  C   UNL A   1      43.898  25.249  26.964  1.00  0.00     0.135 A 
ATOM     65  C   UNL A   1      42.847  23.644  28.413  1.00  0.00     0.135 A 
ATOM     66  F   UNL A   1      44.275  26.505  26.675  1.00  0.00    -0.206 F 
ATOM     67  C   UNL A   1      44.147  24.254  26.026  1.00  0.00     0.059 A 
ATOM     68  C   UNL A   1      43.106  22.627  27.499  1.00  0.00     0.059 A 
ATOM     69  F   UNL A   1      42.206  23.325  29.549  1.00  0.00    -0.206 F 
ATOM     70  C   UNL A   1      43.753  22.944  26.306  1.00  0.00     0.060 A 
BRANCH  70  71
ATOM     71  S   UNL A   1      44.116  21.658  25.091  1.00  0.00     0.124 S 
ATOM     72  O   UNL A   1      45.499  21.329  25.419  1.00  0.00    -0.237 OA
ATOM     73  O   UNL A   1      43.126  20.637  25.415  1.00  0.00    -0.237 OA
ATOM     74  O   UNL A   1      43.920  22.334  23.811  1.00  0.00    -0.744 OA
ENDBRANCH  70  71
ENDBRANCH  49  63
BRANCH  50  75
ATOM     75  C   UNL A   1      41.442  32.255  34.772  1.00  0.00     0.058 A 
ATOM     76  C   UNL A   1      40.595  32.029  35.867  1.00  0.00     0.135 A 
ATOM     77  C   UNL A   1      42.029  33.524  34.651  1.00  0.00     0.135 A 
ATOM     78  F   UNL A   1      39.998  30.837  36.017  1.00  0.00    -0.206 F 
ATOM     79  C   UNL A   1      40.331  33.024  36.802  1.00  0.00     0.059 A 
ATOM     80  C   UNL A   1      41.801  34.528  35.588  1.00  0.00     0.059 A 
ATOM     81  F   UNL A   1      42.851  33.790  33.624  1.00  0.00    -0.206 F 
ATOM     82  C   UNL A   1      40.944  34.271  36.657  1.00  0.00     0.060 A 
BRANCH  82  83
ATOM     83  S   UNL A   1      40.639  35.535  37.910  1.00  0.00     0.124 S 
ATOM     84  O   UNL A   1      41.995  35.959  38.237  1.00  0.00    -0.237 OA
ATOM     85  O   UNL A   1      39.826  36.500  37.176  1.00  0.00    -0.237 OA
ATOM     86  O   UNL A   1      39.936  34.803  38.961  1.00  0.00    -0.744 OA
ENDBRANCH  82  83
ENDBRANCH  50  75
BRANCH  62  87
ATOM     87  C   UNL A   1      46.531  27.537  34.054  1.00  0.00     0.058 A 
ATOM     88  C   UNL A   1      46.571  26.619  35.113  1.00  0.00     0.135 A 
ATOM     89  C   UNL A   1      47.728  28.182  33.699  1.00  0.00     0.135 A 
ATOM     90  F   UNL A   1      45.456  25.975  35.493  1.00  0.00    -0.206 F 
ATOM     91  C   UNL A   1      47.747  26.372  35.816  1.00  0.00     0.059 A 
ATOM     92  C   UNL A   1      48.921  27.931  34.370  1.00  0.00     0.059 A 
ATOM     93  F   UNL A   1      47.748  29.059  32.682  1.00  0.00    -0.206 F 
ATOM     94  C   UNL A   1      48.916  27.035  35.438  1.00  0.00     0.060 A 
BRANCH  94  95
ATOM     95  S   UNL A   1      50.436  26.701  36.352  1.00  0.00     0.124 S 
ATOM     96  O   UNL A   1      50.151  27.331  37.638  1.00  0.00    -0.237 OA
ATOM     97  O   UNL A   1      50.483  25.241  36.359  1.00  0.00    -0.237 OA
ATOM     98  O   UNL A   1      51.468  27.352  35.550  1.00  0.00    -0.744 OA
ENDBRANCH  94  95
ENDBRANCH  62  87
ENDBRANCH  36  37
ENDBRANCH  29  31
ENDBRANCH  28  29
ENDBRANCH  27  28
ENDBRANCH  26  27
ENDBRANCH  25  26
ENDBRANCH   1  25
TORSDOF 21
ENDMDL
