MODEL 1
REMARK VINA RESULT:      -9.2      0.000      0.000
REMARK SMILES CCCOc1cncc(N[C@@](C)(C(=O)OCCOCCOCCOC(=O)c2ccc(-c3c4nc(c(-c5c(F)cc(S(=O)(=O)[O-])cc5F)c5ccc([nH]5)c(-c5c(F)cc(S(=O)(=O)[O-])cc5F)c5nc(c(-c6c(F)cc(S(=O)(=O)[O-])cc6F)c6ccc3[nH]6)C=C5)C=C4)cc2)C(F)(F)F)n1
REMARK SMILES IDX 19 1 18 2 17 3 16 4 15 5 13 6 14 7 11 8 12 9 10 10 9 12 5 13
REMARK SMILES IDX 6 14 97 15 7 16 8 17 4 18 3 19 2 20 1 21 93 22 94 23 95 24
REMARK SMILES IDX 96 25 20 26 21 27 22 28 23 29 24 30 25 31 26 32 27 33 28 34
REMARK SMILES IDX 92 35 29 36 91 37 30 38 31 39 32 40 85 41 33 42 90 43 84 44
REMARK SMILES IDX 86 45 34 46 89 47 83 48 82 49 35 51 69 52 48 53 68 54 49 55
REMARK SMILES IDX 52 56 67 57 87 58 50 59 51 60 66 62 88 63 53 64 36 65 37 66
REMARK SMILES IDX 46 67 38 68 39 69 45 70 47 71 40 72 41 73 42 74 43 75 44 76
REMARK SMILES IDX 70 77 71 78 80 79 72 80 73 81 79 82 81 83 74 84 75 85 76 86
REMARK SMILES IDX 77 87 78 88 54 89 55 90 64 91 56 92 57 93 63 94 65 95 58 96
REMARK SMILES IDX 59 97 60 98 61 99 62 100
REMARK H PARENT 10 11 86 50 52 61
REMARK Flexibility Score: inf
ROOT
ATOM      1  C   UNL A   1      38.092  23.086  25.803  1.00  0.00     0.188 C 
ENDROOT
BRANCH   1   2
ATOM      2  O   UNL A   1      37.923  21.729  25.392  1.00  0.00    -0.376 OA
BRANCH   2   3
ATOM      3  C   UNL A   1      36.632  21.274  25.020  1.00  0.00     0.202 C 
BRANCH   3   4
ATOM      4  C   UNL A   1      35.447  21.724  25.883  1.00  0.00     0.261 C 
BRANCH   4   5
ATOM      5  O   UNL A   1      34.297  22.181  25.135  1.00  0.00    -0.461 OA
BRANCH   5   6
ATOM      6  C   UNL A   1      33.657  23.269  25.635  1.00  0.00     0.341 C 
ATOM      7  O   UNL A   1      33.863  23.667  26.778  1.00  0.00    -0.249 OA
BRANCH   6   8
ATOM      8  C   UNL A   1      32.597  23.907  24.703  1.00  0.00     0.230 C 
ATOM      9  C   UNL A   1      33.359  24.163  23.393  1.00  0.00     0.058 C 
BRANCH   8  10
ATOM     10  N   UNL A   1      32.050  25.247  25.178  1.00  0.00    -0.346 N 
ATOM     11  H   UNL A   1      31.290  25.177  25.800  1.00  0.00     0.163 HD
BRANCH  10  12
ATOM     12  C   UNL A   1      32.431  26.546  24.891  1.00  0.00     0.149 A 
ATOM     13  C   UNL A   1      31.934  28.557  23.814  1.00  0.00     0.234 A 
ATOM     14  C   UNL A   1      32.989  29.183  24.448  1.00  0.00     0.179 A 
ATOM     15  N   UNL A   1      31.609  27.247  24.058  1.00  0.00    -0.193 NA
ATOM     16  N   UNL A   1      33.870  28.502  25.188  1.00  0.00    -0.255 NA
ATOM     17  C   UNL A   1      33.582  27.186  25.355  1.00  0.00     0.158 A 
BRANCH  13  18
ATOM     18  O   UNL A   1      31.102  29.306  23.011  1.00  0.00    -0.477 OA
BRANCH  18  19
ATOM     19  C   UNL A   1      29.711  29.228  23.391  1.00  0.00     0.231 C 
BRANCH  19  20
ATOM     20  C   UNL A   1      28.855  30.468  23.066  1.00  0.00     0.038 C 
ATOM     21  C   UNL A   1      29.046  30.962  21.633  1.00  0.00     0.007 C 
ENDBRANCH  19  20
ENDBRANCH  18  19
ENDBRANCH  13  18
ENDBRANCH  10  12
ENDBRANCH   8  10
BRANCH   8  22
ATOM     22  C   UNL A   1      31.574  22.767  24.526  1.00  0.00     0.422 C 
ATOM     23  F   UNL A   1      30.395  23.239  24.054  1.00  0.00    -0.168 F 
ATOM     24  F   UNL A   1      32.036  21.851  23.635  1.00  0.00    -0.168 F 
ATOM     25  F   UNL A   1      31.304  22.062  25.643  1.00  0.00    -0.168 F 
ENDBRANCH   8  22
ENDBRANCH   6   8
ENDBRANCH   5   6
ENDBRANCH   4   5
ENDBRANCH   3   4
ENDBRANCH   2   3
ENDBRANCH   1   2
BRANCH   1  26
ATOM     26  C   UNL A   1      39.296  23.478  26.685  1.00  0.00     0.188 C 
BRANCH  26  27
ATOM     27  O   UNL A   1      40.175  22.407  26.974  1.00  0.00    -0.376 OA
BRANCH  27  28
ATOM     28  C   UNL A   1      41.480  22.776  27.375  1.00  0.00     0.202 C 
BRANCH  28  29
ATOM     29  C   UNL A   1      42.419  23.160  26.222  1.00  0.00     0.261 C 
BRANCH  29  30
ATOM     30  O   UNL A   1      42.975  24.487  26.286  1.00  0.00    -0.460 OA
BRANCH  30  31
ATOM     31  C   UNL A   1      42.114  25.522  26.135  1.00  0.00     0.338 C 
ATOM     32  O   UNL A   1      41.448  25.774  25.149  1.00  0.00    -0.246 OA
BRANCH  31  33
ATOM     33  C   UNL A   1      41.947  26.184  27.454  1.00  0.00     0.060 A 
ATOM     34  C   UNL A   1      40.673  26.219  28.038  1.00  0.00     0.016 A 
ATOM     35  C   UNL A   1      43.033  26.776  28.103  1.00  0.00     0.016 A 
ATOM     36  C   UNL A   1      40.472  26.894  29.246  1.00  0.00     0.010 A 
ATOM     37  C   UNL A   1      42.826  27.469  29.302  1.00  0.00     0.010 A 
ATOM     38  C   UNL A   1      41.536  27.570  29.856  1.00  0.00    -0.014 A 
BRANCH  38  39
ATOM     39  C   UNL A   1      41.256  28.560  30.930  1.00  0.00     0.031 A 
ATOM     40  C   UNL A   1      42.086  28.507  32.187  1.00  0.00     0.074 A 
ATOM     41  C   UNL A   1      40.309  29.507  30.799  1.00  0.00     0.049 A 
ATOM     42  N   UNL A   1      42.037  29.260  33.255  1.00  0.00    -0.248 NA
ATOM     43  C   UNL A   1      43.108  27.450  32.243  1.00  0.00     0.031 C 
ATOM     44  C   UNL A   1      39.447  29.687  29.635  1.00  0.00     0.029 A 
ATOM     45  N   UNL A   1      39.912  30.493  31.670  1.00  0.00    -0.354 N 
ATOM     46  C   UNL A   1      43.016  28.769  34.111  1.00  0.00     0.074 A 
ATOM     47  C   UNL A   1      43.613  27.625  33.453  1.00  0.00     0.031 C 
ATOM     48  C   UNL A   1      38.610  30.713  29.868  1.00  0.00     0.029 A 
ATOM     49  C   UNL A   1      38.864  31.250  31.207  1.00  0.00     0.049 A 
ATOM     50  H   UNL A   1      40.340  30.643  32.544  1.00  0.00     0.167 HD
ATOM     51  C   UNL A   1      43.395  29.229  35.328  1.00  0.00     0.037 A 
ATOM     52  C   UNL A   1      38.179  32.251  31.797  1.00  0.00     0.037 A 
ATOM     53  C   UNL A   1      42.789  30.355  35.992  1.00  0.00     0.049 A 
ATOM     54  C   UNL A   1      38.587  32.730  33.167  1.00  0.00     0.074 A 
ATOM     55  C   UNL A   1      43.112  30.907  37.218  1.00  0.00     0.029 A 
ATOM     56  N   UNL A   1      41.724  31.091  35.492  1.00  0.00    -0.354 N 
ATOM     57  N   UNL A   1      39.538  32.280  33.952  1.00  0.00    -0.248 NA
ATOM     58  C   UNL A   1      37.838  33.865  33.724  1.00  0.00     0.031 C 
ATOM     59  C   UNL A   1      42.208  31.943  37.485  1.00  0.00     0.029 A 
ATOM     60  C   UNL A   1      41.363  32.079  36.395  1.00  0.00     0.049 A 
ATOM     61  H   UNL A   1      41.290  30.934  34.623  1.00  0.00     0.167 HD
ATOM     62  C   UNL A   1      39.520  33.094  35.082  1.00  0.00     0.074 A 
ATOM     63  C   UNL A   1      38.470  34.069  34.872  1.00  0.00     0.031 C 
ATOM     64  C   UNL A   1      40.308  33.043  36.187  1.00  0.00     0.037 A 
BRANCH  51  65
ATOM     65  C   UNL A   1      44.493  28.474  36.029  1.00  0.00     0.058 A 
ATOM     66  C   UNL A   1      45.845  28.832  35.894  1.00  0.00     0.135 A 
ATOM     67  C   UNL A   1      44.192  27.355  36.821  1.00  0.00     0.135 A 
ATOM     68  F   UNL A   1      46.194  29.885  35.136  1.00  0.00    -0.206 F 
ATOM     69  C   UNL A   1      46.860  28.074  36.470  1.00  0.00     0.059 A 
ATOM     70  C   UNL A   1      45.189  26.600  37.433  1.00  0.00     0.059 A 
ATOM     71  F   UNL A   1      42.917  26.966  36.988  1.00  0.00    -0.206 F 
ATOM     72  C   UNL A   1      46.522  26.953  37.229  1.00  0.00     0.060 A 
BRANCH  72  73
ATOM     73  S   UNL A   1      47.849  25.947  37.922  1.00  0.00     0.124 S 
ATOM     74  O   UNL A   1      49.019  26.513  37.259  1.00  0.00    -0.237 OA
ATOM     75  O   UNL A   1      47.738  26.222  39.351  1.00  0.00    -0.237 OA
ATOM     76  O   UNL A   1      47.495  24.590  37.518  1.00  0.00    -0.744 OA
ENDBRANCH  72  73
ENDBRANCH  51  65
BRANCH  52  77
ATOM     77  C   UNL A   1      37.034  32.874  31.078  1.00  0.00     0.058 A 
ATOM     78  C   UNL A   1      37.230  33.880  30.121  1.00  0.00     0.135 A 
ATOM     79  C   UNL A   1      35.719  32.440  31.310  1.00  0.00     0.135 A 
ATOM     80  F   UNL A   1      38.466  34.342  29.877  1.00  0.00    -0.206 F 
ATOM     81  C   UNL A   1      36.166  34.429  29.412  1.00  0.00     0.059 A 
ATOM     82  C   UNL A   1      34.640  32.957  30.597  1.00  0.00     0.059 A 
ATOM     83  F   UNL A   1      35.478  31.478  32.215  1.00  0.00    -0.206 F 
ATOM     84  C   UNL A   1      34.875  33.951  29.650  1.00  0.00     0.060 A 
BRANCH  84  85
ATOM     85  S   UNL A   1      33.515  34.601  28.654  1.00  0.00     0.124 S 
ATOM     86  O   UNL A   1      33.184  33.452  27.820  1.00  0.00    -0.237 OA
ATOM     87  O   UNL A   1      32.532  34.954  29.673  1.00  0.00    -0.237 OA
ATOM     88  O   UNL A   1      34.119  35.734  27.958  1.00  0.00    -0.744 OA
ENDBRANCH  84  85
ENDBRANCH  52  77
BRANCH  64  89
ATOM     89  C   UNL A   1      40.093  34.097  37.244  1.00  0.00     0.058 A 
ATOM     90  C   UNL A   1      39.275  33.876  38.364  1.00  0.00     0.135 A 
ATOM     91  C   UNL A   1      40.734  35.343  37.142  1.00  0.00     0.135 A 
ATOM     92  F   UNL A   1      38.638  32.705  38.515  1.00  0.00    -0.206 F 
ATOM     93  C   UNL A   1      39.062  34.869  39.318  1.00  0.00     0.059 A 
ATOM     94  C   UNL A   1      40.562  36.338  38.101  1.00  0.00     0.059 A 
ATOM     95  F   UNL A   1      41.544  35.604  36.104  1.00  0.00    -0.206 F 
ATOM     96  C   UNL A   1      39.706  36.099  39.174  1.00  0.00     0.060 A 
BRANCH  96  97
ATOM     97  S   UNL A   1      39.415  37.384  40.409  1.00  0.00     0.124 S 
ATOM     98  O   UNL A   1      38.972  38.497  39.576  1.00  0.00    -0.237 OA
ATOM     99  O   UNL A   1      38.390  36.779  41.256  1.00  0.00    -0.237 OA
ATOM    100  O   UNL A   1      40.720  37.552  41.041  1.00  0.00    -0.744 OA
ENDBRANCH  96  97
ENDBRANCH  64  89
ENDBRANCH  38  39
ENDBRANCH  31  33
ENDBRANCH  30  31
ENDBRANCH  29  30
ENDBRANCH  28  29
ENDBRANCH  27  28
ENDBRANCH  26  27
ENDBRANCH   1  26
TORSDOF 26
ENDMDL
MODEL 2
REMARK VINA RESULT:      -9.0      1.694      8.526
REMARK SMILES CCCOc1cncc(N[C@@](C)(C(=O)OCCOCCOCCOC(=O)c2ccc(-c3c4nc(c(-c5c(F)cc(S(=O)(=O)[O-])cc5F)c5ccc([nH]5)c(-c5c(F)cc(S(=O)(=O)[O-])cc5F)c5nc(c(-c6c(F)cc(S(=O)(=O)[O-])cc6F)c6ccc3[nH]6)C=C5)C=C4)cc2)C(F)(F)F)n1
REMARK SMILES IDX 19 1 18 2 17 3 16 4 15 5 13 6 14 7 11 8 12 9 10 10 9 12 5 13
REMARK SMILES IDX 6 14 97 15 7 16 8 17 4 18 3 19 2 20 1 21 93 22 94 23 95 24
REMARK SMILES IDX 96 25 20 26 21 27 22 28 23 29 24 30 25 31 26 32 27 33 28 34
REMARK SMILES IDX 92 35 29 36 91 37 30 38 31 39 32 40 85 41 33 42 90 43 84 44
REMARK SMILES IDX 86 45 34 46 89 47 83 48 82 49 35 51 69 52 48 53 68 54 49 55
REMARK SMILES IDX 52 56 67 57 87 58 50 59 51 60 66 62 88 63 53 64 36 65 37 66
REMARK SMILES IDX 46 67 38 68 39 69 45 70 47 71 40 72 41 73 42 74 43 75 44 76
REMARK SMILES IDX 70 77 71 78 80 79 72 80 73 81 79 82 81 83 74 84 75 85 76 86
REMARK SMILES IDX 77 87 78 88 54 89 55 90 64 91 56 92 57 93 63 94 65 95 58 96
REMARK SMILES IDX 59 97 60 98 61 99 62 100
REMARK H PARENT 10 11 86 50 52 61
REMARK Flexibility Score: inf
ROOT
ATOM      1  C   UNL A   1      37.064  22.822  25.550  1.00  0.00     0.188 C 
ENDROOT
BRANCH   1   2
ATOM      2  O   UNL A   1      35.716  23.186  25.844  1.00  0.00    -0.376 OA
BRANCH   2   3
ATOM      3  C   UNL A   1      35.135  24.294  25.173  1.00  0.00     0.202 C 
BRANCH   3   4
ATOM      4  C   UNL A   1      34.773  25.522  26.018  1.00  0.00     0.261 C 
BRANCH   4   5
ATOM      5  O   UNL A   1      33.819  26.415  25.401  1.00  0.00    -0.461 OA
BRANCH   5   6
ATOM      6  C   UNL A   1      33.378  27.440  26.175  1.00  0.00     0.341 C 
ATOM      7  O   UNL A   1      34.156  28.154  26.801  1.00  0.00    -0.249 OA
BRANCH   6   8
ATOM      8  C   UNL A   1      31.839  27.582  26.284  1.00  0.00     0.230 C 
ATOM      9  C   UNL A   1      31.620  28.195  27.676  1.00  0.00     0.058 C 
BRANCH   8  10
ATOM     10  N   UNL A   1      31.070  26.268  26.241  1.00  0.00    -0.346 N 
ATOM     11  H   UNL A   1      30.383  26.179  26.942  1.00  0.00     0.163 HD
BRANCH  10  12
ATOM     12  C   UNL A   1      31.164  25.178  25.395  1.00  0.00     0.149 A 
ATOM     13  C   UNL A   1      31.578  22.894  25.156  1.00  0.00     0.234 A 
ATOM     14  C   UNL A   1      31.162  22.932  23.840  1.00  0.00     0.179 A 
ATOM     15  N   UNL A   1      31.543  23.999  25.966  1.00  0.00    -0.193 NA
ATOM     16  N   UNL A   1      30.882  24.085  23.224  1.00  0.00    -0.255 NA
ATOM     17  C   UNL A   1      30.931  25.184  24.018  1.00  0.00     0.158 A 
BRANCH  13  18
ATOM     18  O   UNL A   1      31.916  21.678  25.712  1.00  0.00    -0.477 OA
BRANCH  18  19
ATOM     19  C   UNL A   1      32.102  20.630  24.736  1.00  0.00     0.231 C 
BRANCH  19  20
ATOM     20  C   UNL A   1      33.169  19.572  25.083  1.00  0.00     0.038 C 
ATOM     21  C   UNL A   1      34.596  20.081  24.890  1.00  0.00     0.007 C 
ENDBRANCH  19  20
ENDBRANCH  18  19
ENDBRANCH  13  18
ENDBRANCH  10  12
ENDBRANCH   8  10
BRANCH   8  22
ATOM     22  C   UNL A   1      31.518  28.608  25.178  1.00  0.00     0.422 C 
ATOM     23  F   UNL A   1      31.488  29.868  25.677  1.00  0.00    -0.168 F 
ATOM     24  F   UNL A   1      32.469  28.573  24.210  1.00  0.00    -0.168 F 
ATOM     25  F   UNL A   1      30.353  28.406  24.532  1.00  0.00    -0.168 F 
ENDBRANCH   8  22
ENDBRANCH   6   8
ENDBRANCH   5   6
ENDBRANCH   4   5
ENDBRANCH   3   4
ENDBRANCH   2   3
ENDBRANCH   1   2
BRANCH   1  26
ATOM     26  C   UNL A   1      38.217  23.383  26.408  1.00  0.00     0.188 C 
BRANCH  26  27
ATOM     27  O   UNL A   1      39.203  22.427  26.750  1.00  0.00    -0.376 OA
BRANCH  27  28
ATOM     28  C   UNL A   1      40.492  22.658  26.215  1.00  0.00     0.202 C 
BRANCH  28  29
ATOM     29  C   UNL A   1      41.307  23.730  26.952  1.00  0.00     0.261 C 
BRANCH  29  30
ATOM     30  O   UNL A   1      42.121  24.579  26.120  1.00  0.00    -0.460 OA
BRANCH  30  31
ATOM     31  C   UNL A   1      41.760  25.882  26.035  1.00  0.00     0.338 C 
ATOM     32  O   UNL A   1      41.358  26.459  25.043  1.00  0.00    -0.246 OA
BRANCH  31  33
ATOM     33  C   UNL A   1      41.728  26.447  27.407  1.00  0.00     0.060 A 
ATOM     34  C   UNL A   1      40.527  26.401  28.131  1.00  0.00     0.016 A 
ATOM     35  C   UNL A   1      42.865  27.028  27.972  1.00  0.00     0.016 A 
ATOM     36  C   UNL A   1      40.448  26.985  29.399  1.00  0.00     0.010 A 
ATOM     37  C   UNL A   1      42.778  27.631  29.233  1.00  0.00     0.010 A 
ATOM     38  C   UNL A   1      41.557  27.652  29.933  1.00  0.00    -0.014 A 
BRANCH  38  39
ATOM     39  C   UNL A   1      41.376  28.557  31.099  1.00  0.00     0.031 A 
ATOM     40  C   UNL A   1      40.268  29.578  31.047  1.00  0.00     0.074 A 
ATOM     41  C   UNL A   1      42.149  28.472  32.197  1.00  0.00     0.049 A 
ATOM     42  N   UNL A   1      39.909  30.469  31.935  1.00  0.00    -0.248 NA
ATOM     43  C   UNL A   1      39.462  29.596  29.816  1.00  0.00     0.031 C 
ATOM     44  C   UNL A   1      43.241  27.523  32.391  1.00  0.00     0.029 A 
ATOM     45  N   UNL A   1      42.131  29.210  33.356  1.00  0.00    -0.354 N 
ATOM     46  C   UNL A   1      38.838  31.155  31.371  1.00  0.00     0.074 A 
ATOM     47  C   UNL A   1      38.637  30.604  30.047  1.00  0.00     0.031 C 
ATOM     48  C   UNL A   1      43.801  27.745  33.593  1.00  0.00     0.029 A 
ATOM     49  C   UNL A   1      43.119  28.865  34.245  1.00  0.00     0.049 A 
ATOM     50  H   UNL A   1      41.472  29.919  33.532  1.00  0.00     0.167 HD
ATOM     51  C   UNL A   1      38.083  32.145  31.906  1.00  0.00     0.037 A 
ATOM     52  C   UNL A   1      43.446  29.398  35.440  1.00  0.00     0.037 A 
ATOM     53  C   UNL A   1      38.294  32.707  33.215  1.00  0.00     0.049 A 
ATOM     54  C   UNL A   1      42.621  30.524  36.008  1.00  0.00     0.074 A 
ATOM     55  C   UNL A   1      37.574  33.702  33.852  1.00  0.00     0.029 A 
ATOM     56  N   UNL A   1      39.312  32.335  34.083  1.00  0.00    -0.354 N 
ATOM     57  N   UNL A   1      41.589  31.141  35.481  1.00  0.00    -0.248 NA
ATOM     58  C   UNL A   1      42.994  31.016  37.342  1.00  0.00     0.031 C 
ATOM     59  C   UNL A   1      38.187  33.969  35.082  1.00  0.00     0.029 A 
ATOM     60  C   UNL A   1      39.252  33.096  35.240  1.00  0.00     0.049 A 
ATOM     61  H   UNL A   1      39.977  31.633  33.902  1.00  0.00     0.167 HD
ATOM     62  C   UNL A   1      41.172  32.072  36.429  1.00  0.00     0.074 A 
ATOM     63  C   UNL A   1      42.060  31.930  37.565  1.00  0.00     0.031 C 
ATOM     64  C   UNL A   1      40.145  32.958  36.367  1.00  0.00     0.037 A 
BRANCH  51  65
ATOM     65  C   UNL A   1      36.985  32.706  31.041  1.00  0.00     0.058 A 
ATOM     66  C   UNL A   1      37.209  33.772  30.153  1.00  0.00     0.135 A 
ATOM     67  C   UNL A   1      35.682  32.192  31.126  1.00  0.00     0.135 A 
ATOM     68  F   UNL A   1      38.433  34.315  30.042  1.00  0.00    -0.206 F 
ATOM     69  C   UNL A   1      36.170  34.346  29.427  1.00  0.00     0.059 A 
ATOM     70  C   UNL A   1      34.633  32.728  30.384  1.00  0.00     0.059 A 
ATOM     71  F   UNL A   1      35.409  31.171  31.955  1.00  0.00    -0.206 F 
ATOM     72  C   UNL A   1      34.882  33.822  29.558  1.00  0.00     0.060 A 
BRANCH  72  73
ATOM     73  S   UNL A   1      33.534  34.610  28.654  1.00  0.00     0.124 S 
ATOM     74  O   UNL A   1      33.100  33.527  27.777  1.00  0.00    -0.237 OA
ATOM     75  O   UNL A   1      32.607  34.968  29.722  1.00  0.00    -0.237 OA
ATOM     76  O   UNL A   1      34.183  35.735  27.987  1.00  0.00    -0.744 OA
ENDBRANCH  72  73
ENDBRANCH  51  65
BRANCH  52  77
ATOM     77  C   UNL A   1      44.616  28.857  36.184  1.00  0.00     0.058 A 
ATOM     78  C   UNL A   1      45.897  29.410  36.038  1.00  0.00     0.135 A 
ATOM     79  C   UNL A   1      44.463  27.795  37.091  1.00  0.00     0.135 A 
ATOM     80  F   UNL A   1      46.099  30.413  35.171  1.00  0.00    -0.206 F 
ATOM     81  C   UNL A   1      46.983  28.937  36.769  1.00  0.00     0.059 A 
ATOM     82  C   UNL A   1      45.528  27.320  37.850  1.00  0.00     0.059 A 
ATOM     83  F   UNL A   1      43.257  27.231  37.267  1.00  0.00    -0.206 F 
ATOM     84  C   UNL A   1      46.785  27.899  37.682  1.00  0.00     0.060 A 
BRANCH  84  85
ATOM     85  S   UNL A   1      48.179  27.361  38.697  1.00  0.00     0.124 S 
ATOM     86  O   UNL A   1      47.994  28.160  39.902  1.00  0.00    -0.237 OA
ATOM     87  O   UNL A   1      47.923  25.931  38.834  1.00  0.00    -0.237 OA
ATOM     88  O   UNL A   1      49.341  27.706  37.882  1.00  0.00    -0.744 OA
ENDBRANCH  84  85
ENDBRANCH  52  77
BRANCH  64  89
ATOM     89  C   UNL A   1      39.895  33.820  37.579  1.00  0.00     0.058 A 
ATOM     90  C   UNL A   1      38.992  33.447  38.587  1.00  0.00     0.135 A 
ATOM     91  C   UNL A   1      40.588  35.031  37.742  1.00  0.00     0.135 A 
ATOM     92  F   UNL A   1      38.302  32.300  38.486  1.00  0.00    -0.206 F 
ATOM     93  C   UNL A   1      38.749  34.266  39.688  1.00  0.00     0.059 A 
ATOM     94  C   UNL A   1      40.386  35.850  38.850  1.00  0.00     0.059 A 
ATOM     95  F   UNL A   1      41.479  35.431  36.820  1.00  0.00    -0.206 F 
ATOM     96  C   UNL A   1      39.447  35.469  39.807  1.00  0.00     0.060 A 
BRANCH  96  97
ATOM     97  S   UNL A   1      39.117  36.530  41.231  1.00  0.00     0.124 S 
ATOM     98  O   UNL A   1      40.411  36.528  41.905  1.00  0.00    -0.237 OA
ATOM     99  O   UNL A   1      38.732  37.790  40.601  1.00  0.00    -0.237 OA
ATOM    100  O   UNL A   1      38.042  35.834  41.932  1.00  0.00    -0.744 OA
ENDBRANCH  96  97
ENDBRANCH  64  89
ENDBRANCH  38  39
ENDBRANCH  31  33
ENDBRANCH  30  31
ENDBRANCH  29  30
ENDBRANCH  28  29
ENDBRANCH  27  28
ENDBRANCH  26  27
ENDBRANCH   1  26
TORSDOF 26
ENDMDL
MODEL 3
REMARK VINA RESULT:      -8.7      2.079      3.009
REMARK SMILES CCCOc1cncc(N[C@@](C)(C(=O)OCCOCCOCCOC(=O)c2ccc(-c3c4nc(c(-c5c(F)cc(S(=O)(=O)[O-])cc5F)c5ccc([nH]5)c(-c5c(F)cc(S(=O)(=O)[O-])cc5F)c5nc(c(-c6c(F)cc(S(=O)(=O)[O-])cc6F)c6ccc3[nH]6)C=C5)C=C4)cc2)C(F)(F)F)n1
REMARK SMILES IDX 19 1 18 2 17 3 16 4 15 5 13 6 14 7 11 8 12 9 10 10 9 12 5 13
REMARK SMILES IDX 6 14 97 15 7 16 8 17 4 18 3 19 2 20 1 21 93 22 94 23 95 24
REMARK SMILES IDX 96 25 20 26 21 27 22 28 23 29 24 30 25 31 26 32 27 33 28 34
REMARK SMILES IDX 92 35 29 36 91 37 30 38 31 39 32 40 85 41 33 42 90 43 84 44
REMARK SMILES IDX 86 45 34 46 89 47 83 48 82 49 35 51 69 52 48 53 68 54 49 55
REMARK SMILES IDX 52 56 67 57 87 58 50 59 51 60 66 62 88 63 53 64 36 65 37 66
REMARK SMILES IDX 46 67 38 68 39 69 45 70 47 71 40 72 41 73 42 74 43 75 44 76
REMARK SMILES IDX 70 77 71 78 80 79 72 80 73 81 79 82 81 83 74 84 75 85 76 86
REMARK SMILES IDX 77 87 78 88 54 89 55 90 64 91 56 92 57 93 63 94 65 95 58 96
REMARK SMILES IDX 59 97 60 98 61 99 62 100
REMARK H PARENT 10 11 86 50 52 61
REMARK Flexibility Score: inf
ROOT
ATOM      1  C   UNL A   1      38.740  21.433  25.636  1.00  0.00     0.188 C 
ENDROOT
BRANCH   1   2
ATOM      2  O   UNL A   1      37.736  22.387  25.980  1.00  0.00    -0.376 OA
BRANCH   2   3
ATOM      3  C   UNL A   1      36.558  22.467  25.195  1.00  0.00     0.202 C 
BRANCH   3   4
ATOM      4  C   UNL A   1      35.217  22.536  25.936  1.00  0.00     0.261 C 
BRANCH   4   5
ATOM      5  O   UNL A   1      34.057  22.598  25.076  1.00  0.00    -0.461 OA
BRANCH   5   6
ATOM      6  C   UNL A   1      33.066  23.436  25.475  1.00  0.00     0.341 C 
ATOM      7  O   UNL A   1      33.305  24.459  26.111  1.00  0.00    -0.249 OA
BRANCH   6   8
ATOM      8  C   UNL A   1      31.624  22.968  25.154  1.00  0.00     0.230 C 
ATOM      9  C   UNL A   1      31.804  21.523  24.663  1.00  0.00     0.058 C 
BRANCH   8  10
ATOM     10  N   UNL A   1      30.932  23.742  24.041  1.00  0.00    -0.346 N 
ATOM     11  H   UNL A   1      30.184  23.260  23.618  1.00  0.00     0.163 HD
BRANCH  10  12
ATOM     12  C   UNL A   1      31.167  25.000  23.516  1.00  0.00     0.149 A 
ATOM     13  C   UNL A   1      31.004  27.313  23.785  1.00  0.00     0.234 A 
ATOM     14  C   UNL A   1      31.782  27.521  22.663  1.00  0.00     0.179 A 
ATOM     15  N   UNL A   1      30.722  26.057  24.256  1.00  0.00    -0.193 NA
ATOM     16  N   UNL A   1      32.146  26.515  21.863  1.00  0.00    -0.255 NA
ATOM     17  C   UNL A   1      31.790  25.280  22.299  1.00  0.00     0.158 A 
BRANCH  13  18
ATOM     18  O   UNL A   1      30.606  28.403  24.530  1.00  0.00    -0.477 OA
BRANCH  18  19
ATOM     19  C   UNL A   1      31.692  29.284  24.887  1.00  0.00     0.231 C 
BRANCH  19  20
ATOM     20  C   UNL A   1      32.568  28.825  26.070  1.00  0.00     0.038 C 
ATOM     21  C   UNL A   1      31.748  28.327  27.259  1.00  0.00     0.007 C 
ENDBRANCH  19  20
ENDBRANCH  18  19
ENDBRANCH  13  18
ENDBRANCH  10  12
ENDBRANCH   8  10
BRANCH   8  22
ATOM     22  C   UNL A   1      30.947  22.993  26.540  1.00  0.00     0.422 C 
ATOM     23  F   UNL A   1      30.543  24.247  26.861  1.00  0.00    -0.168 F 
ATOM     24  F   UNL A   1      29.848  22.195  26.543  1.00  0.00    -0.168 F 
ATOM     25  F   UNL A   1      31.707  22.545  27.557  1.00  0.00    -0.168 F 
ENDBRANCH   8  22
ENDBRANCH   6   8
ENDBRANCH   5   6
ENDBRANCH   4   5
ENDBRANCH   3   4
ENDBRANCH   2   3
ENDBRANCH   1   2
BRANCH   1  26
ATOM     26  C   UNL A   1      40.055  21.374  26.443  1.00  0.00     0.188 C 
BRANCH  26  27
ATOM     27  O   UNL A   1      40.699  20.115  26.409  1.00  0.00    -0.376 OA
BRANCH  27  28
ATOM     28  C   UNL A   1      42.064  20.114  26.781  1.00  0.00     0.202 C 
BRANCH  28  29
ATOM     29  C   UNL A   1      43.021  20.636  25.700  1.00  0.00     0.261 C 
BRANCH  29  30
ATOM     30  O   UNL A   1      42.953  22.050  25.434  1.00  0.00    -0.460 OA
BRANCH  30  31
ATOM     31  C   UNL A   1      43.975  22.811  25.895  1.00  0.00     0.338 C 
ATOM     32  O   UNL A   1      45.132  22.772  25.523  1.00  0.00    -0.246 OA
BRANCH  31  33
ATOM     33  C   UNL A   1      43.411  23.860  26.781  1.00  0.00     0.060 A 
ATOM     34  C   UNL A   1      43.515  25.204  26.392  1.00  0.00     0.016 A 
ATOM     35  C   UNL A   1      42.797  23.526  27.990  1.00  0.00     0.016 A 
ATOM     36  C   UNL A   1      43.055  26.218  27.236  1.00  0.00     0.010 A 
ATOM     37  C   UNL A   1      42.355  24.544  28.844  1.00  0.00     0.010 A 
ATOM     38  C   UNL A   1      42.523  25.896  28.492  1.00  0.00    -0.014 A 
BRANCH  38  39
ATOM     39  C   UNL A   1      42.361  26.964  29.514  1.00  0.00     0.031 A 
ATOM     40  C   UNL A   1      43.353  27.025  30.648  1.00  0.00     0.074 A 
ATOM     41  C   UNL A   1      41.380  27.882  29.440  1.00  0.00     0.049 A 
ATOM     42  N   UNL A   1      43.426  27.861  31.651  1.00  0.00    -0.248 NA
ATOM     43  C   UNL A   1      44.402  25.993  30.647  1.00  0.00     0.031 C 
ATOM     44  C   UNL A   1      40.367  27.954  28.392  1.00  0.00     0.029 A 
ATOM     45  N   UNL A   1      41.077  28.928  30.278  1.00  0.00    -0.354 N 
ATOM     46  C   UNL A   1      44.523  27.455  32.403  1.00  0.00     0.074 A 
ATOM     47  C   UNL A   1      45.058  26.273  31.761  1.00  0.00     0.031 C 
ATOM     48  C   UNL A   1      39.541  28.981  28.656  1.00  0.00     0.029 A 
ATOM     49  C   UNL A   1      39.956  29.628  29.903  1.00  0.00     0.049 A 
ATOM     50  H   UNL A   1      41.612  29.154  31.072  1.00  0.00     0.167 HD
ATOM     51  C   UNL A   1      45.047  28.017  33.519  1.00  0.00     0.037 A 
ATOM     52  C   UNL A   1      39.329  30.662  30.501  1.00  0.00     0.037 A 
ATOM     53  C   UNL A   1      44.506  29.183  34.169  1.00  0.00     0.049 A 
ATOM     54  C   UNL A   1      39.902  31.255  31.762  1.00  0.00     0.074 A 
ATOM     55  C   UNL A   1      44.974  29.837  35.295  1.00  0.00     0.029 A 
ATOM     56  N   UNL A   1      43.364  29.859  33.763  1.00  0.00    -0.354 N 
ATOM     57  N   UNL A   1      40.961  30.885  32.444  1.00  0.00    -0.248 NA
ATOM     58  C   UNL A   1      39.204  32.419  32.327  1.00  0.00     0.031 C 
ATOM     59  C   UNL A   1      44.086  30.876  35.600  1.00  0.00     0.029 A 
ATOM     60  C   UNL A   1      43.100  30.910  34.627  1.00  0.00     0.049 A 
ATOM     61  H   UNL A   1      42.822  29.627  32.975  1.00  0.00     0.167 HD
ATOM     62  C   UNL A   1      41.072  31.787  33.500  1.00  0.00     0.074 A 
ATOM     63  C   UNL A   1      39.977  32.725  33.359  1.00  0.00     0.031 C 
ATOM     64  C   UNL A   1      42.001  31.837  34.490  1.00  0.00     0.037 A 
BRANCH  51  65
ATOM     65  C   UNL A   1      46.249  27.339  34.122  1.00  0.00     0.058 A 
ATOM     66  C   UNL A   1      46.130  26.403  35.163  1.00  0.00     0.135 A 
ATOM     67  C   UNL A   1      47.542  27.655  33.676  1.00  0.00     0.135 A 
ATOM     68  F   UNL A   1      44.919  26.073  35.643  1.00  0.00    -0.206 F 
ATOM     69  C   UNL A   1      47.249  25.851  35.779  1.00  0.00     0.059 A 
ATOM     70  C   UNL A   1      48.675  27.091  34.254  1.00  0.00     0.059 A 
ATOM     71  F   UNL A   1      47.718  28.541  32.682  1.00  0.00    -0.206 F 
ATOM     72  C   UNL A   1      48.519  26.210  35.323  1.00  0.00     0.060 A 
BRANCH  72  73
ATOM     73  S   UNL A   1      49.963  25.530  36.166  1.00  0.00     0.124 S 
ATOM     74  O   UNL A   1      49.681  25.883  37.554  1.00  0.00    -0.237 OA
ATOM     75  O   UNL A   1      49.874  24.110  35.843  1.00  0.00    -0.237 OA
ATOM     76  O   UNL A   1      51.080  26.241  35.553  1.00  0.00    -0.744 OA
ENDBRANCH  72  73
ENDBRANCH  51  65
BRANCH  52  77
ATOM     77  C   UNL A   1      38.082  31.206  29.897  1.00  0.00     0.058 A 
ATOM     78  C   UNL A   1      36.838  30.595  30.112  1.00  0.00     0.135 A 
ATOM     79  C   UNL A   1      38.110  32.377  29.122  1.00  0.00     0.135 A 
ATOM     80  F   UNL A   1      36.761  29.464  30.829  1.00  0.00    -0.206 F 
ATOM     81  C   UNL A   1      35.664  31.130  29.589  1.00  0.00     0.059 A 
ATOM     82  C   UNL A   1      36.947  32.943  28.608  1.00  0.00     0.059 A 
ATOM     83  F   UNL A   1      39.276  32.999  28.888  1.00  0.00    -0.206 F 
ATOM     84  C   UNL A   1      35.729  32.312  28.848  1.00  0.00     0.060 A 
BRANCH  84  85
ATOM     85  S   UNL A   1      34.188  33.049  28.259  1.00  0.00     0.124 S 
ATOM     86  O   UNL A   1      33.602  31.947  27.505  1.00  0.00    -0.237 OA
ATOM     87  O   UNL A   1      33.518  33.395  29.508  1.00  0.00    -0.237 OA
ATOM     88  O   UNL A   1      34.642  34.187  27.464  1.00  0.00    -0.744 OA
ENDBRANCH  84  85
ENDBRANCH  52  77
BRANCH  64  89
ATOM     89  C   UNL A   1      41.900  32.968  35.481  1.00  0.00     0.058 A 
ATOM     90  C   UNL A   1      41.198  32.842  36.691  1.00  0.00     0.135 A 
ATOM     91  C   UNL A   1      42.535  34.195  35.223  1.00  0.00     0.135 A 
ATOM     92  F   UNL A   1      40.573  31.693  36.993  1.00  0.00    -0.206 F 
ATOM     93  C   UNL A   1      41.090  33.904  37.585  1.00  0.00     0.059 A 
ATOM     94  C   UNL A   1      42.467  35.260  36.118  1.00  0.00     0.059 A 
ATOM     95  F   UNL A   1      43.237  34.369  34.092  1.00  0.00    -0.206 F 
ATOM     96  C   UNL A   1      41.722  35.112  37.287  1.00  0.00     0.060 A 
BRANCH  96  97
ATOM     97  S   UNL A   1      41.565  36.488  38.446  1.00  0.00     0.124 S 
ATOM     98  O   UNL A   1      42.651  37.362  38.014  1.00  0.00    -0.237 OA
ATOM     99  O   UNL A   1      40.214  36.973  38.175  1.00  0.00    -0.237 OA
ATOM    100  O   UNL A   1      41.747  35.857  39.750  1.00  0.00    -0.744 OA
ENDBRANCH  96  97
ENDBRANCH  64  89
ENDBRANCH  38  39
ENDBRANCH  31  33
ENDBRANCH  30  31
ENDBRANCH  29  30
ENDBRANCH  28  29
ENDBRANCH  27  28
ENDBRANCH  26  27
ENDBRANCH   1  26
TORSDOF 26
ENDMDL
