MODEL 1
REMARK VINA RESULT:      -8.4      0.000      0.000
REMARK SMILES C[C@H]1[C@H](C)CC[C@@]2(C(=O)OCCOCCOCCOC(=O)c3ccc(-c4c5nc(c(-c6c(F)cc(S(=O)(=O)[O-])cc6F)c6ccc([nH]6)c(-c6c(F)cc(S(=O)(=O)[O-])cc6F)c6nc(c(-c7c(F)cc(S(=O)(=O)[O-])cc7F)c7ccc4[nH]7)C=C6)C=C5)cc3)CC[C@@]3(C)C(=CC[C@@H]4[C@@]5(C)CC[C@H](O)C(C)(C)[C@@H]5CC[C@]43C)[C@H]12
REMARK SMILES IDX 15 1 14 2 13 3 12 4 11 5 10 6 8 7 9 8 7 9 1 10 2 11 3 12
REMARK SMILES IDX 110 13 4 14 5 15 92 16 6 17 88 18 90 19 93 20 89 21 91 22
REMARK SMILES IDX 108 23 94 24 95 25 107 26 109 27 96 28 106 29 97 30 98 31
REMARK SMILES IDX 105 32 99 33 102 34 100 35 103 36 104 37 101 38 16 40 17 41
REMARK SMILES IDX 18 42 19 43 20 44 21 45 22 46 23 47 87 48 24 49 86 50 25 51
REMARK SMILES IDX 26 52 27 53 80 54 28 55 85 56 79 57 81 58 29 59 84 60 78 61
REMARK SMILES IDX 77 62 30 64 64 65 43 66 63 67 44 68 47 69 62 70 82 71 45 72
REMARK SMILES IDX 46 73 61 75 83 76 48 77 31 78 32 79 41 80 33 81 34 82 40 83
REMARK SMILES IDX 42 84 35 85 36 86 37 87 38 88 39 89 65 90 66 91 75 92 67 93
REMARK SMILES IDX 68 94 74 95 76 96 69 97 70 98 71 99 72 100 73 101 49 102
REMARK SMILES IDX 50 103 59 104 51 105 52 106 58 107 60 108 53 109 54 110
REMARK SMILES IDX 55 111 56 112 57 113
REMARK H PARENT 101 39 81 63 47 74
REMARK Flexibility Score: inf
ROOT
ATOM      1  C   UNL A   1      35.207  34.511  34.393  1.00  0.00     0.188 C 
ENDROOT
BRANCH   1   2
ATOM      2  C   UNL A   1      36.534  33.803  34.830  1.00  0.00     0.188 C 
BRANCH   2   3
ATOM      3  O   UNL A   1      36.549  33.445  36.194  1.00  0.00    -0.376 OA
BRANCH   3   4
ATOM      4  C   UNL A   1      37.439  32.390  36.461  1.00  0.00     0.202 C 
BRANCH   4   5
ATOM      5  C   UNL A   1      38.612  32.194  35.502  1.00  0.00     0.261 C 
BRANCH   5   6
ATOM      6  O   UNL A   1      40.010  32.677  35.757  1.00  0.00    -0.463 OA
BRANCH   6   7
ATOM      7  C   UNL A   1      40.915  33.484  36.368  1.00  0.00     0.312 C 
ATOM      8  O   UNL A   1      41.620  33.228  37.336  1.00  0.00    -0.252 OA
BRANCH   7   9
ATOM      9  C   UNL A   1      41.071  34.824  35.608  1.00  0.00     0.075 C 
ATOM     10  C   UNL A   1      43.780  36.701  37.837  1.00  0.00     0.008 C 
ATOM     11  C   UNL A   1      42.473  36.032  37.410  1.00  0.00    -0.003 C 
ATOM     12  C   UNL A   1      41.212  36.887  37.791  1.00  0.00    -0.011 C 
ATOM     13  C   UNL A   1      42.476  35.428  35.908  1.00  0.00     0.036 C 
ATOM     14  C   UNL A   1      41.094  37.153  39.308  1.00  0.00     0.008 C 
ATOM     15  C   UNL A   1      39.889  36.221  37.400  1.00  0.00     0.005 C 
ATOM     16  C   UNL A   1      43.461  34.257  35.438  1.00  0.00    -0.063 C 
ATOM     17  C   UNL A   1      39.879  35.726  35.979  1.00  0.00     0.020 C 
ATOM     18  C   UNL A   1      40.921  34.590  34.086  1.00  0.00     0.020 C 
ATOM     19  C   UNL A   1      43.357  33.721  33.944  1.00  0.00    -0.006 C 
ATOM     20  C   UNL A   1      44.155  33.534  36.340  1.00  0.00    -0.027 C 
ATOM     21  C   UNL A   1      41.869  33.542  33.531  1.00  0.00     0.013 C 
ATOM     22  C   UNL A   1      43.942  34.820  33.025  1.00  0.00     0.017 C 
ATOM     23  C   UNL A   1      44.162  32.282  33.719  1.00  0.00    -0.020 C 
ATOM     24  C   UNL A   1      44.528  32.083  36.145  1.00  0.00     0.032 C 
ATOM     25  C   UNL A   1      43.814  31.385  34.959  1.00  0.00     0.006 C 
ATOM     26  C   UNL A   1      43.777  31.524  32.431  1.00  0.00     0.008 C 
ATOM     27  C   UNL A   1      45.691  32.546  33.589  1.00  0.00     0.012 C 
ATOM     28  C   UNL A   1      44.002  29.777  34.881  1.00  0.00    -0.025 C 
ATOM     29  C   UNL A   1      44.350  30.092  32.351  1.00  0.00     0.005 C 
ATOM     30  C   UNL A   1      45.372  29.407  35.477  1.00  0.00     0.012 C 
ATOM     31  C   UNL A   1      42.913  29.054  35.754  1.00  0.00     0.010 C 
ATOM     32  C   UNL A   1      43.736  29.205  33.439  1.00  0.00     0.003 C 
ATOM     33  C   UNL A   1      42.964  27.516  35.700  1.00  0.00     0.033 C 
ATOM     34  C   UNL A   1      43.946  27.634  33.285  1.00  0.00    -0.006 C 
ATOM     35  C   UNL A   1      42.985  26.924  34.288  1.00  0.00     0.120 C 
ATOM     36  C   UNL A   1      45.416  27.164  33.406  1.00  0.00     0.014 C 
ATOM     37  C   UNL A   1      43.527  27.152  31.875  1.00  0.00     0.014 C 
BRANCH  35  38
ATOM     38  O   UNL A   1      43.236  25.519  34.387  1.00  0.00    -0.393 OA
ATOM     39  H   UNL A   1      42.956  25.083  33.568  1.00  0.00     0.210 HD
ENDBRANCH  35  38
ENDBRANCH   7   9
ENDBRANCH   6   7
ENDBRANCH   5   6
ENDBRANCH   4   5
ENDBRANCH   3   4
ENDBRANCH   2   3
ENDBRANCH   1   2
BRANCH   1  40
ATOM     40  O   UNL A   1      34.497  34.019  33.266  1.00  0.00    -0.376 OA
BRANCH  40  41
ATOM     41  C   UNL A   1      35.073  34.245  32.000  1.00  0.00     0.202 C 
BRANCH  41  42
ATOM     42  C   UNL A   1      35.657  33.030  31.248  1.00  0.00     0.261 C 
BRANCH  42  43
ATOM     43  O   UNL A   1      37.057  32.698  31.469  1.00  0.00    -0.460 OA
BRANCH  43  44
ATOM     44  C   UNL A   1      37.349  31.480  32.026  1.00  0.00     0.338 C 
ATOM     45  O   UNL A   1      36.698  30.942  32.899  1.00  0.00    -0.246 OA
BRANCH  44  46
ATOM     46  C   UNL A   1      38.464  30.760  31.303  1.00  0.00     0.060 A 
ATOM     47  C   UNL A   1      39.599  30.336  32.023  1.00  0.00     0.016 A 
ATOM     48  C   UNL A   1      38.453  30.560  29.923  1.00  0.00     0.016 A 
ATOM     49  C   UNL A   1      40.729  29.787  31.375  1.00  0.00     0.010 A 
ATOM     50  C   UNL A   1      39.596  30.033  29.273  1.00  0.00     0.010 A 
ATOM     51  C   UNL A   1      40.769  29.679  29.981  1.00  0.00    -0.014 A 
BRANCH  51  52
ATOM     52  C   UNL A   1      42.052  29.422  29.229  1.00  0.00     0.031 A 
ATOM     53  C   UNL A   1      42.331  28.016  28.748  1.00  0.00     0.074 A 
ATOM     54  C   UNL A   1      42.974  30.362  28.918  1.00  0.00     0.049 A 
ATOM     55  N   UNL A   1      43.427  27.510  28.241  1.00  0.00    -0.248 NA
ATOM     56  C   UNL A   1      41.210  27.067  28.823  1.00  0.00     0.031 C 
ATOM     57  C   UNL A   1      42.818  31.794  29.116  1.00  0.00     0.029 A 
ATOM     58  N   UNL A   1      44.247  30.249  28.384  1.00  0.00    -0.354 N 
ATOM     59  C   UNL A   1      43.128  26.190  27.925  1.00  0.00     0.074 A 
ATOM     60  C   UNL A   1      41.759  25.961  28.341  1.00  0.00     0.031 C 
ATOM     61  C   UNL A   1      43.968  32.415  28.790  1.00  0.00     0.029 A 
ATOM     62  C   UNL A   1      44.964  31.429  28.396  1.00  0.00     0.049 A 
ATOM     63  H   UNL A   1      44.607  29.405  28.027  1.00  0.00     0.167 HD
ATOM     64  C   UNL A   1      43.907  25.259  27.324  1.00  0.00     0.037 A 
ATOM     65  C   UNL A   1      46.272  31.697  28.174  1.00  0.00     0.037 A 
ATOM     66  C   UNL A   1      45.269  25.470  26.901  1.00  0.00     0.049 A 
ATOM     67  C   UNL A   1      47.193  30.593  27.741  1.00  0.00     0.074 A 
ATOM     68  C   UNL A   1      46.119  24.577  26.269  1.00  0.00     0.029 A 
ATOM     69  N   UNL A   1      45.988  26.643  27.070  1.00  0.00    -0.354 N 
ATOM     70  N   UNL A   1      46.907  29.343  27.485  1.00  0.00    -0.248 NA
ATOM     71  C   UNL A   1      48.609  30.942  27.544  1.00  0.00     0.031 C 
ATOM     72  C   UNL A   1      47.368  25.186  26.116  1.00  0.00     0.029 A 
ATOM     73  C   UNL A   1      47.281  26.481  26.594  1.00  0.00     0.049 A 
ATOM     74  H   UNL A   1      45.632  27.470  27.470  1.00  0.00     0.167 HD
ATOM     75  C   UNL A   1      48.093  28.767  27.049  1.00  0.00     0.074 A 
ATOM     76  C   UNL A   1      49.105  29.800  27.088  1.00  0.00     0.031 C 
ATOM     77  C   UNL A   1      48.303  27.497  26.628  1.00  0.00     0.037 A 
BRANCH  64  78
ATOM     78  C   UNL A   1      43.311  23.898  27.097  1.00  0.00     0.058 A 
ATOM     79  C   UNL A   1      42.902  23.474  25.823  1.00  0.00     0.135 A 
ATOM     80  C   UNL A   1      43.208  22.983  28.157  1.00  0.00     0.135 A 
ATOM     81  F   UNL A   1      42.963  24.313  24.778  1.00  0.00    -0.206 F 
ATOM     82  C   UNL A   1      42.398  22.194  25.612  1.00  0.00     0.059 A 
ATOM     83  C   UNL A   1      42.734  21.690  27.964  1.00  0.00     0.059 A 
ATOM     84  F   UNL A   1      43.586  23.339  29.396  1.00  0.00    -0.206 F 
ATOM     85  C   UNL A   1      42.323  21.308  26.688  1.00  0.00     0.060 A 
BRANCH  85  86
ATOM     86  S   UNL A   1      41.694  19.643  26.389  1.00  0.00     0.124 S 
ATOM     87  O   UNL A   1      40.265  19.894  26.230  1.00  0.00    -0.237 OA
ATOM     88  O   UNL A   1      42.408  19.254  25.177  1.00  0.00    -0.237 OA
ATOM     89  O   UNL A   1      42.071  18.913  27.596  1.00  0.00    -0.744 OA
ENDBRANCH  85  86
ENDBRANCH  64  78
BRANCH  65  90
ATOM     90  C   UNL A   1      46.849  33.045  28.461  1.00  0.00     0.058 A 
ATOM     91  C   UNL A   1      47.061  34.018  27.477  1.00  0.00     0.135 A 
ATOM     92  C   UNL A   1      47.305  33.336  29.753  1.00  0.00     0.135 A 
ATOM     93  F   UNL A   1      46.737  33.760  26.202  1.00  0.00    -0.206 F 
ATOM     94  C   UNL A   1      47.662  35.242  27.778  1.00  0.00     0.059 A 
ATOM     95  C   UNL A   1      47.859  34.565  30.095  1.00  0.00     0.059 A 
ATOM     96  F   UNL A   1      47.263  32.382  30.689  1.00  0.00    -0.206 F 
ATOM     97  C   UNL A   1      48.041  35.515  29.095  1.00  0.00     0.060 A 
BRANCH  97  98
ATOM     98  S   UNL A   1      48.759  37.123  29.499  1.00  0.00     0.124 S 
ATOM     99  O   UNL A   1      49.271  36.891  30.844  1.00  0.00    -0.237 OA
ATOM    100  O   UNL A   1      49.764  37.285  28.452  1.00  0.00    -0.237 OA
ATOM    101  O   UNL A   1      47.619  38.031  29.403  1.00  0.00    -0.744 OA
ENDBRANCH  97  98
ENDBRANCH  65  90
BRANCH  77 102
ATOM    102  C   UNL A   1      49.673  27.154  26.113  1.00  0.00     0.058 A 
ATOM    103  C   UNL A   1      50.680  26.649  26.951  1.00  0.00     0.135 A 
ATOM    104  C   UNL A   1      49.975  27.309  24.750  1.00  0.00     0.135 A 
ATOM    105  F   UNL A   1      50.451  26.497  28.265  1.00  0.00    -0.206 F 
ATOM    106  C   UNL A   1      51.943  26.330  26.460  1.00  0.00     0.059 A 
ATOM    107  C   UNL A   1      51.220  26.968  24.232  1.00  0.00     0.059 A 
ATOM    108  F   UNL A   1      49.050  27.788  23.902  1.00  0.00    -0.206 F 
ATOM    109  C   UNL A   1      52.202  26.489  25.098  1.00  0.00     0.060 A 
BRANCH 109 110
ATOM    110  S   UNL A   1      53.833  26.039  24.469  1.00  0.00     0.124 S 
ATOM    111  O   UNL A   1      54.203  24.947  25.363  1.00  0.00    -0.237 OA
ATOM    112  O   UNL A   1      53.541  25.659  23.090  1.00  0.00    -0.237 OA
ATOM    113  O   UNL A   1      54.608  27.266  24.623  1.00  0.00    -0.744 OA
ENDBRANCH 109 110
ENDBRANCH  77 102
ENDBRANCH  51  52
ENDBRANCH  44  46
ENDBRANCH  43  44
ENDBRANCH  42  43
ENDBRANCH  41  42
ENDBRANCH  40  41
ENDBRANCH   1  40
TORSDOF 21
ENDMDL
MODEL 2
REMARK VINA RESULT:      -8.2      3.975     12.032
REMARK SMILES C[C@H]1[C@H](C)CC[C@@]2(C(=O)OCCOCCOCCOC(=O)c3ccc(-c4c5nc(c(-c6c(F)cc(S(=O)(=O)[O-])cc6F)c6ccc([nH]6)c(-c6c(F)cc(S(=O)(=O)[O-])cc6F)c6nc(c(-c7c(F)cc(S(=O)(=O)[O-])cc7F)c7ccc4[nH]7)C=C6)C=C5)cc3)CC[C@@]3(C)C(=CC[C@@H]4[C@@]5(C)CC[C@H](O)C(C)(C)[C@@H]5CC[C@]43C)[C@H]12
REMARK SMILES IDX 15 1 14 2 13 3 12 4 11 5 10 6 8 7 9 8 7 9 1 10 2 11 3 12
REMARK SMILES IDX 110 13 4 14 5 15 92 16 6 17 88 18 90 19 93 20 89 21 91 22
REMARK SMILES IDX 108 23 94 24 95 25 107 26 109 27 96 28 106 29 97 30 98 31
REMARK SMILES IDX 105 32 99 33 102 34 100 35 103 36 104 37 101 38 16 40 17 41
REMARK SMILES IDX 18 42 19 43 20 44 21 45 22 46 23 47 87 48 24 49 86 50 25 51
REMARK SMILES IDX 26 52 27 53 80 54 28 55 85 56 79 57 81 58 29 59 84 60 78 61
REMARK SMILES IDX 77 62 30 64 64 65 43 66 63 67 44 68 47 69 62 70 82 71 45 72
REMARK SMILES IDX 46 73 61 75 83 76 48 77 31 78 32 79 41 80 33 81 34 82 40 83
REMARK SMILES IDX 42 84 35 85 36 86 37 87 38 88 39 89 65 90 66 91 75 92 67 93
REMARK SMILES IDX 68 94 74 95 76 96 69 97 70 98 71 99 72 100 73 101 49 102
REMARK SMILES IDX 50 103 59 104 51 105 52 106 58 107 60 108 53 109 54 110
REMARK SMILES IDX 55 111 56 112 57 113
REMARK H PARENT 101 39 81 63 47 74
REMARK Flexibility Score: inf
ROOT
ATOM      1  C   UNL A   1      46.130  24.449  25.048  1.00  0.00     0.188 C 
ENDROOT
BRANCH   1   2
ATOM      2  C   UNL A   1      45.499  25.136  26.306  1.00  0.00     0.188 C 
BRANCH   2   3
ATOM      3  O   UNL A   1      46.130  26.350  26.649  1.00  0.00    -0.376 OA
BRANCH   3   4
ATOM      4  C   UNL A   1      46.875  26.886  25.582  1.00  0.00     0.202 C 
BRANCH   4   5
ATOM      5  C   UNL A   1      48.365  27.132  25.812  1.00  0.00     0.261 C 
BRANCH   5   6
ATOM      6  O   UNL A   1      48.967  27.547  27.122  1.00  0.00    -0.463 OA
BRANCH   6   7
ATOM      7  C   UNL A   1      49.060  27.501  28.476  1.00  0.00     0.312 C 
ATOM      8  O   UNL A   1      48.160  27.321  29.287  1.00  0.00    -0.252 OA
BRANCH   7   9
ATOM      9  C   UNL A   1      50.535  27.593  28.939  1.00  0.00     0.075 C 
ATOM     10  C   UNL A   1      52.360  28.734  25.593  1.00  0.00     0.008 C 
ATOM     11  C   UNL A   1      51.573  27.886  26.592  1.00  0.00    -0.003 C 
ATOM     12  C   UNL A   1      52.091  26.405  26.658  1.00  0.00    -0.011 C 
ATOM     13  C   UNL A   1      51.303  28.593  28.023  1.00  0.00     0.036 C 
ATOM     14  C   UNL A   1      52.012  25.672  25.301  1.00  0.00     0.008 C 
ATOM     15  C   UNL A   1      51.297  25.528  27.631  1.00  0.00     0.005 C 
ATOM     16  C   UNL A   1      50.450  29.936  28.188  1.00  0.00    -0.063 C 
ATOM     17  C   UNL A   1      51.114  26.167  28.981  1.00  0.00     0.020 C 
ATOM     18  C   UNL A   1      50.599  28.081  30.407  1.00  0.00     0.020 C 
ATOM     19  C   UNL A   1      50.225  30.528  29.647  1.00  0.00    -0.006 C 
ATOM     20  C   UNL A   1      49.690  30.401  27.175  1.00  0.00    -0.027 C 
ATOM     21  C   UNL A   1      49.874  29.392  30.649  1.00  0.00     0.013 C 
ATOM     22  C   UNL A   1      51.576  31.124  30.109  1.00  0.00     0.017 C 
ATOM     23  C   UNL A   1      49.030  31.686  29.696  1.00  0.00    -0.020 C 
ATOM     24  C   UNL A   1      48.401  31.164  27.374  1.00  0.00     0.032 C 
ATOM     25  C   UNL A   1      47.848  31.135  28.822  1.00  0.00     0.006 C 
ATOM     26  C   UNL A   1      48.499  32.003  31.110  1.00  0.00     0.008 C 
ATOM     27  C   UNL A   1      49.583  33.038  29.159  1.00  0.00     0.012 C 
ATOM     28  C   UNL A   1      46.351  31.726  29.009  1.00  0.00    -0.025 C 
ATOM     29  C   UNL A   1      47.240  32.898  31.121  1.00  0.00     0.005 C 
ATOM     30  C   UNL A   1      46.115  32.824  27.956  1.00  0.00     0.012 C 
ATOM     31  C   UNL A   1      45.281  30.604  28.749  1.00  0.00     0.010 C 
ATOM     32  C   UNL A   1      46.052  32.162  30.492  1.00  0.00     0.003 C 
ATOM     33  C   UNL A   1      43.822  31.048  28.962  1.00  0.00     0.033 C 
ATOM     34  C   UNL A   1      44.610  32.793  30.735  1.00  0.00    -0.006 C 
ATOM     35  C   UNL A   1      43.549  31.735  30.302  1.00  0.00     0.120 C 
ATOM     36  C   UNL A   1      44.394  34.181  30.083  1.00  0.00     0.014 C 
ATOM     37  C   UNL A   1      44.364  33.059  32.240  1.00  0.00     0.014 C 
BRANCH  35  38
ATOM     38  O   UNL A   1      42.221  32.267  30.279  1.00  0.00    -0.393 OA
ATOM     39  H   UNL A   1      41.601  31.604  30.619  1.00  0.00     0.210 HD
ENDBRANCH  35  38
ENDBRANCH   7   9
ENDBRANCH   6   7
ENDBRANCH   5   6
ENDBRANCH   4   5
ENDBRANCH   3   4
ENDBRANCH   2   3
ENDBRANCH   1   2
BRANCH   1  40
ATOM     40  O   UNL A   1      45.309  23.647  24.211  1.00  0.00    -0.376 OA
BRANCH  40  41
ATOM     41  C   UNL A   1      45.022  22.343  24.661  1.00  0.00     0.202 C 
BRANCH  41  42
ATOM     42  C   UNL A   1      43.624  22.080  25.260  1.00  0.00     0.261 C 
BRANCH  42  43
ATOM     43  O   UNL A   1      42.605  23.107  25.095  1.00  0.00    -0.460 OA
BRANCH  43  44
ATOM     44  C   UNL A   1      41.480  23.027  25.875  1.00  0.00     0.338 C 
ATOM     45  O   UNL A   1      40.856  22.008  26.093  1.00  0.00    -0.246 OA
BRANCH  44  46
ATOM     46  C   UNL A   1      41.193  24.312  26.617  1.00  0.00     0.060 A 
ATOM     47  C   UNL A   1      41.852  25.498  26.234  1.00  0.00     0.016 A 
ATOM     48  C   UNL A   1      40.351  24.362  27.727  1.00  0.00     0.016 A 
ATOM     49  C   UNL A   1      41.730  26.692  26.981  1.00  0.00     0.010 A 
ATOM     50  C   UNL A   1      40.250  25.553  28.488  1.00  0.00     0.010 A 
ATOM     51  C   UNL A   1      40.970  26.724  28.155  1.00  0.00    -0.014 A 
BRANCH  51  52
ATOM     52  C   UNL A   1      41.075  27.852  29.153  1.00  0.00     0.031 A 
ATOM     53  C   UNL A   1      42.156  27.776  30.208  1.00  0.00     0.074 A 
ATOM     54  C   UNL A   1      40.294  28.956  29.166  1.00  0.00     0.049 A 
ATOM     55  N   UNL A   1      42.339  28.520  31.269  1.00  0.00    -0.248 NA
ATOM     56  C   UNL A   1      43.181  26.739  30.016  1.00  0.00     0.031 C 
ATOM     57  C   UNL A   1      39.328  29.317  28.140  1.00  0.00     0.029 A 
ATOM     58  N   UNL A   1      40.172  29.976  30.096  1.00  0.00    -0.354 N 
ATOM     59  C   UNL A   1      43.503  28.053  31.867  1.00  0.00     0.074 A 
ATOM     60  C   UNL A   1      43.959  26.929  31.073  1.00  0.00     0.031 C 
ATOM     61  C   UNL A   1      38.661  30.421  28.529  1.00  0.00     0.029 A 
ATOM     62  C   UNL A   1      39.115  30.830  29.850  1.00  0.00     0.049 A 
ATOM     63  H   UNL A   1      40.782  30.082  30.860  1.00  0.00     0.167 HD
ATOM     64  C   UNL A   1      44.150  28.525  32.959  1.00  0.00     0.037 A 
ATOM     65  C   UNL A   1      38.536  31.794  30.603  1.00  0.00     0.037 A 
ATOM     66  C   UNL A   1      43.713  29.642  33.759  1.00  0.00     0.049 A 
ATOM     67  C   UNL A   1      39.121  32.144  31.941  1.00  0.00     0.074 A 
ATOM     68  C   UNL A   1      44.327  30.190  34.874  1.00  0.00     0.029 A 
ATOM     69  N   UNL A   1      42.559  30.378  33.544  1.00  0.00    -0.354 N 
ATOM     70  N   UNL A   1      40.197  31.667  32.512  1.00  0.00    -0.248 NA
ATOM     71  C   UNL A   1      38.429  33.178  32.725  1.00  0.00     0.031 C 
ATOM     72  C   UNL A   1      43.512  31.211  35.371  1.00  0.00     0.029 A 
ATOM     73  C   UNL A   1      42.421  31.345  34.530  1.00  0.00     0.049 A 
ATOM     74  H   UNL A   1      41.929  30.236  32.801  1.00  0.00     0.167 HD
ATOM     75  C   UNL A   1      40.341  32.377  33.697  1.00  0.00     0.074 A 
ATOM     76  C   UNL A   1      39.234  33.307  33.770  1.00  0.00     0.031 C 
ATOM     77  C   UNL A   1      41.325  32.276  34.621  1.00  0.00     0.037 A 
BRANCH  64  78
ATOM     78  C   UNL A   1      45.409  27.818  33.380  1.00  0.00     0.058 A 
ATOM     79  C   UNL A   1      45.393  26.787  34.333  1.00  0.00     0.135 A 
ATOM     80  C   UNL A   1      46.635  28.131  32.772  1.00  0.00     0.135 A 
ATOM     81  F   UNL A   1      44.251  26.458  34.956  1.00  0.00    -0.206 F 
ATOM     82  C   UNL A   1      46.554  26.103  34.680  1.00  0.00     0.059 A 
ATOM     83  C   UNL A   1      47.802  27.441  33.083  1.00  0.00     0.059 A 
ATOM     84  F   UNL A   1      46.704  29.108  31.854  1.00  0.00    -0.206 F 
ATOM     85  C   UNL A   1      47.752  26.434  34.046  1.00  0.00     0.060 A 
BRANCH  85  86
ATOM     86  S   UNL A   1      49.242  25.516  34.487  1.00  0.00     0.124 S 
ATOM     87  O   UNL A   1      49.426  24.673  33.309  1.00  0.00    -0.237 OA
ATOM     88  O   UNL A   1      50.224  26.582  34.662  1.00  0.00    -0.237 OA
ATOM     89  O   UNL A   1      48.861  24.812  35.708  1.00  0.00    -0.744 OA
ENDBRANCH  85  86
ENDBRANCH  64  78
BRANCH  65  90
ATOM     90  C   UNL A   1      37.254  32.440  30.188  1.00  0.00     0.058 A 
ATOM     91  C   UNL A   1      35.992  31.946  30.538  1.00  0.00     0.135 A 
ATOM     92  C   UNL A   1      37.290  33.539  29.318  1.00  0.00     0.135 A 
ATOM     93  F   UNL A   1      35.893  30.838  31.286  1.00  0.00    -0.206 F 
ATOM     94  C   UNL A   1      34.819  32.545  30.076  1.00  0.00     0.059 A 
ATOM     95  C   UNL A   1      36.139  34.189  28.883  1.00  0.00     0.059 A 
ATOM     96  F   UNL A   1      38.467  33.950  28.836  1.00  0.00    -0.206 F 
ATOM     97  C   UNL A   1      34.902  33.679  29.262  1.00  0.00     0.060 A 
BRANCH  97  98
ATOM     98  S   UNL A   1      33.385  34.494  28.716  1.00  0.00     0.124 S 
ATOM     99  O   UNL A   1      32.843  33.517  27.779  1.00  0.00    -0.237 OA
ATOM    100  O   UNL A   1      32.651  34.654  29.968  1.00  0.00    -0.237 OA
ATOM    101  O   UNL A   1      33.869  35.737  28.123  1.00  0.00    -0.744 OA
ENDBRANCH  97  98
ENDBRANCH  65  90
BRANCH  77 102
ATOM    102  C   UNL A   1      41.295  33.238  35.776  1.00  0.00     0.058 A 
ATOM    103  C   UNL A   1      40.576  32.968  36.951  1.00  0.00     0.135 A 
ATOM    104  C   UNL A   1      42.020  34.440  35.715  1.00  0.00     0.135 A 
ATOM    105  F   UNL A   1      39.852  31.843  37.057  1.00  0.00    -0.206 F 
ATOM    106  C   UNL A   1      40.561  33.865  38.016  1.00  0.00     0.059 A 
ATOM    107  C   UNL A   1      42.043  35.336  36.779  1.00  0.00     0.059 A 
ATOM    108  F   UNL A   1      42.724  34.749  34.616  1.00  0.00    -0.206 F 
ATOM    109  C   UNL A   1      41.301  35.044  37.923  1.00  0.00     0.060 A 
BRANCH 109 110
ATOM    110  S   UNL A   1      41.299  36.182  39.324  1.00  0.00     0.124 S 
ATOM    111  O   UNL A   1      40.563  35.415  40.325  1.00  0.00    -0.237 OA
ATOM    112  O   UNL A   1      42.724  36.358  39.583  1.00  0.00    -0.237 OA
ATOM    113  O   UNL A   1      40.611  37.360  38.806  1.00  0.00    -0.744 OA
ENDBRANCH 109 110
ENDBRANCH  77 102
ENDBRANCH  51  52
ENDBRANCH  44  46
ENDBRANCH  43  44
ENDBRANCH  42  43
ENDBRANCH  41  42
ENDBRANCH  40  41
ENDBRANCH   1  40
TORSDOF 21
ENDMDL
MODEL 3
REMARK VINA RESULT:      -8.1      1.446      4.657
REMARK SMILES C[C@H]1[C@H](C)CC[C@@]2(C(=O)OCCOCCOCCOC(=O)c3ccc(-c4c5nc(c(-c6c(F)cc(S(=O)(=O)[O-])cc6F)c6ccc([nH]6)c(-c6c(F)cc(S(=O)(=O)[O-])cc6F)c6nc(c(-c7c(F)cc(S(=O)(=O)[O-])cc7F)c7ccc4[nH]7)C=C6)C=C5)cc3)CC[C@@]3(C)C(=CC[C@@H]4[C@@]5(C)CC[C@H](O)C(C)(C)[C@@H]5CC[C@]43C)[C@H]12
REMARK SMILES IDX 15 1 14 2 13 3 12 4 11 5 10 6 8 7 9 8 7 9 1 10 2 11 3 12
REMARK SMILES IDX 110 13 4 14 5 15 92 16 6 17 88 18 90 19 93 20 89 21 91 22
REMARK SMILES IDX 108 23 94 24 95 25 107 26 109 27 96 28 106 29 97 30 98 31
REMARK SMILES IDX 105 32 99 33 102 34 100 35 103 36 104 37 101 38 16 40 17 41
REMARK SMILES IDX 18 42 19 43 20 44 21 45 22 46 23 47 87 48 24 49 86 50 25 51
REMARK SMILES IDX 26 52 27 53 80 54 28 55 85 56 79 57 81 58 29 59 84 60 78 61
REMARK SMILES IDX 77 62 30 64 64 65 43 66 63 67 44 68 47 69 62 70 82 71 45 72
REMARK SMILES IDX 46 73 61 75 83 76 48 77 31 78 32 79 41 80 33 81 34 82 40 83
REMARK SMILES IDX 42 84 35 85 36 86 37 87 38 88 39 89 65 90 66 91 75 92 67 93
REMARK SMILES IDX 68 94 74 95 76 96 69 97 70 98 71 99 72 100 73 101 49 102
REMARK SMILES IDX 50 103 59 104 51 105 52 106 58 107 60 108 53 109 54 110
REMARK SMILES IDX 55 111 56 112 57 113
REMARK H PARENT 101 39 81 63 47 74
REMARK Flexibility Score: inf
ROOT
ATOM      1  C   UNL A   1      39.289  32.729  35.043  1.00  0.00     0.188 C 
ENDROOT
BRANCH   1   2
ATOM      2  C   UNL A   1      38.572  31.859  36.130  1.00  0.00     0.188 C 
BRANCH   2   3
ATOM      3  O   UNL A   1      39.353  30.773  36.576  1.00  0.00    -0.376 OA
BRANCH   3   4
ATOM      4  C   UNL A   1      39.975  30.090  35.514  1.00  0.00     0.202 C 
BRANCH   4   5
ATOM      5  C   UNL A   1      41.434  29.676  35.697  1.00  0.00     0.261 C 
BRANCH   5   6
ATOM      6  O   UNL A   1      41.955  28.283  35.501  1.00  0.00    -0.463 OA
BRANCH   6   7
ATOM      7  C   UNL A   1      42.691  27.352  34.841  1.00  0.00     0.312 C 
ATOM      8  O   UNL A   1      42.761  27.165  33.633  1.00  0.00    -0.252 OA
BRANCH   7   9
ATOM      9  C   UNL A   1      43.589  26.554  35.818  1.00  0.00     0.075 C 
ATOM     10  C   UNL A   1      46.062  24.705  33.308  1.00  0.00     0.008 C 
ATOM     11  C   UNL A   1      44.780  25.118  34.031  1.00  0.00    -0.003 C 
ATOM     12  C   UNL A   1      43.923  23.881  34.483  1.00  0.00    -0.011 C 
ATOM     13  C   UNL A   1      44.968  26.278  35.145  1.00  0.00     0.036 C 
ATOM     14  C   UNL A   1      43.493  22.977  33.307  1.00  0.00     0.008 C 
ATOM     15  C   UNL A   1      42.617  24.272  35.182  1.00  0.00     0.005 C 
ATOM     16  C   UNL A   1      45.481  27.752  34.794  1.00  0.00    -0.063 C 
ATOM     17  C   UNL A   1      42.816  25.300  36.263  1.00  0.00     0.020 C 
ATOM     18  C   UNL A   1      43.802  27.362  37.121  1.00  0.00     0.020 C 
ATOM     19  C   UNL A   1      45.602  28.821  35.965  1.00  0.00    -0.006 C 
ATOM     20  C   UNL A   1      45.529  28.181  33.516  1.00  0.00    -0.027 C 
ATOM     21  C   UNL A   1      44.357  28.756  36.894  1.00  0.00     0.013 C 
ATOM     22  C   UNL A   1      46.820  28.415  36.828  1.00  0.00     0.017 C 
ATOM     23  C   UNL A   1      45.780  30.378  35.401  1.00  0.00    -0.020 C 
ATOM     24  C   UNL A   1      45.319  29.620  33.104  1.00  0.00     0.032 C 
ATOM     25  C   UNL A   1      44.757  30.537  34.221  1.00  0.00     0.006 C 
ATOM     26  C   UNL A   1      45.507  31.477  36.449  1.00  0.00     0.008 C 
ATOM     27  C   UNL A   1      47.250  30.609  34.946  1.00  0.00     0.012 C 
ATOM     28  C   UNL A   1      44.289  32.012  33.741  1.00  0.00    -0.025 C 
ATOM     29  C   UNL A   1      45.445  32.903  35.860  1.00  0.00     0.005 C 
ATOM     30  C   UNL A   1      45.156  32.445  32.545  1.00  0.00     0.012 C 
ATOM     31  C   UNL A   1      42.800  31.979  33.239  1.00  0.00     0.010 C 
ATOM     32  C   UNL A   1      44.239  33.048  34.926  1.00  0.00     0.003 C 
ATOM     33  C   UNL A   1      42.234  33.348  32.816  1.00  0.00     0.033 C 
ATOM     34  C   UNL A   1      43.827  34.529  34.513  1.00  0.00    -0.006 C 
ATOM     35  C   UNL A   1      42.418  34.464  33.849  1.00  0.00     0.120 C 
ATOM     36  C   UNL A   1      44.876  35.276  33.654  1.00  0.00     0.014 C 
ATOM     37  C   UNL A   1      43.673  35.433  35.760  1.00  0.00     0.014 C 
BRANCH  35  38
ATOM     38  O   UNL A   1      42.035  35.706  33.250  1.00  0.00    -0.393 OA
ATOM     39  H   UNL A   1      42.767  36.043  32.710  1.00  0.00     0.210 HD
ENDBRANCH  35  38
ENDBRANCH   7   9
ENDBRANCH   6   7
ENDBRANCH   5   6
ENDBRANCH   4   5
ENDBRANCH   3   4
ENDBRANCH   2   3
ENDBRANCH   1   2
BRANCH   1  40
ATOM     40  O   UNL A   1      38.517  33.330  34.014  1.00  0.00    -0.376 OA
BRANCH  40  41
ATOM     41  C   UNL A   1      37.139  33.036  33.996  1.00  0.00     0.202 C 
BRANCH  41  42
ATOM     42  C   UNL A   1      36.631  32.037  32.934  1.00  0.00     0.261 C 
BRANCH  42  43
ATOM     43  O   UNL A   1      36.978  30.632  33.094  1.00  0.00    -0.460 OA
BRANCH  43  44
ATOM     44  C   UNL A   1      37.147  29.878  31.962  1.00  0.00     0.338 C 
ATOM     45  O   UNL A   1      36.255  29.309  31.367  1.00  0.00    -0.246 OA
BRANCH  44  46
ATOM     46  C   UNL A   1      38.544  29.985  31.394  1.00  0.00     0.060 A 
ATOM     47  C   UNL A   1      38.724  30.456  30.079  1.00  0.00     0.016 A 
ATOM     48  C   UNL A   1      39.670  29.560  32.097  1.00  0.00     0.016 A 
ATOM     49  C   UNL A   1      39.991  30.441  29.450  1.00  0.00     0.010 A 
ATOM     50  C   UNL A   1      40.934  29.523  31.457  1.00  0.00     0.010 A 
ATOM     51  C   UNL A   1      41.108  29.920  30.111  1.00  0.00    -0.014 A 
BRANCH  51  52
ATOM     52  C   UNL A   1      42.386  29.574  29.384  1.00  0.00     0.031 A 
ATOM     53  C   UNL A   1      42.568  28.156  28.893  1.00  0.00     0.074 A 
ATOM     54  C   UNL A   1      43.382  30.445  29.103  1.00  0.00     0.049 A 
ATOM     55  N   UNL A   1      43.634  27.573  28.404  1.00  0.00    -0.248 NA
ATOM     56  C   UNL A   1      41.377  27.294  28.933  1.00  0.00     0.031 C 
ATOM     57  C   UNL A   1      43.330  31.882  29.315  1.00  0.00     0.029 A 
ATOM     58  N   UNL A   1      44.655  30.241  28.595  1.00  0.00    -0.354 N 
ATOM     59  C   UNL A   1      43.244  26.283  28.067  1.00  0.00     0.074 A 
ATOM     60  C   UNL A   1      41.852  26.154  28.450  1.00  0.00     0.031 C 
ATOM     61  C   UNL A   1      44.531  32.418  29.020  1.00  0.00     0.029 A 
ATOM     62  C   UNL A   1      45.459  31.363  28.637  1.00  0.00     0.049 A 
ATOM     63  H   UNL A   1      44.958  29.376  28.237  1.00  0.00     0.167 HD
ATOM     64  C   UNL A   1      43.963  25.301  27.472  1.00  0.00     0.037 A 
ATOM     65  C   UNL A   1      46.787  31.534  28.446  1.00  0.00     0.037 A 
ATOM     66  C   UNL A   1      45.347  25.413  27.081  1.00  0.00     0.049 A 
ATOM     67  C   UNL A   1      47.632  30.368  28.021  1.00  0.00     0.074 A 
ATOM     68  C   UNL A   1      46.140  24.464  26.458  1.00  0.00     0.029 A 
ATOM     69  N   UNL A   1      46.148  26.526  27.279  1.00  0.00    -0.354 N 
ATOM     70  N   UNL A   1      47.258  29.145  27.745  1.00  0.00    -0.248 NA
ATOM     71  C   UNL A   1      49.075  30.609  27.858  1.00  0.00     0.031 C 
ATOM     72  C   UNL A   1      47.435  24.978  26.339  1.00  0.00     0.029 A 
ATOM     73  C   UNL A   1      47.436  26.272  26.830  1.00  0.00     0.049 A 
ATOM     74  H   UNL A   1      45.847  27.374  27.681  1.00  0.00     0.167 HD
ATOM     75  C   UNL A   1      48.407  28.485  27.328  1.00  0.00     0.074 A 
ATOM     76  C   UNL A   1      49.493  29.438  27.401  1.00  0.00     0.031 C 
ATOM     77  C   UNL A   1      48.530  27.206  26.897  1.00  0.00     0.037 A 
BRANCH  64  78
ATOM     78  C   UNL A   1      43.271  23.991  27.218  1.00  0.00     0.058 A 
ATOM     79  C   UNL A   1      43.136  23.021  28.223  1.00  0.00     0.135 A 
ATOM     80  C   UNL A   1      42.679  23.732  25.971  1.00  0.00     0.135 A 
ATOM     81  F   UNL A   1      43.696  23.210  29.428  1.00  0.00    -0.206 F 
ATOM     82  C   UNL A   1      42.451  21.831  27.995  1.00  0.00     0.059 A 
ATOM     83  C   UNL A   1      41.965  22.563  25.730  1.00  0.00     0.059 A 
ATOM     84  F   UNL A   1      42.780  24.628  24.977  1.00  0.00    -0.206 F 
ATOM     85  C   UNL A   1      41.864  21.615  26.747  1.00  0.00     0.060 A 
BRANCH  85  86
ATOM     86  S   UNL A   1      40.954  20.079  26.479  1.00  0.00     0.124 S 
ATOM     87  O   UNL A   1      39.689  20.579  25.946  1.00  0.00    -0.237 OA
ATOM     88  O   UNL A   1      41.807  19.374  25.527  1.00  0.00    -0.237 OA
ATOM     89  O   UNL A   1      40.882  19.487  27.810  1.00  0.00    -0.744 OA
ENDBRANCH  85  86
ENDBRANCH  64  78
BRANCH  65  90
ATOM     90  C   UNL A   1      47.458  32.831  28.760  1.00  0.00     0.058 A 
ATOM     91  C   UNL A   1      47.687  33.831  27.808  1.00  0.00     0.135 A 
ATOM     92  C   UNL A   1      47.985  33.039  30.042  1.00  0.00     0.135 A 
ATOM     93  F   UNL A   1      47.294  33.648  26.539  1.00  0.00    -0.206 F 
ATOM     94  C   UNL A   1      48.374  35.003  28.130  1.00  0.00     0.059 A 
ATOM     95  C   UNL A   1      48.628  34.217  30.407  1.00  0.00     0.059 A 
ATOM     96  F   UNL A   1      47.925  32.049  30.939  1.00  0.00    -0.206 F 
ATOM     97  C   UNL A   1      48.826  35.196  29.439  1.00  0.00     0.060 A 
BRANCH  97  98
ATOM     98  S   UNL A   1      49.658  36.740  29.874  1.00  0.00     0.124 S 
ATOM     99  O   UNL A   1      50.608  36.884  28.777  1.00  0.00    -0.237 OA
ATOM    100  O   UNL A   1      48.553  37.693  29.892  1.00  0.00    -0.237 OA
ATOM    101  O   UNL A   1      50.240  36.448  31.181  1.00  0.00    -0.744 OA
ENDBRANCH  97  98
ENDBRANCH  65  90
BRANCH  77 102
ATOM    102  C   UNL A   1      49.881  26.766  26.408  1.00  0.00     0.058 A 
ATOM    103  C   UNL A   1      50.771  26.047  27.222  1.00  0.00     0.135 A 
ATOM    104  C   UNL A   1      50.282  27.046  25.091  1.00  0.00     0.135 A 
ATOM    105  F   UNL A   1      50.446  25.768  28.494  1.00  0.00    -0.206 F 
ATOM    106  C   UNL A   1      52.017  25.640  26.755  1.00  0.00     0.059 A 
ATOM    107  C   UNL A   1      51.510  26.622  24.593  1.00  0.00     0.059 A 
ATOM    108  F   UNL A   1      49.472  27.730  24.268  1.00  0.00    -0.206 F 
ATOM    109  C   UNL A   1      52.377  25.928  25.437  1.00  0.00     0.060 A 
BRANCH 109 110
ATOM    110  S   UNL A   1      53.982  25.365  24.834  1.00  0.00     0.124 S 
ATOM    111  O   UNL A   1      54.889  25.956  25.813  1.00  0.00    -0.237 OA
ATOM    112  O   UNL A   1      53.844  23.913  24.894  1.00  0.00    -0.237 OA
ATOM    113  O   UNL A   1      54.058  25.926  23.489  1.00  0.00    -0.744 OA
ENDBRANCH 109 110
ENDBRANCH  77 102
ENDBRANCH  51  52
ENDBRANCH  44  46
ENDBRANCH  43  44
ENDBRANCH  42  43
ENDBRANCH  41  42
ENDBRANCH  40  41
ENDBRANCH   1  40
TORSDOF 21
ENDMDL
