MODEL 1
REMARK VINA RESULT:     -10.0      0.000      0.000
REMARK SMILES O=C(OCCOCCOCCOC(=O)c1cc(-c2ccoc2)n[nH]1)c1ccc(-c2c3nc(c(-c4c(F)cc(S(=O)(=O)[O-])cc4F)c4ccc([nH]4)c(-c4c(F)cc(S(=O)(=O)[O-])cc4F)c4nc(c(-c5c(F)cc(S(=O)(=O)[O-])cc5F)c5ccc2[nH]5)C=C4)C=C3)cc1
REMARK SMILES IDX 7 1 6 2 5 3 4 4 3 5 2 6 1 7 25 8 26 9 90 10 27 11 89 12
REMARK SMILES IDX 28 13 29 14 30 15 83 16 31 17 88 18 82 19 84 20 32 21 87 22
REMARK SMILES IDX 81 23 80 24 33 26 67 27 46 28 66 29 47 30 50 31 65 32 85 33
REMARK SMILES IDX 48 34 49 35 64 37 86 38 51 39 34 40 35 41 44 42 36 43 37 44
REMARK SMILES IDX 43 45 45 46 38 47 39 48 40 49 41 50 42 51 68 52 69 53 78 54
REMARK SMILES IDX 70 55 71 56 77 57 79 58 72 59 73 60 74 61 75 62 76 63 52 64
REMARK SMILES IDX 53 65 62 66 54 67 55 68 61 69 63 70 56 71 57 72 58 73 59 74
REMARK SMILES IDX 60 75 8 76 9 77 10 78 11 79 12 80 13 81 14 82 15 83 16 84
REMARK SMILES IDX 24 85 17 86 23 87 18 89 19 90 22 91 20 92 21 93
REMARK H PARENT 84 25 50 36 24 88
REMARK Flexibility Score: inf
ROOT
ATOM      1  C   UNL A   1      36.854  21.481  25.749  1.00  0.00     0.188 C 
ENDROOT
BRANCH   1   2
ATOM      2  O   UNL A   1      38.021  22.277  25.486  1.00  0.00    -0.376 OA
BRANCH   2   3
ATOM      3  C   UNL A   1      39.225  21.723  26.030  1.00  0.00     0.202 C 
BRANCH   3   4
ATOM      4  C   UNL A   1      40.250  22.771  26.479  1.00  0.00     0.261 C 
BRANCH   4   5
ATOM      5  O   UNL A   1      39.903  24.081  26.004  1.00  0.00    -0.460 OA
BRANCH   5   6
ATOM      6  C   UNL A   1      40.556  25.249  26.235  1.00  0.00     0.338 C 
ATOM      7  O   UNL A   1      41.158  25.776  25.301  1.00  0.00    -0.246 OA
BRANCH   6   8
ATOM      8  C   UNL A   1      40.521  25.971  27.544  1.00  0.00     0.060 A 
ATOM      9  C   UNL A   1      39.586  25.757  28.560  1.00  0.00     0.016 A 
ATOM     10  C   UNL A   1      41.540  26.911  27.775  1.00  0.00     0.016 A 
ATOM     11  C   UNL A   1      39.558  26.574  29.690  1.00  0.00     0.010 A 
ATOM     12  C   UNL A   1      41.561  27.682  28.943  1.00  0.00     0.010 A 
ATOM     13  C   UNL A   1      40.526  27.564  29.875  1.00  0.00    -0.014 A 
BRANCH  13  14
ATOM     14  C   UNL A   1      40.350  28.536  30.981  1.00  0.00     0.031 A 
ATOM     15  C   UNL A   1      41.305  28.499  32.142  1.00  0.00     0.074 A 
ATOM     16  C   UNL A   1      39.433  29.514  30.884  1.00  0.00     0.049 A 
ATOM     17  N   UNL A   1      41.372  29.286  33.183  1.00  0.00    -0.248 NA
ATOM     18  C   UNL A   1      42.331  27.442  32.123  1.00  0.00     0.031 C 
ATOM     19  C   UNL A   1      38.492  29.678  29.777  1.00  0.00     0.029 A 
ATOM     20  N   UNL A   1      39.163  30.574  31.708  1.00  0.00    -0.354 N 
ATOM     21  C   UNL A   1      42.430  28.812  33.948  1.00  0.00     0.074 A 
ATOM     22  C   UNL A   1      42.967  27.657  33.263  1.00  0.00     0.031 C 
ATOM     23  C   UNL A   1      37.769  30.793  29.972  1.00  0.00     0.029 A 
ATOM     24  C   UNL A   1      38.171  31.399  31.235  1.00  0.00     0.049 A 
ATOM     25  H   UNL A   1      39.633  30.730  32.559  1.00  0.00     0.167 HD
ATOM     26  C   UNL A   1      42.916  29.299  35.114  1.00  0.00     0.037 A 
ATOM     27  C   UNL A   1      37.639  32.514  31.769  1.00  0.00     0.037 A 
ATOM     28  C   UNL A   1      42.381  30.450  35.788  1.00  0.00     0.049 A 
ATOM     29  C   UNL A   1      38.162  33.010  33.084  1.00  0.00     0.074 A 
ATOM     30  C   UNL A   1      42.771  31.007  36.992  1.00  0.00     0.029 A 
ATOM     31  N   UNL A   1      41.333  31.224  35.307  1.00  0.00    -0.354 N 
ATOM     32  N   UNL A   1      39.134  32.522  33.818  1.00  0.00    -0.248 NA
ATOM     33  C   UNL A   1      37.513  34.200  33.647  1.00  0.00     0.031 C 
ATOM     34  C   UNL A   1      41.943  32.107  37.250  1.00  0.00     0.029 A 
ATOM     35  C   UNL A   1      41.058  32.250  36.193  1.00  0.00     0.049 A 
ATOM     36  H   UNL A   1      40.857  31.065  34.460  1.00  0.00     0.167 HD
ATOM     37  C   UNL A   1      39.211  33.343  34.936  1.00  0.00     0.074 A 
ATOM     38  C   UNL A   1      38.201  34.371  34.769  1.00  0.00     0.031 C 
ATOM     39  C   UNL A   1      40.038  33.252  36.005  1.00  0.00     0.037 A 
BRANCH  26  40
ATOM     40  C   UNL A   1      44.057  28.548  35.735  1.00  0.00     0.058 A 
ATOM     41  C   UNL A   1      43.841  27.465  36.604  1.00  0.00     0.135 A 
ATOM     42  C   UNL A   1      45.382  28.950  35.502  1.00  0.00     0.135 A 
ATOM     43  F   UNL A   1      42.591  27.062  36.883  1.00  0.00    -0.206 F 
ATOM     44  C   UNL A   1      44.898  26.831  37.249  1.00  0.00     0.059 A 
ATOM     45  C   UNL A   1      46.455  28.318  36.122  1.00  0.00     0.059 A 
ATOM     46  F   UNL A   1      45.640  29.985  34.688  1.00  0.00    -0.206 F 
ATOM     47  C   UNL A   1      46.201  27.274  37.012  1.00  0.00     0.060 A 
BRANCH  47  48
ATOM     48  S   UNL A   1      47.562  26.480  37.893  1.00  0.00     0.124 S 
ATOM     49  O   UNL A   1      46.846  25.760  38.943  1.00  0.00    -0.237 OA
ATOM     50  O   UNL A   1      48.168  25.648  36.859  1.00  0.00    -0.237 OA
ATOM     51  O   UNL A   1      48.374  27.604  38.345  1.00  0.00    -0.744 OA
ENDBRANCH  47  48
ENDBRANCH  26  40
BRANCH  27  52
ATOM     52  C   UNL A   1      36.534  33.212  31.069  1.00  0.00     0.058 A 
ATOM     53  C   UNL A   1      35.217  33.152  31.542  1.00  0.00     0.135 A 
ATOM     54  C   UNL A   1      36.789  33.981  29.925  1.00  0.00     0.135 A 
ATOM     55  F   UNL A   1      34.926  32.419  32.628  1.00  0.00    -0.206 F 
ATOM     56  C   UNL A   1      34.184  33.838  30.908  1.00  0.00     0.059 A 
ATOM     57  C   UNL A   1      35.778  34.685  29.280  1.00  0.00     0.059 A 
ATOM     58  F   UNL A   1      38.035  34.061  29.435  1.00  0.00    -0.206 F 
ATOM     59  C   UNL A   1      34.478  34.608  29.780  1.00  0.00     0.060 A 
BRANCH  59  60
ATOM     60  S   UNL A   1      33.169  35.580  29.001  1.00  0.00     0.124 S 
ATOM     61  O   UNL A   1      32.401  34.545  28.318  1.00  0.00    -0.237 OA
ATOM     62  O   UNL A   1      32.515  36.210  30.144  1.00  0.00    -0.237 OA
ATOM     63  O   UNL A   1      33.913  36.495  28.139  1.00  0.00    -0.744 OA
ENDBRANCH  59  60
ENDBRANCH  27  52
BRANCH  39  64
ATOM     64  C   UNL A   1      39.882  34.295  37.068  1.00  0.00     0.058 A 
ATOM     65  C   UNL A   1      40.455  35.568  36.929  1.00  0.00     0.135 A 
ATOM     66  C   UNL A   1      39.130  34.027  38.222  1.00  0.00     0.135 A 
ATOM     67  F   UNL A   1      41.189  35.864  35.846  1.00  0.00    -0.206 F 
ATOM     68  C   UNL A   1      40.301  36.539  37.911  1.00  0.00     0.059 A 
ATOM     69  C   UNL A   1      38.950  34.990  39.208  1.00  0.00     0.059 A 
ATOM     70  F   UNL A   1      38.560  32.824  38.394  1.00  0.00    -0.206 F 
ATOM     71  C   UNL A   1      39.549  36.239  39.049  1.00  0.00     0.060 A 
BRANCH  71  72
ATOM     72  S   UNL A   1      39.332  37.511  40.310  1.00  0.00     0.124 S 
ATOM     73  O   UNL A   1      38.491  38.477  39.610  1.00  0.00    -0.237 OA
ATOM     74  O   UNL A   1      38.687  36.777  41.394  1.00  0.00    -0.237 OA
ATOM     75  O   UNL A   1      40.698  37.948  40.586  1.00  0.00    -0.744 OA
ENDBRANCH  71  72
ENDBRANCH  39  64
ENDBRANCH  13  14
ENDBRANCH   6   8
ENDBRANCH   5   6
ENDBRANCH   4   5
ENDBRANCH   3   4
ENDBRANCH   2   3
ENDBRANCH   1   2
BRANCH   1  76
ATOM     76  C   UNL A   1      35.585  22.327  25.602  1.00  0.00     0.188 C 
BRANCH  76  77
ATOM     77  O   UNL A   1      35.115  22.446  24.255  1.00  0.00    -0.376 OA
BRANCH  77  78
ATOM     78  C   UNL A   1      33.919  21.737  23.933  1.00  0.00     0.202 C 
BRANCH  78  79
ATOM     79  C   UNL A   1      33.092  21.292  25.136  1.00  0.00     0.261 C 
BRANCH  79  80
ATOM     80  O   UNL A   1      31.999  22.179  25.425  1.00  0.00    -0.459 OA
BRANCH  80  81
ATOM     81  C   UNL A   1      32.087  22.794  26.640  1.00  0.00     0.356 C 
ATOM     82  O   UNL A   1      32.506  22.275  27.663  1.00  0.00    -0.244 OA
BRANCH  81  83
ATOM     83  C   UNL A   1      31.549  24.120  26.576  1.00  0.00     0.144 A 
ATOM     84  C   UNL A   1      32.225  25.279  26.255  1.00  0.00     0.066 A 
ATOM     85  N   UNL A   1      30.260  24.513  26.803  1.00  0.00    -0.271 N 
ATOM     86  C   UNL A   1      31.268  26.308  26.309  1.00  0.00     0.096 A 
ATOM     87  N   UNL A   1      30.054  25.833  26.616  1.00  0.00    -0.175 NA
ATOM     88  H   UNL A   1      29.548  23.891  27.077  1.00  0.00     0.190 HD
BRANCH  86  89
ATOM     89  C   UNL A   1      31.577  27.714  26.075  1.00  0.00     0.040 A 
ATOM     90  C   UNL A   1      31.749  28.700  27.083  1.00  0.00     0.052 A 
ATOM     91  C   UNL A   1      31.729  28.366  24.874  1.00  0.00     0.205 A 
ATOM     92  C   UNL A   1      31.987  29.884  26.423  1.00  0.00     0.195 A 
ATOM     93  O   UNL A   1      31.989  29.686  25.080  1.00  0.00    -0.472 OA
ENDBRANCH  86  89
ENDBRANCH  81  83
ENDBRANCH  80  81
ENDBRANCH  79  80
ENDBRANCH  78  79
ENDBRANCH  77  78
ENDBRANCH  76  77
ENDBRANCH   1  76
TORSDOF 21
ENDMDL
MODEL 2
REMARK VINA RESULT:      -9.9      3.499     10.181
REMARK SMILES O=C(OCCOCCOCCOC(=O)c1cc(-c2ccoc2)n[nH]1)c1ccc(-c2c3nc(c(-c4c(F)cc(S(=O)(=O)[O-])cc4F)c4ccc([nH]4)c(-c4c(F)cc(S(=O)(=O)[O-])cc4F)c4nc(c(-c5c(F)cc(S(=O)(=O)[O-])cc5F)c5ccc2[nH]5)C=C4)C=C3)cc1
REMARK SMILES IDX 7 1 6 2 5 3 4 4 3 5 2 6 1 7 25 8 26 9 90 10 27 11 89 12
REMARK SMILES IDX 28 13 29 14 30 15 83 16 31 17 88 18 82 19 84 20 32 21 87 22
REMARK SMILES IDX 81 23 80 24 33 26 67 27 46 28 66 29 47 30 50 31 65 32 85 33
REMARK SMILES IDX 48 34 49 35 64 37 86 38 51 39 34 40 35 41 44 42 36 43 37 44
REMARK SMILES IDX 43 45 45 46 38 47 39 48 40 49 41 50 42 51 68 52 69 53 78 54
REMARK SMILES IDX 70 55 71 56 77 57 79 58 72 59 73 60 74 61 75 62 76 63 52 64
REMARK SMILES IDX 53 65 62 66 54 67 55 68 61 69 63 70 56 71 57 72 58 73 59 74
REMARK SMILES IDX 60 75 8 76 9 77 10 78 11 79 12 80 13 81 14 82 15 83 16 84
REMARK SMILES IDX 24 85 17 86 23 87 18 89 19 90 22 91 20 92 21 93
REMARK H PARENT 84 25 50 36 24 88
REMARK Flexibility Score: inf
ROOT
ATOM      1  C   UNL A   1      40.069  21.136  26.412  1.00  0.00     0.188 C 
ENDROOT
BRANCH   1   2
ATOM      2  O   UNL A   1      39.263  22.288  26.115  1.00  0.00    -0.376 OA
BRANCH   2   3
ATOM      3  C   UNL A   1      39.495  23.391  26.999  1.00  0.00     0.202 C 
BRANCH   3   4
ATOM      4  C   UNL A   1      39.676  24.737  26.288  1.00  0.00     0.261 C 
BRANCH   4   5
ATOM      5  O   UNL A   1      41.027  24.912  25.834  1.00  0.00    -0.460 OA
BRANCH   5   6
ATOM      6  C   UNL A   1      41.847  25.973  26.052  1.00  0.00     0.338 C 
ATOM      7  O   UNL A   1      42.532  26.384  25.117  1.00  0.00    -0.246 OA
BRANCH   6   8
ATOM      8  C   UNL A   1      41.907  26.718  27.348  1.00  0.00     0.060 A 
ATOM      9  C   UNL A   1      41.554  26.199  28.596  1.00  0.00     0.016 A 
ATOM     10  C   UNL A   1      42.399  28.033  27.297  1.00  0.00     0.016 A 
ATOM     11  C   UNL A   1      41.519  27.015  29.725  1.00  0.00     0.010 A 
ATOM     12  C   UNL A   1      42.438  28.835  28.444  1.00  0.00     0.010 A 
ATOM     13  C   UNL A   1      41.931  28.348  29.653  1.00  0.00    -0.014 A 
BRANCH  13  14
ATOM     14  C   UNL A   1      41.696  29.232  30.819  1.00  0.00     0.031 A 
ATOM     15  C   UNL A   1      40.500  30.143  30.813  1.00  0.00     0.074 A 
ATOM     16  C   UNL A   1      42.468  29.127  31.916  1.00  0.00     0.049 A 
ATOM     17  N   UNL A   1      40.074  30.954  31.745  1.00  0.00    -0.248 NA
ATOM     18  C   UNL A   1      39.664  30.131  29.601  1.00  0.00     0.031 C 
ATOM     19  C   UNL A   1      43.620  28.238  32.051  1.00  0.00     0.029 A 
ATOM     20  N   UNL A   1      42.381  29.746  33.135  1.00  0.00    -0.354 N 
ATOM     21  C   UNL A   1      38.935  31.559  31.228  1.00  0.00     0.074 A 
ATOM     22  C   UNL A   1      38.744  31.036  29.893  1.00  0.00     0.031 C 
ATOM     23  C   UNL A   1      44.114  28.341  33.295  1.00  0.00     0.029 A 
ATOM     24  C   UNL A   1      43.337  29.330  34.030  1.00  0.00     0.049 A 
ATOM     25  H   UNL A   1      41.699  30.423  33.349  1.00  0.00     0.167 HD
ATOM     26  C   UNL A   1      38.116  32.463  31.815  1.00  0.00     0.037 A 
ATOM     27  C   UNL A   1      43.564  29.716  35.300  1.00  0.00     0.037 A 
ATOM     28  C   UNL A   1      38.308  32.974  33.144  1.00  0.00     0.049 A 
ATOM     29  C   UNL A   1      42.673  30.752  35.915  1.00  0.00     0.074 A 
ATOM     30  C   UNL A   1      37.563  33.921  33.823  1.00  0.00     0.029 A 
ATOM     31  N   UNL A   1      39.327  32.575  33.999  1.00  0.00    -0.354 N 
ATOM     32  N   UNL A   1      41.626  31.349  35.395  1.00  0.00    -0.248 NA
ATOM     33  C   UNL A   1      42.996  31.174  37.283  1.00  0.00     0.031 C 
ATOM     34  C   UNL A   1      38.145  34.110  35.083  1.00  0.00     0.029 A 
ATOM     35  C   UNL A   1      39.234  33.261  35.197  1.00  0.00     0.049 A 
ATOM     36  H   UNL A   1      40.012  31.903  33.784  1.00  0.00     0.167 HD
ATOM     37  C   UNL A   1      41.167  32.223  36.370  1.00  0.00     0.074 A 
ATOM     38  C   UNL A   1      42.038  32.061  37.519  1.00  0.00     0.031 C 
ATOM     39  C   UNL A   1      40.123  33.086  36.320  1.00  0.00     0.037 A 
BRANCH  26  40
ATOM     40  C   UNL A   1      36.970  32.972  30.990  1.00  0.00     0.058 A 
ATOM     41  C   UNL A   1      37.162  33.910  29.962  1.00  0.00     0.135 A 
ATOM     42  C   UNL A   1      35.658  32.557  31.266  1.00  0.00     0.135 A 
ATOM     43  F   UNL A   1      38.395  34.360  29.680  1.00  0.00    -0.206 F 
ATOM     44  C   UNL A   1      36.087  34.447  29.261  1.00  0.00     0.059 A 
ATOM     45  C   UNL A   1      34.570  33.067  30.565  1.00  0.00     0.059 A 
ATOM     46  F   UNL A   1      35.422  31.670  32.245  1.00  0.00    -0.206 F 
ATOM     47  C   UNL A   1      34.793  34.029  29.580  1.00  0.00     0.060 A 
BRANCH  47  48
ATOM     48  S   UNL A   1      33.400  34.770  28.702  1.00  0.00     0.124 S 
ATOM     49  O   UNL A   1      33.063  33.715  27.751  1.00  0.00    -0.237 OA
ATOM     50  O   UNL A   1      32.432  34.989  29.772  1.00  0.00    -0.237 OA
ATOM     51  O   UNL A   1      33.972  35.981  28.121  1.00  0.00    -0.744 OA
ENDBRANCH  47  48
ENDBRANCH  26  40
BRANCH  27  52
ATOM     52  C   UNL A   1      44.702  29.136  36.053  1.00  0.00     0.058 A 
ATOM     53  C   UNL A   1      45.968  29.737  36.042  1.00  0.00     0.135 A 
ATOM     54  C   UNL A   1      44.529  27.979  36.826  1.00  0.00     0.135 A 
ATOM     55  F   UNL A   1      46.181  30.839  35.306  1.00  0.00    -0.206 F 
ATOM     56  C   UNL A   1      47.027  29.215  36.780  1.00  0.00     0.059 A 
ATOM     57  C   UNL A   1      45.567  27.446  37.581  1.00  0.00     0.059 A 
ATOM     58  F   UNL A   1      43.335  27.369  36.861  1.00  0.00    -0.206 F 
ATOM     59  C   UNL A   1      46.813  28.071  37.552  1.00  0.00     0.060 A 
BRANCH  59  60
ATOM     60  S   UNL A   1      48.149  27.435  38.589  1.00  0.00     0.124 S 
ATOM     61  O   UNL A   1      49.271  28.264  38.164  1.00  0.00    -0.237 OA
ATOM     62  O   UNL A   1      47.651  27.682  39.940  1.00  0.00    -0.237 OA
ATOM     63  O   UNL A   1      48.216  26.027  38.207  1.00  0.00    -0.744 OA
ENDBRANCH  59  60
ENDBRANCH  27  52
BRANCH  39  64
ATOM     64  C   UNL A   1      39.870  33.911  37.543  1.00  0.00     0.058 A 
ATOM     65  C   UNL A   1      39.101  33.418  38.608  1.00  0.00     0.135 A 
ATOM     66  C   UNL A   1      40.425  35.194  37.663  1.00  0.00     0.135 A 
ATOM     67  F   UNL A   1      38.545  32.199  38.532  1.00  0.00    -0.206 F 
ATOM     68  C   UNL A   1      38.876  34.180  39.748  1.00  0.00     0.059 A 
ATOM     69  C   UNL A   1      40.225  35.966  38.802  1.00  0.00     0.059 A 
ATOM     70  F   UNL A   1      41.171  35.703  36.670  1.00  0.00    -0.206 F 
ATOM     71  C   UNL A   1      39.440  35.454  39.834  1.00  0.00     0.060 A 
BRANCH  71  72
ATOM     72  S   UNL A   1      39.164  36.431  41.327  1.00  0.00     0.124 S 
ATOM     73  O   UNL A   1      38.895  37.751  40.767  1.00  0.00    -0.237 OA
ATOM     74  O   UNL A   1      38.024  35.758  41.941  1.00  0.00    -0.237 OA
ATOM     75  O   UNL A   1      40.425  36.298  42.051  1.00  0.00    -0.744 OA
ENDBRANCH  71  72
ENDBRANCH  39  64
ENDBRANCH  13  14
ENDBRANCH   6   8
ENDBRANCH   5   6
ENDBRANCH   4   5
ENDBRANCH   3   4
ENDBRANCH   2   3
ENDBRANCH   1   2
BRANCH   1  76
ATOM     76  C   UNL A   1      41.543  21.421  26.108  1.00  0.00     0.188 C 
BRANCH  76  77
ATOM     77  O   UNL A   1      42.458  20.563  26.800  1.00  0.00    -0.376 OA
BRANCH  77  78
ATOM     78  C   UNL A   1      42.263  19.159  26.635  1.00  0.00     0.202 C 
BRANCH  78  79
ATOM     79  C   UNL A   1      43.360  18.446  25.847  1.00  0.00     0.261 C 
BRANCH  79  80
ATOM     80  O   UNL A   1      43.656  19.085  24.595  1.00  0.00    -0.459 OA
BRANCH  80  81
ATOM     81  C   UNL A   1      44.951  19.497  24.473  1.00  0.00     0.356 C 
ATOM     82  O   UNL A   1      45.927  18.762  24.472  1.00  0.00    -0.244 OA
BRANCH  81  83
ATOM     83  C   UNL A   1      45.025  20.926  24.418  1.00  0.00     0.144 A 
ATOM     84  C   UNL A   1      45.325  21.785  25.456  1.00  0.00     0.066 A 
ATOM     85  N   UNL A   1      44.829  21.735  23.335  1.00  0.00    -0.271 N 
ATOM     86  C   UNL A   1      45.291  23.078  24.904  1.00  0.00     0.096 A 
ATOM     87  N   UNL A   1      45.017  23.045  23.594  1.00  0.00    -0.175 NA
ATOM     88  H   UNL A   1      44.575  21.393  22.447  1.00  0.00     0.190 HD
BRANCH  86  89
ATOM     89  C   UNL A   1      45.513  24.294  25.678  1.00  0.00     0.040 A 
ATOM     90  C   UNL A   1      45.332  24.425  27.081  1.00  0.00     0.052 A 
ATOM     91  C   UNL A   1      45.896  25.535  25.227  1.00  0.00     0.205 A 
ATOM     92  C   UNL A   1      45.612  25.737  27.383  1.00  0.00     0.195 A 
ATOM     93  O   UNL A   1      45.969  26.416  26.263  1.00  0.00    -0.472 OA
ENDBRANCH  86  89
ENDBRANCH  81  83
ENDBRANCH  80  81
ENDBRANCH  79  80
ENDBRANCH  78  79
ENDBRANCH  77  78
ENDBRANCH  76  77
ENDBRANCH   1  76
TORSDOF 21
ENDMDL
MODEL 3
REMARK VINA RESULT:      -9.9      6.877     12.349
REMARK SMILES O=C(OCCOCCOCCOC(=O)c1cc(-c2ccoc2)n[nH]1)c1ccc(-c2c3nc(c(-c4c(F)cc(S(=O)(=O)[O-])cc4F)c4ccc([nH]4)c(-c4c(F)cc(S(=O)(=O)[O-])cc4F)c4nc(c(-c5c(F)cc(S(=O)(=O)[O-])cc5F)c5ccc2[nH]5)C=C4)C=C3)cc1
REMARK SMILES IDX 7 1 6 2 5 3 4 4 3 5 2 6 1 7 25 8 26 9 90 10 27 11 89 12
REMARK SMILES IDX 28 13 29 14 30 15 83 16 31 17 88 18 82 19 84 20 32 21 87 22
REMARK SMILES IDX 81 23 80 24 33 26 67 27 46 28 66 29 47 30 50 31 65 32 85 33
REMARK SMILES IDX 48 34 49 35 64 37 86 38 51 39 34 40 35 41 44 42 36 43 37 44
REMARK SMILES IDX 43 45 45 46 38 47 39 48 40 49 41 50 42 51 68 52 69 53 78 54
REMARK SMILES IDX 70 55 71 56 77 57 79 58 72 59 73 60 74 61 75 62 76 63 52 64
REMARK SMILES IDX 53 65 62 66 54 67 55 68 61 69 63 70 56 71 57 72 58 73 59 74
REMARK SMILES IDX 60 75 8 76 9 77 10 78 11 79 12 80 13 81 14 82 15 83 16 84
REMARK SMILES IDX 24 85 17 86 23 87 18 89 19 90 22 91 20 92 21 93
REMARK H PARENT 84 25 50 36 24 88
REMARK Flexibility Score: inf
ROOT
ATOM      1  C   UNL A   1      32.179  27.836  26.176  1.00  0.00     0.188 C 
ENDROOT
BRANCH   1   2
ATOM      2  O   UNL A   1      32.770  28.325  27.390  1.00  0.00    -0.376 OA
BRANCH   2   3
ATOM      3  C   UNL A   1      33.380  29.614  27.250  1.00  0.00     0.202 C 
BRANCH   3   4
ATOM      4  C   UNL A   1      34.897  29.617  27.466  1.00  0.00     0.261 C 
BRANCH   4   5
ATOM      5  O   UNL A   1      35.242  30.142  28.757  1.00  0.00    -0.460 OA
BRANCH   5   6
ATOM      6  C   UNL A   1      36.266  29.762  29.563  1.00  0.00     0.338 C 
ATOM      7  O   UNL A   1      36.007  29.414  30.715  1.00  0.00    -0.246 OA
BRANCH   6   8
ATOM      8  C   UNL A   1      37.688  29.668  29.107  1.00  0.00     0.060 A 
ATOM      9  C   UNL A   1      38.114  29.719  27.778  1.00  0.00     0.016 A 
ATOM     10  C   UNL A   1      38.668  29.560  30.108  1.00  0.00     0.016 A 
ATOM     11  C   UNL A   1      39.449  29.490  27.445  1.00  0.00     0.010 A 
ATOM     12  C   UNL A   1      40.020  29.406  29.782  1.00  0.00     0.010 A 
ATOM     13  C   UNL A   1      40.407  29.301  28.443  1.00  0.00    -0.014 A 
BRANCH  13  14
ATOM     14  C   UNL A   1      41.770  28.867  28.051  1.00  0.00     0.031 A 
ATOM     15  C   UNL A   1      42.901  29.853  28.137  1.00  0.00     0.074 A 
ATOM     16  C   UNL A   1      42.010  27.579  27.749  1.00  0.00     0.049 A 
ATOM     17  N   UNL A   1      44.174  29.674  27.900  1.00  0.00    -0.248 NA
ATOM     18  C   UNL A   1      42.556  31.222  28.558  1.00  0.00     0.031 C 
ATOM     19  C   UNL A   1      40.997  26.526  27.689  1.00  0.00     0.029 A 
ATOM     20  N   UNL A   1      43.182  26.928  27.468  1.00  0.00    -0.354 N 
ATOM     21  C   UNL A   1      44.777  30.905  28.126  1.00  0.00     0.074 A 
ATOM     22  C   UNL A   1      43.730  31.830  28.502  1.00  0.00     0.031 C 
ATOM     23  C   UNL A   1      41.594  25.353  27.424  1.00  0.00     0.029 A 
ATOM     24  C   UNL A   1      43.025  25.579  27.259  1.00  0.00     0.049 A 
ATOM     25  H   UNL A   1      44.054  27.383  27.421  1.00  0.00     0.167 HD
ATOM     26  C   UNL A   1      46.087  31.235  28.037  1.00  0.00     0.037 A 
ATOM     27  C   UNL A   1      43.934  24.634  26.956  1.00  0.00     0.037 A 
ATOM     28  C   UNL A   1      47.123  30.310  27.668  1.00  0.00     0.049 A 
ATOM     29  C   UNL A   1      45.373  25.030  26.816  1.00  0.00     0.074 A 
ATOM     30  C   UNL A   1      48.477  30.545  27.508  1.00  0.00     0.029 A 
ATOM     31  N   UNL A   1      46.915  28.964  27.401  1.00  0.00    -0.354 N 
ATOM     32  N   UNL A   1      45.921  26.210  26.987  1.00  0.00    -0.248 NA
ATOM     33  C   UNL A   1      46.316  23.972  26.434  1.00  0.00     0.031 C 
ATOM     34  C   UNL A   1      49.084  29.343  27.123  1.00  0.00     0.029 A 
ATOM     35  C   UNL A   1      48.113  28.356  27.072  1.00  0.00     0.049 A 
ATOM     36  H   UNL A   1      46.043  28.509  27.441  1.00  0.00     0.167 HD
ATOM     37  C   UNL A   1      47.274  26.039  26.729  1.00  0.00     0.074 A 
ATOM     38  C   UNL A   1      47.464  24.637  26.410  1.00  0.00     0.031 C 
ATOM     39  C   UNL A   1      48.269  26.959  26.748  1.00  0.00     0.037 A 
BRANCH  26  40
ATOM     40  C   UNL A   1      46.442  32.668  28.306  1.00  0.00     0.058 A 
ATOM     41  C   UNL A   1      46.784  33.113  29.593  1.00  0.00     0.135 A 
ATOM     42  C   UNL A   1      46.388  33.618  27.274  1.00  0.00     0.135 A 
ATOM     43  F   UNL A   1      46.820  32.249  30.620  1.00  0.00    -0.206 F 
ATOM     44  C   UNL A   1      47.023  34.458  29.856  1.00  0.00     0.059 A 
ATOM     45  C   UNL A   1      46.642  34.965  27.510  1.00  0.00     0.059 A 
ATOM     46  F   UNL A   1      46.058  33.243  26.029  1.00  0.00    -0.206 F 
ATOM     47  C   UNL A   1      46.936  35.379  28.809  1.00  0.00     0.060 A 
BRANCH  47  48
ATOM     48  S   UNL A   1      47.196  37.129  29.168  1.00  0.00     0.124 S 
ATOM     49  O   UNL A   1      47.697  37.072  30.539  1.00  0.00    -0.237 OA
ATOM     50  O   UNL A   1      48.171  37.520  28.155  1.00  0.00    -0.237 OA
ATOM     51  O   UNL A   1      45.866  37.708  29.009  1.00  0.00    -0.744 OA
ENDBRANCH  47  48
ENDBRANCH  26  40
BRANCH  27  52
ATOM     52  C   UNL A   1      43.498  23.234  26.737  1.00  0.00     0.058 A 
ATOM     53  C   UNL A   1      43.465  22.670  25.455  1.00  0.00     0.135 A 
ATOM     54  C   UNL A   1      43.133  22.424  27.822  1.00  0.00     0.135 A 
ATOM     55  F   UNL A   1      43.796  23.413  24.387  1.00  0.00    -0.206 F 
ATOM     56  C   UNL A   1      43.093  21.344  25.253  1.00  0.00     0.059 A 
ATOM     57  C   UNL A   1      42.768  21.094  27.648  1.00  0.00     0.059 A 
ATOM     58  F   UNL A   1      43.144  22.926  29.066  1.00  0.00    -0.206 F 
ATOM     59  C   UNL A   1      42.752  20.562  26.359  1.00  0.00     0.060 A 
BRANCH  59  60
ATOM     60  S   UNL A   1      42.358  18.815  26.126  1.00  0.00     0.124 S 
ATOM     61  O   UNL A   1      42.653  18.268  27.445  1.00  0.00    -0.237 OA
ATOM     62  O   UNL A   1      40.947  18.851  25.751  1.00  0.00    -0.237 OA
ATOM     63  O   UNL A   1      43.267  18.417  25.054  1.00  0.00    -0.744 OA
ENDBRANCH  59  60
ENDBRANCH  27  52
BRANCH  39  64
ATOM     64  C   UNL A   1      49.646  26.470  26.419  1.00  0.00     0.058 A 
ATOM     65  C   UNL A   1      50.479  25.923  27.406  1.00  0.00     0.135 A 
ATOM     66  C   UNL A   1      50.123  26.523  25.101  1.00  0.00     0.135 A 
ATOM     67  F   UNL A   1      50.066  25.860  28.681  1.00  0.00    -0.206 F 
ATOM     68  C   UNL A   1      51.753  25.459  27.099  1.00  0.00     0.059 A 
ATOM     69  C   UNL A   1      51.388  26.049  24.770  1.00  0.00     0.059 A 
ATOM     70  F   UNL A   1      49.357  27.034  24.124  1.00  0.00    -0.206 F 
ATOM     71  C   UNL A   1      52.199  25.530  25.778  1.00  0.00     0.060 A 
BRANCH  71  72
ATOM     72  S   UNL A   1      53.844  24.904  25.379  1.00  0.00     0.124 S 
ATOM     73  O   UNL A   1      53.599  23.469  25.295  1.00  0.00    -0.237 OA
ATOM     74  O   UNL A   1      54.141  25.572  24.115  1.00  0.00    -0.237 OA
ATOM     75  O   UNL A   1      54.653  25.340  26.513  1.00  0.00    -0.744 OA
ENDBRANCH  71  72
ENDBRANCH  39  64
ENDBRANCH  13  14
ENDBRANCH   6   8
ENDBRANCH   5   6
ENDBRANCH   4   5
ENDBRANCH   3   4
ENDBRANCH   2   3
ENDBRANCH   1   2
BRANCH   1  76
ATOM     76  C   UNL A   1      31.359  26.571  26.453  1.00  0.00     0.188 C 
BRANCH  76  77
ATOM     77  O   UNL A   1      31.836  25.405  25.772  1.00  0.00    -0.376 OA
BRANCH  77  78
ATOM     78  C   UNL A   1      31.364  24.148  26.255  1.00  0.00     0.202 C 
BRANCH  78  79
ATOM     79  C   UNL A   1      31.284  23.044  25.203  1.00  0.00     0.261 C 
BRANCH  79  80
ATOM     80  O   UNL A   1      32.026  23.351  24.011  1.00  0.00    -0.459 OA
BRANCH  80  81
ATOM     81  C   UNL A   1      32.610  22.267  23.423  1.00  0.00     0.356 C 
ATOM     82  O   UNL A   1      32.162  21.660  22.462  1.00  0.00    -0.244 OA
BRANCH  81  83
ATOM     83  C   UNL A   1      33.792  21.882  24.133  1.00  0.00     0.144 A 
ATOM     84  C   UNL A   1      34.901  22.663  24.388  1.00  0.00     0.066 A 
ATOM     85  N   UNL A   1      34.066  20.677  24.715  1.00  0.00    -0.271 N 
ATOM     86  C   UNL A   1      35.779  21.850  25.128  1.00  0.00     0.096 A 
ATOM     87  N   UNL A   1      35.253  20.640  25.355  1.00  0.00    -0.175 NA
ATOM     88  H   UNL A   1      33.453  19.908  24.672  1.00  0.00     0.190 HD
BRANCH  86  89
ATOM     89  C   UNL A   1      37.101  22.280  25.569  1.00  0.00     0.040 A 
ATOM     90  C   UNL A   1      38.262  21.462  25.618  1.00  0.00     0.052 A 
ATOM     91  C   UNL A   1      37.483  23.511  26.048  1.00  0.00     0.205 A 
ATOM     92  C   UNL A   1      39.266  22.252  26.128  1.00  0.00     0.195 A 
ATOM     93  O   UNL A   1      38.803  23.504  26.379  1.00  0.00    -0.472 OA
ENDBRANCH  86  89
ENDBRANCH  81  83
ENDBRANCH  80  81
ENDBRANCH  79  80
ENDBRANCH  78  79
ENDBRANCH  77  78
ENDBRANCH  76  77
ENDBRANCH   1  76
TORSDOF 21
ENDMDL
