MODEL 1
REMARK VINA RESULT:     -10.1      0.000      0.000
REMARK SMILES COc1c(C(=O)OCCOCCOCCOC(=O)c2ccc(-c3c4nc(c(-c5c(F)cc(S(=O)(=O)[O-])cc5F)c5ccc([nH]5)c(-c5c(F)cc(S(=O)(=O)[O-])cc5F)c5nc(c(-c6c(F)cc(S(=O)(=O)[O-])cc6F)c6ccc3[nH]6)C=C5)C=C4)cc2)cccc1-c1cc(C)ccc1C
REMARK SMILES IDX 12 1 11 2 10 3 9 4 8 5 7 6 5 7 6 8 4 9 3 10 88 11 85 12
REMARK SMILES IDX 87 13 86 14 2 15 1 16 89 17 90 18 95 19 91 20 94 21 96 22
REMARK SMILES IDX 92 23 93 24 13 25 14 26 15 27 16 28 17 29 18 30 19 31 20 32
REMARK SMILES IDX 84 33 21 34 83 35 22 36 23 37 24 38 77 39 25 40 82 41 76 42
REMARK SMILES IDX 78 43 26 44 81 45 75 46 74 47 27 49 61 50 40 51 60 52 41 53
REMARK SMILES IDX 44 54 59 55 79 56 42 57 43 58 58 60 80 61 45 62 28 63 29 64
REMARK SMILES IDX 38 65 30 66 31 67 37 68 39 69 32 70 33 71 34 72 35 73 36 74
REMARK SMILES IDX 62 75 63 76 72 77 64 78 65 79 71 80 73 81 66 82 67 83 68 84
REMARK SMILES IDX 69 85 70 86 46 87 47 88 56 89 48 90 49 91 55 92 57 93 50 94
REMARK SMILES IDX 51 95 52 96 53 97 54 98
REMARK H PARENT 78 48 44 59
REMARK Flexibility Score: inf
ROOT
ATOM      1  C   UNL A   1      38.912  21.454  25.773  1.00  0.00     0.188 C 
ENDROOT
BRANCH   1   2
ATOM      2  C   UNL A   1      37.873  22.592  25.685  1.00  0.00     0.188 C 
BRANCH   2   3
ATOM      3  O   UNL A   1      36.666  22.390  24.975  1.00  0.00    -0.376 OA
BRANCH   3   4
ATOM      4  C   UNL A   1      35.743  21.400  25.407  1.00  0.00     0.202 C 
BRANCH   4   5
ATOM      5  C   UNL A   1      34.248  21.479  25.079  1.00  0.00     0.261 C 
BRANCH   5   6
ATOM      6  O   UNL A   1      33.623  22.681  25.543  1.00  0.00    -0.460 OA
BRANCH   6   7
ATOM      7  C   UNL A   1      32.575  23.112  24.798  1.00  0.00     0.342 C 
ATOM      8  O   UNL A   1      31.476  22.583  24.712  1.00  0.00    -0.246 OA
BRANCH   7   9
ATOM      9  C   UNL A   1      32.841  24.461  24.262  1.00  0.00     0.102 A 
ATOM     10  C   UNL A   1      32.550  25.634  24.974  1.00  0.00     0.141 A 
ATOM     11  C   UNL A   1      32.993  26.883  24.476  1.00  0.00     0.025 A 
ATOM     12  C   UNL A   1      33.414  24.528  22.984  1.00  0.00     0.019 A 
ATOM     13  C   UNL A   1      33.523  26.924  23.168  1.00  0.00     0.012 A 
ATOM     14  C   UNL A   1      33.710  25.762  22.418  1.00  0.00     0.002 A 
BRANCH  10  15
ATOM     15  O   UNL A   1      31.927  25.508  26.192  1.00  0.00    -0.495 OA
ATOM     16  C   UNL A   1      30.514  25.726  26.106  1.00  0.00     0.278 C 
ENDBRANCH  10  15
BRANCH  11  17
ATOM     17  C   UNL A   1      33.047  28.109  25.309  1.00  0.00    -0.011 A 
ATOM     18  C   UNL A   1      34.103  28.289  26.229  1.00  0.00     0.012 A 
ATOM     19  C   UNL A   1      32.033  29.098  25.256  1.00  0.00    -0.043 A 
ATOM     20  C   UNL A   1      34.178  29.420  27.057  1.00  0.00    -0.050 A 
ATOM     21  C   UNL A   1      32.149  30.254  26.044  1.00  0.00     0.004 A 
ATOM     22  C   UNL A   1      30.820  28.992  24.366  1.00  0.00     0.045 C 
ATOM     23  C   UNL A   1      35.277  29.545  28.069  1.00  0.00     0.044 C 
ATOM     24  C   UNL A   1      33.204  30.411  26.938  1.00  0.00     0.004 A 
ENDBRANCH  11  17
ENDBRANCH   7   9
ENDBRANCH   6   7
ENDBRANCH   5   6
ENDBRANCH   4   5
ENDBRANCH   3   4
ENDBRANCH   2   3
ENDBRANCH   1   2
BRANCH   1  25
ATOM     25  O   UNL A   1      39.949  21.490  26.729  1.00  0.00    -0.376 OA
BRANCH  25  26
ATOM     26  C   UNL A   1      41.301  21.517  26.308  1.00  0.00     0.202 C 
BRANCH  26  27
ATOM     27  C   UNL A   1      42.247  22.712  26.514  1.00  0.00     0.261 C 
BRANCH  27  28
ATOM     28  O   UNL A   1      41.663  24.017  26.519  1.00  0.00    -0.460 OA
BRANCH  28  29
ATOM     29  C   UNL A   1      42.542  25.044  26.597  1.00  0.00     0.338 C 
ATOM     30  O   UNL A   1      43.494  25.261  25.850  1.00  0.00    -0.246 OA
BRANCH  29  31
ATOM     31  C   UNL A   1      42.088  26.002  27.617  1.00  0.00     0.060 A 
ATOM     32  C   UNL A   1      42.862  27.145  27.865  1.00  0.00     0.016 A 
ATOM     33  C   UNL A   1      40.930  25.755  28.354  1.00  0.00     0.016 A 
ATOM     34  C   UNL A   1      42.484  28.042  28.865  1.00  0.00     0.010 A 
ATOM     35  C   UNL A   1      40.568  26.642  29.372  1.00  0.00     0.010 A 
ATOM     36  C   UNL A   1      41.355  27.775  29.648  1.00  0.00    -0.014 A 
BRANCH  36  37
ATOM     37  C   UNL A   1      41.077  28.590  30.857  1.00  0.00     0.031 A 
ATOM     38  C   UNL A   1      39.960  29.598  30.803  1.00  0.00     0.074 A 
ATOM     39  C   UNL A   1      41.812  28.449  31.976  1.00  0.00     0.049 A 
ATOM     40  N   UNL A   1      39.603  30.486  31.692  1.00  0.00    -0.248 NA
ATOM     41  C   UNL A   1      39.139  29.607  29.580  1.00  0.00     0.031 C 
ATOM     42  C   UNL A   1      42.893  27.482  32.163  1.00  0.00     0.029 A 
ATOM     43  N   UNL A   1      41.770  29.139  33.162  1.00  0.00    -0.354 N 
ATOM     44  C   UNL A   1      38.534  31.174  31.131  1.00  0.00     0.074 A 
ATOM     45  C   UNL A   1      38.303  30.608  29.821  1.00  0.00     0.031 C 
ATOM     46  C   UNL A   1      43.430  27.659  33.383  1.00  0.00     0.029 A 
ATOM     47  C   UNL A   1      42.758  28.774  34.047  1.00  0.00     0.049 A 
ATOM     48  H   UNL A   1      41.097  29.829  33.361  1.00  0.00     0.167 HD
ATOM     49  C   UNL A   1      37.814  32.190  31.661  1.00  0.00     0.037 A 
ATOM     50  C   UNL A   1      43.101  29.306  35.239  1.00  0.00     0.037 A 
ATOM     51  C   UNL A   1      38.037  32.740  32.973  1.00  0.00     0.049 A 
ATOM     52  C   UNL A   1      42.315  30.479  35.778  1.00  0.00     0.074 A 
ATOM     53  C   UNL A   1      37.325  33.738  33.616  1.00  0.00     0.029 A 
ATOM     54  N   UNL A   1      39.050  32.351  33.835  1.00  0.00    -0.354 N 
ATOM     55  N   UNL A   1      41.278  31.089  35.257  1.00  0.00    -0.248 NA
ATOM     56  C   UNL A   1      42.751  31.037  37.068  1.00  0.00     0.031 C 
ATOM     57  C   UNL A   1      37.944  33.994  34.843  1.00  0.00     0.029 A 
ATOM     58  C   UNL A   1      39.003  33.113  34.991  1.00  0.00     0.049 A 
ATOM     59  H   UNL A   1      39.705  31.639  33.654  1.00  0.00     0.167 HD
ATOM     60  C   UNL A   1      40.916  32.075  36.173  1.00  0.00     0.074 A 
ATOM     61  C   UNL A   1      41.837  31.973  37.284  1.00  0.00     0.031 C 
ATOM     62  C   UNL A   1      39.912  32.985  36.101  1.00  0.00     0.037 A 
BRANCH  49  63
ATOM     63  C   UNL A   1      36.729  32.805  30.824  1.00  0.00     0.058 A 
ATOM     64  C   UNL A   1      35.391  32.395  30.926  1.00  0.00     0.135 A 
ATOM     65  C   UNL A   1      37.022  33.889  29.980  1.00  0.00     0.135 A 
ATOM     66  F   UNL A   1      35.061  31.351  31.702  1.00  0.00    -0.206 F 
ATOM     67  C   UNL A   1      34.380  33.041  30.221  1.00  0.00     0.059 A 
ATOM     68  C   UNL A   1      36.024  34.564  29.285  1.00  0.00     0.059 A 
ATOM     69  F   UNL A   1      38.288  34.314  29.842  1.00  0.00    -0.206 F 
ATOM     70  C   UNL A   1      34.706  34.133  29.412  1.00  0.00     0.060 A 
BRANCH  70  71
ATOM     71  S   UNL A   1      33.373  34.998  28.557  1.00  0.00     0.124 S 
ATOM     72  O   UNL A   1      34.122  35.912  27.698  1.00  0.00    -0.237 OA
ATOM     73  O   UNL A   1      32.684  33.908  27.873  1.00  0.00    -0.237 OA
ATOM     74  O   UNL A   1      32.625  35.629  29.639  1.00  0.00    -0.744 OA
ENDBRANCH  70  71
ENDBRANCH  49  63
BRANCH  50  75
ATOM     75  C   UNL A   1      44.266  28.776  36.001  1.00  0.00     0.058 A 
ATOM     76  C   UNL A   1      44.108  27.759  36.956  1.00  0.00     0.135 A 
ATOM     77  C   UNL A   1      45.549  29.322  35.839  1.00  0.00     0.135 A 
ATOM     78  F   UNL A   1      42.900  27.210  37.157  1.00  0.00    -0.206 F 
ATOM     79  C   UNL A   1      45.168  27.333  37.752  1.00  0.00     0.059 A 
ATOM     80  C   UNL A   1      46.631  28.890  36.600  1.00  0.00     0.059 A 
ATOM     81  F   UNL A   1      45.760  30.291  34.934  1.00  0.00    -0.206 F 
ATOM     82  C   UNL A   1      46.425  27.910  37.570  1.00  0.00     0.060 A 
BRANCH  82  83
ATOM     83  S   UNL A   1      47.792  27.359  38.613  1.00  0.00     0.124 S 
ATOM     84  O   UNL A   1      48.800  28.375  38.333  1.00  0.00    -0.237 OA
ATOM     85  O   UNL A   1      47.198  27.400  39.946  1.00  0.00    -0.237 OA
ATOM     86  O   UNL A   1      48.085  26.023  38.104  1.00  0.00    -0.744 OA
ENDBRANCH  82  83
ENDBRANCH  50  75
BRANCH  62  87
ATOM     87  C   UNL A   1      39.714  33.906  37.275  1.00  0.00     0.058 A 
ATOM     88  C   UNL A   1      38.986  33.516  38.410  1.00  0.00     0.135 A 
ATOM     89  C   UNL A   1      40.315  35.176  37.288  1.00  0.00     0.135 A 
ATOM     90  F   UNL A   1      38.389  32.314  38.450  1.00  0.00    -0.206 F 
ATOM     91  C   UNL A   1      38.837  34.363  39.505  1.00  0.00     0.059 A 
ATOM     92  C   UNL A   1      40.206  36.026  38.384  1.00  0.00     0.059 A 
ATOM     93  F   UNL A   1      41.034  35.594  36.234  1.00  0.00    -0.206 F 
ATOM     94  C   UNL A   1      39.454  35.616  39.483  1.00  0.00     0.060 A 
BRANCH  94  95
ATOM     95  S   UNL A   1      39.280  36.691  40.923  1.00  0.00     0.124 S 
ATOM     96  O   UNL A   1      38.367  35.920  41.758  1.00  0.00    -0.237 OA
ATOM     97  O   UNL A   1      40.653  36.789  41.407  1.00  0.00    -0.237 OA
ATOM     98  O   UNL A   1      38.730  37.922  40.362  1.00  0.00    -0.744 OA
ENDBRANCH  94  95
ENDBRANCH  62  87
ENDBRANCH  36  37
ENDBRANCH  29  31
ENDBRANCH  28  29
ENDBRANCH  27  28
ENDBRANCH  26  27
ENDBRANCH  25  26
ENDBRANCH   1  25
TORSDOF 22
ENDMDL
MODEL 2
REMARK VINA RESULT:     -10.1      6.528     11.993
REMARK SMILES COc1c(C(=O)OCCOCCOCCOC(=O)c2ccc(-c3c4nc(c(-c5c(F)cc(S(=O)(=O)[O-])cc5F)c5ccc([nH]5)c(-c5c(F)cc(S(=O)(=O)[O-])cc5F)c5nc(c(-c6c(F)cc(S(=O)(=O)[O-])cc6F)c6ccc3[nH]6)C=C5)C=C4)cc2)cccc1-c1cc(C)ccc1C
REMARK SMILES IDX 12 1 11 2 10 3 9 4 8 5 7 6 5 7 6 8 4 9 3 10 88 11 85 12
REMARK SMILES IDX 87 13 86 14 2 15 1 16 89 17 90 18 95 19 91 20 94 21 96 22
REMARK SMILES IDX 92 23 93 24 13 25 14 26 15 27 16 28 17 29 18 30 19 31 20 32
REMARK SMILES IDX 84 33 21 34 83 35 22 36 23 37 24 38 77 39 25 40 82 41 76 42
REMARK SMILES IDX 78 43 26 44 81 45 75 46 74 47 27 49 61 50 40 51 60 52 41 53
REMARK SMILES IDX 44 54 59 55 79 56 42 57 43 58 58 60 80 61 45 62 28 63 29 64
REMARK SMILES IDX 38 65 30 66 31 67 37 68 39 69 32 70 33 71 34 72 35 73 36 74
REMARK SMILES IDX 62 75 63 76 72 77 64 78 65 79 71 80 73 81 66 82 67 83 68 84
REMARK SMILES IDX 69 85 70 86 46 87 47 88 56 89 48 90 49 91 55 92 57 93 50 94
REMARK SMILES IDX 51 95 52 96 53 97 54 98
REMARK H PARENT 78 48 44 59
REMARK Flexibility Score: inf
ROOT
ATOM      1  C   UNL A   1      32.713  29.973  25.945  1.00  0.00     0.188 C 
ENDROOT
BRANCH   1   2
ATOM      2  C   UNL A   1      31.396  29.853  25.151  1.00  0.00     0.188 C 
BRANCH   2   3
ATOM      3  O   UNL A   1      30.840  28.578  24.895  1.00  0.00    -0.376 OA
BRANCH   3   4
ATOM      4  C   UNL A   1      30.356  28.259  23.598  1.00  0.00     0.202 C 
BRANCH   4   5
ATOM      5  C   UNL A   1      31.211  27.509  22.570  1.00  0.00     0.261 C 
BRANCH   5   6
ATOM      6  O   UNL A   1      31.680  26.238  23.035  1.00  0.00    -0.460 OA
BRANCH   6   7
ATOM      7  C   UNL A   1      32.927  26.242  23.566  1.00  0.00     0.342 C 
ATOM      8  O   UNL A   1      33.764  27.127  23.455  1.00  0.00    -0.246 OA
BRANCH   7   9
ATOM      9  C   UNL A   1      33.089  25.123  24.515  1.00  0.00     0.102 A 
ATOM     10  C   UNL A   1      33.779  23.945  24.193  1.00  0.00     0.141 A 
ATOM     11  C   UNL A   1      34.048  22.993  25.205  1.00  0.00     0.025 A 
ATOM     12  C   UNL A   1      32.515  25.287  25.784  1.00  0.00     0.019 A 
ATOM     13  C   UNL A   1      33.419  23.162  26.458  1.00  0.00     0.012 A 
ATOM     14  C   UNL A   1      32.640  24.285  26.740  1.00  0.00     0.002 A 
BRANCH  10  15
ATOM     15  O   UNL A   1      34.261  23.812  22.913  1.00  0.00    -0.495 OA
ATOM     16  C   UNL A   1      33.404  23.014  22.089  1.00  0.00     0.278 C 
ENDBRANCH  10  15
BRANCH  11  17
ATOM     17  C   UNL A   1      35.053  21.914  25.050  1.00  0.00    -0.011 A 
ATOM     18  C   UNL A   1      34.631  20.581  24.850  1.00  0.00     0.012 A 
ATOM     19  C   UNL A   1      36.445  22.163  25.152  1.00  0.00    -0.043 A 
ATOM     20  C   UNL A   1      35.548  19.525  24.728  1.00  0.00    -0.050 A 
ATOM     21  C   UNL A   1      37.355  21.111  24.968  1.00  0.00     0.004 A 
ATOM     22  C   UNL A   1      37.022  23.530  25.430  1.00  0.00     0.045 C 
ATOM     23  C   UNL A   1      35.062  18.114  24.583  1.00  0.00     0.044 C 
ATOM     24  C   UNL A   1      36.913  19.807  24.764  1.00  0.00     0.004 A 
ENDBRANCH  11  17
ENDBRANCH   7   9
ENDBRANCH   6   7
ENDBRANCH   5   6
ENDBRANCH   4   5
ENDBRANCH   3   4
ENDBRANCH   2   3
ENDBRANCH   1   2
BRANCH   1  25
ATOM     25  O   UNL A   1      32.724  30.485  27.260  1.00  0.00    -0.376 OA
BRANCH  25  26
ATOM     26  C   UNL A   1      33.700  31.438  27.641  1.00  0.00     0.202 C 
BRANCH  26  27
ATOM     27  C   UNL A   1      35.213  31.166  27.660  1.00  0.00     0.261 C 
BRANCH  27  28
ATOM     28  O   UNL A   1      35.676  30.086  28.476  1.00  0.00    -0.460 OA
BRANCH  28  29
ATOM     29  C   UNL A   1      36.411  30.449  29.553  1.00  0.00     0.338 C 
ATOM     30  O   UNL A   1      35.989  30.802  30.652  1.00  0.00    -0.246 OA
BRANCH  29  31
ATOM     31  C   UNL A   1      37.834  30.185  29.287  1.00  0.00     0.060 A 
ATOM     32  C   UNL A   1      38.231  29.859  27.983  1.00  0.00     0.016 A 
ATOM     33  C   UNL A   1      38.765  30.216  30.325  1.00  0.00     0.016 A 
ATOM     34  C   UNL A   1      39.565  29.550  27.714  1.00  0.00     0.010 A 
ATOM     35  C   UNL A   1      40.096  29.882  30.058  1.00  0.00     0.010 A 
ATOM     36  C   UNL A   1      40.497  29.524  28.758  1.00  0.00    -0.014 A 
BRANCH  36  37
ATOM     37  C   UNL A   1      41.856  28.974  28.530  1.00  0.00     0.031 A 
ATOM     38  C   UNL A   1      43.027  29.919  28.557  1.00  0.00     0.074 A 
ATOM     39  C   UNL A   1      42.046  27.663  28.289  1.00  0.00     0.049 A 
ATOM     40  N   UNL A   1      44.284  29.687  28.286  1.00  0.00    -0.248 NA
ATOM     41  C   UNL A   1      42.741  31.314  28.937  1.00  0.00     0.031 C 
ATOM     42  C   UNL A   1      40.997  26.644  28.276  1.00  0.00     0.029 A 
ATOM     43  N   UNL A   1      43.191  26.969  27.987  1.00  0.00    -0.354 N 
ATOM     44  C   UNL A   1      44.935  30.906  28.438  1.00  0.00     0.074 A 
ATOM     45  C   UNL A   1      43.935  31.878  28.819  1.00  0.00     0.031 C 
ATOM     46  C   UNL A   1      41.544  25.459  27.954  1.00  0.00     0.029 A 
ATOM     47  C   UNL A   1      42.972  25.641  27.702  1.00  0.00     0.049 A 
ATOM     48  H   UNL A   1      44.085  27.382  27.976  1.00  0.00     0.167 HD
ATOM     49  C   UNL A   1      46.249  31.186  28.272  1.00  0.00     0.037 A 
ATOM     50  C   UNL A   1      43.822  24.694  27.253  1.00  0.00     0.037 A 
ATOM     51  C   UNL A   1      47.244  30.211  27.909  1.00  0.00     0.049 A 
ATOM     52  C   UNL A   1      45.272  25.053  27.019  1.00  0.00     0.074 A 
ATOM     53  C   UNL A   1      48.608  30.393  27.765  1.00  0.00     0.029 A 
ATOM     54  N   UNL A   1      46.983  28.881  27.621  1.00  0.00    -0.354 N 
ATOM     55  N   UNL A   1      45.882  26.198  27.213  1.00  0.00    -0.248 NA
ATOM     56  C   UNL A   1      46.147  23.990  26.503  1.00  0.00     0.031 C 
ATOM     57  C   UNL A   1      49.166  29.187  27.332  1.00  0.00     0.029 A 
ATOM     58  C   UNL A   1      48.158  28.238  27.267  1.00  0.00     0.049 A 
ATOM     59  H   UNL A   1      46.097  28.456  27.662  1.00  0.00     0.167 HD
ATOM     60  C   UNL A   1      47.217  25.980  26.878  1.00  0.00     0.074 A 
ATOM     61  C   UNL A   1      47.327  24.593  26.481  1.00  0.00     0.031 C 
ATOM     62  C   UNL A   1      48.258  26.849  26.896  1.00  0.00     0.037 A 
BRANCH  49  63
ATOM     63  C   UNL A   1      46.700  32.608  28.450  1.00  0.00     0.058 A 
ATOM     64  C   UNL A   1      47.161  33.091  29.683  1.00  0.00     0.135 A 
ATOM     65  C   UNL A   1      46.762  33.470  27.342  1.00  0.00     0.135 A 
ATOM     66  F   UNL A   1      47.104  32.316  30.778  1.00  0.00    -0.206 F 
ATOM     67  C   UNL A   1      47.672  34.379  29.812  1.00  0.00     0.059 A 
ATOM     68  C   UNL A   1      47.291  34.752  27.442  1.00  0.00     0.059 A 
ATOM     69  F   UNL A   1      46.325  33.058  26.141  1.00  0.00    -0.206 F 
ATOM     70  C   UNL A   1      47.744  35.198  28.682  1.00  0.00     0.060 A 
BRANCH  70  71
ATOM     71  S   UNL A   1      48.469  36.841  28.854  1.00  0.00     0.124 S 
ATOM     72  O   UNL A   1      49.656  36.727  28.011  1.00  0.00    -0.237 OA
ATOM     73  O   UNL A   1      47.409  37.704  28.341  1.00  0.00    -0.237 OA
ATOM     74  O   UNL A   1      48.727  36.953  30.286  1.00  0.00    -0.744 OA
ENDBRANCH  70  71
ENDBRANCH  49  63
BRANCH  50  75
ATOM     75  C   UNL A   1      43.337  23.319  26.950  1.00  0.00     0.058 A 
ATOM     76  C   UNL A   1      42.986  22.429  27.977  1.00  0.00     0.135 A 
ATOM     77  C   UNL A   1      43.279  22.845  25.630  1.00  0.00     0.135 A 
ATOM     78  F   UNL A   1      43.034  22.829  29.256  1.00  0.00    -0.206 F 
ATOM     79  C   UNL A   1      42.637  21.108  27.710  1.00  0.00     0.059 A 
ATOM     80  C   UNL A   1      42.902  21.538  25.336  1.00  0.00     0.059 A 
ATOM     81  F   UNL A   1      43.596  23.655  24.608  1.00  0.00    -0.206 F 
ATOM     82  C   UNL A   1      42.605  20.670  26.386  1.00  0.00     0.060 A 
BRANCH  82  83
ATOM     83  S   UNL A   1      42.161  18.952  26.050  1.00  0.00     0.124 S 
ATOM     84  O   UNL A   1      42.644  18.285  27.254  1.00  0.00    -0.237 OA
ATOM     85  O   UNL A   1      40.711  19.032  25.902  1.00  0.00    -0.237 OA
ATOM     86  O   UNL A   1      42.894  18.650  24.824  1.00  0.00    -0.744 OA
ENDBRANCH  82  83
ENDBRANCH  50  75
BRANCH  62  87
ATOM     87  C   UNL A   1      49.620  26.320  26.533  1.00  0.00     0.058 A 
ATOM     88  C   UNL A   1      50.100  26.350  25.214  1.00  0.00     0.135 A 
ATOM     89  C   UNL A   1      50.480  25.831  27.531  1.00  0.00     0.135 A 
ATOM     90  F   UNL A   1      49.320  26.804  24.220  1.00  0.00    -0.206 F 
ATOM     91  C   UNL A   1      51.374  25.889  24.894  1.00  0.00     0.059 A 
ATOM     92  C   UNL A   1      51.768  25.395  27.239  1.00  0.00     0.059 A 
ATOM     93  F   UNL A   1      50.075  25.793  28.811  1.00  0.00    -0.206 F 
ATOM     94  C   UNL A   1      52.202  25.416  25.914  1.00  0.00     0.060 A 
BRANCH  94  95
ATOM     95  S   UNL A   1      53.863  24.851  25.490  1.00  0.00     0.124 S 
ATOM     96  O   UNL A   1      54.234  25.792  24.438  1.00  0.00    -0.237 OA
ATOM     97  O   UNL A   1      54.577  25.001  26.755  1.00  0.00    -0.237 OA
ATOM     98  O   UNL A   1      53.653  23.474  25.055  1.00  0.00    -0.744 OA
ENDBRANCH  94  95
ENDBRANCH  62  87
ENDBRANCH  36  37
ENDBRANCH  29  31
ENDBRANCH  28  29
ENDBRANCH  27  28
ENDBRANCH  26  27
ENDBRANCH  25  26
ENDBRANCH   1  25
TORSDOF 22
ENDMDL
MODEL 3
REMARK VINA RESULT:      -9.9      1.172      8.222
REMARK SMILES COc1c(C(=O)OCCOCCOCCOC(=O)c2ccc(-c3c4nc(c(-c5c(F)cc(S(=O)(=O)[O-])cc5F)c5ccc([nH]5)c(-c5c(F)cc(S(=O)(=O)[O-])cc5F)c5nc(c(-c6c(F)cc(S(=O)(=O)[O-])cc6F)c6ccc3[nH]6)C=C5)C=C4)cc2)cccc1-c1cc(C)ccc1C
REMARK SMILES IDX 12 1 11 2 10 3 9 4 8 5 7 6 5 7 6 8 4 9 3 10 88 11 85 12
REMARK SMILES IDX 87 13 86 14 2 15 1 16 89 17 90 18 95 19 91 20 94 21 96 22
REMARK SMILES IDX 92 23 93 24 13 25 14 26 15 27 16 28 17 29 18 30 19 31 20 32
REMARK SMILES IDX 84 33 21 34 83 35 22 36 23 37 24 38 77 39 25 40 82 41 76 42
REMARK SMILES IDX 78 43 26 44 81 45 75 46 74 47 27 49 61 50 40 51 60 52 41 53
REMARK SMILES IDX 44 54 59 55 79 56 42 57 43 58 58 60 80 61 45 62 28 63 29 64
REMARK SMILES IDX 38 65 30 66 31 67 37 68 39 69 32 70 33 71 34 72 35 73 36 74
REMARK SMILES IDX 62 75 63 76 72 77 64 78 65 79 71 80 73 81 66 82 67 83 68 84
REMARK SMILES IDX 69 85 70 86 46 87 47 88 56 89 48 90 49 91 55 92 57 93 50 94
REMARK SMILES IDX 51 95 52 96 53 97 54 98
REMARK H PARENT 78 48 44 59
REMARK Flexibility Score: inf
ROOT
ATOM      1  C   UNL A   1      37.961  22.209  25.179  1.00  0.00     0.188 C 
ENDROOT
BRANCH   1   2
ATOM      2  C   UNL A   1      36.443  22.376  25.401  1.00  0.00     0.188 C 
BRANCH   2   3
ATOM      3  O   UNL A   1      35.720  21.384  26.103  1.00  0.00    -0.376 OA
BRANCH   3   4
ATOM      4  C   UNL A   1      34.726  21.761  27.046  1.00  0.00     0.202 C 
BRANCH   4   5
ATOM      5  C   UNL A   1      33.244  21.427  26.847  1.00  0.00     0.261 C 
BRANCH   5   6
ATOM      6  O   UNL A   1      32.391  22.577  26.856  1.00  0.00    -0.460 OA
BRANCH   6   7
ATOM      7  C   UNL A   1      31.377  22.551  25.957  1.00  0.00     0.342 C 
ATOM      8  O   UNL A   1      30.346  21.899  26.040  1.00  0.00    -0.246 OA
BRANCH   7   9
ATOM      9  C   UNL A   1      31.558  23.608  24.942  1.00  0.00     0.102 A 
ATOM     10  C   UNL A   1      31.179  24.941  25.157  1.00  0.00     0.141 A 
ATOM     11  C   UNL A   1      31.543  25.932  24.213  1.00  0.00     0.025 A 
ATOM     12  C   UNL A   1      32.140  23.219  23.727  1.00  0.00     0.019 A 
ATOM     13  C   UNL A   1      32.086  25.506  22.981  1.00  0.00     0.012 A 
ATOM     14  C   UNL A   1      32.359  24.161  22.728  1.00  0.00     0.002 A 
BRANCH  10  15
ATOM     15  O   UNL A   1      30.552  25.250  26.340  1.00  0.00    -0.495 OA
ATOM     16  C   UNL A   1      29.132  25.360  26.190  1.00  0.00     0.278 C 
ENDBRANCH  10  15
BRANCH  11  17
ATOM     17  C   UNL A   1      31.505  27.384  24.513  1.00  0.00    -0.011 A 
ATOM     18  C   UNL A   1      30.505  28.196  23.936  1.00  0.00     0.012 A 
ATOM     19  C   UNL A   1      32.484  28.008  25.326  1.00  0.00    -0.043 A 
ATOM     20  C   UNL A   1      30.450  29.579  24.170  1.00  0.00    -0.050 A 
ATOM     21  C   UNL A   1      32.385  29.380  25.603  1.00  0.00     0.004 A 
ATOM     22  C   UNL A   1      33.641  27.265  25.947  1.00  0.00     0.045 C 
ATOM     23  C   UNL A   1      29.413  30.421  23.486  1.00  0.00     0.044 C 
ATOM     24  C   UNL A   1      31.384  30.159  25.028  1.00  0.00     0.004 A 
ENDBRANCH  11  17
ENDBRANCH   7   9
ENDBRANCH   6   7
ENDBRANCH   5   6
ENDBRANCH   4   5
ENDBRANCH   3   4
ENDBRANCH   2   3
ENDBRANCH   1   2
BRANCH   1  25
ATOM     25  O   UNL A   1      38.683  21.187  25.832  1.00  0.00    -0.376 OA
BRANCH  25  26
ATOM     26  C   UNL A   1      40.011  21.423  26.264  1.00  0.00     0.202 C 
BRANCH  26  27
ATOM     27  C   UNL A   1      40.399  22.443  27.347  1.00  0.00     0.261 C 
BRANCH  27  28
ATOM     28  O   UNL A   1      41.135  23.595  26.928  1.00  0.00    -0.460 OA
BRANCH  28  29
ATOM     29  C   UNL A   1      40.389  24.696  26.673  1.00  0.00     0.338 C 
ATOM     30  O   UNL A   1      39.625  24.869  25.725  1.00  0.00    -0.246 OA
BRANCH  29  31
ATOM     31  C   UNL A   1      40.475  25.623  27.813  1.00  0.00     0.060 A 
ATOM     32  C   UNL A   1      39.398  25.700  28.706  1.00  0.00     0.016 A 
ATOM     33  C   UNL A   1      41.594  26.440  27.976  1.00  0.00     0.016 A 
ATOM     34  C   UNL A   1      39.430  26.609  29.764  1.00  0.00     0.010 A 
ATOM     35  C   UNL A   1      41.612  27.368  29.022  1.00  0.00     0.010 A 
ATOM     36  C   UNL A   1      40.522  27.474  29.905  1.00  0.00    -0.014 A 
BRANCH  36  37
ATOM     37  C   UNL A   1      40.465  28.595  30.876  1.00  0.00     0.031 A 
ATOM     38  C   UNL A   1      41.373  28.552  32.076  1.00  0.00     0.074 A 
ATOM     39  C   UNL A   1      39.613  29.622  30.703  1.00  0.00     0.049 A 
ATOM     40  N   UNL A   1      41.426  29.360  33.102  1.00  0.00    -0.248 NA
ATOM     41  C   UNL A   1      42.348  27.450  32.127  1.00  0.00     0.031 C 
ATOM     42  C   UNL A   1      38.713  29.794  29.563  1.00  0.00     0.029 A 
ATOM     43  N   UNL A   1      39.352  30.707  31.503  1.00  0.00    -0.354 N 
ATOM     44  C   UNL A   1      42.420  28.853  33.931  1.00  0.00     0.074 A 
ATOM     45  C   UNL A   1      42.940  27.665  33.294  1.00  0.00     0.031 C 
ATOM     46  C   UNL A   1      37.980  30.905  29.750  1.00  0.00     0.029 A 
ATOM     47  C   UNL A   1      38.330  31.502  31.038  1.00  0.00     0.049 A 
ATOM     48  H   UNL A   1      39.851  30.899  32.330  1.00  0.00     0.167 HD
ATOM     49  C   UNL A   1      42.854  29.336  35.118  1.00  0.00     0.037 A 
ATOM     50  C   UNL A   1      37.724  32.565  31.607  1.00  0.00     0.037 A 
ATOM     51  C   UNL A   1      42.344  30.530  35.740  1.00  0.00     0.049 A 
ATOM     52  C   UNL A   1      38.192  33.045  32.962  1.00  0.00     0.074 A 
ATOM     53  C   UNL A   1      42.758  31.124  36.920  1.00  0.00     0.029 A 
ATOM     54  N   UNL A   1      41.305  31.302  35.245  1.00  0.00    -0.354 N 
ATOM     55  N   UNL A   1      39.164  32.584  33.712  1.00  0.00    -0.248 NA
ATOM     56  C   UNL A   1      37.477  34.189  33.547  1.00  0.00     0.031 C 
ATOM     57  C   UNL A   1      41.930  32.222  37.168  1.00  0.00     0.029 A 
ATOM     58  C   UNL A   1      41.041  32.348  36.113  1.00  0.00     0.049 A 
ATOM     59  H   UNL A   1      40.826  31.132  34.402  1.00  0.00     0.167 HD
ATOM     60  C   UNL A   1      39.201  33.405  34.837  1.00  0.00     0.074 A 
ATOM     61  C   UNL A   1      38.161  34.397  34.664  1.00  0.00     0.031 C 
ATOM     62  C   UNL A   1      40.019  33.344  35.917  1.00  0.00     0.037 A 
BRANCH  49  63
ATOM     63  C   UNL A   1      43.919  28.569  35.850  1.00  0.00     0.058 A 
ATOM     64  C   UNL A   1      43.608  27.513  36.718  1.00  0.00     0.135 A 
ATOM     65  C   UNL A   1      45.275  28.837  35.599  1.00  0.00     0.135 A 
ATOM     66  F   UNL A   1      42.329  27.229  37.008  1.00  0.00    -0.206 F 
ATOM     67  C   UNL A   1      44.606  26.744  37.310  1.00  0.00     0.059 A 
ATOM     68  C   UNL A   1      46.288  28.066  36.161  1.00  0.00     0.059 A 
ATOM     69  F   UNL A   1      45.625  29.844  34.782  1.00  0.00    -0.206 F 
ATOM     70  C   UNL A   1      45.943  27.021  37.015  1.00  0.00     0.060 A 
BRANCH  70  71
ATOM     71  S   UNL A   1      47.221  25.974  37.741  1.00  0.00     0.124 S 
ATOM     72  O   UNL A   1      47.262  26.471  39.113  1.00  0.00    -0.237 OA
ATOM     73  O   UNL A   1      46.661  24.637  37.569  1.00  0.00    -0.237 OA
ATOM     74  O   UNL A   1      48.401  26.265  36.934  1.00  0.00    -0.744 OA
ENDBRANCH  70  71
ENDBRANCH  49  63
BRANCH  50  75
ATOM     75  C   UNL A   1      36.578  33.237  30.934  1.00  0.00     0.058 A 
ATOM     76  C   UNL A   1      36.774  34.056  29.811  1.00  0.00     0.135 A 
ATOM     77  C   UNL A   1      35.273  33.129  31.440  1.00  0.00     0.135 A 
ATOM     78  F   UNL A   1      38.003  34.203  29.294  1.00  0.00    -0.206 F 
ATOM     79  C   UNL A   1      35.728  34.777  29.241  1.00  0.00     0.059 A 
ATOM     80  C   UNL A   1      34.205  33.814  30.868  1.00  0.00     0.059 A 
ATOM     81  F   UNL A   1      35.026  32.352  32.507  1.00  0.00    -0.206 F 
ATOM     82  C   UNL A   1      34.447  34.654  29.782  1.00  0.00     0.060 A 
BRANCH  82  83
ATOM     83  S   UNL A   1      33.098  35.599  29.043  1.00  0.00     0.124 S 
ATOM     84  O   UNL A   1      32.482  34.600  28.178  1.00  0.00    -0.237 OA
ATOM     85  O   UNL A   1      32.323  35.994  30.215  1.00  0.00    -0.237 OA
ATOM     86  O   UNL A   1      33.787  36.688  28.359  1.00  0.00    -0.744 OA
ENDBRANCH  82  83
ENDBRANCH  50  75
BRANCH  62  87
ATOM     87  C   UNL A   1      39.869  34.407  36.972  1.00  0.00     0.058 A 
ATOM     88  C   UNL A   1      40.471  35.669  36.844  1.00  0.00     0.135 A 
ATOM     89  C   UNL A   1      39.061  34.179  38.099  1.00  0.00     0.135 A 
ATOM     90  F   UNL A   1      41.255  35.941  35.789  1.00  0.00    -0.206 F 
ATOM     91  C   UNL A   1      40.298  36.657  37.810  1.00  0.00     0.059 A 
ATOM     92  C   UNL A   1      38.850  35.162  39.060  1.00  0.00     0.059 A 
ATOM     93  F   UNL A   1      38.452  32.994  38.264  1.00  0.00    -0.206 F 
ATOM     94  C   UNL A   1      39.483  36.395  38.913  1.00  0.00     0.060 A 
BRANCH  94  95
ATOM     95  S   UNL A   1      39.242  37.697  40.140  1.00  0.00     0.124 S 
ATOM     96  O   UNL A   1      38.904  36.921  41.329  1.00  0.00    -0.237 OA
ATOM     97  O   UNL A   1      40.546  38.352  40.161  1.00  0.00    -0.237 OA
ATOM     98  O   UNL A   1      38.155  38.494  39.581  1.00  0.00    -0.744 OA
ENDBRANCH  94  95
ENDBRANCH  62  87
ENDBRANCH  36  37
ENDBRANCH  29  31
ENDBRANCH  28  29
ENDBRANCH  27  28
ENDBRANCH  26  27
ENDBRANCH  25  26
ENDBRANCH   1  25
TORSDOF 22
ENDMDL
