MODEL 1
REMARK VINA RESULT:      -8.7      0.000      0.000
REMARK SMILES O=C(Cc1ccccc1-c1ccn(C(F)F)c(=O)c1)OCCOCCOCCOC(=O)c1ccc(-c2c3nc(c(-c4c(F)cc(S(=O)(=O)[O-])cc4F)c4ccc([nH]4)c(-c4c(F)cc(S(=O)(=O)[O-])cc4F)c4nc(c(-c5c(F)cc(S(=O)(=O)[O-])cc5F)c5ccc2[nH]5)C=C4)C=C3)cc1
REMARK SMILES IDX 24 1 23 2 22 3 21 4 20 5 2 6 1 7 3 8 4 9 5 10 9 11 6 12 8 13
REMARK SMILES IDX 7 14 10 15 11 16 19 17 12 18 17 19 13 20 18 21 14 22 15 23
REMARK SMILES IDX 16 24 25 25 26 26 27 27 28 28 29 29 30 30 31 31 32 32 33 33
REMARK SMILES IDX 97 34 34 35 96 36 35 37 36 38 37 39 90 40 38 41 95 42 89 43
REMARK SMILES IDX 91 44 39 45 94 46 88 47 87 48 40 50 74 51 53 52 73 53 54 54
REMARK SMILES IDX 57 55 72 56 92 57 55 58 56 59 71 61 93 62 58 63 41 64 42 65
REMARK SMILES IDX 51 66 43 67 44 68 50 69 52 70 45 71 46 72 47 73 48 74 49 75
REMARK SMILES IDX 75 76 76 77 85 78 77 79 78 80 84 81 86 82 79 83 80 84 81 85
REMARK SMILES IDX 82 86 83 87 59 88 60 89 69 90 61 91 62 92 68 93 70 94 63 95
REMARK SMILES IDX 64 96 65 97 66 98 67 99
REMARK H PARENT 91 49 57 60
REMARK Flexibility Score: inf
ROOT
ATOM      1  C   UNL A   1      33.775  37.293  32.779  1.00  0.00     0.188 C 
ENDROOT
BRANCH   1   2
ATOM      2  O   UNL A   1      34.437  36.494  33.741  1.00  0.00    -0.376 OA
BRANCH   2   3
ATOM      3  C   UNL A   1      34.690  35.140  33.420  1.00  0.00     0.202 C 
BRANCH   3   4
ATOM      4  C   UNL A   1      36.172  34.862  33.188  1.00  0.00     0.261 C 
BRANCH   4   5
ATOM      5  O   UNL A   1      36.963  34.557  34.357  1.00  0.00    -0.463 OA
BRANCH   5   6
ATOM      6  C   UNL A   1      37.196  33.334  34.881  1.00  0.00     0.310 C 
ATOM      7  O   UNL A   1      36.655  32.349  34.377  1.00  0.00    -0.252 OA
BRANCH   6   8
ATOM      8  C   UNL A   1      38.024  33.206  36.134  1.00  0.00     0.158 C 
BRANCH   8   9
ATOM      9  C   UNL A   1      39.284  34.037  36.246  1.00  0.00    -0.029 A 
ATOM     10  C   UNL A   1      39.241  35.316  36.833  1.00  0.00     0.005 A 
ATOM     11  C   UNL A   1      40.504  33.597  35.673  1.00  0.00    -0.014 A 
ATOM     12  C   UNL A   1      40.363  36.145  36.840  1.00  0.00     0.000 A 
ATOM     13  C   UNL A   1      41.601  34.476  35.629  1.00  0.00     0.009 A 
ATOM     14  C   UNL A   1      41.532  35.738  36.213  1.00  0.00     0.001 A 
BRANCH  11  15
ATOM     15  C   UNL A   1      40.714  32.228  35.144  1.00  0.00    -0.011 A 
ATOM     16  C   UNL A   1      40.575  31.864  33.751  1.00  0.00     0.027 A 
ATOM     17  C   UNL A   1      41.075  31.272  36.022  1.00  0.00     0.080 A 
ATOM     18  C   UNL A   1      40.767  30.598  33.365  1.00  0.00     0.095 A 
ATOM     19  C   UNL A   1      41.281  29.857  35.605  1.00  0.00     0.255 A 
ATOM     20  N   UNL A   1      41.101  29.601  34.259  1.00  0.00    -0.258 N 
ATOM     21  O   UNL A   1      41.560  29.033  36.468  1.00  0.00    -0.269 OA
BRANCH  20  22
ATOM     22  C   UNL A   1      41.235  28.230  33.823  1.00  0.00     0.451 C 
ATOM     23  F   UNL A   1      40.096  27.781  33.244  1.00  0.00    -0.185 F 
ATOM     24  F   UNL A   1      42.226  28.136  32.898  1.00  0.00    -0.185 F 
ENDBRANCH  20  22
ENDBRANCH  11  15
ENDBRANCH   8   9
ENDBRANCH   6   8
ENDBRANCH   5   6
ENDBRANCH   4   5
ENDBRANCH   3   4
ENDBRANCH   2   3
ENDBRANCH   1   2
BRANCH   1  25
ATOM     25  C   UNL A   1      32.724  36.494  31.987  1.00  0.00     0.188 C 
BRANCH  25  26
ATOM     26  O   UNL A   1      32.549  36.770  30.600  1.00  0.00    -0.376 OA
BRANCH  26  27
ATOM     27  C   UNL A   1      32.847  35.750  29.650  1.00  0.00     0.202 C 
BRANCH  27  28
ATOM     28  C   UNL A   1      34.152  34.968  29.832  1.00  0.00     0.261 C 
BRANCH  28  29
ATOM     29  O   UNL A   1      33.962  33.578  30.160  1.00  0.00    -0.460 OA
BRANCH  29  30
ATOM     30  C   UNL A   1      34.188  32.712  29.139  1.00  0.00     0.338 C 
ATOM     31  O   UNL A   1      33.536  32.608  28.114  1.00  0.00    -0.246 OA
BRANCH  30  32
ATOM     32  C   UNL A   1      35.438  31.949  29.342  1.00  0.00     0.060 A 
ATOM     33  C   UNL A   1      35.970  31.891  30.638  1.00  0.00     0.016 A 
ATOM     34  C   UNL A   1      36.158  31.431  28.268  1.00  0.00     0.016 A 
ATOM     35  C   UNL A   1      37.250  31.368  30.859  1.00  0.00     0.010 A 
ATOM     36  C   UNL A   1      37.443  30.917  28.490  1.00  0.00     0.010 A 
ATOM     37  C   UNL A   1      38.016  30.914  29.779  1.00  0.00    -0.014 A 
BRANCH  37  38
ATOM     38  C   UNL A   1      39.457  30.570  29.927  1.00  0.00     0.031 A 
ATOM     39  C   UNL A   1      40.475  31.679  29.976  1.00  0.00     0.074 A 
ATOM     40  C   UNL A   1      39.896  29.300  29.985  1.00  0.00     0.049 A 
ATOM     41  N   UNL A   1      41.778  31.601  29.911  1.00  0.00    -0.248 NA
ATOM     42  C   UNL A   1      39.958  33.043  30.170  1.00  0.00     0.031 C 
ATOM     43  C   UNL A   1      39.064  28.107  30.108  1.00  0.00     0.029 A 
ATOM     44  N   UNL A   1      41.175  28.799  29.856  1.00  0.00    -0.354 N 
ATOM     45  C   UNL A   1      42.243  32.888  30.144  1.00  0.00     0.074 A 
ATOM     46  C   UNL A   1      41.081  33.746  30.241  1.00  0.00     0.031 C 
ATOM     47  C   UNL A   1      39.831  27.022  29.889  1.00  0.00     0.029 A 
ATOM     48  C   UNL A   1      41.184  27.454  29.569  1.00  0.00     0.049 A 
ATOM     49  H   UNL A   1      41.989  29.342  29.958  1.00  0.00     0.167 HD
ATOM     50  C   UNL A   1      43.518  33.300  30.335  1.00  0.00     0.037 A 
ATOM     51  C   UNL A   1      42.137  26.682  29.011  1.00  0.00     0.037 A 
ATOM     52  C   UNL A   1      44.674  32.450  30.228  1.00  0.00     0.049 A 
ATOM     53  C   UNL A   1      43.522  27.229  28.832  1.00  0.00     0.074 A 
ATOM     54  C   UNL A   1      45.997  32.743  30.516  1.00  0.00     0.029 A 
ATOM     55  N   UNL A   1      44.647  31.146  29.765  1.00  0.00    -0.354 N 
ATOM     56  N   UNL A   1      43.966  28.426  29.119  1.00  0.00    -0.248 NA
ATOM     57  C   UNL A   1      44.547  26.312  28.313  1.00  0.00     0.031 C 
ATOM     58  C   UNL A   1      46.776  31.628  30.181  1.00  0.00     0.029 A 
ATOM     59  C   UNL A   1      45.934  30.632  29.718  1.00  0.00     0.049 A 
ATOM     60  H   UNL A   1      43.835  30.655  29.509  1.00  0.00     0.167 HD
ATOM     61  C   UNL A   1      45.341  28.370  28.932  1.00  0.00     0.074 A 
ATOM     62  C   UNL A   1      45.644  27.050  28.421  1.00  0.00     0.031 C 
ATOM     63  C   UNL A   1      46.262  29.316  29.233  1.00  0.00     0.037 A 
BRANCH  50  64
ATOM     64  C   UNL A   1      43.725  34.725  30.752  1.00  0.00     0.058 A 
ATOM     65  C   UNL A   1      43.694  35.084  32.109  1.00  0.00     0.135 A 
ATOM     66  C   UNL A   1      44.017  35.722  29.810  1.00  0.00     0.135 A 
ATOM     67  F   UNL A   1      43.409  34.166  33.046  1.00  0.00    -0.206 F 
ATOM     68  C   UNL A   1      43.932  36.390  32.519  1.00  0.00     0.059 A 
ATOM     69  C   UNL A   1      44.274  37.032  30.199  1.00  0.00     0.059 A 
ATOM     70  F   UNL A   1      44.055  35.425  28.501  1.00  0.00    -0.206 F 
ATOM     71  C   UNL A   1      44.223  37.357  31.556  1.00  0.00     0.060 A 
BRANCH  71  72
ATOM     72  S   UNL A   1      44.555  39.043  32.108  1.00  0.00     0.124 S 
ATOM     73  O   UNL A   1      45.708  38.842  32.979  1.00  0.00    -0.237 OA
ATOM     74  O   UNL A   1      44.824  39.737  30.852  1.00  0.00    -0.237 OA
ATOM     75  O   UNL A   1      43.318  39.430  32.780  1.00  0.00    -0.744 OA
ENDBRANCH  71  72
ENDBRANCH  50  64
BRANCH  51  76
ATOM     76  C   UNL A   1      41.793  25.348  28.460  1.00  0.00     0.058 A 
ATOM     77  C   UNL A   1      42.265  24.157  29.019  1.00  0.00     0.135 A 
ATOM     78  C   UNL A   1      41.030  25.267  27.282  1.00  0.00     0.135 A 
ATOM     79  F   UNL A   1      43.007  24.190  30.135  1.00  0.00    -0.206 F 
ATOM     80  C   UNL A   1      42.012  22.927  28.417  1.00  0.00     0.059 A 
ATOM     81  C   UNL A   1      40.755  24.052  26.667  1.00  0.00     0.059 A 
ATOM     82  F   UNL A   1      40.553  26.387  26.717  1.00  0.00    -0.206 F 
ATOM     83  C   UNL A   1      41.264  22.888  27.237  1.00  0.00     0.060 A 
BRANCH  83  84
ATOM     84  S   UNL A   1      40.954  21.286  26.461  1.00  0.00     0.124 S 
ATOM     85  O   UNL A   1      40.816  20.418  27.624  1.00  0.00    -0.237 OA
ATOM     86  O   UNL A   1      39.732  21.549  25.707  1.00  0.00    -0.237 OA
ATOM     87  O   UNL A   1      42.147  21.071  25.647  1.00  0.00    -0.744 OA
ENDBRANCH  83  84
ENDBRANCH  51  76
BRANCH  63  88
ATOM     88  C   UNL A   1      47.706  28.920  29.159  1.00  0.00     0.058 A 
ATOM     89  C   UNL A   1      48.522  29.246  28.069  1.00  0.00     0.135 A 
ATOM     90  C   UNL A   1      48.284  28.208  30.225  1.00  0.00     0.135 A 
ATOM     91  F   UNL A   1      48.012  29.905  27.017  1.00  0.00    -0.206 F 
ATOM     92  C   UNL A   1      49.863  28.870  28.030  1.00  0.00     0.059 A 
ATOM     93  C   UNL A   1      49.624  27.841  30.218  1.00  0.00     0.059 A 
ATOM     94  F   UNL A   1      47.542  27.869  31.292  1.00  0.00    -0.206 F 
ATOM     95  C   UNL A   1      50.404  28.168  29.110  1.00  0.00     0.060 A 
BRANCH  95  96
ATOM     96  S   UNL A   1      52.150  27.713  29.071  1.00  0.00     0.124 S 
ATOM     97  O   UNL A   1      52.096  26.307  29.459  1.00  0.00    -0.237 OA
ATOM     98  O   UNL A   1      52.515  27.974  27.682  1.00  0.00    -0.237 OA
ATOM     99  O   UNL A   1      52.755  28.613  30.049  1.00  0.00    -0.744 OA
ENDBRANCH  95  96
ENDBRANCH  63  88
ENDBRANCH  37  38
ENDBRANCH  30  32
ENDBRANCH  29  30
ENDBRANCH  28  29
ENDBRANCH  27  28
ENDBRANCH  26  27
ENDBRANCH  25  26
ENDBRANCH   1  25
TORSDOF 23
ENDMDL
MODEL 2
REMARK VINA RESULT:      -8.1      5.596     13.017
REMARK SMILES O=C(Cc1ccccc1-c1ccn(C(F)F)c(=O)c1)OCCOCCOCCOC(=O)c1ccc(-c2c3nc(c(-c4c(F)cc(S(=O)(=O)[O-])cc4F)c4ccc([nH]4)c(-c4c(F)cc(S(=O)(=O)[O-])cc4F)c4nc(c(-c5c(F)cc(S(=O)(=O)[O-])cc5F)c5ccc2[nH]5)C=C4)C=C3)cc1
REMARK SMILES IDX 24 1 23 2 22 3 21 4 20 5 2 6 1 7 3 8 4 9 5 10 9 11 6 12 8 13
REMARK SMILES IDX 7 14 10 15 11 16 19 17 12 18 17 19 13 20 18 21 14 22 15 23
REMARK SMILES IDX 16 24 25 25 26 26 27 27 28 28 29 29 30 30 31 31 32 32 33 33
REMARK SMILES IDX 97 34 34 35 96 36 35 37 36 38 37 39 90 40 38 41 95 42 89 43
REMARK SMILES IDX 91 44 39 45 94 46 88 47 87 48 40 50 74 51 53 52 73 53 54 54
REMARK SMILES IDX 57 55 72 56 92 57 55 58 56 59 71 61 93 62 58 63 41 64 42 65
REMARK SMILES IDX 51 66 43 67 44 68 50 69 52 70 45 71 46 72 47 73 48 74 49 75
REMARK SMILES IDX 75 76 76 77 85 78 77 79 78 80 84 81 86 82 79 83 80 84 81 85
REMARK SMILES IDX 82 86 83 87 59 88 60 89 69 90 61 91 62 92 68 93 70 94 63 95
REMARK SMILES IDX 64 96 65 97 66 98 67 99
REMARK H PARENT 91 49 57 60
REMARK Flexibility Score: inf
ROOT
ATOM      1  C   UNL A   1      40.378  21.560  26.306  1.00  0.00     0.188 C 
ENDROOT
BRANCH   1   2
ATOM      2  O   UNL A   1      39.028  21.981  26.348  1.00  0.00    -0.376 OA
BRANCH   2   3
ATOM      3  C   UNL A   1      38.129  21.424  25.411  1.00  0.00     0.202 C 
BRANCH   3   4
ATOM      4  C   UNL A   1      36.696  21.904  25.619  1.00  0.00     0.261 C 
BRANCH   4   5
ATOM      5  O   UNL A   1      35.792  21.745  24.504  1.00  0.00    -0.463 OA
BRANCH   5   6
ATOM      6  C   UNL A   1      35.289  22.726  23.722  1.00  0.00     0.310 C 
ATOM      7  O   UNL A   1      35.924  23.772  23.583  1.00  0.00    -0.252 OA
BRANCH   6   8
ATOM      8  C   UNL A   1      33.916  22.567  23.120  1.00  0.00     0.158 C 
BRANCH   8   9
ATOM      9  C   UNL A   1      32.715  22.843  23.998  1.00  0.00    -0.029 A 
ATOM     10  C   UNL A   1      32.250  24.160  24.174  1.00  0.00     0.005 A 
ATOM     11  C   UNL A   1      32.098  21.804  24.741  1.00  0.00    -0.014 A 
ATOM     12  C   UNL A   1      31.221  24.449  25.070  1.00  0.00     0.000 A 
ATOM     13  C   UNL A   1      31.111  22.128  25.689  1.00  0.00     0.009 A 
ATOM     14  C   UNL A   1      30.672  23.439  25.848  1.00  0.00     0.001 A 
BRANCH  11  15
ATOM     15  C   UNL A   1      32.405  20.366  24.549  1.00  0.00    -0.011 A 
ATOM     16  C   UNL A   1      32.894  19.492  25.593  1.00  0.00     0.027 A 
ATOM     17  C   UNL A   1      32.195  19.844  23.326  1.00  0.00     0.080 A 
ATOM     18  C   UNL A   1      33.161  18.210  25.326  1.00  0.00     0.095 A 
ATOM     19  C   UNL A   1      32.500  18.420  23.014  1.00  0.00     0.255 A 
ATOM     20  N   UNL A   1      32.986  17.671  24.068  1.00  0.00    -0.258 N 
ATOM     21  O   UNL A   1      32.330  18.029  21.864  1.00  0.00    -0.269 OA
BRANCH  20  22
ATOM     22  C   UNL A   1      33.348  16.299  23.792  1.00  0.00     0.451 C 
ATOM     23  F   UNL A   1      34.692  16.147  23.724  1.00  0.00    -0.185 F 
ATOM     24  F   UNL A   1      32.898  15.496  24.792  1.00  0.00    -0.185 F 
ENDBRANCH  20  22
ENDBRANCH  11  15
ENDBRANCH   8   9
ENDBRANCH   6   8
ENDBRANCH   5   6
ENDBRANCH   4   5
ENDBRANCH   3   4
ENDBRANCH   2   3
ENDBRANCH   1   2
BRANCH   1  25
ATOM     25  C   UNL A   1      40.536  20.078  26.688  1.00  0.00     0.188 C 
BRANCH  25  26
ATOM     26  O   UNL A   1      41.113  19.179  25.744  1.00  0.00    -0.376 OA
BRANCH  26  27
ATOM     27  C   UNL A   1      42.232  18.390  26.137  1.00  0.00     0.202 C 
BRANCH  27  28
ATOM     28  C   UNL A   1      43.620  18.847  25.678  1.00  0.00     0.261 C 
BRANCH  28  29
ATOM     29  O   UNL A   1      43.631  20.137  25.037  1.00  0.00    -0.460 OA
BRANCH  29  30
ATOM     30  C   UNL A   1      44.779  20.440  24.378  1.00  0.00     0.338 C 
ATOM     31  O   UNL A   1      45.208  19.898  23.374  1.00  0.00    -0.246 OA
BRANCH  30  32
ATOM     32  C   UNL A   1      45.435  21.634  24.953  1.00  0.00     0.060 A 
ATOM     33  C   UNL A   1      45.298  21.861  26.330  1.00  0.00     0.016 A 
ATOM     34  C   UNL A   1      46.040  22.593  24.145  1.00  0.00     0.016 A 
ATOM     35  C   UNL A   1      45.712  23.072  26.897  1.00  0.00     0.010 A 
ATOM     36  C   UNL A   1      46.445  23.809  24.712  1.00  0.00     0.010 A 
ATOM     37  C   UNL A   1      46.252  24.076  26.083  1.00  0.00    -0.014 A 
BRANCH  37  38
ATOM     38  C   UNL A   1      46.488  25.456  26.590  1.00  0.00     0.031 A 
ATOM     39  C   UNL A   1      45.313  26.377  26.785  1.00  0.00     0.074 A 
ATOM     40  C   UNL A   1      47.720  25.930  26.851  1.00  0.00     0.049 A 
ATOM     41  N   UNL A   1      45.308  27.661  27.032  1.00  0.00    -0.248 NA
ATOM     42  C   UNL A   1      43.976  25.762  26.743  1.00  0.00     0.031 C 
ATOM     43  C   UNL A   1      48.954  25.153  26.873  1.00  0.00     0.029 A 
ATOM     44  N   UNL A   1      48.141  27.226  27.064  1.00  0.00    -0.354 N 
ATOM     45  C   UNL A   1      43.981  27.993  27.262  1.00  0.00     0.074 A 
ATOM     46  C   UNL A   1      43.197  26.800  27.017  1.00  0.00     0.031 C 
ATOM     47  C   UNL A   1      49.998  26.001  26.926  1.00  0.00     0.029 A 
ATOM     48  C   UNL A   1      49.499  27.369  26.897  1.00  0.00     0.049 A 
ATOM     49  H   UNL A   1      47.539  27.965  27.309  1.00  0.00     0.167 HD
ATOM     50  C   UNL A   1      43.472  29.165  27.712  1.00  0.00     0.037 A 
ATOM     51  C   UNL A   1      50.241  28.464  26.641  1.00  0.00     0.037 A 
ATOM     52  C   UNL A   1      44.248  30.353  27.946  1.00  0.00     0.049 A 
ATOM     53  C   UNL A   1      49.616  29.824  26.746  1.00  0.00     0.074 A 
ATOM     54  C   UNL A   1      43.849  31.554  28.509  1.00  0.00     0.029 A 
ATOM     55  N   UNL A   1      45.579  30.501  27.597  1.00  0.00    -0.354 N 
ATOM     56  N   UNL A   1      48.375  30.127  27.031  1.00  0.00    -0.248 NA
ATOM     57  C   UNL A   1      50.495  30.986  26.556  1.00  0.00     0.031 C 
ATOM     58  C   UNL A   1      44.929  32.444  28.457  1.00  0.00     0.029 A 
ATOM     59  C   UNL A   1      46.008  31.786  27.892  1.00  0.00     0.049 A 
ATOM     60  H   UNL A   1      46.140  29.798  27.198  1.00  0.00     0.167 HD
ATOM     61  C   UNL A   1      48.352  31.508  27.174  1.00  0.00     0.074 A 
ATOM     62  C   UNL A   1      49.680  31.988  26.856  1.00  0.00     0.031 C 
ATOM     63  C   UNL A   1      47.329  32.284  27.605  1.00  0.00     0.037 A 
BRANCH  50  64
ATOM     64  C   UNL A   1      42.011  29.196  28.049  1.00  0.00     0.058 A 
ATOM     65  C   UNL A   1      41.587  29.197  29.388  1.00  0.00     0.135 A 
ATOM     66  C   UNL A   1      41.037  29.291  27.046  1.00  0.00     0.135 A 
ATOM     67  F   UNL A   1      42.484  29.098  30.382  1.00  0.00    -0.206 F 
ATOM     68  C   UNL A   1      40.241  29.276  29.721  1.00  0.00     0.059 A 
ATOM     69  C   UNL A   1      39.685  29.387  27.357  1.00  0.00     0.059 A 
ATOM     70  F   UNL A   1      41.396  29.291  25.752  1.00  0.00    -0.206 F 
ATOM     71  C   UNL A   1      39.297  29.372  28.698  1.00  0.00     0.060 A 
BRANCH  71  72
ATOM     72  S   UNL A   1      37.554  29.499  29.150  1.00  0.00     0.124 S 
ATOM     73  O   UNL A   1      36.904  28.991  27.946  1.00  0.00    -0.237 OA
ATOM     74  O   UNL A   1      37.472  28.637  30.325  1.00  0.00    -0.237 OA
ATOM     75  O   UNL A   1      37.373  30.924  29.408  1.00  0.00    -0.744 OA
ENDBRANCH  71  72
ENDBRANCH  50  64
BRANCH  51  76
ATOM     76  C   UNL A   1      51.629  28.327  26.134  1.00  0.00     0.058 A 
ATOM     77  C   UNL A   1      52.746  28.376  26.972  1.00  0.00     0.135 A 
ATOM     78  C   UNL A   1      51.848  28.222  24.749  1.00  0.00     0.135 A 
ATOM     79  F   UNL A   1      52.583  28.487  28.298  1.00  0.00    -0.206 F 
ATOM     80  C   UNL A   1      54.038  28.351  26.455  1.00  0.00     0.059 A 
ATOM     81  C   UNL A   1      53.127  28.185  24.209  1.00  0.00     0.059 A 
ATOM     82  F   UNL A   1      50.802  28.166  23.911  1.00  0.00    -0.206 F 
ATOM     83  C   UNL A   1      54.217  28.265  25.071  1.00  0.00     0.060 A 
BRANCH  83  84
ATOM     84  S   UNL A   1      55.900  28.245  24.415  1.00  0.00     0.124 S 
ATOM     85  O   UNL A   1      55.735  27.442  23.209  1.00  0.00    -0.237 OA
ATOM     86  O   UNL A   1      56.158  29.667  24.209  1.00  0.00    -0.237 OA
ATOM     87  O   UNL A   1      56.671  27.626  25.488  1.00  0.00    -0.744 OA
ENDBRANCH  83  84
ENDBRANCH  51  76
BRANCH  63  88
ATOM     88  C   UNL A   1      47.631  33.721  27.901  1.00  0.00     0.058 A 
ATOM     89  C   UNL A   1      48.135  34.147  29.137  1.00  0.00     0.135 A 
ATOM     90  C   UNL A   1      47.423  34.692  26.906  1.00  0.00     0.135 A 
ATOM     91  F   UNL A   1      48.330  33.262  30.127  1.00  0.00    -0.206 F 
ATOM     92  C   UNL A   1      48.413  35.489  29.382  1.00  0.00     0.059 A 
ATOM     93  C   UNL A   1      47.714  36.034  27.120  1.00  0.00     0.059 A 
ATOM     94  F   UNL A   1      46.939  34.336  25.705  1.00  0.00    -0.206 F 
ATOM     95  C   UNL A   1      48.199  36.425  28.368  1.00  0.00     0.060 A 
BRANCH  95  96
ATOM     96  S   UNL A   1      48.593  38.159  28.678  1.00  0.00     0.124 S 
ATOM     97  O   UNL A   1      47.530  38.542  29.601  1.00  0.00    -0.237 OA
ATOM     98  O   UNL A   1      49.933  38.081  29.251  1.00  0.00    -0.237 OA
ATOM     99  O   UNL A   1      48.521  38.764  27.351  1.00  0.00    -0.744 OA
ENDBRANCH  95  96
ENDBRANCH  63  88
ENDBRANCH  37  38
ENDBRANCH  30  32
ENDBRANCH  29  30
ENDBRANCH  28  29
ENDBRANCH  27  28
ENDBRANCH  26  27
ENDBRANCH  25  26
ENDBRANCH   1  25
TORSDOF 23
ENDMDL
MODEL 3
REMARK VINA RESULT:      -7.9      1.930      2.723
REMARK SMILES O=C(Cc1ccccc1-c1ccn(C(F)F)c(=O)c1)OCCOCCOCCOC(=O)c1ccc(-c2c3nc(c(-c4c(F)cc(S(=O)(=O)[O-])cc4F)c4ccc([nH]4)c(-c4c(F)cc(S(=O)(=O)[O-])cc4F)c4nc(c(-c5c(F)cc(S(=O)(=O)[O-])cc5F)c5ccc2[nH]5)C=C4)C=C3)cc1
REMARK SMILES IDX 24 1 23 2 22 3 21 4 20 5 2 6 1 7 3 8 4 9 5 10 9 11 6 12 8 13
REMARK SMILES IDX 7 14 10 15 11 16 19 17 12 18 17 19 13 20 18 21 14 22 15 23
REMARK SMILES IDX 16 24 25 25 26 26 27 27 28 28 29 29 30 30 31 31 32 32 33 33
REMARK SMILES IDX 97 34 34 35 96 36 35 37 36 38 37 39 90 40 38 41 95 42 89 43
REMARK SMILES IDX 91 44 39 45 94 46 88 47 87 48 40 50 74 51 53 52 73 53 54 54
REMARK SMILES IDX 57 55 72 56 92 57 55 58 56 59 71 61 93 62 58 63 41 64 42 65
REMARK SMILES IDX 51 66 43 67 44 68 50 69 52 70 45 71 46 72 47 73 48 74 49 75
REMARK SMILES IDX 75 76 76 77 85 78 77 79 78 80 84 81 86 82 79 83 80 84 81 85
REMARK SMILES IDX 82 86 83 87 59 88 60 89 69 90 61 91 62 92 68 93 70 94 63 95
REMARK SMILES IDX 64 96 65 97 66 98 67 99
REMARK H PARENT 91 49 57 60
REMARK Flexibility Score: inf
ROOT
ATOM      1  C   UNL A   1      33.792  37.740  32.225  1.00  0.00     0.188 C 
ENDROOT
BRANCH   1   2
ATOM      2  O   UNL A   1      34.102  37.261  33.520  1.00  0.00    -0.376 OA
BRANCH   2   3
ATOM      3  C   UNL A   1      34.119  35.862  33.724  1.00  0.00     0.202 C 
BRANCH   3   4
ATOM      4  C   UNL A   1      35.420  35.219  33.253  1.00  0.00     0.261 C 
BRANCH   4   5
ATOM      5  O   UNL A   1      36.339  34.790  34.281  1.00  0.00    -0.463 OA
BRANCH   5   6
ATOM      6  C   UNL A   1      37.084  33.663  34.283  1.00  0.00     0.310 C 
ATOM      7  O   UNL A   1      36.523  32.568  34.229  1.00  0.00    -0.252 OA
BRANCH   6   8
ATOM      8  C   UNL A   1      38.578  33.760  34.457  1.00  0.00     0.158 C 
BRANCH   8   9
ATOM      9  C   UNL A   1      39.372  32.475  34.551  1.00  0.00    -0.029 A 
ATOM     10  C   UNL A   1      39.972  31.925  33.402  1.00  0.00     0.005 A 
ATOM     11  C   UNL A   1      39.442  31.746  35.765  1.00  0.00    -0.014 A 
ATOM     12  C   UNL A   1      40.606  30.683  33.443  1.00  0.00     0.000 A 
ATOM     13  C   UNL A   1      40.024  30.465  35.767  1.00  0.00     0.009 A 
ATOM     14  C   UNL A   1      40.606  29.941  34.616  1.00  0.00     0.001 A 
BRANCH  11  15
ATOM     15  C   UNL A   1      38.967  32.273  37.067  1.00  0.00    -0.011 A 
ATOM     16  C   UNL A   1      39.707  33.210  37.884  1.00  0.00     0.027 A 
ATOM     17  C   UNL A   1      37.761  31.861  37.501  1.00  0.00     0.080 A 
ATOM     18  C   UNL A   1      39.210  33.619  39.055  1.00  0.00     0.095 A 
ATOM     19  C   UNL A   1      37.202  32.302  38.810  1.00  0.00     0.255 A 
ATOM     20  N   UNL A   1      37.992  33.177  39.529  1.00  0.00    -0.258 N 
ATOM     21  O   UNL A   1      36.119  31.846  39.161  1.00  0.00    -0.269 OA
BRANCH  20  22
ATOM     22  C   UNL A   1      37.511  33.584  40.831  1.00  0.00     0.451 C 
ATOM     23  F   UNL A   1      38.131  32.901  41.823  1.00  0.00    -0.185 F 
ATOM     24  F   UNL A   1      37.769  34.904  41.023  1.00  0.00    -0.185 F 
ENDBRANCH  20  22
ENDBRANCH  11  15
ENDBRANCH   8   9
ENDBRANCH   6   8
ENDBRANCH   5   6
ENDBRANCH   4   5
ENDBRANCH   3   4
ENDBRANCH   2   3
ENDBRANCH   1   2
BRANCH   1  25
ATOM     25  C   UNL A   1      33.038  36.693  31.385  1.00  0.00     0.188 C 
BRANCH  25  26
ATOM     26  O   UNL A   1      32.703  37.003  30.035  1.00  0.00    -0.376 OA
BRANCH  26  27
ATOM     27  C   UNL A   1      32.907  36.016  29.029  1.00  0.00     0.202 C 
BRANCH  27  28
ATOM     28  C   UNL A   1      34.139  35.114  29.157  1.00  0.00     0.261 C 
BRANCH  28  29
ATOM     29  O   UNL A   1      33.869  33.835  29.764  1.00  0.00    -0.460 OA
BRANCH  29  30
ATOM     30  C   UNL A   1      34.024  32.766  28.940  1.00  0.00     0.338 C 
ATOM     31  O   UNL A   1      33.291  32.441  28.023  1.00  0.00    -0.246 OA
BRANCH  30  32
ATOM     32  C   UNL A   1      35.300  32.065  29.198  1.00  0.00     0.060 A 
ATOM     33  C   UNL A   1      35.844  32.140  30.488  1.00  0.00     0.016 A 
ATOM     34  C   UNL A   1      36.027  31.475  28.167  1.00  0.00     0.016 A 
ATOM     35  C   UNL A   1      37.142  31.680  30.741  1.00  0.00     0.010 A 
ATOM     36  C   UNL A   1      37.331  31.024  28.420  1.00  0.00     0.010 A 
ATOM     37  C   UNL A   1      37.914  31.155  29.698  1.00  0.00    -0.014 A 
BRANCH  37  38
ATOM     38  C   UNL A   1      39.366  30.872  29.860  1.00  0.00     0.031 A 
ATOM     39  C   UNL A   1      40.335  32.022  29.930  1.00  0.00     0.074 A 
ATOM     40  C   UNL A   1      39.859  29.620  29.914  1.00  0.00     0.049 A 
ATOM     41  N   UNL A   1      41.641  32.000  29.880  1.00  0.00    -0.248 NA
ATOM     42  C   UNL A   1      39.758  33.361  30.129  1.00  0.00     0.031 C 
ATOM     43  C   UNL A   1      39.077  28.393  30.018  1.00  0.00     0.029 A 
ATOM     44  N   UNL A   1      41.158  29.176  29.796  1.00  0.00    -0.354 N 
ATOM     45  C   UNL A   1      42.048  33.303  30.129  1.00  0.00     0.074 A 
ATOM     46  C   UNL A   1      40.849  34.111  30.219  1.00  0.00     0.031 C 
ATOM     47  C   UNL A   1      39.891  27.343  29.799  1.00  0.00     0.029 A 
ATOM     48  C   UNL A   1      41.228  27.835  29.499  1.00  0.00     0.049 A 
ATOM     49  H   UNL A   1      41.947  29.752  29.912  1.00  0.00     0.167 HD
ATOM     50  C   UNL A   1      43.302  33.768  30.339  1.00  0.00     0.037 A 
ATOM     51  C   UNL A   1      42.220  27.109  28.946  1.00  0.00     0.037 A 
ATOM     52  C   UNL A   1      44.494  32.969  30.239  1.00  0.00     0.049 A 
ATOM     53  C   UNL A   1      43.583  27.715  28.788  1.00  0.00     0.074 A 
ATOM     54  C   UNL A   1      45.800  33.315  30.544  1.00  0.00     0.029 A 
ATOM     55  N   UNL A   1      44.529  31.669  29.766  1.00  0.00    -0.354 N 
ATOM     56  N   UNL A   1      43.971  28.928  29.090  1.00  0.00    -0.248 NA
ATOM     57  C   UNL A   1      44.651  26.847  28.274  1.00  0.00     0.031 C 
ATOM     58  C   UNL A   1      46.630  32.238  30.210  1.00  0.00     0.029 A 
ATOM     59  C   UNL A   1      45.836  31.210  29.730  1.00  0.00     0.049 A 
ATOM     60  H   UNL A   1      43.741  31.146  29.495  1.00  0.00     0.167 HD
ATOM     61  C   UNL A   1      45.349  28.932  28.919  1.00  0.00     0.074 A 
ATOM     62  C   UNL A   1      45.715  27.631  28.401  1.00  0.00     0.031 C 
ATOM     63  C   UNL A   1      46.226  29.914  29.238  1.00  0.00     0.037 A 
BRANCH  50  64
ATOM     64  C   UNL A   1      43.443  35.197  30.769  1.00  0.00     0.058 A 
ATOM     65  C   UNL A   1      43.527  35.528  32.131  1.00  0.00     0.135 A 
ATOM     66  C   UNL A   1      43.559  36.230  29.829  1.00  0.00     0.135 A 
ATOM     67  F   UNL A   1      43.411  34.573  33.068  1.00  0.00    -0.206 F 
ATOM     68  C   UNL A   1      43.707  36.841  32.548  1.00  0.00     0.059 A 
ATOM     69  C   UNL A   1      43.756  37.549  30.223  1.00  0.00     0.059 A 
ATOM     70  F   UNL A   1      43.483  35.961  28.516  1.00  0.00    -0.206 F 
ATOM     71  C   UNL A   1      43.822  37.845  31.586  1.00  0.00     0.060 A 
BRANCH  71  72
ATOM     72  S   UNL A   1      44.081  39.541  32.145  1.00  0.00     0.124 S 
ATOM     73  O   UNL A   1      45.458  39.482  32.626  1.00  0.00    -0.237 OA
ATOM     74  O   UNL A   1      43.871  40.309  30.921  1.00  0.00    -0.237 OA
ATOM     75  O   UNL A   1      43.063  39.719  33.175  1.00  0.00    -0.744 OA
ENDBRANCH  71  72
ENDBRANCH  50  64
BRANCH  51  76
ATOM     76  C   UNL A   1      41.940  25.766  28.380  1.00  0.00     0.058 A 
ATOM     77  C   UNL A   1      42.417  24.588  28.962  1.00  0.00     0.135 A 
ATOM     78  C   UNL A   1      41.236  25.664  27.168  1.00  0.00     0.135 A 
ATOM     79  F   UNL A   1      43.103  24.641  30.113  1.00  0.00    -0.206 F 
ATOM     80  C   UNL A   1      42.227  23.352  28.350  1.00  0.00     0.059 A 
ATOM     81  C   UNL A   1      41.024  24.442  26.541  1.00  0.00     0.059 A 
ATOM     82  F   UNL A   1      40.756  26.771  26.580  1.00  0.00    -0.206 F 
ATOM     83  C   UNL A   1      41.538  23.292  27.135  1.00  0.00     0.060 A 
BRANCH  83  84
ATOM     84  S   UNL A   1      41.310  21.683  26.347  1.00  0.00     0.124 S 
ATOM     85  O   UNL A   1      39.960  21.807  25.811  1.00  0.00    -0.237 OA
ATOM     86  O   UNL A   1      42.392  21.673  25.367  1.00  0.00    -0.237 OA
ATOM     87  O   UNL A   1      41.469  20.742  27.453  1.00  0.00    -0.744 OA
ENDBRANCH  83  84
ENDBRANCH  51  76
BRANCH  63  88
ATOM     88  C   UNL A   1      47.686  29.580  29.178  1.00  0.00     0.058 A 
ATOM     89  C   UNL A   1      48.466  29.808  28.037  1.00  0.00     0.135 A 
ATOM     90  C   UNL A   1      48.318  29.033  30.309  1.00  0.00     0.135 A 
ATOM     91  F   UNL A   1      47.905  30.309  26.925  1.00  0.00    -0.206 F 
ATOM     92  C   UNL A   1      49.822  29.494  28.013  1.00  0.00     0.059 A 
ATOM     93  C   UNL A   1      49.674  28.731  30.315  1.00  0.00     0.059 A 
ATOM     94  F   UNL A   1      47.613  28.792  31.427  1.00  0.00    -0.206 F 
ATOM     95  C   UNL A   1      50.417  28.956  29.156  1.00  0.00     0.060 A 
BRANCH  95  96
ATOM     96  S   UNL A   1      52.183  28.582  29.132  1.00  0.00     0.124 S 
ATOM     97  O   UNL A   1      52.295  27.622  30.225  1.00  0.00    -0.237 OA
ATOM     98  O   UNL A   1      52.373  28.041  27.790  1.00  0.00    -0.237 OA
ATOM     99  O   UNL A   1      52.806  29.881  29.369  1.00  0.00    -0.744 OA
ENDBRANCH  95  96
ENDBRANCH  63  88
ENDBRANCH  37  38
ENDBRANCH  30  32
ENDBRANCH  29  30
ENDBRANCH  28  29
ENDBRANCH  27  28
ENDBRANCH  26  27
ENDBRANCH  25  26
ENDBRANCH   1  25
TORSDOF 23
ENDMDL
