MODEL 1
REMARK VINA RESULT:     -11.2      0.000      0.000
REMARK SMILES Cc1ccc([N+](=O)[O-])c(N[C@H]2[C@@H]3CC[C@@H](C3)[C@@H]2C(=O)OCCOCCOCCOC(=O)c2ccc(-c3c4nc(c(-c5c(F)cc(S(=O)(=O)[O-])cc5F)c5ccc([nH]5)c(-c5c(F)cc(S(=O)(=O)[O-])cc5F)c5nc(c(-c6c(F)cc(S(=O)(=O)[O-])cc6F)c6ccc3[nH]6)C=C5)C=C4)cc2)c1
REMARK SMILES IDX 24 1 23 2 22 3 21 4 20 5 18 6 19 7 17 8 11 9 12 10 13 11
REMARK SMILES IDX 16 12 15 13 14 14 10 15 9 17 1 18 2 19 3 20 98 21 4 22 5 23
REMARK SMILES IDX 6 24 7 25 8 26 25 27 26 28 27 29 28 30 29 31 30 32 31 33
REMARK SMILES IDX 32 34 33 35 97 36 34 37 96 38 35 39 36 40 37 41 90 42 38 43
REMARK SMILES IDX 95 44 89 45 91 46 39 47 94 48 88 49 87 50 40 52 74 53 53 54
REMARK SMILES IDX 73 55 54 56 57 57 72 58 92 59 55 60 56 61 71 63 93 64 58 65
REMARK SMILES IDX 41 66 42 67 51 68 43 69 44 70 50 71 52 72 45 73 46 74 47 75
REMARK SMILES IDX 48 76 49 77 75 78 76 79 85 80 77 81 78 82 84 83 86 84 79 85
REMARK SMILES IDX 80 86 81 87 82 88 83 89 59 90 60 91 69 92 61 93 62 94 68 95
REMARK SMILES IDX 70 96 63 97 64 98 65 99 66 100 67 101
REMARK H PARENT 10 16 91 51 57 62
REMARK Flexibility Score: inf
ROOT
ATOM      1  C   UNL A   1      38.068  19.707  24.702  1.00  0.00     0.188 C 
ENDROOT
BRANCH   1   2
ATOM      2  O   UNL A   1      36.707  19.493  24.986  1.00  0.00    -0.376 OA
BRANCH   2   3
ATOM      3  C   UNL A   1      36.131  20.787  25.033  1.00  0.00     0.202 C 
BRANCH   3   4
ATOM      4  C   UNL A   1      34.622  20.811  24.609  1.00  0.00     0.261 C 
BRANCH   4   5
ATOM      5  O   UNL A   1      33.735  21.969  23.816  1.00  0.00    -0.463 OA
BRANCH   5   6
ATOM      6  C   UNL A   1      33.395  23.335  23.883  1.00  0.00     0.311 C 
ATOM      7  O   UNL A   1      34.037  24.267  23.422  1.00  0.00    -0.252 OA
BRANCH   6   8
ATOM      8  C   UNL A   1      32.102  23.988  24.364  1.00  0.00     0.125 C 
ATOM      9  C   UNL A   1      32.610  24.979  25.469  1.00  0.00     0.097 C 
ATOM     10  C   UNL A   1      31.866  24.477  26.699  1.00  0.00     0.012 C 
ATOM     11  C   UNL A   1      32.304  22.983  26.945  1.00  0.00     0.006 C 
ATOM     12  C   UNL A   1      30.483  24.272  26.132  1.00  0.00     0.010 C 
ATOM     13  C   UNL A   1      30.941  23.278  25.045  1.00  0.00     0.006 C 
ATOM     14  C   UNL A   1      31.510  22.170  25.900  1.00  0.00     0.005 C 
BRANCH   9  15
ATOM     15  N   UNL A   1      32.688  26.426  25.122  1.00  0.00    -0.376 N 
ATOM     16  H   UNL A   1      33.628  26.600  24.890  1.00  0.00     0.161 HD
BRANCH  15  17
ATOM     17  C   UNL A   1      32.033  27.627  24.980  1.00  0.00     0.114 A 
ATOM     18  C   UNL A   1      29.040  28.632  22.687  1.00  0.00     0.044 C 
ATOM     19  C   UNL A   1      30.172  28.737  23.673  1.00  0.00    -0.049 A 
ATOM     20  C   UNL A   1      30.482  29.972  24.223  1.00  0.00     0.010 A 
ATOM     21  C   UNL A   1      30.956  27.612  24.032  1.00  0.00     0.036 A 
ATOM     22  C   UNL A   1      31.497  30.047  25.167  1.00  0.00     0.088 A 
ATOM     23  C   UNL A   1      32.235  28.891  25.545  1.00  0.00     0.292 A 
BRANCH  23  24
ATOM     24  N   UNL A   1      33.065  29.125  26.700  1.00  0.00     0.064 N 
ATOM     25  O   UNL A   1      33.748  30.157  26.714  1.00  0.00    -0.258 OA
ATOM     26  O   UNL A   1      33.164  28.193  27.515  1.00  0.00    -0.258 OA
ENDBRANCH  23  24
ENDBRANCH  15  17
ENDBRANCH   9  15
ENDBRANCH   6   8
ENDBRANCH   5   6
ENDBRANCH   4   5
ENDBRANCH   3   4
ENDBRANCH   2   3
ENDBRANCH   1   2
BRANCH   1  27
ATOM     27  C   UNL A   1      39.012  19.212  25.755  1.00  0.00     0.188 C 
BRANCH  27  28
ATOM     28  O   UNL A   1      40.388  19.230  25.425  1.00  0.00    -0.376 OA
BRANCH  28  29
ATOM     29  C   UNL A   1      41.264  19.789  26.401  1.00  0.00     0.202 C 
BRANCH  29  30
ATOM     30  C   UNL A   1      40.697  20.787  27.470  1.00  0.00     0.261 C 
BRANCH  30  31
ATOM     31  O   UNL A   1      40.831  22.201  27.161  1.00  0.00    -0.460 OA
BRANCH  31  32
ATOM     32  C   UNL A   1      39.785  22.914  26.566  1.00  0.00     0.338 C 
ATOM     33  O   UNL A   1      38.660  22.456  26.430  1.00  0.00    -0.246 OA
BRANCH  32  34
ATOM     34  C   UNL A   1      39.968  24.373  26.838  1.00  0.00     0.060 A 
ATOM     35  C   UNL A   1      40.596  25.438  26.208  1.00  0.00     0.016 A 
ATOM     36  C   UNL A   1      39.220  24.774  27.875  1.00  0.00     0.016 A 
ATOM     37  C   UNL A   1      40.901  26.690  26.917  1.00  0.00     0.010 A 
ATOM     38  C   UNL A   1      39.623  25.910  28.570  1.00  0.00     0.010 A 
ATOM     39  C   UNL A   1      40.557  26.897  28.263  1.00  0.00    -0.014 A 
BRANCH  39  40
ATOM     40  C   UNL A   1      41.399  27.784  29.356  1.00  0.00     0.031 A 
ATOM     41  C   UNL A   1      41.185  29.275  30.100  1.00  0.00     0.074 A 
ATOM     42  C   UNL A   1      42.575  27.158  29.609  1.00  0.00     0.049 A 
ATOM     43  N   UNL A   1      41.594  30.450  29.652  1.00  0.00    -0.248 NA
ATOM     44  C   UNL A   1      40.291  29.596  31.331  1.00  0.00     0.031 C 
ATOM     45  C   UNL A   1      43.716  27.601  30.385  1.00  0.00     0.029 A 
ATOM     46  N   UNL A   1      43.042  26.009  28.957  1.00  0.00    -0.354 N 
ATOM     47  C   UNL A   1      41.120  31.431  30.584  1.00  0.00     0.074 A 
ATOM     48  C   UNL A   1      40.004  30.878  31.201  1.00  0.00     0.031 C 
ATOM     49  C   UNL A   1      44.811  27.003  29.871  1.00  0.00     0.029 A 
ATOM     50  C   UNL A   1      44.409  26.166  28.745  1.00  0.00     0.049 A 
ATOM     51  H   UNL A   1      42.500  25.229  28.695  1.00  0.00     0.167 HD
ATOM     52  C   UNL A   1      41.898  32.230  31.388  1.00  0.00     0.037 A 
ATOM     53  C   UNL A   1      44.808  26.295  27.445  1.00  0.00     0.037 A 
ATOM     54  C   UNL A   1      43.268  31.865  31.112  1.00  0.00     0.049 A 
ATOM     55  C   UNL A   1      45.092  27.780  27.123  1.00  0.00     0.074 A 
ATOM     56  C   UNL A   1      44.228  31.105  31.757  1.00  0.00     0.029 A 
ATOM     57  N   UNL A   1      43.633  31.887  29.779  1.00  0.00    -0.354 N 
ATOM     58  N   UNL A   1      44.851  28.781  27.952  1.00  0.00    -0.248 NA
ATOM     59  C   UNL A   1      45.758  28.265  25.922  1.00  0.00     0.031 C 
ATOM     60  C   UNL A   1      45.154  30.643  30.760  1.00  0.00     0.029 A 
ATOM     61  C   UNL A   1      44.752  31.126  29.526  1.00  0.00     0.049 A 
ATOM     62  H   UNL A   1      43.146  32.390  29.088  1.00  0.00     0.167 HD
ATOM     63  C   UNL A   1      45.345  29.980  27.470  1.00  0.00     0.074 A 
ATOM     64  C   UNL A   1      45.915  29.578  26.195  1.00  0.00     0.031 C 
ATOM     65  C   UNL A   1      45.270  31.182  28.158  1.00  0.00     0.037 A 
BRANCH  52  66
ATOM     66  C   UNL A   1      41.316  32.912  32.677  1.00  0.00     0.058 A 
ATOM     67  C   UNL A   1      40.570  34.101  32.617  1.00  0.00     0.135 A 
ATOM     68  C   UNL A   1      41.498  32.438  34.014  1.00  0.00     0.135 A 
ATOM     69  F   UNL A   1      40.214  34.623  31.437  1.00  0.00    -0.206 F 
ATOM     70  C   UNL A   1      40.131  34.800  33.763  1.00  0.00     0.059 A 
ATOM     71  C   UNL A   1      41.174  33.170  35.171  1.00  0.00     0.059 A 
ATOM     72  F   UNL A   1      41.971  31.204  34.260  1.00  0.00    -0.206 F 
ATOM     73  C   UNL A   1      40.463  34.347  35.037  1.00  0.00     0.060 A 
BRANCH  73  74
ATOM     74  S   UNL A   1      39.883  35.245  36.500  1.00  0.00     0.124 S 
ATOM     75  O   UNL A   1      40.993  35.080  37.435  1.00  0.00    -0.237 OA
ATOM     76  O   UNL A   1      39.694  36.590  35.970  1.00  0.00    -0.237 OA
ATOM     77  O   UNL A   1      38.657  34.542  36.872  1.00  0.00    -0.744 OA
ENDBRANCH  73  74
ENDBRANCH  52  66
BRANCH  53  78
ATOM     78  C   UNL A   1      44.477  25.017  26.660  1.00  0.00     0.058 A 
ATOM     79  C   UNL A   1      45.256  24.825  25.481  1.00  0.00     0.135 A 
ATOM     80  C   UNL A   1      43.749  23.873  27.032  1.00  0.00     0.135 A 
ATOM     81  F   UNL A   1      45.903  25.872  24.942  1.00  0.00    -0.206 F 
ATOM     82  C   UNL A   1      45.484  23.590  24.864  1.00  0.00     0.059 A 
ATOM     83  C   UNL A   1      43.921  22.605  26.381  1.00  0.00     0.059 A 
ATOM     84  F   UNL A   1      42.940  23.905  28.103  1.00  0.00    -0.206 F 
ATOM     85  C   UNL A   1      44.848  22.463  25.344  1.00  0.00     0.060 A 
BRANCH  85  86
ATOM     86  S   UNL A   1      45.266  20.844  24.624  1.00  0.00     0.124 S 
ATOM     87  O   UNL A   1      46.707  20.857  24.595  1.00  0.00    -0.237 OA
ATOM     88  O   UNL A   1      44.646  19.893  25.547  1.00  0.00    -0.237 OA
ATOM     89  O   UNL A   1      44.587  20.922  23.327  1.00  0.00    -0.744 OA
ENDBRANCH  85  86
ENDBRANCH  53  78
BRANCH  65  90
ATOM     90  C   UNL A   1      45.586  32.637  27.682  1.00  0.00     0.058 A 
ATOM     91  C   UNL A   1      44.877  33.368  26.725  1.00  0.00     0.135 A 
ATOM     92  C   UNL A   1      46.597  33.416  28.350  1.00  0.00     0.135 A 
ATOM     93  F   UNL A   1      43.907  32.820  25.991  1.00  0.00    -0.206 F 
ATOM     94  C   UNL A   1      45.127  34.728  26.468  1.00  0.00     0.059 A 
ATOM     95  C   UNL A   1      46.765  34.790  28.209  1.00  0.00     0.059 A 
ATOM     96  F   UNL A   1      47.503  32.868  29.173  1.00  0.00    -0.206 F 
ATOM     97  C   UNL A   1      46.047  35.436  27.233  1.00  0.00     0.060 A 
BRANCH  97  98
ATOM     98  S   UNL A   1      46.334  37.184  26.921  1.00  0.00     0.124 S 
ATOM     99  O   UNL A   1      47.075  37.132  25.664  1.00  0.00    -0.237 OA
ATOM    100  O   UNL A   1      44.978  37.715  26.837  1.00  0.00    -0.237 OA
ATOM    101  O   UNL A   1      47.100  37.620  28.085  1.00  0.00    -0.744 OA
ENDBRANCH  97  98
ENDBRANCH  65  90
ENDBRANCH  39  40
ENDBRANCH  32  34
ENDBRANCH  31  32
ENDBRANCH  30  31
ENDBRANCH  29  30
ENDBRANCH  28  29
ENDBRANCH  27  28
ENDBRANCH   1  27
TORSDOF 23
ENDMDL
MODEL 2
REMARK VINA RESULT:     -10.9      2.999      3.817
REMARK SMILES Cc1ccc([N+](=O)[O-])c(N[C@H]2[C@@H]3CC[C@@H](C3)[C@@H]2C(=O)OCCOCCOCCOC(=O)c2ccc(-c3c4nc(c(-c5c(F)cc(S(=O)(=O)[O-])cc5F)c5ccc([nH]5)c(-c5c(F)cc(S(=O)(=O)[O-])cc5F)c5nc(c(-c6c(F)cc(S(=O)(=O)[O-])cc6F)c6ccc3[nH]6)C=C5)C=C4)cc2)c1
REMARK SMILES IDX 24 1 23 2 22 3 21 4 20 5 18 6 19 7 17 8 11 9 12 10 13 11
REMARK SMILES IDX 16 12 15 13 14 14 10 15 9 17 1 18 2 19 3 20 98 21 4 22 5 23
REMARK SMILES IDX 6 24 7 25 8 26 25 27 26 28 27 29 28 30 29 31 30 32 31 33
REMARK SMILES IDX 32 34 33 35 97 36 34 37 96 38 35 39 36 40 37 41 90 42 38 43
REMARK SMILES IDX 95 44 89 45 91 46 39 47 94 48 88 49 87 50 40 52 74 53 53 54
REMARK SMILES IDX 73 55 54 56 57 57 72 58 92 59 55 60 56 61 71 63 93 64 58 65
REMARK SMILES IDX 41 66 42 67 51 68 43 69 44 70 50 71 52 72 45 73 46 74 47 75
REMARK SMILES IDX 48 76 49 77 75 78 76 79 85 80 77 81 78 82 84 83 86 84 79 85
REMARK SMILES IDX 80 86 81 87 82 88 83 89 59 90 60 91 69 92 61 93 62 94 68 95
REMARK SMILES IDX 70 96 63 97 64 98 65 99 66 100 67 101
REMARK H PARENT 10 16 91 51 57 62
REMARK Flexibility Score: inf
ROOT
ATOM      1  C   UNL A   1      38.843  21.788  25.682  1.00  0.00     0.188 C 
ENDROOT
BRANCH   1   2
ATOM      2  O   UNL A   1      37.455  21.992  25.586  1.00  0.00    -0.376 OA
BRANCH   2   3
ATOM      3  C   UNL A   1      37.118  21.634  24.257  1.00  0.00     0.202 C 
BRANCH   3   4
ATOM      4  C   UNL A   1      36.673  22.853  23.379  1.00  0.00     0.261 C 
BRANCH   4   5
ATOM      5  O   UNL A   1      35.209  23.627  23.258  1.00  0.00    -0.463 OA
BRANCH   5   6
ATOM      6  C   UNL A   1      33.915  23.461  22.725  1.00  0.00     0.311 C 
ATOM      7  O   UNL A   1      33.624  23.355  21.543  1.00  0.00    -0.252 OA
BRANCH   6   8
ATOM      8  C   UNL A   1      32.597  23.194  23.448  1.00  0.00     0.125 C 
ATOM      9  C   UNL A   1      32.737  24.066  24.745  1.00  0.00     0.097 C 
ATOM     10  C   UNL A   1      32.620  23.012  25.838  1.00  0.00     0.012 C 
ATOM     11  C   UNL A   1      33.800  21.986  25.641  1.00  0.00     0.006 C 
ATOM     12  C   UNL A   1      31.456  22.200  25.328  1.00  0.00     0.010 C 
ATOM     13  C   UNL A   1      32.128  21.850  23.984  1.00  0.00     0.006 C 
ATOM     14  C   UNL A   1      33.342  21.092  24.468  1.00  0.00     0.005 C 
BRANCH   9  15
ATOM     15  N   UNL A   1      31.991  25.355  24.800  1.00  0.00    -0.376 N 
ATOM     16  H   UNL A   1      31.036  25.117  24.804  1.00  0.00     0.161 HD
BRANCH  15  17
ATOM     17  C   UNL A   1      32.042  26.729  24.847  1.00  0.00     0.114 A 
ATOM     18  C   UNL A   1      34.463  29.117  26.758  1.00  0.00     0.044 C 
ATOM     19  C   UNL A   1      33.316  28.638  25.910  1.00  0.00    -0.049 A 
ATOM     20  C   UNL A   1      32.427  29.564  25.383  1.00  0.00     0.010 A 
ATOM     21  C   UNL A   1      33.096  27.260  25.661  1.00  0.00     0.036 A 
ATOM     22  C   UNL A   1      31.401  29.113  24.564  1.00  0.00     0.088 A 
ATOM     23  C   UNL A   1      31.234  27.727  24.291  1.00  0.00     0.292 A 
BRANCH  23  24
ATOM     24  N   UNL A   1      30.279  27.488  23.238  1.00  0.00     0.064 N 
ATOM     25  O   UNL A   1      30.334  28.216  22.240  1.00  0.00    -0.258 OA
ATOM     26  O   UNL A   1      29.365  26.683  23.485  1.00  0.00    -0.258 OA
ENDBRANCH  23  24
ENDBRANCH  15  17
ENDBRANCH   9  15
ENDBRANCH   6   8
ENDBRANCH   5   6
ENDBRANCH   4   5
ENDBRANCH   3   4
ENDBRANCH   2   3
ENDBRANCH   1   2
BRANCH   1  27
ATOM     27  C   UNL A   1      39.463  22.293  26.948  1.00  0.00     0.188 C 
BRANCH  27  28
ATOM     28  O   UNL A   1      40.643  21.638  27.375  1.00  0.00    -0.376 OA
BRANCH  28  29
ATOM     29  C   UNL A   1      41.659  22.467  27.936  1.00  0.00     0.202 C 
BRANCH  29  30
ATOM     30  C   UNL A   1      41.401  24.007  28.093  1.00  0.00     0.261 C 
BRANCH  30  31
ATOM     31  O   UNL A   1      41.985  24.861  27.072  1.00  0.00    -0.460 OA
BRANCH  31  32
ATOM     32  C   UNL A   1      41.178  25.613  26.211  1.00  0.00     0.338 C 
ATOM     33  O   UNL A   1      40.038  25.288  25.913  1.00  0.00    -0.246 OA
BRANCH  32  34
ATOM     34  C   UNL A   1      41.528  27.061  26.349  1.00  0.00     0.060 A 
ATOM     35  C   UNL A   1      42.297  27.976  25.645  1.00  0.00     0.016 A 
ATOM     36  C   UNL A   1      40.805  27.648  27.312  1.00  0.00     0.016 A 
ATOM     37  C   UNL A   1      42.732  29.248  26.242  1.00  0.00     0.010 A 
ATOM     38  C   UNL A   1      41.323  28.793  27.910  1.00  0.00     0.010 A 
ATOM     39  C   UNL A   1      42.378  29.628  27.548  1.00  0.00    -0.014 A 
BRANCH  39  40
ATOM     40  C   UNL A   1      43.290  30.514  28.583  1.00  0.00     0.031 A 
ATOM     41  C   UNL A   1      43.520  32.154  28.864  1.00  0.00     0.074 A 
ATOM     42  C   UNL A   1      44.088  29.674  29.286  1.00  0.00     0.049 A 
ATOM     43  N   UNL A   1      44.405  32.942  28.276  1.00  0.00    -0.248 NA
ATOM     44  C   UNL A   1      42.614  33.106  29.694  1.00  0.00     0.031 C 
ATOM     45  C   UNL A   1      45.163  29.971  30.211  1.00  0.00     0.029 A 
ATOM     46  N   UNL A   1      44.200  28.292  29.077  1.00  0.00    -0.354 N 
ATOM     47  C   UNL A   1      44.177  34.264  28.783  1.00  0.00     0.074 A 
ATOM     48  C   UNL A   1      42.848  34.304  29.189  1.00  0.00     0.031 C 
ATOM     49  C   UNL A   1      46.029  28.936  30.170  1.00  0.00     0.029 A 
ATOM     50  C   UNL A   1      45.543  27.949  29.212  1.00  0.00     0.049 A 
ATOM     51  H   UNL A   1      43.461  27.674  28.873  1.00  0.00     0.167 HD
ATOM     52  C   UNL A   1      45.047  34.999  29.553  1.00  0.00     0.037 A 
ATOM     53  C   UNL A   1      46.175  27.530  28.076  1.00  0.00     0.037 A 
ATOM     54  C   UNL A   1      46.210  34.166  29.752  1.00  0.00     0.049 A 
ATOM     55  C   UNL A   1      47.039  28.675  27.497  1.00  0.00     0.074 A 
ATOM     56  C   UNL A   1      46.695  33.396  30.794  1.00  0.00     0.029 A 
ATOM     57  N   UNL A   1      46.777  33.651  28.602  1.00  0.00    -0.354 N 
ATOM     58  N   UNL A   1      47.049  29.910  27.968  1.00  0.00    -0.248 NA
ATOM     59  C   UNL A   1      48.031  28.525  26.441  1.00  0.00     0.031 C 
ATOM     60  C   UNL A   1      47.539  32.382  30.225  1.00  0.00     0.029 A 
ATOM     61  C   UNL A   1      47.561  32.546  28.850  1.00  0.00     0.049 A 
ATOM     62  H   UNL A   1      46.636  34.031  27.706  1.00  0.00     0.167 HD
ATOM     63  C   UNL A   1      48.026  30.683  27.365  1.00  0.00     0.074 A 
ATOM     64  C   UNL A   1      48.614  29.743  26.425  1.00  0.00     0.031 C 
ATOM     65  C   UNL A   1      48.286  32.003  27.700  1.00  0.00     0.037 A 
BRANCH  52  66
ATOM     66  C   UNL A   1      44.550  36.198  30.435  1.00  0.00     0.058 A 
ATOM     67  C   UNL A   1      44.344  37.482  29.900  1.00  0.00     0.135 A 
ATOM     68  C   UNL A   1      44.288  36.135  31.841  1.00  0.00     0.135 A 
ATOM     69  F   UNL A   1      44.439  37.692  28.581  1.00  0.00    -0.206 F 
ATOM     70  C   UNL A   1      44.009  38.605  30.686  1.00  0.00     0.059 A 
ATOM     71  C   UNL A   1      44.067  37.256  32.662  1.00  0.00     0.059 A 
ATOM     72  F   UNL A   1      44.194  34.957  32.482  1.00  0.00    -0.206 F 
ATOM     73  C   UNL A   1      43.902  38.494  32.070  1.00  0.00     0.060 A 
BRANCH  73  74
ATOM     74  S   UNL A   1      43.458  39.940  33.067  1.00  0.00     0.124 S 
ATOM     75  O   UNL A   1      44.750  40.584  33.287  1.00  0.00    -0.237 OA
ATOM     76  O   UNL A   1      42.540  40.644  32.180  1.00  0.00    -0.237 OA
ATOM     77  O   UNL A   1      42.850  39.361  34.263  1.00  0.00    -0.744 OA
ENDBRANCH  73  74
ENDBRANCH  52  66
BRANCH  53  78
ATOM     78  C   UNL A   1      45.533  26.235  27.559  1.00  0.00     0.058 A 
ATOM     79  C   UNL A   1      45.240  26.232  26.163  1.00  0.00     0.135 A 
ATOM     80  C   UNL A   1      45.436  24.960  28.145  1.00  0.00     0.135 A 
ATOM     81  F   UNL A   1      45.173  27.401  25.502  1.00  0.00    -0.206 F 
ATOM     82  C   UNL A   1      45.097  25.084  25.377  1.00  0.00     0.059 A 
ATOM     83  C   UNL A   1      45.234  23.769  27.369  1.00  0.00     0.059 A 
ATOM     84  F   UNL A   1      45.649  24.802  29.461  1.00  0.00    -0.206 F 
ATOM     85  C   UNL A   1      45.139  23.841  25.976  1.00  0.00     0.060 A 
BRANCH  85  86
ATOM     86  S   UNL A   1      45.096  22.355  24.924  1.00  0.00     0.124 S 
ATOM     87  O   UNL A   1      45.532  22.847  23.640  1.00  0.00    -0.237 OA
ATOM     88  O   UNL A   1      46.003  21.431  25.605  1.00  0.00    -0.237 OA
ATOM     89  O   UNL A   1      43.685  21.970  25.029  1.00  0.00    -0.744 OA
ENDBRANCH  85  86
ENDBRANCH  53  78
BRANCH  65  90
ATOM     90  C   UNL A   1      49.194  33.062  26.994  1.00  0.00     0.058 A 
ATOM     91  C   UNL A   1      48.780  34.021  26.065  1.00  0.00     0.135 A 
ATOM     92  C   UNL A   1      50.568  33.223  27.395  1.00  0.00     0.135 A 
ATOM     93  F   UNL A   1      47.545  34.034  25.564  1.00  0.00    -0.206 F 
ATOM     94  C   UNL A   1      49.628  35.041  25.597  1.00  0.00     0.059 A 
ATOM     95  C   UNL A   1      51.377  34.301  27.051  1.00  0.00     0.059 A 
ATOM     96  F   UNL A   1      51.214  32.312  28.139  1.00  0.00    -0.206 F 
ATOM     97  C   UNL A   1      50.909  35.192  26.116  1.00  0.00     0.060 A 
BRANCH  97  98
ATOM     98  S   UNL A   1      51.974  36.521  25.537  1.00  0.00     0.124 S 
ATOM     99  O   UNL A   1      51.784  36.430  24.092  1.00  0.00    -0.237 OA
ATOM    100  O   UNL A   1      51.391  37.694  26.181  1.00  0.00    -0.237 OA
ATOM    101  O   UNL A   1      53.296  36.140  26.023  1.00  0.00    -0.744 OA
ENDBRANCH  97  98
ENDBRANCH  65  90
ENDBRANCH  39  40
ENDBRANCH  32  34
ENDBRANCH  31  32
ENDBRANCH  30  31
ENDBRANCH  29  30
ENDBRANCH  28  29
ENDBRANCH  27  28
ENDBRANCH   1  27
TORSDOF 23
ENDMDL
MODEL 3
REMARK VINA RESULT:     -10.9      4.534      9.421
REMARK SMILES Cc1ccc([N+](=O)[O-])c(N[C@H]2[C@@H]3CC[C@@H](C3)[C@@H]2C(=O)OCCOCCOCCOC(=O)c2ccc(-c3c4nc(c(-c5c(F)cc(S(=O)(=O)[O-])cc5F)c5ccc([nH]5)c(-c5c(F)cc(S(=O)(=O)[O-])cc5F)c5nc(c(-c6c(F)cc(S(=O)(=O)[O-])cc6F)c6ccc3[nH]6)C=C5)C=C4)cc2)c1
REMARK SMILES IDX 24 1 23 2 22 3 21 4 20 5 18 6 19 7 17 8 11 9 12 10 13 11
REMARK SMILES IDX 16 12 15 13 14 14 10 15 9 17 1 18 2 19 3 20 98 21 4 22 5 23
REMARK SMILES IDX 6 24 7 25 8 26 25 27 26 28 27 29 28 30 29 31 30 32 31 33
REMARK SMILES IDX 32 34 33 35 97 36 34 37 96 38 35 39 36 40 37 41 90 42 38 43
REMARK SMILES IDX 95 44 89 45 91 46 39 47 94 48 88 49 87 50 40 52 74 53 53 54
REMARK SMILES IDX 73 55 54 56 57 57 72 58 92 59 55 60 56 61 71 63 93 64 58 65
REMARK SMILES IDX 41 66 42 67 51 68 43 69 44 70 50 71 52 72 45 73 46 74 47 75
REMARK SMILES IDX 48 76 49 77 75 78 76 79 85 80 77 81 78 82 84 83 86 84 79 85
REMARK SMILES IDX 80 86 81 87 82 88 83 89 59 90 60 91 69 92 61 93 62 94 68 95
REMARK SMILES IDX 70 96 63 97 64 98 65 99 66 100 67 101
REMARK H PARENT 10 16 91 51 57 62
REMARK Flexibility Score: inf
ROOT
ATOM      1  C   UNL A   1      39.833  20.370  26.167  1.00  0.00     0.188 C 
ENDROOT
BRANCH   1   2
ATOM      2  O   UNL A   1      39.651  19.214  25.388  1.00  0.00    -0.376 OA
BRANCH   2   3
ATOM      3  C   UNL A   1      38.281  19.222  25.026  1.00  0.00     0.202 C 
BRANCH   3   4
ATOM      4  C   UNL A   1      37.580  20.601  25.278  1.00  0.00     0.261 C 
BRANCH   4   5
ATOM      5  O   UNL A   1      36.778  21.617  24.239  1.00  0.00    -0.463 OA
BRANCH   5   6
ATOM      6  C   UNL A   1      35.807  22.639  24.226  1.00  0.00     0.311 C 
ATOM      7  O   UNL A   1      36.017  23.841  24.294  1.00  0.00    -0.252 OA
BRANCH   6   8
ATOM      8  C   UNL A   1      34.308  22.548  23.951  1.00  0.00     0.125 C 
ATOM      9  C   UNL A   1      33.727  23.703  24.841  1.00  0.00     0.097 C 
ATOM     10  C   UNL A   1      32.787  22.939  25.763  1.00  0.00     0.012 C 
ATOM     11  C   UNL A   1      33.652  21.898  26.571  1.00  0.00     0.006 C 
ATOM     12  C   UNL A   1      32.102  22.025  24.778  1.00  0.00     0.010 C 
ATOM     13  C   UNL A   1      33.408  21.368  24.287  1.00  0.00     0.006 C 
ATOM     14  C   UNL A   1      33.910  20.749  25.571  1.00  0.00     0.005 C 
BRANCH   9  15
ATOM     15  N   UNL A   1      33.323  24.966  24.162  1.00  0.00    -0.376 N 
ATOM     16  H   UNL A   1      33.255  24.750  23.204  1.00  0.00     0.161 HD
BRANCH  15  17
ATOM     17  C   UNL A   1      33.002  26.299  24.275  1.00  0.00     0.114 A 
ATOM     18  C   UNL A   1      31.586  28.321  27.296  1.00  0.00     0.044 C 
ATOM     19  C   UNL A   1      32.064  27.988  25.909  1.00  0.00    -0.049 A 
ATOM     20  C   UNL A   1      32.037  28.967  24.926  1.00  0.00     0.010 A 
ATOM     21  C   UNL A   1      32.511  26.687  25.566  1.00  0.00     0.036 A 
ATOM     22  C   UNL A   1      32.525  28.660  23.664  1.00  0.00     0.088 A 
ATOM     23  C   UNL A   1      33.014  27.359  23.362  1.00  0.00     0.292 A 
BRANCH  23  24
ATOM     24  N   UNL A   1      33.694  27.311  22.091  1.00  0.00     0.064 N 
ATOM     25  O   UNL A   1      34.321  28.317  21.741  1.00  0.00    -0.258 OA
ATOM     26  O   UNL A   1      33.458  26.328  21.369  1.00  0.00    -0.258 OA
ENDBRANCH  23  24
ENDBRANCH  15  17
ENDBRANCH   9  15
ENDBRANCH   6   8
ENDBRANCH   5   6
ENDBRANCH   4   5
ENDBRANCH   3   4
ENDBRANCH   2   3
ENDBRANCH   1   2
BRANCH   1  27
ATOM     27  C   UNL A   1      41.243  20.608  26.614  1.00  0.00     0.188 C 
BRANCH  27  28
ATOM     28  O   UNL A   1      42.085  21.288  25.703  1.00  0.00    -0.376 OA
BRANCH  28  29
ATOM     29  C   UNL A   1      42.463  22.616  26.063  1.00  0.00     0.202 C 
BRANCH  29  30
ATOM     30  C   UNL A   1      41.455  23.519  26.856  1.00  0.00     0.261 C 
BRANCH  30  31
ATOM     31  O   UNL A   1      40.242  23.899  26.150  1.00  0.00    -0.460 OA
BRANCH  31  32
ATOM     32  C   UNL A   1      39.338  24.811  26.704  1.00  0.00     0.338 C 
ATOM     33  O   UNL A   1      38.317  24.469  27.283  1.00  0.00    -0.246 OA
BRANCH  32  34
ATOM     34  C   UNL A   1      40.083  26.024  27.161  1.00  0.00     0.060 A 
ATOM     35  C   UNL A   1      40.644  27.141  26.558  1.00  0.00     0.016 A 
ATOM     36  C   UNL A   1      40.082  26.123  28.497  1.00  0.00     0.016 A 
ATOM     37  C   UNL A   1      41.628  27.986  27.250  1.00  0.00     0.010 A 
ATOM     38  C   UNL A   1      41.104  26.852  29.098  1.00  0.00     0.010 A 
ATOM     39  C   UNL A   1      42.044  27.734  28.568  1.00  0.00    -0.014 A 
BRANCH  39  40
ATOM     40  C   UNL A   1      43.534  28.023  29.189  1.00  0.00     0.031 A 
ATOM     41  C   UNL A   1      45.060  27.350  28.989  1.00  0.00     0.074 A 
ATOM     42  C   UNL A   1      43.427  28.976  30.147  1.00  0.00     0.049 A 
ATOM     43  N   UNL A   1      45.575  26.339  29.668  1.00  0.00    -0.248 NA
ATOM     44  C   UNL A   1      46.072  27.629  27.843  1.00  0.00     0.031 C 
ATOM     45  C   UNL A   1      44.420  29.474  31.078  1.00  0.00     0.029 A 
ATOM     46  N   UNL A   1      42.227  29.534  30.611  1.00  0.00    -0.354 N 
ATOM     47  C   UNL A   1      46.864  26.075  29.098  1.00  0.00     0.074 A 
ATOM     48  C   UNL A   1      46.813  26.537  27.787  1.00  0.00     0.031 C 
ATOM     49  C   UNL A   1      43.764  29.903  32.177  1.00  0.00     0.029 A 
ATOM     50  C   UNL A   1      42.334  29.685  31.990  1.00  0.00     0.049 A 
ATOM     51  H   UNL A   1      41.448  29.776  30.059  1.00  0.00     0.167 HD
ATOM     52  C   UNL A   1      48.076  26.228  29.726  1.00  0.00     0.037 A 
ATOM     53  C   UNL A   1      41.520  28.894  32.749  1.00  0.00     0.037 A 
ATOM     54  C   UNL A   1      47.783  26.718  31.053  1.00  0.00     0.049 A 
ATOM     55  C   UNL A   1      42.322  27.700  33.318  1.00  0.00     0.074 A 
ATOM     56  C   UNL A   1      47.847  27.950  31.678  1.00  0.00     0.029 A 
ATOM     57  N   UNL A   1      46.869  25.973  31.773  1.00  0.00    -0.354 N 
ATOM     58  N   UNL A   1      43.575  27.427  33.000  1.00  0.00    -0.248 NA
ATOM     59  C   UNL A   1      41.851  26.791  34.354  1.00  0.00     0.031 C 
ATOM     60  C   UNL A   1      46.913  27.929  32.770  1.00  0.00     0.029 A 
ATOM     61  C   UNL A   1      46.296  26.690  32.800  1.00  0.00     0.049 A 
ATOM     62  H   UNL A   1      46.651  25.034  31.574  1.00  0.00     0.167 HD
ATOM     63  C   UNL A   1      44.092  26.401  33.773  1.00  0.00     0.074 A 
ATOM     64  C   UNL A   1      42.955  26.058  34.612  1.00  0.00     0.031 C 
ATOM     65  C   UNL A   1      45.396  25.942  33.680  1.00  0.00     0.037 A 
BRANCH  52  66
ATOM     66  C   UNL A   1      49.410  26.374  28.911  1.00  0.00     0.058 A 
ATOM     67  C   UNL A   1      49.928  25.322  28.136  1.00  0.00     0.135 A 
ATOM     68  C   UNL A   1      50.240  27.540  28.888  1.00  0.00     0.135 A 
ATOM     69  F   UNL A   1      49.224  24.197  27.959  1.00  0.00    -0.206 F 
ATOM     70  C   UNL A   1      51.179  25.381  27.485  1.00  0.00     0.059 A 
ATOM     71  C   UNL A   1      51.538  27.584  28.346  1.00  0.00     0.059 A 
ATOM     72  F   UNL A   1      49.802  28.718  29.365  1.00  0.00    -0.206 F 
ATOM     73  C   UNL A   1      51.994  26.502  27.619  1.00  0.00     0.060 A 
BRANCH  73  74
ATOM     74  S   UNL A   1      53.593  26.572  26.769  1.00  0.00     0.124 S 
ATOM     75  O   UNL A   1      53.360  27.577  25.735  1.00  0.00    -0.237 OA
ATOM     76  O   UNL A   1      54.489  26.966  27.849  1.00  0.00    -0.237 OA
ATOM     77  O   UNL A   1      53.777  25.210  26.270  1.00  0.00    -0.744 OA
ENDBRANCH  73  74
ENDBRANCH  52  66
BRANCH  53  78
ATOM     78  C   UNL A   1      40.046  29.229  32.473  1.00  0.00     0.058 A 
ATOM     79  C   UNL A   1      39.706  30.602  32.650  1.00  0.00     0.135 A 
ATOM     80  C   UNL A   1      39.045  28.492  31.816  1.00  0.00     0.135 A 
ATOM     81  F   UNL A   1      40.517  31.393  33.373  1.00  0.00    -0.206 F 
ATOM     82  C   UNL A   1      38.615  31.240  32.050  1.00  0.00     0.059 A 
ATOM     83  C   UNL A   1      37.886  29.113  31.239  1.00  0.00     0.059 A 
ATOM     84  F   UNL A   1      39.202  27.175  31.604  1.00  0.00    -0.206 F 
ATOM     85  C   UNL A   1      37.722  30.500  31.301  1.00  0.00     0.060 A 
BRANCH  85  86
ATOM     86  S   UNL A   1      36.392  31.366  30.409  1.00  0.00     0.124 S 
ATOM     87  O   UNL A   1      37.048  32.545  29.901  1.00  0.00    -0.237 OA
ATOM     88  O   UNL A   1      35.958  30.386  29.413  1.00  0.00    -0.237 OA
ATOM     89  O   UNL A   1      35.416  31.576  31.483  1.00  0.00    -0.744 OA
ENDBRANCH  85  86
ENDBRANCH  53  78
BRANCH  65  90
ATOM     90  C   UNL A   1      46.070  24.684  34.318  1.00  0.00     0.058 A 
ATOM     91  C   UNL A   1      45.674  23.355  34.144  1.00  0.00     0.135 A 
ATOM     92  C   UNL A   1      47.306  24.812  35.046  1.00  0.00     0.135 A 
ATOM     93  F   UNL A   1      44.549  23.028  33.506  1.00  0.00    -0.206 F 
ATOM     94  C   UNL A   1      46.428  22.269  34.623  1.00  0.00     0.059 A 
ATOM     95  C   UNL A   1      48.133  23.753  35.404  1.00  0.00     0.059 A 
ATOM     96  F   UNL A   1      47.773  25.996  35.472  1.00  0.00    -0.206 F 
ATOM     97  C   UNL A   1      47.666  22.474  35.221  1.00  0.00     0.060 A 
BRANCH  97  98
ATOM     98  S   UNL A   1      48.640  21.076  35.798  1.00  0.00     0.124 S 
ATOM     99  O   UNL A   1      47.611  20.248  36.420  1.00  0.00    -0.237 OA
ATOM    100  O   UNL A   1      49.209  20.557  34.559  1.00  0.00    -0.237 OA
ATOM    101  O   UNL A   1      49.600  21.681  36.716  1.00  0.00    -0.744 OA
ENDBRANCH  97  98
ENDBRANCH  65  90
ENDBRANCH  39  40
ENDBRANCH  32  34
ENDBRANCH  31  32
ENDBRANCH  30  31
ENDBRANCH  29  30
ENDBRANCH  28  29
ENDBRANCH  27  28
ENDBRANCH   1  27
TORSDOF 23
ENDMDL
