MODEL 1
REMARK VINA RESULT:     -10.3      0.000      0.000
REMARK SMILES CC[C@@H](C)[C@H](C(=O)OCCOCCOCCOC(=O)c1ccc(-c2c3nc(c(-c4c(F)cc(S(=O)(=O)[O-])cc4F)c4ccc([nH]4)c(-c4c(F)cc(S(=O)(=O)[O-])cc4F)c4nc(c(-c5c(F)cc(S(=O)(=O)[O-])cc5F)c5ccc2[nH]5)C=C4)C=C3)cc1)N1C(=O)/C(=C/c2ccc3c(c2)OCO3)SC1=S
REMARK SMILES IDX 13 1 12 2 11 3 10 4 9 5 8 6 6 7 7 8 5 9 3 10 4 11 2 12 1 13
REMARK SMILES IDX 86 14 87 15 101 16 88 17 89 18 100 19 102 20 90 21 91 22
REMARK SMILES IDX 92 23 96 24 93 25 95 26 94 27 97 28 99 29 98 30 14 31 15 32
REMARK SMILES IDX 16 33 17 34 18 35 19 36 20 37 21 38 85 39 22 40 84 41 23 42
REMARK SMILES IDX 24 43 25 44 78 45 26 46 83 47 77 48 79 49 27 50 82 51 76 52
REMARK SMILES IDX 75 53 28 55 62 56 41 57 61 58 42 59 45 60 60 61 80 62 43 63
REMARK SMILES IDX 44 64 59 66 81 67 46 68 29 69 30 70 39 71 31 72 32 73 38 74
REMARK SMILES IDX 40 75 33 76 34 77 35 78 36 79 37 80 63 81 64 82 73 83 65 84
REMARK SMILES IDX 66 85 72 86 74 87 67 88 68 89 69 90 70 91 71 92 47 93 48 94
REMARK SMILES IDX 57 95 49 96 50 97 56 98 58 99 51 100 52 101 53 102 54 103
REMARK SMILES IDX 55 104
REMARK H PARENT 79 54 45 65
REMARK Flexibility Score: inf
ROOT
ATOM      1  C   UNL A   1      41.734  22.506  27.628  1.00  0.00     0.188 C 
ENDROOT
BRANCH   1   2
ATOM      2  C   UNL A   1      40.442  21.699  27.376  1.00  0.00     0.188 C 
BRANCH   2   3
ATOM      3  O   UNL A   1      40.058  21.627  26.024  1.00  0.00    -0.376 OA
BRANCH   3   4
ATOM      4  C   UNL A   1      38.682  21.574  25.700  1.00  0.00     0.202 C 
BRANCH   4   5
ATOM      5  C   UNL A   1      37.700  22.762  25.801  1.00  0.00     0.261 C 
BRANCH   5   6
ATOM      6  O   UNL A   1      36.309  22.499  25.586  1.00  0.00    -0.462 OA
BRANCH   6   7
ATOM      7  C   UNL A   1      35.896  22.319  24.291  1.00  0.00     0.329 C 
ATOM      8  O   UNL A   1      36.612  22.448  23.305  1.00  0.00    -0.250 OA
BRANCH   7   9
ATOM      9  C   UNL A   1      34.367  22.031  24.229  1.00  0.00     0.204 C 
BRANCH   9  10
ATOM     10  C   UNL A   1      34.144  20.657  24.949  1.00  0.00     0.020 C 
ATOM     11  C   UNL A   1      35.346  19.709  24.818  1.00  0.00     0.010 C 
BRANCH  10  12
ATOM     12  C   UNL A   1      32.844  19.966  24.459  1.00  0.00     0.002 C 
ATOM     13  C   UNL A   1      32.781  18.473  24.744  1.00  0.00     0.004 C 
ENDBRANCH  10  12
ENDBRANCH   9  10
BRANCH   9  14
ATOM     14  N   UNL A   1      33.623  23.212  24.761  1.00  0.00    -0.278 N 
ATOM     15  C   UNL A   1      32.985  24.039  23.847  1.00  0.00     0.267 C 
ATOM     16  C   UNL A   1      33.132  23.422  26.030  1.00  0.00     0.149 C 
ATOM     17  O   UNL A   1      32.701  23.758  22.694  1.00  0.00    -0.268 OA
ATOM     18  C   UNL A   1      32.614  25.317  24.487  1.00  0.00     0.081 C 
ATOM     19  S   UNL A   1      32.616  25.102  26.185  1.00  0.00    -0.054 SA
ATOM     20  S   UNL A   1      32.921  22.347  27.286  1.00  0.00    -0.052 S 
ATOM     21  C   UNL A   1      32.487  26.441  23.771  1.00  0.00     0.029 C 
BRANCH  21  22
ATOM     22  C   UNL A   1      32.530  27.758  24.404  1.00  0.00    -0.020 A 
ATOM     23  C   UNL A   1      31.419  28.620  24.438  1.00  0.00     0.012 A 
ATOM     24  C   UNL A   1      33.690  28.058  25.131  1.00  0.00     0.058 A 
ATOM     25  C   UNL A   1      31.435  29.751  25.262  1.00  0.00     0.051 A 
ATOM     26  C   UNL A   1      33.659  29.154  25.957  1.00  0.00     0.166 A 
ATOM     27  C   UNL A   1      32.557  29.970  26.034  1.00  0.00     0.165 A 
ATOM     28  O   UNL A   1      34.638  29.501  26.830  1.00  0.00    -0.454 OA
ATOM     29  O   UNL A   1      32.710  30.950  26.965  1.00  0.00    -0.454 OA
ATOM     30  C   UNL A   1      33.989  30.582  27.530  1.00  0.00     0.468 C 
ENDBRANCH  21  22
ENDBRANCH   9  14
ENDBRANCH   7   9
ENDBRANCH   6   7
ENDBRANCH   5   6
ENDBRANCH   4   5
ENDBRANCH   3   4
ENDBRANCH   2   3
ENDBRANCH   1   2
BRANCH   1  31
ATOM     31  O   UNL A   1      42.980  22.055  27.118  1.00  0.00    -0.376 OA
BRANCH  31  32
ATOM     32  C   UNL A   1      43.286  22.327  25.759  1.00  0.00     0.202 C 
BRANCH  32  33
ATOM     33  C   UNL A   1      42.939  23.697  25.146  1.00  0.00     0.261 C 
BRANCH  33  34
ATOM     34  O   UNL A   1      43.183  24.845  25.978  1.00  0.00    -0.460 OA
BRANCH  34  35
ATOM     35  C   UNL A   1      42.235  25.816  25.928  1.00  0.00     0.338 C 
ATOM     36  O   UNL A   1      41.353  25.933  25.090  1.00  0.00    -0.246 OA
BRANCH  35  37
ATOM     37  C   UNL A   1      42.277  26.636  27.162  1.00  0.00     0.060 A 
ATOM     38  C   UNL A   1      41.587  26.176  28.295  1.00  0.00     0.016 A 
ATOM     39  C   UNL A   1      42.929  27.868  27.191  1.00  0.00     0.016 A 
ATOM     40  C   UNL A   1      41.525  26.959  29.450  1.00  0.00     0.010 A 
ATOM     41  C   UNL A   1      42.838  28.666  28.340  1.00  0.00     0.010 A 
ATOM     42  C   UNL A   1      42.109  28.231  29.462  1.00  0.00    -0.014 A 
BRANCH  42  43
ATOM     43  C   UNL A   1      41.789  29.177  30.564  1.00  0.00     0.031 A 
ATOM     44  C   UNL A   1      42.691  29.201  31.768  1.00  0.00     0.074 A 
ATOM     45  C   UNL A   1      40.724  29.997  30.501  1.00  0.00     0.049 A 
ATOM     46  N   UNL A   1      42.591  29.905  32.863  1.00  0.00    -0.248 NA
ATOM     47  C   UNL A   1      43.846  28.289  31.740  1.00  0.00     0.031 C 
ATOM     48  C   UNL A   1      39.778  30.055  29.393  1.00  0.00     0.029 A 
ATOM     49  N   UNL A   1      40.255  30.935  31.392  1.00  0.00    -0.354 N 
ATOM     50  C   UNL A   1      43.644  29.494  33.673  1.00  0.00     0.074 A 
ATOM     51  C   UNL A   1      44.371  28.480  32.941  1.00  0.00     0.031 C 
ATOM     52  C   UNL A   1      38.848  30.989  29.661  1.00  0.00     0.029 A 
ATOM     53  C   UNL A   1      39.113  31.579  30.971  1.00  0.00     0.049 A 
ATOM     54  H   UNL A   1      40.695  31.127  32.250  1.00  0.00     0.167 HD
ATOM     55  C   UNL A   1      43.966  29.915  34.919  1.00  0.00     0.037 A 
ATOM     56  C   UNL A   1      38.367  32.527  31.579  1.00  0.00     0.037 A 
ATOM     57  C   UNL A   1      43.245  30.932  35.638  1.00  0.00     0.049 A 
ATOM     58  C   UNL A   1      38.770  32.998  32.959  1.00  0.00     0.074 A 
ATOM     59  C   UNL A   1      43.509  31.444  36.897  1.00  0.00     0.029 A 
ATOM     60  N   UNL A   1      42.116  31.587  35.169  1.00  0.00    -0.354 N 
ATOM     61  N   UNL A   1      39.799  32.636  33.690  1.00  0.00    -0.248 NA
ATOM     62  C   UNL A   1      37.905  33.998  33.604  1.00  0.00     0.031 C 
ATOM     63  C   UNL A   1      42.510  32.372  37.209  1.00  0.00     0.029 A 
ATOM     64  C   UNL A   1      41.659  32.483  36.121  1.00  0.00     0.049 A 
ATOM     65  H   UNL A   1      41.702  31.438  34.288  1.00  0.00     0.167 HD
ATOM     66  C   UNL A   1      39.714  33.376  34.867  1.00  0.00     0.074 A 
ATOM     67  C   UNL A   1      38.554  34.232  34.736  1.00  0.00     0.031 C 
ATOM     68  C   UNL A   1      40.511  33.342  35.965  1.00  0.00     0.037 A 
BRANCH  55  69
ATOM     69  C   UNL A   1      45.124  29.244  35.605  1.00  0.00     0.058 A 
ATOM     70  C   UNL A   1      46.435  29.736  35.509  1.00  0.00     0.135 A 
ATOM     71  C   UNL A   1      44.908  28.107  36.400  1.00  0.00     0.135 A 
ATOM     72  F   UNL A   1      46.701  30.808  34.744  1.00  0.00    -0.206 F 
ATOM     73  C   UNL A   1      47.494  29.114  36.163  1.00  0.00     0.059 A 
ATOM     74  C   UNL A   1      45.947  27.485  37.086  1.00  0.00     0.059 A 
ATOM     75  F   UNL A   1      43.675  27.589  36.520  1.00  0.00    -0.206 F 
ATOM     76  C   UNL A   1      47.239  27.991  36.952  1.00  0.00     0.060 A 
BRANCH  76  77
ATOM     77  S   UNL A   1      48.620  27.207  37.810  1.00  0.00     0.124 S 
ATOM     78  O   UNL A   1      48.629  27.936  39.075  1.00  0.00    -0.237 OA
ATOM     79  O   UNL A   1      48.190  25.814  37.884  1.00  0.00    -0.237 OA
ATOM     80  O   UNL A   1      49.757  27.463  36.932  1.00  0.00    -0.744 OA
ENDBRANCH  76  77
ENDBRANCH  55  69
BRANCH  56  81
ATOM     81  C   UNL A   1      37.168  33.110  30.900  1.00  0.00     0.058 A 
ATOM     82  C   UNL A   1      35.868  32.740  31.282  1.00  0.00     0.135 A 
ATOM     83  C   UNL A   1      37.287  34.030  29.848  1.00  0.00     0.135 A 
ATOM     84  F   UNL A   1      35.690  31.843  32.266  1.00  0.00    -0.206 F 
ATOM     85  C   UNL A   1      34.737  33.251  30.648  1.00  0.00     0.059 A 
ATOM     86  C   UNL A   1      36.173  34.582  29.220  1.00  0.00     0.059 A 
ATOM     87  F   UNL A   1      38.502  34.418  29.426  1.00  0.00    -0.206 F 
ATOM     88  C   UNL A   1      34.900  34.177  29.619  1.00  0.00     0.060 A 
BRANCH  88  89
ATOM     89  S   UNL A   1      33.432  34.862  28.820  1.00  0.00     0.124 S 
ATOM     90  O   UNL A   1      32.495  34.937  29.935  1.00  0.00    -0.237 OA
ATOM     91  O   UNL A   1      33.914  36.141  28.311  1.00  0.00    -0.237 OA
ATOM     92  O   UNL A   1      33.114  33.871  27.796  1.00  0.00    -0.744 OA
ENDBRANCH  88  89
ENDBRANCH  56  81
BRANCH  68  93
ATOM     93  C   UNL A   1      40.180  34.279  37.097  1.00  0.00     0.058 A 
ATOM     94  C   UNL A   1      40.719  35.574  37.169  1.00  0.00     0.135 A 
ATOM     95  C   UNL A   1      39.271  33.893  38.099  1.00  0.00     0.135 A 
ATOM     96  F   UNL A   1      41.591  35.995  36.240  1.00  0.00    -0.206 F 
ATOM     97  C   UNL A   1      40.398  36.440  38.211  1.00  0.00     0.059 A 
ATOM     98  C   UNL A   1      38.912  34.754  39.132  1.00  0.00     0.059 A 
ATOM     99  F   UNL A   1      38.712  32.674  38.071  1.00  0.00    -0.206 F 
ATOM    100  C   UNL A   1      39.493  36.020  39.189  1.00  0.00     0.060 A 
BRANCH 100 101
ATOM    101  S   UNL A   1      39.071  37.159  40.524  1.00  0.00     0.124 S 
ATOM    102  O   UNL A   1      38.494  38.276  39.784  1.00  0.00    -0.237 OA
ATOM    103  O   UNL A   1      38.134  36.375  41.321  1.00  0.00    -0.237 OA
ATOM    104  O   UNL A   1      40.357  37.427  41.162  1.00  0.00    -0.744 OA
ENDBRANCH 100 101
ENDBRANCH  68  93
ENDBRANCH  42  43
ENDBRANCH  35  37
ENDBRANCH  34  35
ENDBRANCH  33  34
ENDBRANCH  32  33
ENDBRANCH  31  32
ENDBRANCH   1  31
TORSDOF 24
ENDMDL
MODEL 2
REMARK VINA RESULT:      -8.9      8.549     16.082
REMARK SMILES CC[C@@H](C)[C@H](C(=O)OCCOCCOCCOC(=O)c1ccc(-c2c3nc(c(-c4c(F)cc(S(=O)(=O)[O-])cc4F)c4ccc([nH]4)c(-c4c(F)cc(S(=O)(=O)[O-])cc4F)c4nc(c(-c5c(F)cc(S(=O)(=O)[O-])cc5F)c5ccc2[nH]5)C=C4)C=C3)cc1)N1C(=O)/C(=C/c2ccc3c(c2)OCO3)SC1=S
REMARK SMILES IDX 13 1 12 2 11 3 10 4 9 5 8 6 6 7 7 8 5 9 3 10 4 11 2 12 1 13
REMARK SMILES IDX 86 14 87 15 101 16 88 17 89 18 100 19 102 20 90 21 91 22
REMARK SMILES IDX 92 23 96 24 93 25 95 26 94 27 97 28 99 29 98 30 14 31 15 32
REMARK SMILES IDX 16 33 17 34 18 35 19 36 20 37 21 38 85 39 22 40 84 41 23 42
REMARK SMILES IDX 24 43 25 44 78 45 26 46 83 47 77 48 79 49 27 50 82 51 76 52
REMARK SMILES IDX 75 53 28 55 62 56 41 57 61 58 42 59 45 60 60 61 80 62 43 63
REMARK SMILES IDX 44 64 59 66 81 67 46 68 29 69 30 70 39 71 31 72 32 73 38 74
REMARK SMILES IDX 40 75 33 76 34 77 35 78 36 79 37 80 63 81 64 82 73 83 65 84
REMARK SMILES IDX 66 85 72 86 74 87 67 88 68 89 69 90 70 91 71 92 47 93 48 94
REMARK SMILES IDX 57 95 49 96 50 97 56 98 58 99 51 100 52 101 53 102 54 103
REMARK SMILES IDX 55 104
REMARK H PARENT 79 54 45 65
REMARK Flexibility Score: inf
ROOT
ATOM      1  C   UNL A   1      49.855  38.907  27.273  1.00  0.00     0.188 C 
ENDROOT
BRANCH   1   2
ATOM      2  C   UNL A   1      49.828  37.448  26.771  1.00  0.00     0.188 C 
BRANCH   2   3
ATOM      3  O   UNL A   1      49.144  37.266  25.553  1.00  0.00    -0.376 OA
BRANCH   3   4
ATOM      4  C   UNL A   1      48.047  38.106  25.247  1.00  0.00     0.202 C 
BRANCH   4   5
ATOM      5  C   UNL A   1      46.610  37.916  25.777  1.00  0.00     0.261 C 
BRANCH   5   6
ATOM      6  O   UNL A   1      45.936  39.063  26.307  1.00  0.00    -0.462 OA
BRANCH   6   7
ATOM      7  C   UNL A   1      45.590  39.032  27.633  1.00  0.00     0.329 C 
ATOM      8  O   UNL A   1      46.239  38.477  28.512  1.00  0.00    -0.250 OA
BRANCH   7   9
ATOM      9  C   UNL A   1      44.206  39.708  27.863  1.00  0.00     0.204 C 
BRANCH   9  10
ATOM     10  C   UNL A   1      44.103  39.999  29.399  1.00  0.00     0.020 C 
ATOM     11  C   UNL A   1      43.602  38.792  30.206  1.00  0.00     0.010 C 
BRANCH  10  12
ATOM     12  C   UNL A   1      43.229  41.249  29.682  1.00  0.00     0.002 C 
ATOM     13  C   UNL A   1      42.248  41.083  30.833  1.00  0.00     0.004 C 
ENDBRANCH  10  12
ENDBRANCH   9  10
BRANCH   9  14
ATOM     14  N   UNL A   1      44.067  40.870  26.934  1.00  0.00    -0.278 N 
ATOM     15  C   UNL A   1      42.848  41.041  26.292  1.00  0.00     0.267 C 
ATOM     16  C   UNL A   1      44.807  42.029  26.887  1.00  0.00     0.149 C 
ATOM     17  O   UNL A   1      41.783  40.542  26.618  1.00  0.00    -0.268 OA
ATOM     18  C   UNL A   1      42.991  41.993  25.172  1.00  0.00     0.081 C 
ATOM     19  S   UNL A   1      44.416  42.911  25.410  1.00  0.00    -0.054 SA
ATOM     20  S   UNL A   1      45.870  42.665  28.002  1.00  0.00    -0.052 S 
ATOM     21  C   UNL A   1      42.177  41.943  24.111  1.00  0.00     0.029 C 
BRANCH  21  22
ATOM     22  C   UNL A   1      42.538  42.574  22.842  1.00  0.00    -0.020 A 
ATOM     23  C   UNL A   1      43.867  42.660  22.388  1.00  0.00     0.012 A 
ATOM     24  C   UNL A   1      41.472  42.943  22.009  1.00  0.00     0.058 A 
ATOM     25  C   UNL A   1      44.132  43.043  21.069  1.00  0.00     0.051 A 
ATOM     26  C   UNL A   1      41.766  43.278  20.711  1.00  0.00     0.166 A 
ATOM     27  C   UNL A   1      43.058  43.314  20.247  1.00  0.00     0.165 A 
ATOM     28  O   UNL A   1      40.847  43.521  19.741  1.00  0.00    -0.454 OA
ATOM     29  O   UNL A   1      43.117  43.596  18.918  1.00  0.00    -0.454 OA
ATOM     30  C   UNL A   1      41.709  43.627  18.590  1.00  0.00     0.468 C 
ENDBRANCH  21  22
ENDBRANCH   9  14
ENDBRANCH   7   9
ENDBRANCH   6   7
ENDBRANCH   5   6
ENDBRANCH   4   5
ENDBRANCH   3   4
ENDBRANCH   2   3
ENDBRANCH   1   2
BRANCH   1  31
ATOM     31  O   UNL A   1      50.193  39.203  28.621  1.00  0.00    -0.376 OA
BRANCH  31  32
ATOM     32  C   UNL A   1      49.139  39.326  29.564  1.00  0.00     0.202 C 
BRANCH  32  33
ATOM     33  C   UNL A   1      49.112  38.431  30.816  1.00  0.00     0.261 C 
BRANCH  33  34
ATOM     34  O   UNL A   1      48.455  37.160  30.675  1.00  0.00    -0.460 OA
BRANCH  34  35
ATOM     35  C   UNL A   1      49.205  36.170  30.125  1.00  0.00     0.338 C 
ATOM     36  O   UNL A   1      50.423  36.148  30.023  1.00  0.00    -0.246 OA
BRANCH  35  37
ATOM     37  C   UNL A   1      48.359  34.991  29.828  1.00  0.00     0.060 A 
ATOM     38  C   UNL A   1      48.138  34.051  30.847  1.00  0.00     0.016 A 
ATOM     39  C   UNL A   1      47.840  34.775  28.551  1.00  0.00     0.016 A 
ATOM     40  C   UNL A   1      47.422  32.881  30.586  1.00  0.00     0.010 A 
ATOM     41  C   UNL A   1      47.149  33.585  28.283  1.00  0.00     0.010 A 
ATOM     42  C   UNL A   1      46.966  32.618  29.289  1.00  0.00    -0.014 A 
BRANCH  42  43
ATOM     43  C   UNL A   1      46.478  31.256  28.943  1.00  0.00     0.031 A 
ATOM     44  C   UNL A   1      45.016  30.954  29.130  1.00  0.00     0.074 A 
ATOM     45  C   UNL A   1      47.310  30.308  28.474  1.00  0.00     0.049 A 
ATOM     46  N   UNL A   1      44.371  29.834  28.937  1.00  0.00    -0.248 NA
ATOM     47  C   UNL A   1      44.176  32.057  29.623  1.00  0.00     0.031 C 
ATOM     48  C   UNL A   1      48.741  30.484  28.262  1.00  0.00     0.029 A 
ATOM     49  N   UNL A   1      47.071  29.007  28.096  1.00  0.00    -0.354 N 
ATOM     50  C   UNL A   1      43.059  30.083  29.324  1.00  0.00     0.074 A 
ATOM     51  C   UNL A   1      43.001  31.462  29.761  1.00  0.00     0.031 C 
ATOM     52  C   UNL A   1      49.255  29.338  27.778  1.00  0.00     0.029 A 
ATOM     53  C   UNL A   1      48.196  28.336  27.670  1.00  0.00     0.049 A 
ATOM     54  H   UNL A   1      46.179  28.594  28.127  1.00  0.00     0.167 HD
ATOM     55  C   UNL A   1      42.004  29.236  29.327  1.00  0.00     0.037 A 
ATOM     56  C   UNL A   1      48.351  27.061  27.252  1.00  0.00     0.037 A 
ATOM     57  C   UNL A   1      42.066  27.869  28.883  1.00  0.00     0.049 A 
ATOM     58  C   UNL A   1      47.146  26.147  27.239  1.00  0.00     0.074 A 
ATOM     59  C   UNL A   1      41.044  26.937  28.825  1.00  0.00     0.029 A 
ATOM     60  N   UNL A   1      43.211  27.233  28.426  1.00  0.00    -0.354 N 
ATOM     61  N   UNL A   1      45.901  26.414  27.559  1.00  0.00    -0.248 NA
ATOM     62  C   UNL A   1      47.367  24.755  26.820  1.00  0.00     0.031 C 
ATOM     63  C   UNL A   1      41.582  25.724  28.382  1.00  0.00     0.029 A 
ATOM     64  C   UNL A   1      42.926  25.916  28.105  1.00  0.00     0.049 A 
ATOM     65  H   UNL A   1      44.096  27.657  28.341  1.00  0.00     0.167 HD
ATOM     66  C   UNL A   1      45.191  25.231  27.362  1.00  0.00     0.074 A 
ATOM     67  C   UNL A   1      46.138  24.258  26.861  1.00  0.00     0.031 C 
ATOM     68  C   UNL A   1      43.879  24.966  27.589  1.00  0.00     0.037 A 
BRANCH  55  69
ATOM     69  C   UNL A   1      40.698  29.749  29.871  1.00  0.00     0.058 A 
ATOM     70  C   UNL A   1      39.615  30.062  29.037  1.00  0.00     0.135 A 
ATOM     71  C   UNL A   1      40.522  29.894  31.257  1.00  0.00     0.135 A 
ATOM     72  F   UNL A   1      39.736  29.962  27.703  1.00  0.00    -0.206 F 
ATOM     73  C   UNL A   1      38.407  30.520  29.556  1.00  0.00     0.059 A 
ATOM     74  C   UNL A   1      39.315  30.323  31.800  1.00  0.00     0.059 A 
ATOM     75  F   UNL A   1      41.529  29.616  32.100  1.00  0.00    -0.206 F 
ATOM     76  C   UNL A   1      38.266  30.644  30.939  1.00  0.00     0.060 A 
BRANCH  76  77
ATOM     77  S   UNL A   1      36.688  31.219  31.598  1.00  0.00     0.124 S 
ATOM     78  O   UNL A   1      35.861  31.245  30.395  1.00  0.00    -0.237 OA
ATOM     79  O   UNL A   1      36.359  30.181  32.571  1.00  0.00    -0.237 OA
ATOM     80  O   UNL A   1      37.010  32.525  32.165  1.00  0.00    -0.744 OA
ENDBRANCH  76  77
ENDBRANCH  55  69
BRANCH  56  81
ATOM     81  C   UNL A   1      49.686  26.561  26.800  1.00  0.00     0.058 A 
ATOM     82  C   UNL A   1      50.052  26.599  25.444  1.00  0.00     0.135 A 
ATOM     83  C   UNL A   1      50.618  26.019  27.697  1.00  0.00     0.135 A 
ATOM     84  F   UNL A   1      49.192  27.083  24.533  1.00  0.00    -0.206 F 
ATOM     85  C   UNL A   1      51.279  26.117  24.994  1.00  0.00     0.059 A 
ATOM     86  C   UNL A   1      51.866  25.562  27.279  1.00  0.00     0.059 A 
ATOM     87  F   UNL A   1      50.328  25.943  29.006  1.00  0.00    -0.206 F 
ATOM     88  C   UNL A   1      52.184  25.604  25.923  1.00  0.00     0.060 A 
BRANCH  88  89
ATOM     89  S   UNL A   1      53.788  25.008  25.342  1.00  0.00     0.124 S 
ATOM     90  O   UNL A   1      53.891  25.657  24.040  1.00  0.00    -0.237 OA
ATOM     91  O   UNL A   1      54.700  25.500  26.368  1.00  0.00    -0.237 OA
ATOM     92  O   UNL A   1      53.616  23.558  25.312  1.00  0.00    -0.744 OA
ENDBRANCH  88  89
ENDBRANCH  56  81
BRANCH  68  93
ATOM     93  C   UNL A   1      43.381  23.582  27.265  1.00  0.00     0.058 A 
ATOM     94  C   UNL A   1      43.101  22.641  28.269  1.00  0.00     0.135 A 
ATOM     95  C   UNL A   1      43.133  23.208  25.933  1.00  0.00     0.135 A 
ATOM     96  F   UNL A   1      43.317  22.944  29.558  1.00  0.00    -0.206 F 
ATOM     97  C   UNL A   1      42.627  21.368  27.963  1.00  0.00     0.059 A 
ATOM     98  C   UNL A   1      42.631  21.952  25.606  1.00  0.00     0.059 A 
ATOM     99  F   UNL A   1      43.367  24.073  24.933  1.00  0.00    -0.206 F 
ATOM    100  C   UNL A   1      42.396  21.032  26.627  1.00  0.00     0.060 A 
BRANCH 100 101
ATOM    101  S   UNL A   1      41.764  19.384  26.246  1.00  0.00     0.124 S 
ATOM    102  O   UNL A   1      42.391  19.122  24.955  1.00  0.00    -0.237 OA
ATOM    103  O   UNL A   1      42.261  18.591  27.365  1.00  0.00    -0.237 OA
ATOM    104  O   UNL A   1      40.317  19.575  26.213  1.00  0.00    -0.744 OA
ENDBRANCH 100 101
ENDBRANCH  68  93
ENDBRANCH  42  43
ENDBRANCH  35  37
ENDBRANCH  34  35
ENDBRANCH  33  34
ENDBRANCH  32  33
ENDBRANCH  31  32
ENDBRANCH   1  31
TORSDOF 24
ENDMDL
MODEL 3
REMARK VINA RESULT:      -8.8     11.609     17.635
REMARK SMILES CC[C@@H](C)[C@H](C(=O)OCCOCCOCCOC(=O)c1ccc(-c2c3nc(c(-c4c(F)cc(S(=O)(=O)[O-])cc4F)c4ccc([nH]4)c(-c4c(F)cc(S(=O)(=O)[O-])cc4F)c4nc(c(-c5c(F)cc(S(=O)(=O)[O-])cc5F)c5ccc2[nH]5)C=C4)C=C3)cc1)N1C(=O)/C(=C/c2ccc3c(c2)OCO3)SC1=S
REMARK SMILES IDX 13 1 12 2 11 3 10 4 9 5 8 6 6 7 7 8 5 9 3 10 4 11 2 12 1 13
REMARK SMILES IDX 86 14 87 15 101 16 88 17 89 18 100 19 102 20 90 21 91 22
REMARK SMILES IDX 92 23 96 24 93 25 95 26 94 27 97 28 99 29 98 30 14 31 15 32
REMARK SMILES IDX 16 33 17 34 18 35 19 36 20 37 21 38 85 39 22 40 84 41 23 42
REMARK SMILES IDX 24 43 25 44 78 45 26 46 83 47 77 48 79 49 27 50 82 51 76 52
REMARK SMILES IDX 75 53 28 55 62 56 41 57 61 58 42 59 45 60 60 61 80 62 43 63
REMARK SMILES IDX 44 64 59 66 81 67 46 68 29 69 30 70 39 71 31 72 32 73 38 74
REMARK SMILES IDX 40 75 33 76 34 77 35 78 36 79 37 80 63 81 64 82 73 83 65 84
REMARK SMILES IDX 66 85 72 86 74 87 67 88 68 89 69 90 70 91 71 92 47 93 48 94
REMARK SMILES IDX 57 95 49 96 50 97 56 98 58 99 51 100 52 101 53 102 54 103
REMARK SMILES IDX 55 104
REMARK H PARENT 79 54 45 65
REMARK Flexibility Score: inf
ROOT
ATOM      1  C   UNL A   1      41.697  42.637  23.499  1.00  0.00     0.188 C 
ENDROOT
BRANCH   1   2
ATOM      2  C   UNL A   1      42.318  43.002  22.134  1.00  0.00     0.188 C 
BRANCH   2   3
ATOM      3  O   UNL A   1      41.420  43.604  21.231  1.00  0.00    -0.376 OA
BRANCH   3   4
ATOM      4  C   UNL A   1      41.438  43.208  19.873  1.00  0.00     0.202 C 
BRANCH   4   5
ATOM      5  C   UNL A   1      42.632  43.392  18.912  1.00  0.00     0.261 C 
BRANCH   5   6
ATOM      6  O   UNL A   1      43.251  44.682  18.853  1.00  0.00    -0.462 OA
BRANCH   6   7
ATOM      7  C   UNL A   1      43.907  45.013  17.696  1.00  0.00     0.329 C 
ATOM      8  O   UNL A   1      43.636  44.567  16.588  1.00  0.00    -0.250 OA
BRANCH   7   9
ATOM      9  C   UNL A   1      45.113  45.954  17.989  1.00  0.00     0.204 C 
BRANCH   9  10
ATOM     10  C   UNL A   1      44.634  47.408  17.654  1.00  0.00     0.020 C 
ATOM     11  C   UNL A   1      43.125  47.494  17.379  1.00  0.00     0.010 C 
BRANCH  10  12
ATOM     12  C   UNL A   1      45.442  48.013  16.476  1.00  0.00     0.002 C 
ATOM     13  C   UNL A   1      46.240  49.257  16.835  1.00  0.00     0.004 C 
ENDBRANCH  10  12
ENDBRANCH   9  10
BRANCH   9  14
ATOM     14  N   UNL A   1      45.610  45.697  19.374  1.00  0.00    -0.278 N 
ATOM     15  C   UNL A   1      46.513  44.660  19.554  1.00  0.00     0.267 C 
ATOM     16  C   UNL A   1      45.628  46.549  20.455  1.00  0.00     0.149 C 
ATOM     17  O   UNL A   1      47.183  44.126  18.685  1.00  0.00    -0.268 OA
ATOM     18  C   UNL A   1      46.622  44.320  20.987  1.00  0.00     0.081 C 
ATOM     19  S   UNL A   1      46.035  45.637  21.910  1.00  0.00    -0.054 SA
ATOM     20  S   UNL A   1      45.405  48.200  20.520  1.00  0.00    -0.052 S 
ATOM     21  C   UNL A   1      46.974  43.092  21.386  1.00  0.00     0.029 C 
BRANCH  21  22
ATOM     22  C   UNL A   1      46.696  42.619  22.741  1.00  0.00    -0.020 A 
ATOM     23  C   UNL A   1      45.816  43.287  23.612  1.00  0.00     0.012 A 
ATOM     24  C   UNL A   1      47.222  41.365  23.079  1.00  0.00     0.058 A 
ATOM     25  C   UNL A   1      45.395  42.666  24.793  1.00  0.00     0.051 A 
ATOM     26  C   UNL A   1      46.761  40.769  24.226  1.00  0.00     0.166 A 
ATOM     27  C   UNL A   1      45.861  41.394  25.054  1.00  0.00     0.165 A 
ATOM     28  O   UNL A   1      47.057  39.505  24.622  1.00  0.00    -0.454 OA
ATOM     29  O   UNL A   1      45.482  40.599  26.091  1.00  0.00    -0.454 OA
ATOM     30  C   UNL A   1      46.169  39.374  25.751  1.00  0.00     0.468 C 
ENDBRANCH  21  22
ENDBRANCH   9  14
ENDBRANCH   7   9
ENDBRANCH   6   7
ENDBRANCH   5   6
ENDBRANCH   4   5
ENDBRANCH   3   4
ENDBRANCH   2   3
ENDBRANCH   1   2
BRANCH   1  31
ATOM     31  O   UNL A   1      41.931  41.364  24.083  1.00  0.00    -0.376 OA
BRANCH  31  32
ATOM     32  C   UNL A   1      42.082  41.291  25.493  1.00  0.00     0.202 C 
BRANCH  32  33
ATOM     33  C   UNL A   1      41.161  40.379  26.324  1.00  0.00     0.261 C 
BRANCH  33  34
ATOM     34  O   UNL A   1      41.595  39.017  26.487  1.00  0.00    -0.460 OA
BRANCH  34  35
ATOM     35  C   UNL A   1      42.118  38.710  27.703  1.00  0.00     0.338 C 
ATOM     36  O   UNL A   1      41.926  39.308  28.752  1.00  0.00    -0.246 OA
BRANCH  35  37
ATOM     37  C   UNL A   1      42.817  37.406  27.645  1.00  0.00     0.060 A 
ATOM     38  C   UNL A   1      43.543  36.984  28.770  1.00  0.00     0.016 A 
ATOM     39  C   UNL A   1      42.816  36.634  26.483  1.00  0.00     0.016 A 
ATOM     40  C   UNL A   1      44.291  35.805  28.728  1.00  0.00     0.010 A 
ATOM     41  C   UNL A   1      43.592  35.468  26.432  1.00  0.00     0.010 A 
ATOM     42  C   UNL A   1      44.359  35.065  27.541  1.00  0.00    -0.014 A 
BRANCH  42  43
ATOM     43  C   UNL A   1      45.380  33.994  27.400  1.00  0.00     0.031 A 
ATOM     44  C   UNL A   1      46.819  34.399  27.226  1.00  0.00     0.074 A 
ATOM     45  C   UNL A   1      45.044  32.691  27.426  1.00  0.00     0.049 A 
ATOM     46  N   UNL A   1      47.874  33.650  27.044  1.00  0.00    -0.248 NA
ATOM     47  C   UNL A   1      47.100  35.845  27.235  1.00  0.00     0.031 C 
ATOM     48  C   UNL A   1      43.686  32.183  27.579  1.00  0.00     0.029 A 
ATOM     49  N   UNL A   1      45.817  31.558  27.319  1.00  0.00    -0.354 N 
ATOM     50  C   UNL A   1      48.937  34.531  26.875  1.00  0.00     0.074 A 
ATOM     51  C   UNL A   1      48.399  35.870  26.978  1.00  0.00     0.031 C 
ATOM     52  C   UNL A   1      43.720  30.838  27.570  1.00  0.00     0.029 A 
ATOM     53  C   UNL A   1      45.097  30.386  27.384  1.00  0.00     0.049 A 
ATOM     54  H   UNL A   1      46.794  31.584  27.206  1.00  0.00     0.167 HD
ATOM     55  C   UNL A   1      50.240  34.247  26.642  1.00  0.00     0.037 A 
ATOM     56  C   UNL A   1      45.505  29.102  27.293  1.00  0.00     0.037 A 
ATOM     57  C   UNL A   1      50.771  32.913  26.549  1.00  0.00     0.049 A 
ATOM     58  C   UNL A   1      46.972  28.817  27.062  1.00  0.00     0.074 A 
ATOM     59  C   UNL A   1      52.082  32.523  26.339  1.00  0.00     0.029 A 
ATOM     60  N   UNL A   1      50.021  31.750  26.655  1.00  0.00    -0.354 N 
ATOM     61  N   UNL A   1      47.973  29.660  26.956  1.00  0.00    -0.248 NA
ATOM     62  C   UNL A   1      47.367  27.407  26.925  1.00  0.00     0.031 C 
ATOM     63  C   UNL A   1      52.117  31.127  26.266  1.00  0.00     0.029 A 
ATOM     64  C   UNL A   1      50.838  30.644  26.492  1.00  0.00     0.049 A 
ATOM     65  H   UNL A   1      49.051  31.718  26.822  1.00  0.00     0.167 HD
ATOM     66  C   UNL A   1      49.112  28.883  26.760  1.00  0.00     0.074 A 
ATOM     67  C   UNL A   1      48.683  27.501  26.798  1.00  0.00     0.031 C 
ATOM     68  C   UNL A   1      50.395  29.273  26.551  1.00  0.00     0.037 A 
BRANCH  55  69
ATOM     69  C   UNL A   1      51.177  35.403  26.423  1.00  0.00     0.058 A 
ATOM     70  C   UNL A   1      51.796  36.074  27.488  1.00  0.00     0.135 A 
ATOM     71  C   UNL A   1      51.486  35.821  25.118  1.00  0.00     0.135 A 
ATOM     72  F   UNL A   1      51.519  35.729  28.757  1.00  0.00    -0.206 F 
ATOM     73  C   UNL A   1      52.674  37.131  27.270  1.00  0.00     0.059 A 
ATOM     74  C   UNL A   1      52.383  36.857  24.874  1.00  0.00     0.059 A 
ATOM     75  F   UNL A   1      50.916  35.219  24.061  1.00  0.00    -0.206 F 
ATOM     76  C   UNL A   1      52.964  37.513  25.959  1.00  0.00     0.060 A 
BRANCH  76  77
ATOM     77  S   UNL A   1      54.120  38.872  25.691  1.00  0.00     0.124 S 
ATOM     78  O   UNL A   1      53.668  39.391  24.403  1.00  0.00    -0.237 OA
ATOM     79  O   UNL A   1      53.864  39.730  26.844  1.00  0.00    -0.237 OA
ATOM     80  O   UNL A   1      55.423  38.216  25.680  1.00  0.00    -0.744 OA
ENDBRANCH  76  77
ENDBRANCH  55  69
BRANCH  56  81
ATOM     81  C   UNL A   1      44.527  27.977  27.430  1.00  0.00     0.058 A 
ATOM     82  C   UNL A   1      44.105  27.535  28.694  1.00  0.00     0.135 A 
ATOM     83  C   UNL A   1      44.006  27.308  26.312  1.00  0.00     0.135 A 
ATOM     84  F   UNL A   1      44.587  28.120  29.803  1.00  0.00    -0.206 F 
ATOM     85  C   UNL A   1      43.214  26.474  28.848  1.00  0.00     0.059 A 
ATOM     86  C   UNL A   1      43.089  26.267  26.437  1.00  0.00     0.059 A 
ATOM     87  F   UNL A   1      44.377  27.673  25.075  1.00  0.00    -0.206 F 
ATOM     88  C   UNL A   1      42.707  25.849  27.711  1.00  0.00     0.060 A 
BRANCH  88  89
ATOM     89  S   UNL A   1      41.528  24.495  27.911  1.00  0.00     0.124 S 
ATOM     90  O   UNL A   1      41.357  24.045  26.534  1.00  0.00    -0.237 OA
ATOM     91  O   UNL A   1      42.243  23.578  28.792  1.00  0.00    -0.237 OA
ATOM     92  O   UNL A   1      40.366  25.146  28.510  1.00  0.00    -0.744 OA
ENDBRANCH  88  89
ENDBRANCH  56  81
BRANCH  68  93
ATOM     93  C   UNL A   1      51.434  28.195  26.383  1.00  0.00     0.058 A 
ATOM     94  C   UNL A   1      52.150  27.680  27.476  1.00  0.00     0.135 A 
ATOM     95  C   UNL A   1      51.680  27.634  25.118  1.00  0.00     0.135 A 
ATOM     96  F   UNL A   1      51.955  28.176  28.707  1.00  0.00    -0.206 F 
ATOM     97  C   UNL A   1      53.099  26.673  27.315  1.00  0.00     0.059 A 
ATOM     98  C   UNL A   1      52.602  26.607  24.939  1.00  0.00     0.059 A 
ATOM     99  F   UNL A   1      51.012  28.076  24.041  1.00  0.00    -0.206 F 
ATOM    100  C   UNL A   1      53.318  26.144  26.042  1.00  0.00     0.060 A 
BRANCH 100 101
ATOM    101  S   UNL A   1      54.538  24.826  25.850  1.00  0.00     0.124 S 
ATOM    102  O   UNL A   1      55.375  25.355  24.778  1.00  0.00    -0.237 OA
ATOM    103  O   UNL A   1      55.156  24.776  27.171  1.00  0.00    -0.237 OA
ATOM    104  O   UNL A   1      53.729  23.663  25.498  1.00  0.00    -0.744 OA
ENDBRANCH 100 101
ENDBRANCH  68  93
ENDBRANCH  42  43
ENDBRANCH  35  37
ENDBRANCH  34  35
ENDBRANCH  33  34
ENDBRANCH  32  33
ENDBRANCH  31  32
ENDBRANCH   1  31
TORSDOF 24
ENDMDL
