MODEL 1
REMARK VINA RESULT:      -9.6      0.000      0.000
REMARK SMILES Cc1c(NC(=O)c2cccc(-c3cc4ccccc4oc3=O)c2)cccc1C(=O)OCCOCCOCCOC(=O)c1ccc(-c2c3nc(c(-c4c(F)cc(S(=O)(=O)[O-])cc4F)c4ccc([nH]4)c(-c4c(F)cc(S(=O)(=O)[O-])cc4F)c4nc(c(-c5c(F)cc(S(=O)(=O)[O-])cc5F)c5ccc2[nH]5)C=C4)C=C3)cc1
REMARK SMILES IDX 34 1 33 2 32 3 31 4 30 5 28 6 29 7 27 8 1 9 2 10 3 11 24 12
REMARK SMILES IDX 26 13 25 14 4 15 5 16 6 18 7 19 8 20 23 21 9 22 11 23 10 24
REMARK SMILES IDX 12 25 13 26 21 27 14 28 20 29 22 30 15 31 19 32 16 33 18 34
REMARK SMILES IDX 17 35 35 36 36 37 37 38 38 39 39 40 40 41 41 42 42 43 43 44
REMARK SMILES IDX 107 45 44 46 106 47 45 48 46 49 47 50 100 51 48 52 105 53
REMARK SMILES IDX 99 54 101 55 49 56 104 57 98 58 97 59 50 61 84 62 63 63
REMARK SMILES IDX 83 64 64 65 67 66 82 67 102 68 65 69 66 70 81 72 103 73
REMARK SMILES IDX 68 74 51 75 52 76 61 77 53 78 54 79 60 80 62 81 55 82 56 83
REMARK SMILES IDX 57 84 58 85 59 86 85 87 86 88 95 89 87 90 88 91 94 92 96 93
REMARK SMILES IDX 89 94 90 95 91 96 92 97 93 98 69 99 70 100 79 101 71 102
REMARK SMILES IDX 72 103 78 104 80 105 73 106 74 107 75 108 76 109 77 110
REMARK H PARENT 4 17 101 60 67 71
REMARK Flexibility Score: inf
ROOT
ATOM      1  C   UNL A   1      50.792  24.835  31.686  1.00  0.00     0.188 C 
ENDROOT
BRANCH   1   2
ATOM      2  O   UNL A   1      50.834  23.456  32.125  1.00  0.00    -0.376 OA
BRANCH   2   3
ATOM      3  C   UNL A   1      51.061  22.999  33.478  1.00  0.00     0.202 C 
BRANCH   3   4
ATOM      4  C   UNL A   1      50.394  21.604  34.254  1.00  0.00     0.261 C 
BRANCH   4   5
ATOM      5  O   UNL A   1      48.868  20.725  34.093  1.00  0.00    -0.460 OA
BRANCH   5   6
ATOM      6  C   UNL A   1      47.565  20.643  34.742  1.00  0.00     0.338 C 
ATOM      7  O   UNL A   1      46.989  19.617  35.093  1.00  0.00    -0.246 OA
BRANCH   6   8
ATOM      8  C   UNL A   1      46.506  21.698  34.949  1.00  0.00     0.065 A 
ATOM      9  C   UNL A   1      47.586  22.815  36.889  1.00  0.00     0.047 C 
ATOM     10  C   UNL A   1      46.386  22.522  36.050  1.00  0.00    -0.013 A 
ATOM     11  C   UNL A   1      45.108  23.100  36.298  1.00  0.00     0.045 A 
ATOM     12  C   UNL A   1      44.025  22.955  35.412  1.00  0.00     0.026 A 
ATOM     13  C   UNL A   1      45.417  21.671  33.998  1.00  0.00     0.016 A 
ATOM     14  C   UNL A   1      44.191  22.276  34.225  1.00  0.00     0.003 A 
BRANCH  11  15
ATOM     15  N   UNL A   1      44.953  23.899  37.434  1.00  0.00    -0.322 N 
ATOM     16  C   UNL A   1      44.556  25.204  37.573  1.00  0.00     0.255 C 
ATOM     17  H   UNL A   1      45.166  23.446  38.282  1.00  0.00     0.170 HD
ATOM     18  O   UNL A   1      44.927  25.814  38.580  1.00  0.00    -0.269 OA
BRANCH  16  19
ATOM     19  C   UNL A   1      43.569  25.875  36.668  1.00  0.00     0.040 A 
ATOM     20  C   UNL A   1      42.215  25.687  36.977  1.00  0.00     0.014 A 
ATOM     21  C   UNL A   1      43.906  26.451  35.431  1.00  0.00     0.022 A 
ATOM     22  C   UNL A   1      41.217  26.047  36.073  1.00  0.00     0.001 A 
ATOM     23  C   UNL A   1      42.901  26.789  34.492  1.00  0.00    -0.010 A 
ATOM     24  C   UNL A   1      41.559  26.585  34.835  1.00  0.00     0.009 A 
BRANCH  23  25
ATOM     25  C   UNL A   1      43.143  27.196  33.079  1.00  0.00     0.068 A 
ATOM     26  C   UNL A   1      42.615  28.303  32.517  1.00  0.00     0.028 A 
ATOM     27  C   UNL A   1      44.544  27.000  32.582  1.00  0.00     0.344 A 
ATOM     28  C   UNL A   1      43.371  29.480  32.971  1.00  0.00     0.018 A 
ATOM     29  O   UNL A   1      45.375  28.104  32.794  1.00  0.00    -0.422 OA
ATOM     30  O   UNL A   1      44.937  25.940  32.113  1.00  0.00    -0.246 OA
ATOM     31  C   UNL A   1      42.743  30.659  33.317  1.00  0.00     0.012 A 
ATOM     32  C   UNL A   1      44.754  29.315  33.170  1.00  0.00     0.138 A 
ATOM     33  C   UNL A   1      43.503  31.628  33.950  1.00  0.00     0.001 A 
ATOM     34  C   UNL A   1      45.511  30.273  33.817  1.00  0.00     0.048 A 
ATOM     35  C   UNL A   1      44.862  31.423  34.237  1.00  0.00     0.004 A 
ENDBRANCH  23  25
ENDBRANCH  16  19
ENDBRANCH  11  15
ENDBRANCH   6   8
ENDBRANCH   5   6
ENDBRANCH   4   5
ENDBRANCH   3   4
ENDBRANCH   2   3
ENDBRANCH   1   2
BRANCH   1  36
ATOM     36  C   UNL A   1      49.799  25.437  30.677  1.00  0.00     0.188 C 
BRANCH  36  37
ATOM     37  O   UNL A   1      50.111  25.106  29.339  1.00  0.00    -0.376 OA
BRANCH  37  38
ATOM     38  C   UNL A   1      49.289  25.700  28.346  1.00  0.00     0.202 C 
BRANCH  38  39
ATOM     39  C   UNL A   1      49.587  25.277  26.894  1.00  0.00     0.261 C 
BRANCH  39  40
ATOM     40  O   UNL A   1      48.649  25.792  25.923  1.00  0.00    -0.460 OA
BRANCH  40  41
ATOM     41  C   UNL A   1      47.424  25.149  25.804  1.00  0.00     0.338 C 
ATOM     42  O   UNL A   1      47.320  23.964  25.726  1.00  0.00    -0.246 OA
BRANCH  41  43
ATOM     43  C   UNL A   1      46.313  26.102  26.108  1.00  0.00     0.060 A 
ATOM     44  C   UNL A   1      45.807  27.142  25.331  1.00  0.00     0.016 A 
ATOM     45  C   UNL A   1      45.702  25.899  27.295  1.00  0.00     0.016 A 
ATOM     46  C   UNL A   1      44.825  28.090  25.838  1.00  0.00     0.010 A 
ATOM     47  C   UNL A   1      44.801  26.851  27.759  1.00  0.00     0.010 A 
ATOM     48  C   UNL A   1      44.296  28.041  27.145  1.00  0.00    -0.014 A 
BRANCH  48  49
ATOM     49  C   UNL A   1      43.181  29.216  27.804  1.00  0.00     0.031 A 
ATOM     50  C   UNL A   1      43.299  30.580  28.927  1.00  0.00     0.074 A 
ATOM     51  C   UNL A   1      41.884  28.985  27.488  1.00  0.00     0.049 A 
ATOM     52  N   UNL A   1      42.267  31.195  29.488  1.00  0.00    -0.248 NA
ATOM     53  C   UNL A   1      44.492  31.341  29.505  1.00  0.00     0.031 C 
ATOM     54  C   UNL A   1      40.761  29.914  27.564  1.00  0.00     0.029 A 
ATOM     55  N   UNL A   1      41.278  27.758  27.181  1.00  0.00    -0.354 N 
ATOM     56  C   UNL A   1      42.731  32.344  30.160  1.00  0.00     0.074 A 
ATOM     57  C   UNL A   1      44.083  32.163  30.446  1.00  0.00     0.031 C 
ATOM     58  C   UNL A   1      39.623  29.209  27.625  1.00  0.00     0.029 A 
ATOM     59  C   UNL A   1      40.002  27.816  27.757  1.00  0.00     0.049 A 
ATOM     60  H   UNL A   1      41.667  27.013  26.668  1.00  0.00     0.167 HD
ATOM     61  C   UNL A   1      42.069  33.529  30.244  1.00  0.00     0.037 A 
ATOM     62  C   UNL A   1      39.637  26.977  28.763  1.00  0.00     0.037 A 
ATOM     63  C   UNL A   1      40.674  33.226  30.297  1.00  0.00     0.049 A 
ATOM     64  C   UNL A   1      39.100  27.710  29.969  1.00  0.00     0.074 A 
ATOM     65  C   UNL A   1      39.665  33.171  29.364  1.00  0.00     0.029 A 
ATOM     66  N   UNL A   1      40.282  32.448  31.376  1.00  0.00    -0.354 N 
ATOM     67  N   UNL A   1      39.294  28.984  30.202  1.00  0.00    -0.248 NA
ATOM     68  C   UNL A   1      38.258  27.086  30.983  1.00  0.00     0.031 C 
ATOM     69  C   UNL A   1      38.775  32.141  29.803  1.00  0.00     0.029 A 
ATOM     70  C   UNL A   1      39.217  31.650  31.026  1.00  0.00     0.049 A 
ATOM     71  H   UNL A   1      40.705  32.465  32.264  1.00  0.00     0.167 HD
ATOM     72  C   UNL A   1      38.688  29.337  31.379  1.00  0.00     0.074 A 
ATOM     73  C   UNL A   1      38.019  28.122  31.805  1.00  0.00     0.031 C 
ATOM     74  C   UNL A   1      38.806  30.582  31.933  1.00  0.00     0.037 A 
BRANCH  61  75
ATOM     75  C   UNL A   1      42.745  34.910  30.281  1.00  0.00     0.058 A 
ATOM     76  C   UNL A   1      43.150  35.557  29.098  1.00  0.00     0.135 A 
ATOM     77  C   UNL A   1      43.145  35.595  31.466  1.00  0.00     0.135 A 
ATOM     78  F   UNL A   1      42.912  34.995  27.904  1.00  0.00    -0.206 F 
ATOM     79  C   UNL A   1      43.853  36.780  29.088  1.00  0.00     0.059 A 
ATOM     80  C   UNL A   1      43.780  36.844  31.483  1.00  0.00     0.059 A 
ATOM     81  F   UNL A   1      43.014  35.054  32.687  1.00  0.00    -0.206 F 
ATOM     82  C   UNL A   1      44.158  37.422  30.286  1.00  0.00     0.060 A 
BRANCH  82  83
ATOM     83  S   UNL A   1      45.093  38.972  30.291  1.00  0.00     0.124 S 
ATOM     84  O   UNL A   1      44.536  39.652  31.455  1.00  0.00    -0.237 OA
ATOM     85  O   UNL A   1      46.472  38.512  30.420  1.00  0.00    -0.237 OA
ATOM     86  O   UNL A   1      44.761  39.574  29.002  1.00  0.00    -0.744 OA
ENDBRANCH  82  83
ENDBRANCH  61  75
BRANCH  62  87
ATOM     87  C   UNL A   1      40.288  25.628  28.693  1.00  0.00     0.058 A 
ATOM     88  C   UNL A   1      39.663  24.656  27.880  1.00  0.00     0.135 A 
ATOM     89  C   UNL A   1      41.617  25.374  29.063  1.00  0.00     0.135 A 
ATOM     90  F   UNL A   1      38.392  24.834  27.480  1.00  0.00    -0.206 F 
ATOM     91  C   UNL A   1      40.344  23.556  27.362  1.00  0.00     0.059 A 
ATOM     92  C   UNL A   1      42.321  24.258  28.567  1.00  0.00     0.059 A 
ATOM     93  F   UNL A   1      42.288  26.256  29.818  1.00  0.00    -0.206 F 
ATOM     94  C   UNL A   1      41.685  23.377  27.686  1.00  0.00     0.060 A 
BRANCH  94  95
ATOM     95  S   UNL A   1      42.589  22.083  26.790  1.00  0.00     0.124 S 
ATOM     96  O   UNL A   1      42.291  20.897  27.583  1.00  0.00    -0.237 OA
ATOM     97  O   UNL A   1      41.956  22.128  25.472  1.00  0.00    -0.237 OA
ATOM     98  O   UNL A   1      43.970  22.550  26.836  1.00  0.00    -0.744 OA
ENDBRANCH  94  95
ENDBRANCH  62  87
BRANCH  74  99
ATOM     99  C   UNL A   1      38.552  30.887  33.400  1.00  0.00     0.058 A 
ATOM    100  C   UNL A   1      39.268  30.292  34.457  1.00  0.00     0.135 A 
ATOM    101  C   UNL A   1      37.667  31.924  33.789  1.00  0.00     0.135 A 
ATOM    102  F   UNL A   1      40.259  29.419  34.233  1.00  0.00    -0.206 F 
ATOM    103  C   UNL A   1      39.029  30.598  35.796  1.00  0.00     0.059 A 
ATOM    104  C   UNL A   1      37.479  32.307  35.115  1.00  0.00     0.059 A 
ATOM    105  F   UNL A   1      36.960  32.621  32.887  1.00  0.00    -0.206 F 
ATOM    106  C   UNL A   1      38.121  31.597  36.117  1.00  0.00     0.060 A 
BRANCH 106 107
ATOM    107  S   UNL A   1      37.777  31.980  37.841  1.00  0.00     0.124 S 
ATOM    108  O   UNL A   1      36.837  33.088  37.703  1.00  0.00    -0.237 OA
ATOM    109  O   UNL A   1      37.211  30.734  38.351  1.00  0.00    -0.237 OA
ATOM    110  O   UNL A   1      39.093  32.326  38.370  1.00  0.00    -0.744 OA
ENDBRANCH 106 107
ENDBRANCH  74  99
ENDBRANCH  48  49
ENDBRANCH  41  43
ENDBRANCH  40  41
ENDBRANCH  39  40
ENDBRANCH  38  39
ENDBRANCH  37  38
ENDBRANCH  36  37
ENDBRANCH   1  36
TORSDOF 23
ENDMDL
MODEL 2
REMARK VINA RESULT:      -9.1      5.705     14.408
REMARK SMILES Cc1c(NC(=O)c2cccc(-c3cc4ccccc4oc3=O)c2)cccc1C(=O)OCCOCCOCCOC(=O)c1ccc(-c2c3nc(c(-c4c(F)cc(S(=O)(=O)[O-])cc4F)c4ccc([nH]4)c(-c4c(F)cc(S(=O)(=O)[O-])cc4F)c4nc(c(-c5c(F)cc(S(=O)(=O)[O-])cc5F)c5ccc2[nH]5)C=C4)C=C3)cc1
REMARK SMILES IDX 34 1 33 2 32 3 31 4 30 5 28 6 29 7 27 8 1 9 2 10 3 11 24 12
REMARK SMILES IDX 26 13 25 14 4 15 5 16 6 18 7 19 8 20 23 21 9 22 11 23 10 24
REMARK SMILES IDX 12 25 13 26 21 27 14 28 20 29 22 30 15 31 19 32 16 33 18 34
REMARK SMILES IDX 17 35 35 36 36 37 37 38 38 39 39 40 40 41 41 42 42 43 43 44
REMARK SMILES IDX 107 45 44 46 106 47 45 48 46 49 47 50 100 51 48 52 105 53
REMARK SMILES IDX 99 54 101 55 49 56 104 57 98 58 97 59 50 61 84 62 63 63
REMARK SMILES IDX 83 64 64 65 67 66 82 67 102 68 65 69 66 70 81 72 103 73
REMARK SMILES IDX 68 74 51 75 52 76 61 77 53 78 54 79 60 80 62 81 55 82 56 83
REMARK SMILES IDX 57 84 58 85 59 86 85 87 86 88 95 89 87 90 88 91 94 92 96 93
REMARK SMILES IDX 89 94 90 95 91 96 92 97 93 98 69 99 70 100 79 101 71 102
REMARK SMILES IDX 72 103 78 104 80 105 73 106 74 107 75 108 76 109 77 110
REMARK H PARENT 4 17 101 60 67 71
REMARK Flexibility Score: inf
ROOT
ATOM      1  C   UNL A   1      35.799  31.765  32.504  1.00  0.00     0.188 C 
ENDROOT
BRANCH   1   2
ATOM      2  O   UNL A   1      36.379  31.540  31.197  1.00  0.00    -0.376 OA
BRANCH   2   3
ATOM      3  C   UNL A   1      36.677  30.254  30.606  1.00  0.00     0.202 C 
BRANCH   3   4
ATOM      4  C   UNL A   1      36.197  29.662  29.053  1.00  0.00     0.261 C 
BRANCH   4   5
ATOM      5  O   UNL A   1      35.106  30.261  27.797  1.00  0.00    -0.460 OA
BRANCH   5   6
ATOM      6  C   UNL A   1      33.774  29.994  27.270  1.00  0.00     0.338 C 
ATOM      7  O   UNL A   1      32.759  30.649  27.489  1.00  0.00    -0.246 OA
BRANCH   6   8
ATOM      8  C   UNL A   1      33.231  28.789  26.541  1.00  0.00     0.065 A 
ATOM      9  C   UNL A   1      34.801  28.885  24.616  1.00  0.00     0.047 C 
ATOM     10  C   UNL A   1      33.526  28.427  25.242  1.00  0.00    -0.013 A 
ATOM     11  C   UNL A   1      32.599  27.576  24.575  1.00  0.00     0.045 A 
ATOM     12  C   UNL A   1      31.484  27.011  25.222  1.00  0.00     0.026 A 
ATOM     13  C   UNL A   1      32.154  28.098  27.212  1.00  0.00     0.016 A 
ATOM     14  C   UNL A   1      31.284  27.232  26.567  1.00  0.00     0.003 A 
BRANCH  11  15
ATOM     15  N   UNL A   1      32.853  27.236  23.243  1.00  0.00    -0.322 N 
ATOM     16  C   UNL A   1      33.111  26.026  22.652  1.00  0.00     0.255 C 
ATOM     17  H   UNL A   1      32.845  27.999  22.620  1.00  0.00     0.170 HD
ATOM     18  O   UNL A   1      33.740  26.026  21.591  1.00  0.00    -0.269 OA
BRANCH  16  19
ATOM     19  C   UNL A   1      32.534  24.728  23.128  1.00  0.00     0.040 A 
ATOM     20  C   UNL A   1      31.183  24.504  22.836  1.00  0.00     0.014 A 
ATOM     21  C   UNL A   1      33.182  23.867  24.032  1.00  0.00     0.022 A 
ATOM     22  C   UNL A   1      30.482  23.461  23.439  1.00  0.00     0.001 A 
ATOM     23  C   UNL A   1      32.470  22.826  24.677  1.00  0.00    -0.010 A 
ATOM     24  C   UNL A   1      31.120  22.634  24.361  1.00  0.00     0.009 A 
BRANCH  23  25
ATOM     25  C   UNL A   1      32.985  21.999  25.804  1.00  0.00     0.068 A 
ATOM     26  C   UNL A   1      33.941  21.058  25.668  1.00  0.00     0.028 A 
ATOM     27  C   UNL A   1      33.177  22.726  27.101  1.00  0.00     0.344 A 
ATOM     28  C   UNL A   1      35.253  21.716  25.569  1.00  0.00     0.018 A 
ATOM     29  O   UNL A   1      34.448  23.290  27.246  1.00  0.00    -0.422 OA
ATOM     30  O   UNL A   1      32.275  22.878  27.915  1.00  0.00    -0.246 OA
ATOM     31  C   UNL A   1      36.215  21.291  24.675  1.00  0.00     0.012 A 
ATOM     32  C   UNL A   1      35.442  22.885  26.329  1.00  0.00     0.138 A 
ATOM     33  C   UNL A   1      37.320  22.104  24.488  1.00  0.00     0.001 A 
ATOM     34  C   UNL A   1      36.534  23.708  26.131  1.00  0.00     0.048 A 
ATOM     35  C   UNL A   1      37.459  23.321  25.174  1.00  0.00     0.004 A 
ENDBRANCH  23  25
ENDBRANCH  16  19
ENDBRANCH  11  15
ENDBRANCH   6   8
ENDBRANCH   5   6
ENDBRANCH   4   5
ENDBRANCH   3   4
ENDBRANCH   2   3
ENDBRANCH   1   2
BRANCH   1  36
ATOM     36  C   UNL A   1      35.819  33.086  33.293  1.00  0.00     0.188 C 
BRANCH  36  37
ATOM     37  O   UNL A   1      36.174  32.907  34.648  1.00  0.00    -0.376 OA
BRANCH  37  38
ATOM     38  C   UNL A   1      37.421  32.272  34.884  1.00  0.00     0.202 C 
BRANCH  38  39
ATOM     39  C   UNL A   1      38.384  33.020  35.827  1.00  0.00     0.261 C 
BRANCH  39  40
ATOM     40  O   UNL A   1      38.522  34.429  35.534  1.00  0.00    -0.460 OA
BRANCH  40  41
ATOM     41  C   UNL A   1      39.807  34.954  35.482  1.00  0.00     0.338 C 
ATOM     42  O   UNL A   1      40.458  35.169  36.456  1.00  0.00    -0.246 OA
BRANCH  41  43
ATOM     43  C   UNL A   1      40.328  34.895  34.082  1.00  0.00     0.060 A 
ATOM     44  C   UNL A   1      39.674  34.510  32.914  1.00  0.00     0.016 A 
ATOM     45  C   UNL A   1      41.607  35.302  33.937  1.00  0.00     0.016 A 
ATOM     46  C   UNL A   1      40.370  34.351  31.644  1.00  0.00     0.010 A 
ATOM     47  C   UNL A   1      42.246  35.093  32.720  1.00  0.00     0.010 A 
ATOM     48  C   UNL A   1      41.753  34.574  31.480  1.00  0.00    -0.014 A 
BRANCH  48  49
ATOM     49  C   UNL A   1      42.626  34.308  29.989  1.00  0.00     0.031 A 
ATOM     50  C   UNL A   1      43.865  33.170  29.435  1.00  0.00     0.074 A 
ATOM     51  C   UNL A   1      42.408  35.255  29.044  1.00  0.00     0.049 A 
ATOM     52  N   UNL A   1      44.577  33.303  28.324  1.00  0.00    -0.248 NA
ATOM     53  C   UNL A   1      44.405  31.866  30.021  1.00  0.00     0.031 C 
ATOM     54  C   UNL A   1      42.680  35.175  27.612  1.00  0.00     0.029 A 
ATOM     55  N   UNL A   1      42.036  36.593  29.237  1.00  0.00    -0.354 N 
ATOM     56  C   UNL A   1      45.316  32.121  28.112  1.00  0.00     0.074 A 
ATOM     57  C   UNL A   1      45.457  31.473  29.338  1.00  0.00     0.031 C 
ATOM     58  C   UNL A   1      42.773  36.420  27.123  1.00  0.00     0.029 A 
ATOM     59  C   UNL A   1      42.730  37.319  28.259  1.00  0.00     0.049 A 
ATOM     60  H   UNL A   1      41.418  36.948  29.916  1.00  0.00     0.167 HD
ATOM     61  C   UNL A   1      45.579  31.563  26.901  1.00  0.00     0.037 A 
ATOM     62  C   UNL A   1      43.675  38.238  28.592  1.00  0.00     0.037 A 
ATOM     63  C   UNL A   1      45.729  32.636  25.969  1.00  0.00     0.049 A 
ATOM     64  C   UNL A   1      44.993  37.999  27.895  1.00  0.00     0.074 A 
ATOM     65  C   UNL A   1      44.891  33.254  25.070  1.00  0.00     0.029 A 
ATOM     66  N   UNL A   1      46.755  33.523  26.255  1.00  0.00    -0.354 N 
ATOM     67  N   UNL A   1      45.334  36.865  27.336  1.00  0.00    -0.248 NA
ATOM     68  C   UNL A   1      46.012  39.028  27.722  1.00  0.00     0.031 C 
ATOM     69  C   UNL A   1      45.304  34.622  25.019  1.00  0.00     0.029 A 
ATOM     70  C   UNL A   1      46.425  34.788  25.824  1.00  0.00     0.049 A 
ATOM     71  H   UNL A   1      47.598  33.283  26.702  1.00  0.00     0.167 HD
ATOM     72  C   UNL A   1      46.591  36.972  26.801  1.00  0.00     0.074 A 
ATOM     73  C   UNL A   1      46.952  38.358  27.034  1.00  0.00     0.031 C 
ATOM     74  C   UNL A   1      47.255  35.915  26.241  1.00  0.00     0.037 A 
BRANCH  61  75
ATOM     75  C   UNL A   1      45.692  30.052  26.637  1.00  0.00     0.058 A 
ATOM     76  C   UNL A   1      44.551  29.228  26.604  1.00  0.00     0.135 A 
ATOM     77  C   UNL A   1      46.917  29.326  26.543  1.00  0.00     0.135 A 
ATOM     78  F   UNL A   1      43.329  29.759  26.758  1.00  0.00    -0.206 F 
ATOM     79  C   UNL A   1      44.614  27.826  26.456  1.00  0.00     0.059 A 
ATOM     80  C   UNL A   1      47.004  27.945  26.325  1.00  0.00     0.059 A 
ATOM     81  F   UNL A   1      48.111  29.906  26.737  1.00  0.00    -0.206 F 
ATOM     82  C   UNL A   1      45.845  27.192  26.309  1.00  0.00     0.060 A 
BRANCH  82  83
ATOM     83  S   UNL A   1      45.944  25.392  26.158  1.00  0.00     0.124 S 
ATOM     84  O   UNL A   1      47.292  25.125  26.647  1.00  0.00    -0.237 OA
ATOM     85  O   UNL A   1      44.854  24.939  27.016  1.00  0.00    -0.237 OA
ATOM     86  O   UNL A   1      45.744  25.158  24.730  1.00  0.00    -0.744 OA
ENDBRANCH  82  83
ENDBRANCH  61  75
BRANCH  62  87
ATOM     87  C   UNL A   1      43.410  38.935  29.893  1.00  0.00     0.058 A 
ATOM     88  C   UNL A   1      44.098  38.453  31.030  1.00  0.00     0.135 A 
ATOM     89  C   UNL A   1      42.838  40.211  30.002  1.00  0.00     0.135 A 
ATOM     90  F   UNL A   1      44.678  37.241  30.997  1.00  0.00    -0.206 F 
ATOM     91  C   UNL A   1      44.312  39.230  32.166  1.00  0.00     0.059 A 
ATOM     92  C   UNL A   1      43.025  41.008  31.150  1.00  0.00     0.059 A 
ATOM     93  F   UNL A   1      42.185  40.749  28.963  1.00  0.00    -0.206 F 
ATOM     94  C   UNL A   1      43.797  40.521  32.210  1.00  0.00     0.060 A 
BRANCH  94  95
ATOM     95  S   UNL A   1      44.315  41.576  33.594  1.00  0.00     0.124 S 
ATOM     96  O   UNL A   1      44.805  42.763  32.907  1.00  0.00    -0.237 OA
ATOM     97  O   UNL A   1      43.061  41.751  34.326  1.00  0.00    -0.237 OA
ATOM     98  O   UNL A   1      45.324  40.767  34.268  1.00  0.00    -0.744 OA
ENDBRANCH  94  95
ENDBRANCH  62  87
BRANCH  74  99
ATOM     99  C   UNL A   1      48.762  35.860  26.055  1.00  0.00     0.058 A 
ATOM    100  C   UNL A   1      49.456  36.603  25.080  1.00  0.00     0.135 A 
ATOM    101  C   UNL A   1      49.587  35.161  26.972  1.00  0.00     0.135 A 
ATOM    102  F   UNL A   1      48.823  37.444  24.252  1.00  0.00    -0.206 F 
ATOM    103  C   UNL A   1      50.842  36.549  24.936  1.00  0.00     0.059 A 
ATOM    104  C   UNL A   1      50.978  35.166  26.900  1.00  0.00     0.059 A 
ATOM    105  F   UNL A   1      49.069  34.457  27.989  1.00  0.00    -0.206 F 
ATOM    106  C   UNL A   1      51.595  35.815  25.842  1.00  0.00     0.060 A 
BRANCH 106 107
ATOM    107  S   UNL A   1      53.381  35.709  25.651  1.00  0.00     0.124 S 
ATOM    108  O   UNL A   1      53.589  34.266  25.729  1.00  0.00    -0.237 OA
ATOM    109  O   UNL A   1      53.609  36.308  24.339  1.00  0.00    -0.237 OA
ATOM    110  O   UNL A   1      53.879  36.485  26.782  1.00  0.00    -0.744 OA
ENDBRANCH 106 107
ENDBRANCH  74  99
ENDBRANCH  48  49
ENDBRANCH  41  43
ENDBRANCH  40  41
ENDBRANCH  39  40
ENDBRANCH  38  39
ENDBRANCH  37  38
ENDBRANCH  36  37
ENDBRANCH   1  36
TORSDOF 23
ENDMDL
MODEL 3
REMARK VINA RESULT:      -8.7      5.014     12.564
REMARK SMILES Cc1c(NC(=O)c2cccc(-c3cc4ccccc4oc3=O)c2)cccc1C(=O)OCCOCCOCCOC(=O)c1ccc(-c2c3nc(c(-c4c(F)cc(S(=O)(=O)[O-])cc4F)c4ccc([nH]4)c(-c4c(F)cc(S(=O)(=O)[O-])cc4F)c4nc(c(-c5c(F)cc(S(=O)(=O)[O-])cc5F)c5ccc2[nH]5)C=C4)C=C3)cc1
REMARK SMILES IDX 34 1 33 2 32 3 31 4 30 5 28 6 29 7 27 8 1 9 2 10 3 11 24 12
REMARK SMILES IDX 26 13 25 14 4 15 5 16 6 18 7 19 8 20 23 21 9 22 11 23 10 24
REMARK SMILES IDX 12 25 13 26 21 27 14 28 20 29 22 30 15 31 19 32 16 33 18 34
REMARK SMILES IDX 17 35 35 36 36 37 37 38 38 39 39 40 40 41 41 42 42 43 43 44
REMARK SMILES IDX 107 45 44 46 106 47 45 48 46 49 47 50 100 51 48 52 105 53
REMARK SMILES IDX 99 54 101 55 49 56 104 57 98 58 97 59 50 61 84 62 63 63
REMARK SMILES IDX 83 64 64 65 67 66 82 67 102 68 65 69 66 70 81 72 103 73
REMARK SMILES IDX 68 74 51 75 52 76 61 77 53 78 54 79 60 80 62 81 55 82 56 83
REMARK SMILES IDX 57 84 58 85 59 86 85 87 86 88 95 89 87 90 88 91 94 92 96 93
REMARK SMILES IDX 89 94 90 95 91 96 92 97 93 98 69 99 70 100 79 101 71 102
REMARK SMILES IDX 72 103 78 104 80 105 73 106 74 107 75 108 76 109 77 110
REMARK H PARENT 4 17 101 60 67 71
REMARK Flexibility Score: inf
ROOT
ATOM      1  C   UNL A   1      44.155  36.114  41.421  1.00  0.00     0.188 C 
ENDROOT
BRANCH   1   2
ATOM      2  O   UNL A   1      45.211  35.322  40.827  1.00  0.00    -0.376 OA
BRANCH   2   3
ATOM      3  C   UNL A   1      45.038  34.241  39.882  1.00  0.00     0.202 C 
BRANCH   3   4
ATOM      4  C   UNL A   1      45.302  34.273  38.173  1.00  0.00     0.261 C 
BRANCH   4   5
ATOM      5  O   UNL A   1      44.417  33.632  36.783  1.00  0.00    -0.460 OA
BRANCH   5   6
ATOM      6  C   UNL A   1      44.128  32.350  36.151  1.00  0.00     0.338 C 
ATOM      7  O   UNL A   1      44.924  31.434  35.966  1.00  0.00    -0.246 OA
BRANCH   6   8
ATOM      8  C   UNL A   1      42.916  31.889  35.380  1.00  0.00     0.065 A 
ATOM      9  C   UNL A   1      41.323  31.940  37.287  1.00  0.00     0.047 C 
ATOM     10  C   UNL A   1      41.718  31.474  35.925  1.00  0.00    -0.013 A 
ATOM     11  C   UNL A   1      40.884  30.649  35.117  1.00  0.00     0.045 A 
ATOM     12  C   UNL A   1      41.181  30.351  33.775  1.00  0.00     0.026 A 
ATOM     13  C   UNL A   1      43.133  31.672  33.967  1.00  0.00     0.016 A 
ATOM     14  C   UNL A   1      42.290  30.906  33.176  1.00  0.00     0.003 A 
BRANCH  11  15
ATOM     15  N   UNL A   1      39.688  30.179  35.667  1.00  0.00    -0.322 N 
ATOM     16  C   UNL A   1      38.536  30.834  36.020  1.00  0.00     0.255 C 
ATOM     17  H   UNL A   1      39.669  29.207  35.829  1.00  0.00     0.170 HD
ATOM     18  O   UNL A   1      37.821  30.315  36.881  1.00  0.00    -0.269 OA
BRANCH  16  19
ATOM     19  C   UNL A   1      38.016  32.045  35.309  1.00  0.00     0.040 A 
ATOM     20  C   UNL A   1      37.510  33.072  36.117  1.00  0.00     0.014 A 
ATOM     21  C   UNL A   1      37.788  32.102  33.923  1.00  0.00     0.022 A 
ATOM     22  C   UNL A   1      36.779  34.123  35.567  1.00  0.00     0.001 A 
ATOM     23  C   UNL A   1      37.017  33.148  33.358  1.00  0.00    -0.010 A 
ATOM     24  C   UNL A   1      36.526  34.154  34.198  1.00  0.00     0.009 A 
BRANCH  23  25
ATOM     25  C   UNL A   1      36.528  33.195  31.952  1.00  0.00     0.068 A 
ATOM     26  C   UNL A   1      37.322  33.441  30.890  1.00  0.00     0.028 A 
ATOM     27  C   UNL A   1      35.510  32.157  31.588  1.00  0.00     0.344 A 
ATOM     28  C   UNL A   1      38.085  32.226  30.568  1.00  0.00     0.018 A 
ATOM     29  O   UNL A   1      36.067  30.970  31.104  1.00  0.00    -0.422 OA
ATOM     30  O   UNL A   1      34.310  32.310  31.778  1.00  0.00    -0.246 OA
ATOM     31  C   UNL A   1      39.420  32.276  30.221  1.00  0.00     0.012 A 
ATOM     32  C   UNL A   1      37.437  30.992  30.762  1.00  0.00     0.138 A 
ATOM     33  C   UNL A   1      40.113  31.078  30.163  1.00  0.00     0.001 A 
ATOM     34  C   UNL A   1      38.129  29.797  30.723  1.00  0.00     0.048 A 
ATOM     35  C   UNL A   1      39.487  29.855  30.453  1.00  0.00     0.004 A 
ENDBRANCH  23  25
ENDBRANCH  16  19
ENDBRANCH  11  15
ENDBRANCH   6   8
ENDBRANCH   5   6
ENDBRANCH   4   5
ENDBRANCH   3   4
ENDBRANCH   2   3
ENDBRANCH   1   2
BRANCH   1  36
ATOM     36  C   UNL A   1      43.340  37.215  40.720  1.00  0.00     0.188 C 
BRANCH  36  37
ATOM     37  O   UNL A   1      42.811  36.796  39.479  1.00  0.00    -0.376 OA
BRANCH  37  38
ATOM     38  C   UNL A   1      41.640  35.996  39.543  1.00  0.00     0.202 C 
BRANCH  38  39
ATOM     39  C   UNL A   1      40.664  36.147  38.359  1.00  0.00     0.261 C 
BRANCH  39  40
ATOM     40  O   UNL A   1      41.247  35.850  37.070  1.00  0.00    -0.460 OA
BRANCH  40  41
ATOM     41  C   UNL A   1      40.404  35.841  35.967  1.00  0.00     0.338 C 
ATOM     42  O   UNL A   1      39.334  36.365  35.966  1.00  0.00    -0.246 OA
BRANCH  41  43
ATOM     43  C   UNL A   1      41.151  35.385  34.755  1.00  0.00     0.060 A 
ATOM     44  C   UNL A   1      42.503  35.522  34.450  1.00  0.00     0.016 A 
ATOM     45  C   UNL A   1      40.403  34.723  33.846  1.00  0.00     0.016 A 
ATOM     46  C   UNL A   1      43.051  35.165  33.148  1.00  0.00     0.010 A 
ATOM     47  C   UNL A   1      40.953  34.440  32.601  1.00  0.00     0.010 A 
ATOM     48  C   UNL A   1      42.273  34.651  32.090  1.00  0.00    -0.014 A 
BRANCH  48  49
ATOM     49  C   UNL A   1      42.890  34.296  30.493  1.00  0.00     0.031 A 
ATOM     50  C   UNL A   1      43.800  32.967  29.755  1.00  0.00     0.074 A 
ATOM     51  C   UNL A   1      42.756  35.314  29.609  1.00  0.00     0.049 A 
ATOM     52  N   UNL A   1      44.385  33.015  28.566  1.00  0.00    -0.248 NA
ATOM     53  C   UNL A   1      44.132  31.554  30.233  1.00  0.00     0.031 C 
ATOM     54  C   UNL A   1      42.833  35.257  28.153  1.00  0.00     0.029 A 
ATOM     55  N   UNL A   1      42.686  36.688  29.883  1.00  0.00    -0.354 N 
ATOM     56  C   UNL A   1      44.841  31.723  28.231  1.00  0.00     0.074 A 
ATOM     57  C   UNL A   1      44.994  30.998  29.411  1.00  0.00     0.031 C 
ATOM     58  C   UNL A   1      43.116  36.483  27.689  1.00  0.00     0.029 A 
ATOM     59  C   UNL A   1      43.390  37.313  28.845  1.00  0.00     0.049 A 
ATOM     60  H   UNL A   1      42.237  37.122  30.645  1.00  0.00     0.167 HD
ATOM     61  C   UNL A   1      44.840  31.188  26.981  1.00  0.00     0.037 A 
ATOM     62  C   UNL A   1      44.534  38.010  29.079  1.00  0.00     0.037 A 
ATOM     63  C   UNL A   1      45.090  32.257  26.067  1.00  0.00     0.049 A 
ATOM     64  C   UNL A   1      45.683  37.553  28.213  1.00  0.00     0.074 A 
ATOM     65  C   UNL A   1      44.292  33.073  25.299  1.00  0.00     0.029 A 
ATOM     66  N   UNL A   1      46.300  32.910  26.243  1.00  0.00    -0.354 N 
ATOM     67  N   UNL A   1      45.720  36.405  27.585  1.00  0.00    -0.248 NA
ATOM     68  C   UNL A   1      46.860  38.370  27.939  1.00  0.00     0.031 C 
ATOM     69  C   UNL A   1      44.963  34.334  25.232  1.00  0.00     0.029 A 
ATOM     70  C   UNL A   1      46.182  34.235  25.891  1.00  0.00     0.049 A 
ATOM     71  H   UNL A   1      47.125  32.486  26.572  1.00  0.00     0.167 HD
ATOM     72  C   UNL A   1      46.899  36.291  26.898  1.00  0.00     0.074 A 
ATOM     73  C   UNL A   1      47.557  37.565  27.119  1.00  0.00     0.031 C 
ATOM     74  C   UNL A   1      47.265  35.154  26.229  1.00  0.00     0.037 A 
BRANCH  61  75
ATOM     75  C   UNL A   1      44.615  29.699  26.665  1.00  0.00     0.058 A 
ATOM     76  C   UNL A   1      43.360  29.093  26.860  1.00  0.00     0.135 A 
ATOM     77  C   UNL A   1      45.637  28.777  26.292  1.00  0.00     0.135 A 
ATOM     78  F   UNL A   1      42.316  29.819  27.287  1.00  0.00    -0.206 F 
ATOM     79  C   UNL A   1      43.130  27.713  26.671  1.00  0.00     0.059 A 
ATOM     80  C   UNL A   1      45.420  27.418  26.029  1.00  0.00     0.059 A 
ATOM     81  F   UNL A   1      46.932  29.126  26.236  1.00  0.00    -0.206 F 
ATOM     82  C   UNL A   1      44.165  26.883  26.247  1.00  0.00     0.060 A 
BRANCH  82  83
ATOM     83  S   UNL A   1      43.896  25.106  26.037  1.00  0.00     0.124 S 
ATOM     84  O   UNL A   1      44.720  24.552  27.106  1.00  0.00    -0.237 OA
ATOM     85  O   UNL A   1      42.453  24.979  26.214  1.00  0.00    -0.237 OA
ATOM     86  O   UNL A   1      44.377  24.846  24.683  1.00  0.00    -0.744 OA
ENDBRANCH  82  83
ENDBRANCH  61  75
BRANCH  62  87
ATOM     87  C   UNL A   1      44.572  38.677  30.421  1.00  0.00     0.058 A 
ATOM     88  C   UNL A   1      45.241  37.991  31.460  1.00  0.00     0.135 A 
ATOM     89  C   UNL A   1      44.325  40.042  30.631  1.00  0.00     0.135 A 
ATOM     90  F   UNL A   1      45.518  36.683  31.326  1.00  0.00    -0.206 F 
ATOM     91  C   UNL A   1      45.745  38.636  32.587  1.00  0.00     0.059 A 
ATOM     92  C   UNL A   1      44.808  40.713  31.773  1.00  0.00     0.059 A 
ATOM     93  F   UNL A   1      43.711  40.771  29.687  1.00  0.00    -0.206 F 
ATOM     94  C   UNL A   1      45.551  40.006  32.725  1.00  0.00     0.060 A 
BRANCH  94  95
ATOM     95  S   UNL A   1      46.438  40.839  34.073  1.00  0.00     0.124 S 
ATOM     96  O   UNL A   1      45.345  41.360  34.882  1.00  0.00    -0.237 OA
ATOM     97  O   UNL A   1      47.186  39.733  34.671  1.00  0.00    -0.237 OA
ATOM     98  O   UNL A   1      47.245  41.833  33.375  1.00  0.00    -0.744 OA
ENDBRANCH  94  95
ENDBRANCH  62  87
BRANCH  74  99
ATOM     99  C   UNL A   1      48.697  34.814  25.851  1.00  0.00     0.058 A 
ATOM    100  C   UNL A   1      49.446  35.536  24.901  1.00  0.00     0.135 A 
ATOM    101  C   UNL A   1      49.426  33.826  26.560  1.00  0.00     0.135 A 
ATOM    102  F   UNL A   1      48.944  36.608  24.275  1.00  0.00    -0.206 F 
ATOM    103  C   UNL A   1      50.765  35.216  24.580  1.00  0.00     0.059 A 
ATOM    104  C   UNL A   1      50.770  33.551  26.317  1.00  0.00     0.059 A 
ATOM    105  F   UNL A   1      48.860  33.099  27.535  1.00  0.00    -0.206 F 
ATOM    106  C   UNL A   1      51.415  34.211  25.283  1.00  0.00     0.060 A 
BRANCH 106 107
ATOM    107  S   UNL A   1      53.105  33.764  24.859  1.00  0.00     0.124 S 
ATOM    108  O   UNL A   1      53.006  32.309  24.792  1.00  0.00    -0.237 OA
ATOM    109  O   UNL A   1      53.315  34.440  23.581  1.00  0.00    -0.237 OA
ATOM    110  O   UNL A   1      53.877  34.298  25.976  1.00  0.00    -0.744 OA
ENDBRANCH 106 107
ENDBRANCH  74  99
ENDBRANCH  48  49
ENDBRANCH  41  43
ENDBRANCH  40  41
ENDBRANCH  39  40
ENDBRANCH  38  39
ENDBRANCH  37  38
ENDBRANCH  36  37
ENDBRANCH   1  36
TORSDOF 23
ENDMDL
