MODEL 1
REMARK VINA RESULT:     -10.2      0.000      0.000
REMARK SMILES N#C/C(=C\c1ccc(Oc2ccccc2Cl)c([N+](=O)[O-])c1)C(=O)OCCOCCOCCOC(=O)c1ccc(-c2c3nc(c(-c4c(F)cc(S(=O)(=O)[O-])cc4F)c4ccc([nH]4)c(-c4c(F)cc(S(=O)(=O)[O-])cc4F)c4nc(c(-c5c(F)cc(S(=O)(=O)[O-])cc5F)c5ccc2[nH]5)C=C4)C=C3)cc1
REMARK SMILES IDX 28 1 27 2 26 3 25 4 24 5 22 6 23 7 3 8 4 9 2 10 1 11 5 12
REMARK SMILES IDX 6 13 21 14 7 15 17 16 8 17 18 18 19 19 20 20 9 21 10 22
REMARK SMILES IDX 11 23 15 24 12 25 14 26 16 27 13 28 29 29 30 30 31 31 32 32
REMARK SMILES IDX 33 33 34 34 35 35 36 36 37 37 101 38 38 39 100 40 39 41
REMARK SMILES IDX 40 42 41 43 94 44 42 45 99 46 93 47 95 48 43 49 98 50 92 51
REMARK SMILES IDX 91 52 44 54 78 55 57 56 77 57 58 58 61 59 76 60 96 61 59 62
REMARK SMILES IDX 60 63 75 65 97 66 62 67 45 68 46 69 55 70 47 71 48 72 54 73
REMARK SMILES IDX 56 74 49 75 50 76 51 77 52 78 53 79 79 80 80 81 89 82 81 83
REMARK SMILES IDX 82 84 88 85 90 86 83 87 84 88 85 89 86 90 87 91 63 92 64 93
REMARK SMILES IDX 73 94 65 95 66 96 72 97 74 98 67 99 68 100 69 101 70 102
REMARK SMILES IDX 71 103
REMARK H PARENT 95 53 61 64
REMARK Flexibility Score: inf
ROOT
ATOM      1  C   UNL A   1      32.894  36.093  31.182  1.00  0.00     0.188 C 
ENDROOT
BRANCH   1   2
ATOM      2  O   UNL A   1      33.105  35.985  29.787  1.00  0.00    -0.376 OA
BRANCH   2   3
ATOM      3  C   UNL A   1      34.108  35.134  29.254  1.00  0.00     0.202 C 
BRANCH   3   4
ATOM      4  C   UNL A   1      34.008  34.541  27.844  1.00  0.00     0.261 C 
BRANCH   4   5
ATOM      5  O   UNL A   1      34.091  33.113  27.826  1.00  0.00    -0.459 OA
BRANCH   5   6
ATOM      6  C   UNL A   1      32.941  32.485  27.477  1.00  0.00     0.348 C 
ATOM      7  O   UNL A   1      31.898  33.027  27.152  1.00  0.00    -0.245 OA
BRANCH   6   8
ATOM      8  C   UNL A   1      33.136  31.017  27.421  1.00  0.00     0.138 C 
ATOM      9  C   UNL A   1      32.273  30.297  26.662  1.00  0.00     0.035 C 
BRANCH   8  10
ATOM     10  C   UNL A   1      34.553  30.518  27.648  1.00  0.00     0.107 C 
ATOM     11  N   UNL A   1      35.729  30.104  27.838  1.00  0.00    -0.192 NA
ENDBRANCH   8  10
BRANCH   9  12
ATOM     12  C   UNL A   1      32.624  29.004  26.038  1.00  0.00    -0.017 A 
ATOM     13  C   UNL A   1      32.557  27.833  26.799  1.00  0.00     0.012 A 
ATOM     14  C   UNL A   1      32.882  28.889  24.672  1.00  0.00     0.098 A 
ATOM     15  C   UNL A   1      32.703  26.575  26.192  1.00  0.00     0.055 A 
ATOM     16  C   UNL A   1      32.917  27.625  24.058  1.00  0.00     0.312 A 
ATOM     17  C   UNL A   1      32.872  26.442  24.803  1.00  0.00     0.204 A 
BRANCH  16  18
ATOM     18  N   UNL A   1      32.836  27.671  22.612  1.00  0.00     0.066 N 
ATOM     19  O   UNL A   1      31.723  27.498  22.105  1.00  0.00    -0.258 OA
ATOM     20  O   UNL A   1      33.876  27.965  22.006  1.00  0.00    -0.258 OA
ENDBRANCH  16  18
BRANCH  17  21
ATOM     21  O   UNL A   1      32.972  25.122  24.415  1.00  0.00    -0.449 OA
BRANCH  21  22
ATOM     22  C   UNL A   1      33.337  24.154  25.315  1.00  0.00     0.146 A 
ATOM     23  C   UNL A   1      34.709  24.007  25.541  1.00  0.00     0.049 A 
ATOM     24  C   UNL A   1      32.424  23.320  25.969  1.00  0.00     0.083 A 
ATOM     25  C   UNL A   1      35.160  23.114  26.513  1.00  0.00     0.004 A 
ATOM     26  C   UNL A   1      32.878  22.448  26.961  1.00  0.00     0.024 A 
ATOM     27  Cl  UNL A   1      30.735  23.365  25.616  1.00  0.00    -0.080 Cl
ATOM     28  C   UNL A   1      34.243  22.358  27.243  1.00  0.00     0.002 A 
ENDBRANCH  21  22
ENDBRANCH  17  21
ENDBRANCH   9  12
ENDBRANCH   6   8
ENDBRANCH   5   6
ENDBRANCH   4   5
ENDBRANCH   3   4
ENDBRANCH   2   3
ENDBRANCH   1   2
BRANCH   1  29
ATOM     29  C   UNL A   1      33.886  35.433  32.167  1.00  0.00     0.188 C 
BRANCH  29  30
ATOM     30  O   UNL A   1      33.610  34.154  32.669  1.00  0.00    -0.376 OA
BRANCH  30  31
ATOM     31  C   UNL A   1      34.660  33.205  32.686  1.00  0.00     0.202 C 
BRANCH  31  32
ATOM     32  C   UNL A   1      35.124  32.382  31.461  1.00  0.00     0.261 C 
BRANCH  32  33
ATOM     33  O   UNL A   1      36.520  32.070  31.323  1.00  0.00    -0.460 OA
BRANCH  33  34
ATOM     34  C   UNL A   1      36.844  30.748  31.380  1.00  0.00     0.338 C 
ATOM     35  O   UNL A   1      36.070  29.819  31.575  1.00  0.00    -0.246 OA
BRANCH  34  36
ATOM     36  C   UNL A   1      38.239  30.558  30.922  1.00  0.00     0.060 A 
ATOM     37  C   UNL A   1      38.550  30.726  29.560  1.00  0.00     0.016 A 
ATOM     38  C   UNL A   1      39.235  30.191  31.825  1.00  0.00     0.016 A 
ATOM     39  C   UNL A   1      39.850  30.508  29.098  1.00  0.00     0.010 A 
ATOM     40  C   UNL A   1      40.529  29.940  31.354  1.00  0.00     0.010 A 
ATOM     41  C   UNL A   1      40.839  30.067  29.985  1.00  0.00    -0.014 A 
BRANCH  41  42
ATOM     42  C   UNL A   1      42.133  29.545  29.475  1.00  0.00     0.031 A 
ATOM     43  C   UNL A   1      43.295  30.499  29.369  1.00  0.00     0.074 A 
ATOM     44  C   UNL A   1      42.282  28.263  29.094  1.00  0.00     0.049 A 
ATOM     45  N   UNL A   1      44.482  30.314  28.850  1.00  0.00    -0.248 NA
ATOM     46  C   UNL A   1      43.080  31.849  29.915  1.00  0.00     0.031 C 
ATOM     47  C   UNL A   1      41.256  27.227  29.193  1.00  0.00     0.029 A 
ATOM     48  N   UNL A   1      43.356  27.621  28.528  1.00  0.00    -0.354 N 
ATOM     49  C   UNL A   1      45.150  31.525  28.996  1.00  0.00     0.074 A 
ATOM     50  C   UNL A   1      44.225  32.445  29.622  1.00  0.00     0.031 C 
ATOM     51  C   UNL A   1      41.745  26.082  28.682  1.00  0.00     0.029 A 
ATOM     52  C   UNL A   1      43.101  26.313  28.189  1.00  0.00     0.049 A 
ATOM     53  H   UNL A   1      44.227  28.056  28.380  1.00  0.00     0.167 HD
ATOM     54  C   UNL A   1      46.420  31.839  28.646  1.00  0.00     0.037 A 
ATOM     55  C   UNL A   1      43.865  25.414  27.531  1.00  0.00     0.037 A 
ATOM     56  C   UNL A   1      47.336  30.918  28.022  1.00  0.00     0.049 A 
ATOM     57  C   UNL A   1      45.251  25.808  27.082  1.00  0.00     0.074 A 
ATOM     58  C   UNL A   1      48.649  31.137  27.644  1.00  0.00     0.029 A 
ATOM     59  N   UNL A   1      47.033  29.610  27.676  1.00  0.00    -0.354 N 
ATOM     60  N   UNL A   1      45.879  26.950  27.236  1.00  0.00    -0.248 NA
ATOM     61  C   UNL A   1      46.035  24.788  26.369  1.00  0.00     0.031 C 
ATOM     62  C   UNL A   1      49.121  29.980  27.015  1.00  0.00     0.029 A 
ATOM     63  C   UNL A   1      48.125  29.017  27.060  1.00  0.00     0.049 A 
ATOM     64  H   UNL A   1      46.170  29.166  27.842  1.00  0.00     0.167 HD
ATOM     65  C   UNL A   1      47.141  26.775  26.673  1.00  0.00     0.074 A 
ATOM     66  C   UNL A   1      47.189  25.414  26.178  1.00  0.00     0.031 C 
ATOM     67  C   UNL A   1      48.166  27.657  26.577  1.00  0.00     0.037 A 
BRANCH  54  68
ATOM     68  C   UNL A   1      46.884  33.250  28.898  1.00  0.00     0.058 A 
ATOM     69  C   UNL A   1      47.382  33.658  30.145  1.00  0.00     0.135 A 
ATOM     70  C   UNL A   1      46.852  34.202  27.865  1.00  0.00     0.135 A 
ATOM     71  F   UNL A   1      47.420  32.795  31.174  1.00  0.00    -0.206 F 
ATOM     72  C   UNL A   1      47.802  34.965  30.370  1.00  0.00     0.059 A 
ATOM     73  C   UNL A   1      47.297  35.506  28.058  1.00  0.00     0.059 A 
ATOM     74  F   UNL A   1      46.384  33.868  26.653  1.00  0.00    -0.206 F 
ATOM     75  C   UNL A   1      47.756  35.883  29.319  1.00  0.00     0.060 A 
BRANCH  75  76
ATOM     76  S   UNL A   1      48.303  37.576  29.626  1.00  0.00     0.124 S 
ATOM     77  O   UNL A   1      47.184  38.110  30.396  1.00  0.00    -0.237 OA
ATOM     78  O   UNL A   1      49.543  37.371  30.369  1.00  0.00    -0.237 OA
ATOM     79  O   UNL A   1      48.464  38.131  28.286  1.00  0.00    -0.744 OA
ENDBRANCH  75  76
ENDBRANCH  54  68
BRANCH  55  80
ATOM     80  C   UNL A   1      43.332  24.054  27.243  1.00  0.00     0.058 A 
ATOM     81  C   UNL A   1      42.836  23.719  25.974  1.00  0.00     0.135 A 
ATOM     82  C   UNL A   1      43.304  23.059  28.235  1.00  0.00     0.135 A 
ATOM     83  F   UNL A   1      42.819  24.639  24.997  1.00  0.00    -0.206 F 
ATOM     84  C   UNL A   1      42.326  22.454  25.698  1.00  0.00     0.059 A 
ATOM     85  C   UNL A   1      42.825  21.778  27.976  1.00  0.00     0.059 A 
ATOM     86  F   UNL A   1      43.767  23.324  29.467  1.00  0.00    -0.206 F 
ATOM     87  C   UNL A   1      42.331  21.487  26.705  1.00  0.00     0.060 A 
BRANCH  87  88
ATOM     88  S   UNL A   1      41.714  19.833  26.321  1.00  0.00     0.124 S 
ATOM     89  O   UNL A   1      42.045  19.104  27.541  1.00  0.00    -0.237 OA
ATOM     90  O   UNL A   1      40.294  20.081  26.092  1.00  0.00    -0.237 OA
ATOM     91  O   UNL A   1      42.477  19.455  25.136  1.00  0.00    -0.744 OA
ENDBRANCH  87  88
ENDBRANCH  55  80
BRANCH  67  92
ATOM     92  C   UNL A   1      49.452  27.178  25.953  1.00  0.00     0.058 A 
ATOM     93  C   UNL A   1      49.664  27.210  24.567  1.00  0.00     0.135 A 
ATOM     94  C   UNL A   1      50.512  26.736  26.765  1.00  0.00     0.135 A 
ATOM     95  F   UNL A   1      48.687  27.620  23.742  1.00  0.00    -0.206 F 
ATOM     96  C   UNL A   1      50.870  26.799  24.005  1.00  0.00     0.059 A 
ATOM     97  C   UNL A   1      51.735  26.350  26.227  1.00  0.00     0.059 A 
ATOM     98  F   UNL A   1      50.370  26.695  28.099  1.00  0.00    -0.206 F 
ATOM     99  C   UNL A   1      51.901  26.373  24.844  1.00  0.00     0.060 A 
BRANCH  99 100
ATOM    100  S   UNL A   1      53.472  25.876  24.103  1.00  0.00     0.124 S 
ATOM    101  O   UNL A   1      53.174  25.985  22.678  1.00  0.00    -0.237 OA
ATOM    102  O   UNL A   1      54.397  26.872  24.635  1.00  0.00    -0.237 OA
ATOM    103  O   UNL A   1      53.669  24.518  24.600  1.00  0.00    -0.744 OA
ENDBRANCH  99 100
ENDBRANCH  67  92
ENDBRANCH  41  42
ENDBRANCH  34  36
ENDBRANCH  33  34
ENDBRANCH  32  33
ENDBRANCH  31  32
ENDBRANCH  30  31
ENDBRANCH  29  30
ENDBRANCH   1  29
TORSDOF 25
ENDMDL
MODEL 2
REMARK VINA RESULT:     -10.1      1.147      1.937
REMARK SMILES N#C/C(=C\c1ccc(Oc2ccccc2Cl)c([N+](=O)[O-])c1)C(=O)OCCOCCOCCOC(=O)c1ccc(-c2c3nc(c(-c4c(F)cc(S(=O)(=O)[O-])cc4F)c4ccc([nH]4)c(-c4c(F)cc(S(=O)(=O)[O-])cc4F)c4nc(c(-c5c(F)cc(S(=O)(=O)[O-])cc5F)c5ccc2[nH]5)C=C4)C=C3)cc1
REMARK SMILES IDX 28 1 27 2 26 3 25 4 24 5 22 6 23 7 3 8 4 9 2 10 1 11 5 12
REMARK SMILES IDX 6 13 21 14 7 15 17 16 8 17 18 18 19 19 20 20 9 21 10 22
REMARK SMILES IDX 11 23 15 24 12 25 14 26 16 27 13 28 29 29 30 30 31 31 32 32
REMARK SMILES IDX 33 33 34 34 35 35 36 36 37 37 101 38 38 39 100 40 39 41
REMARK SMILES IDX 40 42 41 43 94 44 42 45 99 46 93 47 95 48 43 49 98 50 92 51
REMARK SMILES IDX 91 52 44 54 78 55 57 56 77 57 58 58 61 59 76 60 96 61 59 62
REMARK SMILES IDX 60 63 75 65 97 66 62 67 45 68 46 69 55 70 47 71 48 72 54 73
REMARK SMILES IDX 56 74 49 75 50 76 51 77 52 78 53 79 79 80 80 81 89 82 81 83
REMARK SMILES IDX 82 84 88 85 90 86 83 87 84 88 85 89 86 90 87 91 63 92 64 93
REMARK SMILES IDX 73 94 65 95 66 96 72 97 74 98 67 99 68 100 69 101 70 102
REMARK SMILES IDX 71 103
REMARK H PARENT 95 53 61 64
REMARK Flexibility Score: inf
ROOT
ATOM      1  C   UNL A   1      33.040  35.712  30.589  1.00  0.00     0.188 C 
ENDROOT
BRANCH   1   2
ATOM      2  O   UNL A   1      32.809  35.354  29.240  1.00  0.00    -0.376 OA
BRANCH   2   3
ATOM      3  C   UNL A   1      33.281  34.125  28.710  1.00  0.00     0.202 C 
BRANCH   3   4
ATOM      4  C   UNL A   1      32.681  33.498  27.446  1.00  0.00     0.261 C 
BRANCH   4   5
ATOM      5  O   UNL A   1      32.590  32.072  27.513  1.00  0.00    -0.459 OA
BRANCH   5   6
ATOM      6  C   UNL A   1      31.715  31.520  26.637  1.00  0.00     0.348 C 
ATOM      7  O   UNL A   1      30.907  32.126  25.952  1.00  0.00    -0.245 OA
BRANCH   6   8
ATOM      8  C   UNL A   1      31.937  30.060  26.516  1.00  0.00     0.138 C 
ATOM      9  C   UNL A   1      31.293  29.407  25.517  1.00  0.00     0.035 C 
BRANCH   8  10
ATOM     10  C   UNL A   1      33.264  29.536  27.041  1.00  0.00     0.107 C 
ATOM     11  N   UNL A   1      34.364  29.101  27.477  1.00  0.00    -0.192 NA
ENDBRANCH   8  10
BRANCH   9  12
ATOM     12  C   UNL A   1      31.803  28.166  24.898  1.00  0.00    -0.017 A 
ATOM     13  C   UNL A   1      32.921  28.225  24.059  1.00  0.00     0.012 A 
ATOM     14  C   UNL A   1      31.299  26.910  25.235  1.00  0.00     0.098 A 
ATOM     15  C   UNL A   1      33.540  27.049  23.606  1.00  0.00     0.055 A 
ATOM     16  C   UNL A   1      31.989  25.742  24.867  1.00  0.00     0.312 A 
ATOM     17  C   UNL A   1      33.096  25.779  24.013  1.00  0.00     0.204 A 
BRANCH  16  18
ATOM     18  N   UNL A   1      31.556  24.555  25.575  1.00  0.00     0.066 N 
ATOM     19  O   UNL A   1      31.831  24.484  26.778  1.00  0.00    -0.258 OA
ATOM     20  O   UNL A   1      30.869  23.745  24.935  1.00  0.00    -0.258 OA
ENDBRANCH  16  18
BRANCH  17  21
ATOM     21  O   UNL A   1      33.857  24.764  23.471  1.00  0.00    -0.449 OA
BRANCH  21  22
ATOM     22  C   UNL A   1      34.390  23.786  24.270  1.00  0.00     0.146 A 
ATOM     23  C   UNL A   1      35.350  24.201  25.198  1.00  0.00     0.049 A 
ATOM     24  C   UNL A   1      34.043  22.434  24.176  1.00  0.00     0.083 A 
ATOM     25  C   UNL A   1      35.869  23.288  26.116  1.00  0.00     0.004 A 
ATOM     26  C   UNL A   1      34.544  21.529  25.114  1.00  0.00     0.024 A 
ATOM     27  Cl  UNL A   1      32.973  21.852  22.952  1.00  0.00    -0.080 Cl
ATOM     28  C   UNL A   1      35.442  21.960  26.093  1.00  0.00     0.002 A 
ENDBRANCH  21  22
ENDBRANCH  17  21
ENDBRANCH   9  12
ENDBRANCH   6   8
ENDBRANCH   5   6
ENDBRANCH   4   5
ENDBRANCH   3   4
ENDBRANCH   2   3
ENDBRANCH   1   2
BRANCH   1  29
ATOM     29  C   UNL A   1      34.339  35.267  31.296  1.00  0.00     0.188 C 
BRANCH  29  30
ATOM     30  O   UNL A   1      34.267  34.367  32.368  1.00  0.00    -0.376 OA
BRANCH  30  31
ATOM     31  C   UNL A   1      35.090  33.215  32.327  1.00  0.00     0.202 C 
BRANCH  31  32
ATOM     32  C   UNL A   1      34.968  32.081  31.283  1.00  0.00     0.261 C 
BRANCH  32  33
ATOM     33  O   UNL A   1      36.141  31.672  30.561  1.00  0.00    -0.460 OA
BRANCH  33  34
ATOM     34  C   UNL A   1      36.542  30.385  30.753  1.00  0.00     0.338 C 
ATOM     35  O   UNL A   1      35.821  29.436  31.037  1.00  0.00    -0.246 OA
BRANCH  34  36
ATOM     36  C   UNL A   1      37.950  30.234  30.322  1.00  0.00     0.060 A 
ATOM     37  C   UNL A   1      38.244  30.082  28.954  1.00  0.00     0.016 A 
ATOM     38  C   UNL A   1      38.978  30.215  31.263  1.00  0.00     0.016 A 
ATOM     39  C   UNL A   1      39.562  29.892  28.530  1.00  0.00     0.010 A 
ATOM     40  C   UNL A   1      40.292  29.990  30.839  1.00  0.00     0.010 A 
ATOM     41  C   UNL A   1      40.590  29.798  29.475  1.00  0.00    -0.014 A 
BRANCH  41  42
ATOM     42  C   UNL A   1      41.935  29.304  29.080  1.00  0.00     0.031 A 
ATOM     43  C   UNL A   1      43.072  30.290  29.032  1.00  0.00     0.074 A 
ATOM     44  C   UNL A   1      42.150  28.016  28.752  1.00  0.00     0.049 A 
ATOM     45  N   UNL A   1      44.300  30.129  28.610  1.00  0.00    -0.248 NA
ATOM     46  C   UNL A   1      42.776  31.648  29.518  1.00  0.00     0.031 C 
ATOM     47  C   UNL A   1      41.151  26.951  28.805  1.00  0.00     0.029 A 
ATOM     48  N   UNL A   1      43.283  27.393  28.288  1.00  0.00    -0.354 N 
ATOM     49  C   UNL A   1      44.919  31.364  28.768  1.00  0.00     0.074 A 
ATOM     50  C   UNL A   1      43.922  32.272  29.293  1.00  0.00     0.031 C 
ATOM     51  C   UNL A   1      41.711  25.808  28.368  1.00  0.00     0.029 A 
ATOM     52  C   UNL A   1      43.094  26.068  27.972  1.00  0.00     0.049 A 
ATOM     53  H   UNL A   1      44.149  27.851  28.193  1.00  0.00     0.167 HD
ATOM     54  C   UNL A   1      46.202  31.709  28.505  1.00  0.00     0.037 A 
ATOM     55  C   UNL A   1      43.932  25.176  27.402  1.00  0.00     0.037 A 
ATOM     56  C   UNL A   1      47.189  30.800  27.981  1.00  0.00     0.049 A 
ATOM     57  C   UNL A   1      45.336  25.601  27.046  1.00  0.00     0.074 A 
ATOM     58  C   UNL A   1      48.520  31.050  27.696  1.00  0.00     0.029 A 
ATOM     59  N   UNL A   1      46.953  29.473  27.653  1.00  0.00    -0.354 N 
ATOM     60  N   UNL A   1      45.916  26.766  27.212  1.00  0.00    -0.248 NA
ATOM     61  C   UNL A   1      46.203  24.586  26.427  1.00  0.00     0.031 C 
ATOM     62  C   UNL A   1      49.073  29.891  27.141  1.00  0.00     0.029 A 
ATOM     63  C   UNL A   1      48.106  28.899  27.141  1.00  0.00     0.049 A 
ATOM     64  H   UNL A   1      46.093  29.007  27.768  1.00  0.00     0.167 HD
ATOM     65  C   UNL A   1      47.221  26.615  26.751  1.00  0.00     0.074 A 
ATOM     66  C   UNL A   1      47.348  25.243  26.304  1.00  0.00     0.031 C 
ATOM     67  C   UNL A   1      48.225  27.528  26.705  1.00  0.00     0.037 A 
BRANCH  54  68
ATOM     68  C   UNL A   1      46.603  33.140  28.746  1.00  0.00     0.058 A 
ATOM     69  C   UNL A   1      47.137  33.567  29.973  1.00  0.00     0.135 A 
ATOM     70  C   UNL A   1      46.473  34.095  27.724  1.00  0.00     0.135 A 
ATOM     71  F   UNL A   1      47.267  32.701  30.992  1.00  0.00    -0.206 F 
ATOM     72  C   UNL A   1      47.498  34.893  30.189  1.00  0.00     0.059 A 
ATOM     73  C   UNL A   1      46.859  35.420  27.907  1.00  0.00     0.059 A 
ATOM     74  F   UNL A   1      45.967  33.745  26.532  1.00  0.00    -0.206 F 
ATOM     75  C   UNL A   1      47.355  35.813  29.148  1.00  0.00     0.060 A 
BRANCH  75  76
ATOM     76  S   UNL A   1      47.828  37.530  29.444  1.00  0.00     0.124 S 
ATOM     77  O   UNL A   1      48.787  37.759  28.368  1.00  0.00    -0.237 OA
ATOM     78  O   UNL A   1      46.553  38.229  29.315  1.00  0.00    -0.237 OA
ATOM     79  O   UNL A   1      48.391  37.503  30.790  1.00  0.00    -0.744 OA
ENDBRANCH  75  76
ENDBRANCH  54  68
BRANCH  55  80
ATOM     80  C   UNL A   1      43.463  23.791  27.118  1.00  0.00     0.058 A 
ATOM     81  C   UNL A   1      43.483  22.798  28.108  1.00  0.00     0.135 A 
ATOM     82  C   UNL A   1      42.985  23.432  25.846  1.00  0.00     0.135 A 
ATOM     83  F   UNL A   1      43.951  23.082  29.333  1.00  0.00    -0.206 F 
ATOM     84  C   UNL A   1      43.057  21.498  27.849  1.00  0.00     0.059 A 
ATOM     85  C   UNL A   1      42.527  22.147  25.571  1.00  0.00     0.059 A 
ATOM     86  F   UNL A   1      42.942  24.343  24.861  1.00  0.00    -0.206 F 
ATOM     87  C   UNL A   1      42.573  21.184  26.578  1.00  0.00     0.060 A 
BRANCH  87  88
ATOM     88  S   UNL A   1      41.973  19.508  26.269  1.00  0.00     0.124 S 
ATOM     89  O   UNL A   1      40.560  19.746  25.996  1.00  0.00    -0.237 OA
ATOM     90  O   UNL A   1      42.784  19.099  25.126  1.00  0.00    -0.237 OA
ATOM     91  O   UNL A   1      42.264  18.810  27.517  1.00  0.00    -0.744 OA
ENDBRANCH  87  88
ENDBRANCH  55  80
BRANCH  67  92
ATOM     92  C   UNL A   1      49.568  27.072  26.195  1.00  0.00     0.058 A 
ATOM     93  C   UNL A   1      50.544  26.531  27.047  1.00  0.00     0.135 A 
ATOM     94  C   UNL A   1      49.859  27.123  24.821  1.00  0.00     0.135 A 
ATOM     95  F   UNL A   1      50.324  26.461  28.369  1.00  0.00    -0.206 F 
ATOM     96  C   UNL A   1      51.767  26.081  26.558  1.00  0.00     0.059 A 
ATOM     97  C   UNL A   1      51.062  26.649  24.307  1.00  0.00     0.059 A 
ATOM     98  F   UNL A   1      48.958  27.619  23.957  1.00  0.00    -0.206 F 
ATOM     99  C   UNL A   1      52.016  26.140  25.186  1.00  0.00     0.060 A 
BRANCH  99 100
ATOM    100  S   UNL A   1      53.593  25.519  24.563  1.00  0.00     0.124 S 
ATOM    101  O   UNL A   1      53.651  26.135  23.240  1.00  0.00    -0.237 OA
ATOM    102  O   UNL A   1      54.542  26.037  25.544  1.00  0.00    -0.237 OA
ATOM    103  O   UNL A   1      53.419  24.071  24.573  1.00  0.00    -0.744 OA
ENDBRANCH  99 100
ENDBRANCH  67  92
ENDBRANCH  41  42
ENDBRANCH  34  36
ENDBRANCH  33  34
ENDBRANCH  32  33
ENDBRANCH  31  32
ENDBRANCH  30  31
ENDBRANCH  29  30
ENDBRANCH   1  29
TORSDOF 25
ENDMDL
MODEL 3
REMARK VINA RESULT:      -9.7      6.361     12.082
REMARK SMILES N#C/C(=C\c1ccc(Oc2ccccc2Cl)c([N+](=O)[O-])c1)C(=O)OCCOCCOCCOC(=O)c1ccc(-c2c3nc(c(-c4c(F)cc(S(=O)(=O)[O-])cc4F)c4ccc([nH]4)c(-c4c(F)cc(S(=O)(=O)[O-])cc4F)c4nc(c(-c5c(F)cc(S(=O)(=O)[O-])cc5F)c5ccc2[nH]5)C=C4)C=C3)cc1
REMARK SMILES IDX 28 1 27 2 26 3 25 4 24 5 22 6 23 7 3 8 4 9 2 10 1 11 5 12
REMARK SMILES IDX 6 13 21 14 7 15 17 16 8 17 18 18 19 19 20 20 9 21 10 22
REMARK SMILES IDX 11 23 15 24 12 25 14 26 16 27 13 28 29 29 30 30 31 31 32 32
REMARK SMILES IDX 33 33 34 34 35 35 36 36 37 37 101 38 38 39 100 40 39 41
REMARK SMILES IDX 40 42 41 43 94 44 42 45 99 46 93 47 95 48 43 49 98 50 92 51
REMARK SMILES IDX 91 52 44 54 78 55 57 56 77 57 58 58 61 59 76 60 96 61 59 62
REMARK SMILES IDX 60 63 75 65 97 66 62 67 45 68 46 69 55 70 47 71 48 72 54 73
REMARK SMILES IDX 56 74 49 75 50 76 51 77 52 78 53 79 79 80 80 81 89 82 81 83
REMARK SMILES IDX 82 84 88 85 90 86 83 87 84 88 85 89 86 90 87 91 63 92 64 93
REMARK SMILES IDX 73 94 65 95 66 96 72 97 74 98 67 99 68 100 69 101 70 102
REMARK SMILES IDX 71 103
REMARK H PARENT 95 53 61 64
REMARK Flexibility Score: inf
ROOT
ATOM      1  C   UNL A   1      35.546  22.717  24.418  1.00  0.00     0.188 C 
ENDROOT
BRANCH   1   2
ATOM      2  O   UNL A   1      35.411  21.317  24.264  1.00  0.00    -0.376 OA
BRANCH   2   3
ATOM      3  C   UNL A   1      34.454  20.579  25.010  1.00  0.00     0.202 C 
BRANCH   3   4
ATOM      4  C   UNL A   1      33.729  21.176  26.221  1.00  0.00     0.261 C 
BRANCH   4   5
ATOM      5  O   UNL A   1      32.321  21.331  26.016  1.00  0.00    -0.459 OA
BRANCH   5   6
ATOM      6  C   UNL A   1      31.822  22.530  26.406  1.00  0.00     0.348 C 
ATOM      7  O   UNL A   1      31.906  23.013  27.522  1.00  0.00    -0.245 OA
BRANCH   6   8
ATOM      8  C   UNL A   1      31.244  23.261  25.255  1.00  0.00     0.138 C 
ATOM      9  C   UNL A   1      30.832  24.537  25.463  1.00  0.00     0.035 C 
BRANCH   8  10
ATOM     10  C   UNL A   1      31.712  22.824  23.876  1.00  0.00     0.107 C 
ATOM     11  N   UNL A   1      32.101  22.462  22.733  1.00  0.00    -0.192 NA
ENDBRANCH   8  10
BRANCH   9  12
ATOM     12  C   UNL A   1      30.788  25.560  24.397  1.00  0.00    -0.017 A 
ATOM     13  C   UNL A   1      29.585  26.220  24.127  1.00  0.00     0.012 A 
ATOM     14  C   UNL A   1      31.941  25.998  23.746  1.00  0.00     0.098 A 
ATOM     15  C   UNL A   1      29.552  27.320  23.256  1.00  0.00     0.055 A 
ATOM     16  C   UNL A   1      31.916  27.166  22.963  1.00  0.00     0.312 A 
ATOM     17  C   UNL A   1      30.721  27.827  22.664  1.00  0.00     0.204 A 
BRANCH  16  18
ATOM     18  N   UNL A   1      33.230  27.690  22.648  1.00  0.00     0.066 N 
ATOM     19  O   UNL A   1      33.670  28.582  23.382  1.00  0.00    -0.258 OA
ATOM     20  O   UNL A   1      33.840  27.142  21.720  1.00  0.00    -0.258 OA
ENDBRANCH  16  18
BRANCH  17  21
ATOM     21  O   UNL A   1      30.466  28.923  21.865  1.00  0.00    -0.449 OA
BRANCH  21  22
ATOM     22  C   UNL A   1      29.641  29.928  22.297  1.00  0.00     0.146 A 
ATOM     23  C   UNL A   1      28.697  30.391  21.376  1.00  0.00     0.049 A 
ATOM     24  C   UNL A   1      29.723  30.506  23.569  1.00  0.00     0.083 A 
ATOM     25  C   UNL A   1      27.755  31.342  21.766  1.00  0.00     0.004 A 
ATOM     26  C   UNL A   1      28.761  31.437  23.964  1.00  0.00     0.024 A 
ATOM     27  Cl  UNL A   1      30.963  30.068  24.688  1.00  0.00    -0.080 Cl
ATOM     28  C   UNL A   1      27.768  31.841  23.069  1.00  0.00     0.002 A 
ENDBRANCH  21  22
ENDBRANCH  17  21
ENDBRANCH   9  12
ENDBRANCH   6   8
ENDBRANCH   5   6
ENDBRANCH   4   5
ENDBRANCH   3   4
ENDBRANCH   2   3
ENDBRANCH   1   2
BRANCH   1  29
ATOM     29  C   UNL A   1      36.950  23.359  24.454  1.00  0.00     0.188 C 
BRANCH  29  30
ATOM     30  O   UNL A   1      37.834  23.026  25.490  1.00  0.00    -0.376 OA
BRANCH  30  31
ATOM     31  C   UNL A   1      38.152  24.024  26.442  1.00  0.00     0.202 C 
BRANCH  31  32
ATOM     32  C   UNL A   1      39.561  24.626  26.652  1.00  0.00     0.261 C 
BRANCH  32  33
ATOM     33  O   UNL A   1      40.057  25.582  25.701  1.00  0.00    -0.460 OA
BRANCH  33  34
ATOM     34  C   UNL A   1      41.327  26.027  25.908  1.00  0.00     0.338 C 
ATOM     35  O   UNL A   1      42.222  26.082  25.073  1.00  0.00    -0.246 OA
BRANCH  34  36
ATOM     36  C   UNL A   1      41.415  26.680  27.235  1.00  0.00     0.060 A 
ATOM     37  C   UNL A   1      40.879  26.032  28.362  1.00  0.00     0.016 A 
ATOM     38  C   UNL A   1      42.000  27.938  27.364  1.00  0.00     0.016 A 
ATOM     39  C   UNL A   1      40.911  26.649  29.616  1.00  0.00     0.010 A 
ATOM     40  C   UNL A   1      42.000  28.568  28.614  1.00  0.00     0.010 A 
ATOM     41  C   UNL A   1      41.429  27.943  29.741  1.00  0.00    -0.014 A 
BRANCH  41  42
ATOM     42  C   UNL A   1      41.205  28.730  30.981  1.00  0.00     0.031 A 
ATOM     43  C   UNL A   1      40.100  29.753  30.989  1.00  0.00     0.074 A 
ATOM     44  C   UNL A   1      41.971  28.562  32.076  1.00  0.00     0.049 A 
ATOM     45  N   UNL A   1      39.785  30.636  31.901  1.00  0.00    -0.248 NA
ATOM     46  C   UNL A   1      39.239  29.789  29.795  1.00  0.00     0.031 C 
ATOM     47  C   UNL A   1      43.038  27.574  32.219  1.00  0.00     0.029 A 
ATOM     48  N   UNL A   1      41.975  29.239  33.271  1.00  0.00    -0.354 N 
ATOM     49  C   UNL A   1      38.700  31.339  31.389  1.00  0.00     0.074 A 
ATOM     50  C   UNL A   1      38.433  30.802  30.072  1.00  0.00     0.031 C 
ATOM     51  C   UNL A   1      43.609  27.724  33.428  1.00  0.00     0.029 A 
ATOM     52  C   UNL A   1      42.974  28.840  34.128  1.00  0.00     0.049 A 
ATOM     53  H   UNL A   1      41.324  29.943  33.494  1.00  0.00     0.167 HD
ATOM     54  C   UNL A   1      37.989  32.337  31.965  1.00  0.00     0.037 A 
ATOM     55  C   UNL A   1      43.350  29.336  35.326  1.00  0.00     0.037 A 
ATOM     56  C   UNL A   1      38.261  32.868  33.276  1.00  0.00     0.049 A 
ATOM     57  C   UNL A   1      42.591  30.499  35.918  1.00  0.00     0.074 A 
ATOM     58  C   UNL A   1      37.587  33.868  33.954  1.00  0.00     0.029 A 
ATOM     59  N   UNL A   1      39.295  32.452  34.102  1.00  0.00    -0.354 N 
ATOM     60  N   UNL A   1      41.559  31.147  35.432  1.00  0.00    -0.248 NA
ATOM     61  C   UNL A   1      43.048  30.996  37.225  1.00  0.00     0.031 C 
ATOM     62  C   UNL A   1      38.249  34.098  35.165  1.00  0.00     0.029 A 
ATOM     63  C   UNL A   1      39.295  33.196  35.272  1.00  0.00     0.049 A 
ATOM     64  H   UNL A   1      39.934  31.734  33.890  1.00  0.00     0.167 HD
ATOM     65  C   UNL A   1      41.222  32.104  36.387  1.00  0.00     0.074 A 
ATOM     66  C   UNL A   1      42.157  31.945  37.481  1.00  0.00     0.031 C 
ATOM     67  C   UNL A   1      40.227  33.026  36.361  1.00  0.00     0.037 A 
BRANCH  54  68
ATOM     68  C   UNL A   1      36.867  32.945  31.165  1.00  0.00     0.058 A 
ATOM     69  C   UNL A   1      35.521  32.637  31.417  1.00  0.00     0.135 A 
ATOM     70  C   UNL A   1      37.144  33.870  30.144  1.00  0.00     0.135 A 
ATOM     71  F   UNL A   1      35.197  31.746  32.370  1.00  0.00    -0.206 F 
ATOM     72  C   UNL A   1      34.491  33.199  30.669  1.00  0.00     0.059 A 
ATOM     73  C   UNL A   1      36.130  34.470  29.405  1.00  0.00     0.059 A 
ATOM     74  F   UNL A   1      38.412  34.201  29.857  1.00  0.00    -0.206 F 
ATOM     75  C   UNL A   1      34.806  34.115  29.663  1.00  0.00     0.060 A 
BRANCH  75  76
ATOM     76  S   UNL A   1      33.460  34.836  28.699  1.00  0.00     0.124 S 
ATOM     77  O   UNL A   1      33.216  33.789  27.711  1.00  0.00    -0.237 OA
ATOM     78  O   UNL A   1      32.418  35.012  29.706  1.00  0.00    -0.237 OA
ATOM     79  O   UNL A   1      34.038  36.069  28.175  1.00  0.00    -0.744 OA
ENDBRANCH  75  76
ENDBRANCH  54  68
BRANCH  55  80
ATOM     80  C   UNL A   1      44.513  28.744  36.044  1.00  0.00     0.058 A 
ATOM     81  C   UNL A   1      45.799  29.292  35.924  1.00  0.00     0.135 A 
ATOM     82  C   UNL A   1      44.362  27.614  36.866  1.00  0.00     0.135 A 
ATOM     83  F   UNL A   1      46.002  30.358  35.135  1.00  0.00    -0.206 F 
ATOM     84  C   UNL A   1      46.894  28.740  36.583  1.00  0.00     0.059 A 
ATOM     85  C   UNL A   1      45.436  27.061  37.557  1.00  0.00     0.059 A 
ATOM     86  F   UNL A   1      43.154  27.049  37.017  1.00  0.00    -0.206 F 
ATOM     87  C   UNL A   1      46.701  27.627  37.403  1.00  0.00     0.060 A 
BRANCH  87  88
ATOM     88  S   UNL A   1      48.119  26.950  38.294  1.00  0.00     0.124 S 
ATOM     89  O   UNL A   1      47.974  25.521  38.041  1.00  0.00    -0.237 OA
ATOM     90  O   UNL A   1      49.240  27.606  37.627  1.00  0.00    -0.237 OA
ATOM     91  O   UNL A   1      47.885  27.373  39.672  1.00  0.00    -0.744 OA
ENDBRANCH  87  88
ENDBRANCH  55  80
BRANCH  67  92
ATOM     92  C   UNL A   1      40.060  33.914  37.567  1.00  0.00     0.058 A 
ATOM     93  C   UNL A   1      40.684  35.168  37.662  1.00  0.00     0.135 A 
ATOM     94  C   UNL A   1      39.211  33.528  38.620  1.00  0.00     0.135 A 
ATOM     95  F   UNL A   1      41.508  35.588  36.689  1.00  0.00    -0.206 F 
ATOM     96  C   UNL A   1      40.492  35.995  38.765  1.00  0.00     0.059 A 
ATOM     97  C   UNL A   1      38.981  34.353  39.716  1.00  0.00     0.059 A 
ATOM     98  F   UNL A   1      38.578  32.345  38.578  1.00  0.00    -0.206 F 
ATOM     99  C   UNL A   1      39.636  35.580  39.786  1.00  0.00     0.060 A 
BRANCH  99 100
ATOM    100  S   UNL A   1      39.370  36.680  41.194  1.00  0.00     0.124 S 
ATOM    101  O   UNL A   1      38.386  35.931  41.971  1.00  0.00    -0.237 OA
ATOM    102  O   UNL A   1      40.705  36.767  41.779  1.00  0.00    -0.237 OA
ATOM    103  O   UNL A   1      38.880  37.910  40.581  1.00  0.00    -0.744 OA
ENDBRANCH  99 100
ENDBRANCH  67  92
ENDBRANCH  41  42
ENDBRANCH  34  36
ENDBRANCH  33  34
ENDBRANCH  32  33
ENDBRANCH  31  32
ENDBRANCH  30  31
ENDBRANCH  29  30
ENDBRANCH   1  29
TORSDOF 25
ENDMDL
