MODEL 1
REMARK VINA RESULT:     -10.4      0.000      0.000
REMARK SMILES O=C(OCCOCCOCCOC(=O)[C@@]1(Cc2cn3ccccc3n2)CCC[NH2+]C1)c1ccc(-c2c3nc(c(-c4c(F)cc(S(=O)(=O)[O-])cc4F)c4ccc([nH]4)c(-c4c(F)cc(S(=O)(=O)[O-])cc4F)c4nc(c(-c5c(F)cc(S(=O)(=O)[O-])cc5F)c5ccc2[nH]5)C=C4)C=C3)cc1
REMARK SMILES IDX 7 1 6 2 5 3 4 4 3 5 2 6 1 7 31 8 32 9 96 10 33 11 95 12
REMARK SMILES IDX 34 13 35 14 36 15 89 16 37 17 94 18 88 19 90 20 38 21 93 22
REMARK SMILES IDX 87 23 86 24 39 26 73 27 52 28 72 29 53 30 56 31 71 32 91 33
REMARK SMILES IDX 54 34 55 35 70 37 92 38 57 39 40 40 41 41 50 42 42 43 43 44
REMARK SMILES IDX 49 45 51 46 44 47 45 48 46 49 47 50 48 51 74 52 75 53 84 54
REMARK SMILES IDX 76 55 77 56 83 57 85 58 78 59 79 60 80 61 81 62 82 63 58 64
REMARK SMILES IDX 59 65 68 66 60 67 61 68 67 69 69 70 62 71 63 72 64 73 65 74
REMARK SMILES IDX 66 75 8 76 9 77 10 78 11 79 12 80 13 81 14 82 15 83 26 84
REMARK SMILES IDX 30 85 27 86 29 87 28 88 16 91 17 92 18 93 25 94 19 95 24 96
REMARK SMILES IDX 20 97 23 98 21 99 22 100
REMARK H PARENT 90 25 56 36 29 89 29 90
REMARK Flexibility Score: inf
ROOT
ATOM      1  C   UNL A   1      32.574  27.857  24.331  1.00  0.00     0.188 C 
ENDROOT
BRANCH   1   2
ATOM      2  O   UNL A   1      33.812  27.668  25.022  1.00  0.00    -0.376 OA
BRANCH   2   3
ATOM      3  C   UNL A   1      33.646  27.489  26.435  1.00  0.00     0.202 C 
BRANCH   3   4
ATOM      4  C   UNL A   1      32.978  28.652  27.201  1.00  0.00     0.261 C 
BRANCH   4   5
ATOM      5  O   UNL A   1      33.500  29.960  26.898  1.00  0.00    -0.460 OA
BRANCH   5   6
ATOM      6  C   UNL A   1      34.397  30.722  27.573  1.00  0.00     0.338 C 
ATOM      7  O   UNL A   1      34.136  31.916  27.722  1.00  0.00    -0.246 OA
BRANCH   6   8
ATOM      8  C   UNL A   1      35.692  30.208  28.128  1.00  0.00     0.060 A 
ATOM      9  C   UNL A   1      35.854  29.667  29.400  1.00  0.00     0.016 A 
ATOM     10  C   UNL A   1      36.833  30.270  27.306  1.00  0.00     0.016 A 
ATOM     11  C   UNL A   1      37.091  29.289  29.891  1.00  0.00     0.010 A 
ATOM     12  C   UNL A   1      38.083  29.832  27.771  1.00  0.00     0.010 A 
ATOM     13  C   UNL A   1      38.215  29.361  29.087  1.00  0.00    -0.014 A 
BRANCH  13  14
ATOM     14  C   UNL A   1      39.520  29.088  29.714  1.00  0.00     0.031 A 
ATOM     15  C   UNL A   1      40.016  30.039  30.753  1.00  0.00     0.074 A 
ATOM     16  C   UNL A   1      40.150  27.906  29.555  1.00  0.00     0.049 A 
ATOM     17  N   UNL A   1      41.120  29.983  31.442  1.00  0.00    -0.248 NA
ATOM     18  C   UNL A   1      39.100  31.121  31.158  1.00  0.00     0.031 C 
ATOM     19  C   UNL A   1      39.600  26.729  28.889  1.00  0.00     0.029 A 
ATOM     20  N   UNL A   1      41.415  27.507  29.903  1.00  0.00    -0.354 N 
ATOM     21  C   UNL A   1      40.986  30.944  32.428  1.00  0.00     0.074 A 
ATOM     22  C   UNL A   1      39.744  31.643  32.191  1.00  0.00     0.031 C 
ATOM     23  C   UNL A   1      40.575  25.822  28.704  1.00  0.00     0.029 A 
ATOM     24  C   UNL A   1      41.804  26.366  29.235  1.00  0.00     0.049 A 
ATOM     25  H   UNL A   1      41.980  27.982  30.554  1.00  0.00     0.167 HD
ATOM     26  C   UNL A   1      41.810  31.162  33.476  1.00  0.00     0.037 A 
ATOM     27  C   UNL A   1      43.033  25.869  29.018  1.00  0.00     0.037 A 
ATOM     28  C   UNL A   1      43.055  30.466  33.655  1.00  0.00     0.049 A 
ATOM     29  C   UNL A   1      44.118  26.400  29.894  1.00  0.00     0.074 A 
ATOM     30  C   UNL A   1      44.016  30.652  34.629  1.00  0.00     0.029 A 
ATOM     31  N   UNL A   1      43.521  29.459  32.817  1.00  0.00    -0.354 N 
ATOM     32  N   UNL A   1      44.032  27.353  30.789  1.00  0.00    -0.248 NA
ATOM     33  C   UNL A   1      45.413  25.721  29.836  1.00  0.00     0.031 C 
ATOM     34  C   UNL A   1      45.094  29.809  34.339  1.00  0.00     0.029 A 
ATOM     35  C   UNL A   1      44.782  29.053  33.220  1.00  0.00     0.049 A 
ATOM     36  H   UNL A   1      43.027  29.088  32.051  1.00  0.00     0.167 HD
ATOM     37  C   UNL A   1      45.223  27.319  31.484  1.00  0.00     0.074 A 
ATOM     38  C   UNL A   1      46.033  26.283  30.865  1.00  0.00     0.031 C 
ATOM     39  C   UNL A   1      45.582  28.040  32.572  1.00  0.00     0.037 A 
BRANCH  26  40
ATOM     40  C   UNL A   1      41.394  32.213  34.459  1.00  0.00     0.058 A 
ATOM     41  C   UNL A   1      40.646  31.899  35.607  1.00  0.00     0.135 A 
ATOM     42  C   UNL A   1      41.739  33.554  34.244  1.00  0.00     0.135 A 
ATOM     43  F   UNL A   1      40.254  30.635  35.836  1.00  0.00    -0.206 F 
ATOM     44  C   UNL A   1      40.250  32.884  36.505  1.00  0.00     0.059 A 
ATOM     45  C   UNL A   1      41.371  34.551  35.140  1.00  0.00     0.059 A 
ATOM     46  F   UNL A   1      42.429  33.905  33.148  1.00  0.00    -0.206 F 
ATOM     47  C   UNL A   1      40.623  34.208  36.264  1.00  0.00     0.060 A 
BRANCH  47  48
ATOM     48  S   UNL A   1      40.122  35.471  37.452  1.00  0.00     0.124 S 
ATOM     49  O   UNL A   1      41.261  35.487  38.362  1.00  0.00    -0.237 OA
ATOM     50  O   UNL A   1      39.965  36.648  36.607  1.00  0.00    -0.237 OA
ATOM     51  O   UNL A   1      38.881  34.934  38.012  1.00  0.00    -0.744 OA
ENDBRANCH  47  48
ENDBRANCH  26  40
BRANCH  27  52
ATOM     52  C   UNL A   1      43.297  24.852  27.970  1.00  0.00     0.058 A 
ATOM     53  C   UNL A   1      43.281  23.479  28.236  1.00  0.00     0.135 A 
ATOM     54  C   UNL A   1      43.636  25.259  26.668  1.00  0.00     0.135 A 
ATOM     55  F   UNL A   1      42.972  23.041  29.465  1.00  0.00    -0.206 F 
ATOM     56  C   UNL A   1      43.623  22.543  27.261  1.00  0.00     0.059 A 
ATOM     57  C   UNL A   1      43.967  24.343  25.672  1.00  0.00     0.059 A 
ATOM     58  F   UNL A   1      43.658  26.564  26.355  1.00  0.00    -0.206 F 
ATOM     59  C   UNL A   1      43.974  22.985  25.983  1.00  0.00     0.060 A 
BRANCH  59  60
ATOM     60  S   UNL A   1      44.435  21.764  24.735  1.00  0.00     0.124 S 
ATOM     61  O   UNL A   1      44.199  22.502  23.500  1.00  0.00    -0.237 OA
ATOM     62  O   UNL A   1      45.831  21.501  25.067  1.00  0.00    -0.237 OA
ATOM     63  O   UNL A   1      43.518  20.657  24.993  1.00  0.00    -0.744 OA
ENDBRANCH  59  60
ENDBRANCH  27  52
BRANCH  39  64
ATOM     64  C   UNL A   1      46.906  27.699  33.178  1.00  0.00     0.058 A 
ATOM     65  C   UNL A   1      47.029  26.703  34.156  1.00  0.00     0.135 A 
ATOM     66  C   UNL A   1      48.062  28.383  32.772  1.00  0.00     0.135 A 
ATOM     67  F   UNL A   1      45.945  26.041  34.589  1.00  0.00    -0.206 F 
ATOM     68  C   UNL A   1      48.255  26.418  34.739  1.00  0.00     0.059 A 
ATOM     69  C   UNL A   1      49.305  28.087  33.313  1.00  0.00     0.059 A 
ATOM     70  F   UNL A   1      47.990  29.346  31.838  1.00  0.00    -0.206 F 
ATOM     71  C   UNL A   1      49.387  27.114  34.308  1.00  0.00     0.060 A 
BRANCH  71  72
ATOM     72  S   UNL A   1      50.976  26.709  35.055  1.00  0.00     0.124 S 
ATOM     73  O   UNL A   1      51.729  27.937  34.823  1.00  0.00    -0.237 OA
ATOM     74  O   UNL A   1      50.607  26.441  36.442  1.00  0.00    -0.237 OA
ATOM     75  O   UNL A   1      51.421  25.544  34.294  1.00  0.00    -0.744 OA
ENDBRANCH  71  72
ENDBRANCH  39  64
ENDBRANCH  13  14
ENDBRANCH   6   8
ENDBRANCH   5   6
ENDBRANCH   4   5
ENDBRANCH   3   4
ENDBRANCH   2   3
ENDBRANCH   1   2
BRANCH   1  76
ATOM     76  C   UNL A   1      32.640  27.736  22.811  1.00  0.00     0.188 C 
BRANCH  76  77
ATOM     77  O   UNL A   1      33.536  26.774  22.268  1.00  0.00    -0.376 OA
BRANCH  77  78
ATOM     78  C   UNL A   1      33.030  25.465  22.043  1.00  0.00     0.202 C 
BRANCH  78  79
ATOM     79  C   UNL A   1      31.582  25.151  22.446  1.00  0.00     0.261 C 
BRANCH  79  80
ATOM     80  O   UNL A   1      31.363  23.929  23.173  1.00  0.00    -0.463 OA
BRANCH  80  81
ATOM     81  C   UNL A   1      31.470  24.020  24.531  1.00  0.00     0.318 C 
ATOM     82  O   UNL A   1      30.778  24.774  25.211  1.00  0.00    -0.251 OA
BRANCH  81  83
ATOM     83  C   UNL A   1      32.552  23.114  25.142  1.00  0.00     0.122 C 
ATOM     84  C   UNL A   1      33.827  23.907  25.500  1.00  0.00     0.031 C 
ATOM     85  C   UNL A   1      31.888  22.638  26.467  1.00  0.00     0.279 C 
ATOM     86  C   UNL A   1      34.714  23.111  26.442  1.00  0.00     0.063 C 
ATOM     87  N   UNL A   1      32.766  21.967  27.418  1.00  0.00    -0.345 N 
ATOM     88  C   UNL A   1      33.990  22.691  27.706  1.00  0.00     0.260 C 
ATOM     89  H   UNL A   1      32.254  21.841  28.292  1.00  0.00     0.346 HD
ATOM     90  H   UNL A   1      33.041  21.082  26.992  1.00  0.00     0.346 HD
BRANCH  83  91
ATOM     91  C   UNL A   1      32.844  21.965  24.107  1.00  0.00     0.082 C 
BRANCH  91  92
ATOM     92  C   UNL A   1      33.180  20.601  24.656  1.00  0.00     0.061 A 
ATOM     93  C   UNL A   1      34.416  19.990  24.751  1.00  0.00     0.116 A 
ATOM     94  N   UNL A   1      32.193  19.702  25.033  1.00  0.00    -0.234 NA
ATOM     95  N   UNL A   1      34.135  18.646  24.720  1.00  0.00    -0.307 N 
ATOM     96  C   UNL A   1      32.792  18.521  25.058  1.00  0.00     0.136 A 
ATOM     97  C   UNL A   1      34.937  17.578  24.322  1.00  0.00     0.093 A 
ATOM     98  C   UNL A   1      32.295  17.190  25.196  1.00  0.00     0.048 A 
ATOM     99  C   UNL A   1      34.426  16.336  24.335  1.00  0.00     0.018 A 
ATOM    100  C   UNL A   1      33.075  16.145  24.847  1.00  0.00     0.005 A 
ENDBRANCH  91  92
ENDBRANCH  83  91
ENDBRANCH  81  83
ENDBRANCH  80  81
ENDBRANCH  79  80
ENDBRANCH  78  79
ENDBRANCH  77  78
ENDBRANCH  76  77
ENDBRANCH   1  76
TORSDOF 22
ENDMDL
MODEL 2
REMARK VINA RESULT:     -10.2      3.379      8.881
REMARK SMILES O=C(OCCOCCOCCOC(=O)[C@@]1(Cc2cn3ccccc3n2)CCC[NH2+]C1)c1ccc(-c2c3nc(c(-c4c(F)cc(S(=O)(=O)[O-])cc4F)c4ccc([nH]4)c(-c4c(F)cc(S(=O)(=O)[O-])cc4F)c4nc(c(-c5c(F)cc(S(=O)(=O)[O-])cc5F)c5ccc2[nH]5)C=C4)C=C3)cc1
REMARK SMILES IDX 7 1 6 2 5 3 4 4 3 5 2 6 1 7 31 8 32 9 96 10 33 11 95 12
REMARK SMILES IDX 34 13 35 14 36 15 89 16 37 17 94 18 88 19 90 20 38 21 93 22
REMARK SMILES IDX 87 23 86 24 39 26 73 27 52 28 72 29 53 30 56 31 71 32 91 33
REMARK SMILES IDX 54 34 55 35 70 37 92 38 57 39 40 40 41 41 50 42 42 43 43 44
REMARK SMILES IDX 49 45 51 46 44 47 45 48 46 49 47 50 48 51 74 52 75 53 84 54
REMARK SMILES IDX 76 55 77 56 83 57 85 58 78 59 79 60 80 61 81 62 82 63 58 64
REMARK SMILES IDX 59 65 68 66 60 67 61 68 67 69 69 70 62 71 63 72 64 73 65 74
REMARK SMILES IDX 66 75 8 76 9 77 10 78 11 79 12 80 13 81 14 82 15 83 26 84
REMARK SMILES IDX 30 85 27 86 29 87 28 88 16 91 17 92 18 93 25 94 19 95 24 96
REMARK SMILES IDX 20 97 23 98 21 99 22 100
REMARK H PARENT 90 25 56 36 29 89 29 90
REMARK Flexibility Score: inf
ROOT
ATOM      1  C   UNL A   1      41.837  21.126  27.006  1.00  0.00     0.188 C 
ENDROOT
BRANCH   1   2
ATOM      2  O   UNL A   1      42.433  21.055  25.707  1.00  0.00    -0.376 OA
BRANCH   2   3
ATOM      3  C   UNL A   1      43.128  22.254  25.343  1.00  0.00     0.202 C 
BRANCH   3   4
ATOM      4  C   UNL A   1      43.252  23.337  26.437  1.00  0.00     0.261 C 
BRANCH   4   5
ATOM      5  O   UNL A   1      43.138  24.693  25.968  1.00  0.00    -0.460 OA
BRANCH   5   6
ATOM      6  C   UNL A   1      42.177  25.624  26.204  1.00  0.00     0.338 C 
ATOM      7  O   UNL A   1      41.412  25.903  25.281  1.00  0.00    -0.246 OA
BRANCH   6   8
ATOM      8  C   UNL A   1      42.006  26.346  27.507  1.00  0.00     0.060 A 
ATOM      9  C   UNL A   1      40.903  26.221  28.347  1.00  0.00     0.016 A 
ATOM     10  C   UNL A   1      43.034  27.213  27.921  1.00  0.00     0.016 A 
ATOM     11  C   UNL A   1      40.758  26.979  29.495  1.00  0.00     0.010 A 
ATOM     12  C   UNL A   1      42.926  27.942  29.117  1.00  0.00     0.010 A 
ATOM     13  C   UNL A   1      41.764  27.841  29.896  1.00  0.00    -0.014 A 
BRANCH  13  14
ATOM     14  C   UNL A   1      41.485  28.727  31.041  1.00  0.00     0.031 A 
ATOM     15  C   UNL A   1      40.506  29.838  30.851  1.00  0.00     0.074 A 
ATOM     16  C   UNL A   1      41.897  28.424  32.289  1.00  0.00     0.049 A 
ATOM     17  N   UNL A   1      40.102  30.720  31.720  1.00  0.00    -0.248 NA
ATOM     18  C   UNL A   1      39.800  29.890  29.557  1.00  0.00     0.031 C 
ATOM     19  C   UNL A   1      42.523  27.171  32.700  1.00  0.00     0.029 A 
ATOM     20  N   UNL A   1      41.891  29.165  33.442  1.00  0.00    -0.354 N 
ATOM     21  C   UNL A   1      39.026  31.355  31.125  1.00  0.00     0.074 A 
ATOM     22  C   UNL A   1      38.901  30.837  29.782  1.00  0.00     0.031 C 
ATOM     23  C   UNL A   1      43.014  27.302  33.945  1.00  0.00     0.029 A 
ATOM     24  C   UNL A   1      42.735  28.644  34.400  1.00  0.00     0.049 A 
ATOM     25  H   UNL A   1      41.348  29.975  33.571  1.00  0.00     0.167 HD
ATOM     26  C   UNL A   1      38.182  32.243  31.694  1.00  0.00     0.037 A 
ATOM     27  C   UNL A   1      43.277  29.229  35.482  1.00  0.00     0.037 A 
ATOM     28  C   UNL A   1      38.364  32.758  33.025  1.00  0.00     0.049 A 
ATOM     29  C   UNL A   1      42.632  30.495  35.935  1.00  0.00     0.074 A 
ATOM     30  C   UNL A   1      37.627  33.720  33.686  1.00  0.00     0.029 A 
ATOM     31  N   UNL A   1      39.378  32.362  33.890  1.00  0.00    -0.354 N 
ATOM     32  N   UNL A   1      41.657  31.149  35.356  1.00  0.00    -0.248 NA
ATOM     33  C   UNL A   1      43.052  31.030  37.230  1.00  0.00     0.031 C 
ATOM     34  C   UNL A   1      38.238  33.958  34.922  1.00  0.00     0.029 A 
ATOM     35  C   UNL A   1      39.319  33.102  35.059  1.00  0.00     0.049 A 
ATOM     36  H   UNL A   1      40.039  31.658  33.701  1.00  0.00     0.167 HD
ATOM     37  C   UNL A   1      41.264  32.112  36.264  1.00  0.00     0.074 A 
ATOM     38  C   UNL A   1      42.148  31.983  37.410  1.00  0.00     0.031 C 
ATOM     39  C   UNL A   1      40.226  32.977  36.175  1.00  0.00     0.037 A 
BRANCH  26  40
ATOM     40  C   UNL A   1      37.036  32.722  30.858  1.00  0.00     0.058 A 
ATOM     41  C   UNL A   1      37.170  33.799  29.965  1.00  0.00     0.135 A 
ATOM     42  C   UNL A   1      35.784  32.102  30.960  1.00  0.00     0.135 A 
ATOM     43  F   UNL A   1      38.338  34.453  29.862  1.00  0.00    -0.206 F 
ATOM     44  C   UNL A   1      36.095  34.247  29.205  1.00  0.00     0.059 A 
ATOM     45  C   UNL A   1      34.701  32.521  30.195  1.00  0.00     0.059 A 
ATOM     46  F   UNL A   1      35.602  31.088  31.819  1.00  0.00    -0.206 F 
ATOM     47  C   UNL A   1      34.864  33.596  29.324  1.00  0.00     0.060 A 
BRANCH  47  48
ATOM     48  S   UNL A   1      33.486  34.174  28.313  1.00  0.00     0.124 S 
ATOM     49  O   UNL A   1      34.162  35.056  27.370  1.00  0.00    -0.237 OA
ATOM     50  O   UNL A   1      32.962  32.932  27.762  1.00  0.00    -0.237 OA
ATOM     51  O   UNL A   1      32.615  34.843  29.282  1.00  0.00    -0.744 OA
ENDBRANCH  47  48
ENDBRANCH  26  40
BRANCH  27  52
ATOM     52  C   UNL A   1      44.448  28.648  36.185  1.00  0.00     0.058 A 
ATOM     53  C   UNL A   1      45.762  29.040  35.904  1.00  0.00     0.135 A 
ATOM     54  C   UNL A   1      44.263  27.622  37.127  1.00  0.00     0.135 A 
ATOM     55  F   UNL A   1      45.991  30.010  35.007  1.00  0.00    -0.206 F 
ATOM     56  C   UNL A   1      46.853  28.417  36.507  1.00  0.00     0.059 A 
ATOM     57  C   UNL A   1      45.336  26.993  37.754  1.00  0.00     0.059 A 
ATOM     58  F   UNL A   1      43.024  27.212  37.440  1.00  0.00    -0.206 F 
ATOM     59  C   UNL A   1      46.631  27.388  37.425  1.00  0.00     0.060 A 
BRANCH  59  60
ATOM     60  S   UNL A   1      48.055  26.574  38.183  1.00  0.00     0.124 S 
ATOM     61  O   UNL A   1      47.498  26.135  39.457  1.00  0.00    -0.237 OA
ATOM     62  O   UNL A   1      48.354  25.521  37.218  1.00  0.00    -0.237 OA
ATOM     63  O   UNL A   1      49.048  27.641  38.261  1.00  0.00    -0.744 OA
ENDBRANCH  59  60
ENDBRANCH  27  52
BRANCH  39  64
ATOM     64  C   UNL A   1      39.980  33.831  37.377  1.00  0.00     0.058 A 
ATOM     65  C   UNL A   1      40.691  35.020  37.590  1.00  0.00     0.135 A 
ATOM     66  C   UNL A   1      39.020  33.449  38.327  1.00  0.00     0.135 A 
ATOM     67  F   UNL A   1      41.635  35.409  36.718  1.00  0.00    -0.206 F 
ATOM     68  C   UNL A   1      40.483  35.788  38.726  1.00  0.00     0.059 A 
ATOM     69  C   UNL A   1      38.766  34.223  39.451  1.00  0.00     0.059 A 
ATOM     70  F   UNL A   1      38.315  32.318  38.164  1.00  0.00    -0.206 F 
ATOM     71  C   UNL A   1      39.516  35.382  39.648  1.00  0.00     0.060 A 
BRANCH  71  72
ATOM     72  S   UNL A   1      39.236  36.408  41.102  1.00  0.00     0.124 S 
ATOM     73  O   UNL A   1      38.332  35.570  41.882  1.00  0.00    -0.237 OA
ATOM     74  O   UNL A   1      40.585  36.559  41.639  1.00  0.00    -0.237 OA
ATOM     75  O   UNL A   1      38.648  37.625  40.550  1.00  0.00    -0.744 OA
ENDBRANCH  71  72
ENDBRANCH  39  64
ENDBRANCH  13  14
ENDBRANCH   6   8
ENDBRANCH   5   6
ENDBRANCH   4   5
ENDBRANCH   3   4
ENDBRANCH   2   3
ENDBRANCH   1   2
BRANCH   1  76
ATOM     76  C   UNL A   1      40.316  21.262  27.028  1.00  0.00     0.188 C 
BRANCH  76  77
ATOM     77  O   UNL A   1      39.716  22.076  26.029  1.00  0.00    -0.376 OA
BRANCH  77  78
ATOM     78  C   UNL A   1      38.311  22.276  26.107  1.00  0.00     0.202 C 
BRANCH  78  79
ATOM     79  C   UNL A   1      37.710  23.552  25.501  1.00  0.00     0.261 C 
BRANCH  79  80
ATOM     80  O   UNL A   1      36.274  23.622  25.430  1.00  0.00    -0.463 OA
BRANCH  80  81
ATOM     81  C   UNL A   1      35.721  23.223  24.248  1.00  0.00     0.318 C 
ATOM     82  O   UNL A   1      36.344  22.606  23.387  1.00  0.00    -0.251 OA
BRANCH  81  83
ATOM     83  C   UNL A   1      34.249  23.633  24.069  1.00  0.00     0.122 C 
ATOM     84  C   UNL A   1      34.068  25.164  24.146  1.00  0.00     0.031 C 
ATOM     85  C   UNL A   1      33.944  23.180  22.611  1.00  0.00     0.279 C 
ATOM     86  C   UNL A   1      32.718  25.579  23.586  1.00  0.00     0.063 C 
ATOM     87  N   UNL A   1      32.696  23.667  22.036  1.00  0.00    -0.345 N 
ATOM     88  C   UNL A   1      32.506  25.100  22.164  1.00  0.00     0.260 C 
ATOM     89  H   UNL A   1      32.686  23.428  21.045  1.00  0.00     0.346 HD
ATOM     90  H   UNL A   1      31.940  23.223  22.556  1.00  0.00     0.346 HD
BRANCH  83  91
ATOM     91  C   UNL A   1      33.414  22.885  25.174  1.00  0.00     0.082 C 
BRANCH  91  92
ATOM     92  C   UNL A   1      33.143  21.416  24.968  1.00  0.00     0.061 A 
ATOM     93  C   UNL A   1      33.755  20.333  25.572  1.00  0.00     0.116 A 
ATOM     94  N   UNL A   1      32.278  20.963  23.983  1.00  0.00    -0.234 NA
ATOM     95  N   UNL A   1      33.621  19.314  24.661  1.00  0.00    -0.307 N 
ATOM     96  C   UNL A   1      32.590  19.688  23.806  1.00  0.00     0.136 A 
ATOM     97  C   UNL A   1      34.398  18.170  24.485  1.00  0.00     0.093 A 
ATOM     98  C   UNL A   1      32.195  18.724  22.830  1.00  0.00     0.048 A 
ATOM     99  C   UNL A   1      34.099  17.325  23.485  1.00  0.00     0.018 A 
ATOM    100  C   UNL A   1      32.919  17.595  22.674  1.00  0.00     0.005 A 
ENDBRANCH  91  92
ENDBRANCH  83  91
ENDBRANCH  81  83
ENDBRANCH  80  81
ENDBRANCH  79  80
ENDBRANCH  78  79
ENDBRANCH  77  78
ENDBRANCH  76  77
ENDBRANCH   1  76
TORSDOF 22
ENDMDL
MODEL 3
REMARK VINA RESULT:     -10.2      3.523      9.269
REMARK SMILES O=C(OCCOCCOCCOC(=O)[C@@]1(Cc2cn3ccccc3n2)CCC[NH2+]C1)c1ccc(-c2c3nc(c(-c4c(F)cc(S(=O)(=O)[O-])cc4F)c4ccc([nH]4)c(-c4c(F)cc(S(=O)(=O)[O-])cc4F)c4nc(c(-c5c(F)cc(S(=O)(=O)[O-])cc5F)c5ccc2[nH]5)C=C4)C=C3)cc1
REMARK SMILES IDX 7 1 6 2 5 3 4 4 3 5 2 6 1 7 31 8 32 9 96 10 33 11 95 12
REMARK SMILES IDX 34 13 35 14 36 15 89 16 37 17 94 18 88 19 90 20 38 21 93 22
REMARK SMILES IDX 87 23 86 24 39 26 73 27 52 28 72 29 53 30 56 31 71 32 91 33
REMARK SMILES IDX 54 34 55 35 70 37 92 38 57 39 40 40 41 41 50 42 42 43 43 44
REMARK SMILES IDX 49 45 51 46 44 47 45 48 46 49 47 50 48 51 74 52 75 53 84 54
REMARK SMILES IDX 76 55 77 56 83 57 85 58 78 59 79 60 80 61 81 62 82 63 58 64
REMARK SMILES IDX 59 65 68 66 60 67 61 68 67 69 69 70 62 71 63 72 64 73 65 74
REMARK SMILES IDX 66 75 8 76 9 77 10 78 11 79 12 80 13 81 14 82 15 83 26 84
REMARK SMILES IDX 30 85 27 86 29 87 28 88 16 91 17 92 18 93 25 94 19 95 24 96
REMARK SMILES IDX 20 97 23 98 21 99 22 100
REMARK H PARENT 90 25 56 36 29 89 29 90
REMARK Flexibility Score: inf
ROOT
ATOM      1  C   UNL A   1      42.092  21.086  26.647  1.00  0.00     0.188 C 
ENDROOT
BRANCH   1   2
ATOM      2  O   UNL A   1      42.729  21.185  25.370  1.00  0.00    -0.376 OA
BRANCH   2   3
ATOM      3  C   UNL A   1      43.382  22.444  25.164  1.00  0.00     0.202 C 
BRANCH   3   4
ATOM      4  C   UNL A   1      43.341  23.441  26.343  1.00  0.00     0.261 C 
BRANCH   4   5
ATOM      5  O   UNL A   1      43.357  24.830  25.967  1.00  0.00    -0.460 OA
BRANCH   5   6
ATOM      6  C   UNL A   1      42.436  25.806  26.179  1.00  0.00     0.338 C 
ATOM      7  O   UNL A   1      41.740  26.152  25.224  1.00  0.00    -0.246 OA
BRANCH   6   8
ATOM      8  C   UNL A   1      42.230  26.500  27.492  1.00  0.00     0.060 A 
ATOM      9  C   UNL A   1      41.123  26.328  28.318  1.00  0.00     0.016 A 
ATOM     10  C   UNL A   1      43.228  27.390  27.931  1.00  0.00     0.016 A 
ATOM     11  C   UNL A   1      40.945  27.062  29.477  1.00  0.00     0.010 A 
ATOM     12  C   UNL A   1      43.087  28.095  29.137  1.00  0.00     0.010 A 
ATOM     13  C   UNL A   1      41.921  27.947  29.903  1.00  0.00    -0.014 A 
BRANCH  13  14
ATOM     14  C   UNL A   1      41.604  28.804  31.059  1.00  0.00     0.031 A 
ATOM     15  C   UNL A   1      40.605  29.898  30.874  1.00  0.00     0.074 A 
ATOM     16  C   UNL A   1      42.002  28.485  32.308  1.00  0.00     0.049 A 
ATOM     17  N   UNL A   1      40.168  30.754  31.753  1.00  0.00    -0.248 NA
ATOM     18  C   UNL A   1      39.919  29.960  29.570  1.00  0.00     0.031 C 
ATOM     19  C   UNL A   1      42.648  27.238  32.706  1.00  0.00     0.029 A 
ATOM     20  N   UNL A   1      41.962  29.204  33.475  1.00  0.00    -0.354 N 
ATOM     21  C   UNL A   1      39.089  31.377  31.152  1.00  0.00     0.074 A 
ATOM     22  C   UNL A   1      38.997  30.883  29.798  1.00  0.00     0.031 C 
ATOM     23  C   UNL A   1      43.115  27.356  33.961  1.00  0.00     0.029 A 
ATOM     24  C   UNL A   1      42.801  28.683  34.437  1.00  0.00     0.049 A 
ATOM     25  H   UNL A   1      41.400  30.000  33.610  1.00  0.00     0.167 HD
ATOM     26  C   UNL A   1      38.217  32.237  31.724  1.00  0.00     0.037 A 
ATOM     27  C   UNL A   1      43.312  29.257  35.538  1.00  0.00     0.037 A 
ATOM     28  C   UNL A   1      38.366  32.729  33.066  1.00  0.00     0.049 A 
ATOM     29  C   UNL A   1      42.633  30.500  36.004  1.00  0.00     0.074 A 
ATOM     30  C   UNL A   1      37.598  33.663  33.733  1.00  0.00     0.029 A 
ATOM     31  N   UNL A   1      39.374  32.338  33.941  1.00  0.00    -0.354 N 
ATOM     32  N   UNL A   1      41.654  31.146  35.421  1.00  0.00    -0.248 NA
ATOM     33  C   UNL A   1      43.021  31.020  37.317  1.00  0.00     0.031 C 
ATOM     34  C   UNL A   1      38.183  33.890  34.984  1.00  0.00     0.029 A 
ATOM     35  C   UNL A   1      39.280  33.054  35.122  1.00  0.00     0.049 A 
ATOM     36  H   UNL A   1      40.053  31.652  33.750  1.00  0.00     0.167 HD
ATOM     37  C   UNL A   1      41.226  32.082  36.341  1.00  0.00     0.074 A 
ATOM     38  C   UNL A   1      42.094  31.950  37.499  1.00  0.00     0.031 C 
ATOM     39  C   UNL A   1      40.172  32.927  36.251  1.00  0.00     0.037 A 
BRANCH  26  40
ATOM     40  C   UNL A   1      37.075  32.707  30.878  1.00  0.00     0.058 A 
ATOM     41  C   UNL A   1      37.174  33.853  30.070  1.00  0.00     0.135 A 
ATOM     42  C   UNL A   1      35.860  32.009  30.885  1.00  0.00     0.135 A 
ATOM     43  F   UNL A   1      38.303  34.580  30.061  1.00  0.00    -0.206 F 
ATOM     44  C   UNL A   1      36.102  34.291  29.300  1.00  0.00     0.059 A 
ATOM     45  C   UNL A   1      34.782  32.419  30.107  1.00  0.00     0.059 A 
ATOM     46  F   UNL A   1      35.709  30.926  31.661  1.00  0.00    -0.206 F 
ATOM     47  C   UNL A   1      34.910  33.563  29.322  1.00  0.00     0.060 A 
BRANCH  47  48
ATOM     48  S   UNL A   1      33.537  34.131  28.300  1.00  0.00     0.124 S 
ATOM     49  O   UNL A   1      34.207  35.057  27.394  1.00  0.00    -0.237 OA
ATOM     50  O   UNL A   1      33.058  32.891  27.705  1.00  0.00    -0.237 OA
ATOM     51  O   UNL A   1      32.630  34.750  29.268  1.00  0.00    -0.744 OA
ENDBRANCH  47  48
ENDBRANCH  26  40
BRANCH  27  52
ATOM     52  C   UNL A   1      44.484  28.688  36.249  1.00  0.00     0.058 A 
ATOM     53  C   UNL A   1      45.793  29.117  36.003  1.00  0.00     0.135 A 
ATOM     54  C   UNL A   1      44.306  27.636  37.165  1.00  0.00     0.135 A 
ATOM     55  F   UNL A   1      46.015  30.112  35.132  1.00  0.00    -0.206 F 
ATOM     56  C   UNL A   1      46.888  28.505  36.611  1.00  0.00     0.059 A 
ATOM     57  C   UNL A   1      45.382  27.019  37.798  1.00  0.00     0.059 A 
ATOM     58  F   UNL A   1      43.071  27.191  37.445  1.00  0.00    -0.206 F 
ATOM     59  C   UNL A   1      46.673  27.450  37.501  1.00  0.00     0.060 A 
BRANCH  59  60
ATOM     60  S   UNL A   1      48.102  26.653  38.267  1.00  0.00     0.124 S 
ATOM     61  O   UNL A   1      47.680  26.569  39.660  1.00  0.00    -0.237 OA
ATOM     62  O   UNL A   1      48.171  25.389  37.541  1.00  0.00    -0.237 OA
ATOM     63  O   UNL A   1      49.193  27.584  37.993  1.00  0.00    -0.744 OA
ENDBRANCH  59  60
ENDBRANCH  27  52
BRANCH  39  64
ATOM     64  C   UNL A   1      39.887  33.752  37.465  1.00  0.00     0.058 A 
ATOM     65  C   UNL A   1      38.971  33.332  38.439  1.00  0.00     0.135 A 
ATOM     66  C   UNL A   1      40.542  34.980  37.650  1.00  0.00     0.135 A 
ATOM     67  F   UNL A   1      38.306  32.175  38.288  1.00  0.00    -0.206 F 
ATOM     68  C   UNL A   1      38.686  34.120  39.544  1.00  0.00     0.059 A 
ATOM     69  C   UNL A   1      40.302  35.766  38.768  1.00  0.00     0.059 A 
ATOM     70  F   UNL A   1      41.428  35.422  36.743  1.00  0.00    -0.206 F 
ATOM     71  C   UNL A   1      39.359  35.334  39.700  1.00  0.00     0.060 A 
BRANCH  71  72
ATOM     72  S   UNL A   1      38.999  36.330  41.157  1.00  0.00     0.124 S 
ATOM     73  O   UNL A   1      37.888  35.592  41.749  1.00  0.00    -0.237 OA
ATOM     74  O   UNL A   1      40.260  36.276  41.890  1.00  0.00    -0.237 OA
ATOM     75  O   UNL A   1      38.660  37.637  40.599  1.00  0.00    -0.744 OA
ENDBRANCH  71  72
ENDBRANCH  39  64
ENDBRANCH  13  14
ENDBRANCH   6   8
ENDBRANCH   5   6
ENDBRANCH   4   5
ENDBRANCH   3   4
ENDBRANCH   2   3
ENDBRANCH   1   2
BRANCH   1  76
ATOM     76  C   UNL A   1      40.571  20.961  26.618  1.00  0.00     0.188 C 
BRANCH  76  77
ATOM     77  O   UNL A   1      39.858  21.821  25.739  1.00  0.00    -0.376 OA
BRANCH  77  78
ATOM     78  C   UNL A   1      38.447  21.664  25.673  1.00  0.00     0.202 C 
BRANCH  78  79
ATOM     79  C   UNL A   1      37.569  22.914  25.522  1.00  0.00     0.261 C 
BRANCH  79  80
ATOM     80  O   UNL A   1      36.154  22.698  25.373  1.00  0.00    -0.463 OA
BRANCH  80  81
ATOM     81  C   UNL A   1      35.656  22.886  24.115  1.00  0.00     0.318 C 
ATOM     82  O   UNL A   1      36.358  23.177  23.150  1.00  0.00    -0.251 OA
BRANCH  81  83
ATOM     83  C   UNL A   1      34.130  22.728  24.010  1.00  0.00     0.122 C 
ATOM     84  C   UNL A   1      33.687  21.271  24.261  1.00  0.00     0.031 C 
ATOM     85  C   UNL A   1      33.615  23.603  25.191  1.00  0.00     0.279 C 
ATOM     86  C   UNL A   1      32.196  21.199  24.544  1.00  0.00     0.063 C 
ATOM     87  N   UNL A   1      32.205  23.454  25.531  1.00  0.00    -0.345 N 
ATOM     88  C   UNL A   1      31.782  22.077  25.709  1.00  0.00     0.260 C 
ATOM     89  H   UNL A   1      32.031  23.958  26.400  1.00  0.00     0.346 HD
ATOM     90  H   UNL A   1      31.672  23.826  24.746  1.00  0.00     0.346 HD
BRANCH  83  91
ATOM     91  C   UNL A   1      33.701  23.237  22.583  1.00  0.00     0.082 C 
BRANCH  91  92
ATOM     92  C   UNL A   1      32.966  24.551  22.504  1.00  0.00     0.061 A 
ATOM     93  C   UNL A   1      33.488  25.827  22.394  1.00  0.00     0.116 A 
ATOM     94  N   UNL A   1      31.592  24.632  22.677  1.00  0.00    -0.234 NA
ATOM     95  N   UNL A   1      32.534  26.636  22.960  1.00  0.00    -0.307 N 
ATOM     96  C   UNL A   1      31.352  25.903  22.960  1.00  0.00     0.136 A 
ATOM     97  C   UNL A   1      32.667  27.893  23.547  1.00  0.00     0.093 A 
ATOM     98  C   UNL A   1      30.182  26.588  23.408  1.00  0.00     0.048 A 
ATOM     99  C   UNL A   1      31.585  28.483  24.081  1.00  0.00     0.018 A 
ATOM    100  C   UNL A   1      30.294  27.820  23.948  1.00  0.00     0.005 A 
ENDBRANCH  91  92
ENDBRANCH  83  91
ENDBRANCH  81  83
ENDBRANCH  80  81
ENDBRANCH  79  80
ENDBRANCH  78  79
ENDBRANCH  77  78
ENDBRANCH  76  77
ENDBRANCH   1  76
TORSDOF 22
ENDMDL
