MODEL 1
REMARK VINA RESULT:     -11.1      0.000      0.000
REMARK SMILES CC1=C2C(=O)CC(C)(C)CC2=N[C@@H]1C(=O)OCCOCCOCCOC(=O)c1ccc(-c2c3nc(c(-c4c(F)cc(S(=O)(=O)[O-])cc4F)c4ccc([nH]4)c(-c4c(F)cc(S(=O)(=O)[O-])cc4F)c4nc(c(-c5c(F)cc(S(=O)(=O)[O-])cc5F)c5ccc2[nH]5)C=C4)C=C3)cc1
REMARK SMILES IDX 22 1 21 2 20 3 19 4 18 5 17 6 16 7 14 8 15 9 13 10 1 11 2 12
REMARK SMILES IDX 3 13 4 14 11 15 12 16 5 17 6 18 10 19 7 20 8 21 9 22 23 23
REMARK SMILES IDX 24 24 25 25 26 26 27 27 28 28 29 29 93 30 30 31 92 32 31 33
REMARK SMILES IDX 32 34 33 35 86 36 34 37 91 38 85 39 87 40 35 41 90 42 84 43
REMARK SMILES IDX 83 44 36 46 70 47 49 48 69 49 50 50 53 51 68 52 88 53 51 54
REMARK SMILES IDX 52 55 67 57 89 58 54 59 37 60 38 61 47 62 39 63 40 64 46 65
REMARK SMILES IDX 48 66 41 67 42 68 43 69 44 70 45 71 71 72 72 73 81 74 73 75
REMARK SMILES IDX 74 76 80 77 82 78 75 79 76 80 77 81 78 82 79 83 55 84 56 85
REMARK SMILES IDX 65 86 57 87 58 88 64 89 66 90 59 91 60 92 61 93 62 94 63 95
REMARK H PARENT 87 45 53 56
REMARK Flexibility Score: inf
ROOT
ATOM      1  O   UNL A   1      32.724  29.196  24.767  1.00  0.00    -0.376 OA
ENDROOT
BRANCH   1   2
ATOM      2  C   UNL A   1      32.174  28.755  23.549  1.00  0.00     0.188 C 
BRANCH   2   3
ATOM      3  C   UNL A   1      30.690  28.333  23.600  1.00  0.00     0.188 C 
BRANCH   3   4
ATOM      4  O   UNL A   1      30.283  27.094  24.173  1.00  0.00    -0.376 OA
BRANCH   4   5
ATOM      5  C   UNL A   1      30.732  26.749  25.467  1.00  0.00     0.202 C 
BRANCH   5   6
ATOM      6  C   UNL A   1      30.103  25.477  26.078  1.00  0.00     0.261 C 
BRANCH   6   7
ATOM      7  O   UNL A   1      30.940  24.673  26.944  1.00  0.00    -0.461 OA
BRANCH   7   8
ATOM      8  C   UNL A   1      30.557  23.369  27.001  1.00  0.00     0.335 C 
ATOM      9  O   UNL A   1      29.533  23.013  27.583  1.00  0.00    -0.249 OA
BRANCH   8  10
ATOM     10  C   UNL A   1      31.589  22.347  26.372  1.00  0.00     0.242 C 
ATOM     11  C   UNL A   1      34.147  22.752  27.143  1.00  0.00     0.043 C 
ATOM     12  C   UNL A   1      33.079  22.592  26.120  1.00  0.00    -0.025 C 
ATOM     13  C   UNL A   1      33.345  22.556  24.810  1.00  0.00     0.040 C 
ATOM     14  C   UNL A   1      34.513  22.610  23.905  1.00  0.00     0.165 C 
ATOM     15  C   UNL A   1      32.018  22.774  24.289  1.00  0.00     0.048 C 
ATOM     16  N   UNL A   1      31.041  22.251  24.958  1.00  0.00    -0.269 NA
ATOM     17  O   UNL A   1      35.558  22.027  24.170  1.00  0.00    -0.294 OA
ATOM     18  C   UNL A   1      34.281  23.348  22.586  1.00  0.00     0.088 C 
ATOM     19  C   UNL A   1      31.848  23.718  23.137  1.00  0.00     0.063 C 
ATOM     20  C   UNL A   1      33.187  24.429  22.766  1.00  0.00    -0.023 C 
ATOM     21  C   UNL A   1      33.682  25.463  23.816  1.00  0.00     0.012 C 
ATOM     22  C   UNL A   1      32.945  25.222  21.474  1.00  0.00     0.012 C 
ENDBRANCH   8  10
ENDBRANCH   7   8
ENDBRANCH   6   7
ENDBRANCH   5   6
ENDBRANCH   4   5
ENDBRANCH   3   4
ENDBRANCH   2   3
ENDBRANCH   1   2
BRANCH   1  23
ATOM     23  C   UNL A   1      32.056  30.052  25.668  1.00  0.00     0.202 C 
BRANCH  23  24
ATOM     24  C   UNL A   1      32.698  30.766  26.849  1.00  0.00     0.261 C 
BRANCH  24  25
ATOM     25  O   UNL A   1      34.053  30.466  27.108  1.00  0.00    -0.460 OA
BRANCH  25  26
ATOM     26  C   UNL A   1      34.704  31.497  27.671  1.00  0.00     0.338 C 
ATOM     27  O   UNL A   1      34.557  32.700  27.409  1.00  0.00    -0.246 OA
BRANCH  26  28
ATOM     28  C   UNL A   1      35.734  31.027  28.573  1.00  0.00     0.060 A 
ATOM     29  C   UNL A   1      36.575  32.000  29.115  1.00  0.00     0.016 A 
ATOM     30  C   UNL A   1      36.061  29.664  28.555  1.00  0.00     0.016 A 
ATOM     31  C   UNL A   1      37.856  31.637  29.437  1.00  0.00     0.010 A 
ATOM     32  C   UNL A   1      37.341  29.302  28.895  1.00  0.00     0.010 A 
ATOM     33  C   UNL A   1      38.248  30.310  29.232  1.00  0.00    -0.014 A 
BRANCH  33  34
ATOM     34  C   UNL A   1      39.650  29.995  29.447  1.00  0.00     0.031 A 
ATOM     35  C   UNL A   1      40.046  30.082  30.872  1.00  0.00     0.074 A 
ATOM     36  C   UNL A   1      40.422  29.556  28.434  1.00  0.00     0.049 A 
ATOM     37  N   UNL A   1      41.030  30.733  31.397  1.00  0.00    -0.248 NA
ATOM     38  C   UNL A   1      39.127  29.485  31.862  1.00  0.00     0.031 C 
ATOM     39  C   UNL A   1      39.966  29.250  27.070  1.00  0.00     0.029 A 
ATOM     40  N   UNL A   1      41.719  29.132  28.427  1.00  0.00    -0.354 N 
ATOM     41  C   UNL A   1      40.997  30.404  32.748  1.00  0.00     0.074 A 
ATOM     42  C   UNL A   1      39.710  29.824  33.009  1.00  0.00     0.031 C 
ATOM     43  C   UNL A   1      40.871  28.450  26.473  1.00  0.00     0.029 A 
ATOM     44  C   UNL A   1      42.004  28.278  27.367  1.00  0.00     0.049 A 
ATOM     45  H   UNL A   1      42.384  29.403  29.102  1.00  0.00     0.167 HD
ATOM     46  C   UNL A   1      42.151  30.296  33.457  1.00  0.00     0.037 A 
ATOM     47  C   UNL A   1      43.029  27.396  27.280  1.00  0.00     0.037 A 
ATOM     48  C   UNL A   1      43.218  31.037  32.839  1.00  0.00     0.049 A 
ATOM     49  C   UNL A   1      44.085  27.823  28.232  1.00  0.00     0.074 A 
ATOM     50  C   UNL A   1      43.535  32.365  32.666  1.00  0.00     0.029 A 
ATOM     51  N   UNL A   1      44.001  30.313  31.979  1.00  0.00    -0.354 N 
ATOM     52  N   UNL A   1      44.764  28.932  28.122  1.00  0.00    -0.248 NA
ATOM     53  C   UNL A   1      44.192  27.159  29.528  1.00  0.00     0.031 C 
ATOM     54  C   UNL A   1      44.403  32.424  31.538  1.00  0.00     0.029 A 
ATOM     55  C   UNL A   1      44.596  31.130  31.057  1.00  0.00     0.049 A 
ATOM     56  H   UNL A   1      44.119  29.336  32.020  1.00  0.00     0.167 HD
ATOM     57  C   UNL A   1      45.027  29.310  29.426  1.00  0.00     0.074 A 
ATOM     58  C   UNL A   1      44.821  28.112  30.222  1.00  0.00     0.031 C 
ATOM     59  C   UNL A   1      45.060  30.627  29.780  1.00  0.00     0.037 A 
BRANCH  46  60
ATOM     60  C   UNL A   1      42.441  29.118  34.370  1.00  0.00     0.058 A 
ATOM     61  C   UNL A   1      42.448  27.823  33.816  1.00  0.00     0.135 A 
ATOM     62  C   UNL A   1      42.371  29.177  35.783  1.00  0.00     0.135 A 
ATOM     63  F   UNL A   1      42.517  27.650  32.487  1.00  0.00    -0.206 F 
ATOM     64  C   UNL A   1      42.292  26.678  34.600  1.00  0.00     0.059 A 
ATOM     65  C   UNL A   1      42.269  28.048  36.582  1.00  0.00     0.059 A 
ATOM     66  F   UNL A   1      42.289  30.328  36.459  1.00  0.00    -0.206 F 
ATOM     67  C   UNL A   1      42.177  26.807  35.981  1.00  0.00     0.060 A 
BRANCH  67  68
ATOM     68  S   UNL A   1      41.827  25.357  36.988  1.00  0.00     0.124 S 
ATOM     69  O   UNL A   1      40.658  25.804  37.736  1.00  0.00    -0.237 OA
ATOM     70  O   UNL A   1      41.591  24.334  35.974  1.00  0.00    -0.237 OA
ATOM     71  O   UNL A   1      43.051  25.189  37.765  1.00  0.00    -0.744 OA
ENDBRANCH  67  68
ENDBRANCH  46  60
BRANCH  47  72
ATOM     72  C   UNL A   1      43.019  26.060  26.626  1.00  0.00     0.058 A 
ATOM     73  C   UNL A   1      43.774  25.813  25.466  1.00  0.00     0.135 A 
ATOM     74  C   UNL A   1      42.463  24.923  27.253  1.00  0.00     0.135 A 
ATOM     75  F   UNL A   1      44.366  26.828  24.819  1.00  0.00    -0.206 F 
ATOM     76  C   UNL A   1      43.995  24.520  24.980  1.00  0.00     0.059 A 
ATOM     77  C   UNL A   1      42.646  23.630  26.771  1.00  0.00     0.059 A 
ATOM     78  F   UNL A   1      41.793  25.019  28.411  1.00  0.00    -0.206 F 
ATOM     79  C   UNL A   1      43.436  23.432  25.648  1.00  0.00     0.060 A 
BRANCH  79  80
ATOM     80  S   UNL A   1      43.843  21.753  25.119  1.00  0.00     0.124 S 
ATOM     81  O   UNL A   1      45.004  21.449  25.948  1.00  0.00    -0.237 OA
ATOM     82  O   UNL A   1      42.620  21.025  25.437  1.00  0.00    -0.237 OA
ATOM     83  O   UNL A   1      44.120  21.906  23.693  1.00  0.00    -0.744 OA
ENDBRANCH  79  80
ENDBRANCH  47  72
BRANCH  59  84
ATOM     84  C   UNL A   1      45.432  31.622  28.722  1.00  0.00     0.058 A 
ATOM     85  C   UNL A   1      44.530  32.210  27.820  1.00  0.00     0.135 A 
ATOM     86  C   UNL A   1      46.766  32.056  28.678  1.00  0.00     0.135 A 
ATOM     87  F   UNL A   1      43.222  31.916  27.860  1.00  0.00    -0.206 F 
ATOM     88  C   UNL A   1      44.951  33.156  26.884  1.00  0.00     0.059 A 
ATOM     89  C   UNL A   1      47.200  33.020  27.776  1.00  0.00     0.059 A 
ATOM     90  F   UNL A   1      47.662  31.567  29.551  1.00  0.00    -0.206 F 
ATOM     91  C   UNL A   1      46.289  33.554  26.868  1.00  0.00     0.060 A 
BRANCH  91  92
ATOM     92  S   UNL A   1      46.818  34.825  25.701  1.00  0.00     0.124 S 
ATOM     93  O   UNL A   1      45.852  34.670  24.620  1.00  0.00    -0.237 OA
ATOM     94  O   UNL A   1      46.698  36.050  26.489  1.00  0.00    -0.237 OA
ATOM     95  O   UNL A   1      48.188  34.439  25.375  1.00  0.00    -0.744 OA
ENDBRANCH  91  92
ENDBRANCH  59  84
ENDBRANCH  33  34
ENDBRANCH  26  28
ENDBRANCH  25  26
ENDBRANCH  24  25
ENDBRANCH  23  24
ENDBRANCH   1  23
TORSDOF 20
ENDMDL
MODEL 2
REMARK VINA RESULT:     -11.0      2.732      9.602
REMARK SMILES CC1=C2C(=O)CC(C)(C)CC2=N[C@@H]1C(=O)OCCOCCOCCOC(=O)c1ccc(-c2c3nc(c(-c4c(F)cc(S(=O)(=O)[O-])cc4F)c4ccc([nH]4)c(-c4c(F)cc(S(=O)(=O)[O-])cc4F)c4nc(c(-c5c(F)cc(S(=O)(=O)[O-])cc5F)c5ccc2[nH]5)C=C4)C=C3)cc1
REMARK SMILES IDX 22 1 21 2 20 3 19 4 18 5 17 6 16 7 14 8 15 9 13 10 1 11 2 12
REMARK SMILES IDX 3 13 4 14 11 15 12 16 5 17 6 18 10 19 7 20 8 21 9 22 23 23
REMARK SMILES IDX 24 24 25 25 26 26 27 27 28 28 29 29 93 30 30 31 92 32 31 33
REMARK SMILES IDX 32 34 33 35 86 36 34 37 91 38 85 39 87 40 35 41 90 42 84 43
REMARK SMILES IDX 83 44 36 46 70 47 49 48 69 49 50 50 53 51 68 52 88 53 51 54
REMARK SMILES IDX 52 55 67 57 89 58 54 59 37 60 38 61 47 62 39 63 40 64 46 65
REMARK SMILES IDX 48 66 41 67 42 68 43 69 44 70 45 71 71 72 72 73 81 74 73 75
REMARK SMILES IDX 74 76 80 77 82 78 75 79 76 80 77 81 78 82 79 83 55 84 56 85
REMARK SMILES IDX 65 86 57 87 58 88 64 89 66 90 59 91 60 92 61 93 62 94 63 95
REMARK H PARENT 87 45 53 56
REMARK Flexibility Score: inf
ROOT
ATOM      1  O   UNL A   1      43.953  18.195  25.772  1.00  0.00    -0.376 OA
ENDROOT
BRANCH   1   2
ATOM      2  C   UNL A   1      42.979  18.592  26.707  1.00  0.00     0.188 C 
BRANCH   2   3
ATOM      3  C   UNL A   1      41.750  19.321  26.121  1.00  0.00     0.188 C 
BRANCH   3   4
ATOM      4  O   UNL A   1      41.706  20.739  26.003  1.00  0.00    -0.376 OA
BRANCH   4   5
ATOM      5  C   UNL A   1      41.419  21.521  27.145  1.00  0.00     0.202 C 
BRANCH   5   6
ATOM      6  C   UNL A   1      40.075  22.283  27.114  1.00  0.00     0.261 C 
BRANCH   6   7
ATOM      7  O   UNL A   1      38.952  21.622  26.482  1.00  0.00    -0.461 OA
BRANCH   7   8
ATOM      8  C   UNL A   1      38.182  22.463  25.742  1.00  0.00     0.335 C 
ATOM      9  O   UNL A   1      38.214  23.684  25.894  1.00  0.00    -0.249 OA
BRANCH   8  10
ATOM     10  C   UNL A   1      37.164  21.744  24.767  1.00  0.00     0.242 C 
ATOM     11  C   UNL A   1      36.265  23.317  22.761  1.00  0.00     0.043 C 
ATOM     12  C   UNL A   1      36.072  22.416  23.929  1.00  0.00    -0.025 C 
ATOM     13  C   UNL A   1      34.861  22.012  24.327  1.00  0.00     0.040 C 
ATOM     14  C   UNL A   1      33.445  22.166  23.930  1.00  0.00     0.165 C 
ATOM     15  C   UNL A   1      35.192  21.519  25.641  1.00  0.00     0.048 C 
ATOM     16  N   UNL A   1      36.347  20.950  25.772  1.00  0.00    -0.269 NA
ATOM     17  O   UNL A   1      33.104  22.150  22.752  1.00  0.00    -0.294 OA
ATOM     18  C   UNL A   1      32.448  22.237  25.086  1.00  0.00     0.088 C 
ATOM     19  C   UNL A   1      34.275  21.849  26.780  1.00  0.00     0.063 C 
ATOM     20  C   UNL A   1      33.134  22.821  26.345  1.00  0.00    -0.023 C 
ATOM     21  C   UNL A   1      33.605  24.268  26.025  1.00  0.00     0.012 C 
ATOM     22  C   UNL A   1      32.160  22.946  27.525  1.00  0.00     0.012 C 
ENDBRANCH   8  10
ENDBRANCH   7   8
ENDBRANCH   6   7
ENDBRANCH   5   6
ENDBRANCH   4   5
ENDBRANCH   3   4
ENDBRANCH   2   3
ENDBRANCH   1   2
BRANCH   1  23
ATOM     23  C   UNL A   1      44.282  18.934  24.616  1.00  0.00     0.202 C 
BRANCH  23  24
ATOM     24  C   UNL A   1      44.916  20.318  24.603  1.00  0.00     0.261 C 
BRANCH  24  25
ATOM     25  O   UNL A   1      44.180  21.345  23.974  1.00  0.00    -0.460 OA
BRANCH  25  26
ATOM     26  C   UNL A   1      44.698  22.561  24.211  1.00  0.00     0.338 C 
ATOM     27  O   UNL A   1      45.683  23.070  23.657  1.00  0.00    -0.246 OA
BRANCH  26  28
ATOM     28  C   UNL A   1      44.025  23.199  25.324  1.00  0.00     0.060 A 
ATOM     29  C   UNL A   1      43.061  24.155  24.999  1.00  0.00     0.016 A 
ATOM     30  C   UNL A   1      44.613  23.112  26.593  1.00  0.00     0.016 A 
ATOM     31  C   UNL A   1      42.847  25.179  25.883  1.00  0.00     0.010 A 
ATOM     32  C   UNL A   1      44.382  24.133  27.483  1.00  0.00     0.010 A 
ATOM     33  C   UNL A   1      43.583  25.203  27.073  1.00  0.00    -0.014 A 
BRANCH  33  34
ATOM     34  C   UNL A   1      43.436  26.376  27.917  1.00  0.00     0.031 A 
ATOM     35  C   UNL A   1      44.571  27.320  27.792  1.00  0.00     0.074 A 
ATOM     36  C   UNL A   1      42.305  26.582  28.620  1.00  0.00     0.049 A 
ATOM     37  N   UNL A   1      45.297  27.835  28.727  1.00  0.00    -0.248 NA
ATOM     38  C   UNL A   1      45.058  27.606  26.428  1.00  0.00     0.031 C 
ATOM     39  C   UNL A   1      41.088  25.759  28.561  1.00  0.00     0.029 A 
ATOM     40  N   UNL A   1      41.926  27.636  29.399  1.00  0.00    -0.354 N 
ATOM     41  C   UNL A   1      46.155  28.712  28.071  1.00  0.00     0.074 A 
ATOM     42  C   UNL A   1      46.114  28.377  26.675  1.00  0.00     0.031 C 
ATOM     43  C   UNL A   1      40.050  26.476  29.033  1.00  0.00     0.029 A 
ATOM     44  C   UNL A   1      40.545  27.753  29.518  1.00  0.00     0.049 A 
ATOM     45  H   UNL A   1      42.563  28.250  29.833  1.00  0.00     0.167 HD
ATOM     46  C   UNL A   1      46.544  29.868  28.669  1.00  0.00     0.037 A 
ATOM     47  C   UNL A   1      39.845  28.859  29.868  1.00  0.00     0.037 A 
ATOM     48  C   UNL A   1      46.424  29.785  30.100  1.00  0.00     0.049 A 
ATOM     49  C   UNL A   1      40.761  29.772  30.595  1.00  0.00     0.074 A 
ATOM     50  C   UNL A   1      47.079  29.127  31.115  1.00  0.00     0.029 A 
ATOM     51  N   UNL A   1      45.236  30.244  30.606  1.00  0.00    -0.354 N 
ATOM     52  N   UNL A   1      41.299  29.500  31.753  1.00  0.00    -0.248 NA
ATOM     53  C   UNL A   1      41.358  30.901  29.886  1.00  0.00     0.031 C 
ATOM     54  C   UNL A   1      46.156  29.047  32.198  1.00  0.00     0.029 A 
ATOM     55  C   UNL A   1      44.966  29.662  31.816  1.00  0.00     0.049 A 
ATOM     56  H   UNL A   1      44.656  30.904  30.161  1.00  0.00     0.167 HD
ATOM     57  C   UNL A   1      42.530  30.129  31.721  1.00  0.00     0.074 A 
ATOM     58  C   UNL A   1      42.433  31.109  30.651  1.00  0.00     0.031 C 
ATOM     59  C   UNL A   1      43.615  29.576  32.334  1.00  0.00     0.037 A 
BRANCH  46  60
ATOM     60  C   UNL A   1      46.508  31.208  27.955  1.00  0.00     0.058 A 
ATOM     61  C   UNL A   1      47.626  32.058  28.063  1.00  0.00     0.135 A 
ATOM     62  C   UNL A   1      45.324  31.816  27.475  1.00  0.00     0.135 A 
ATOM     63  F   UNL A   1      48.803  31.585  28.503  1.00  0.00    -0.206 F 
ATOM     64  C   UNL A   1      47.545  33.429  27.812  1.00  0.00     0.059 A 
ATOM     65  C   UNL A   1      45.238  33.167  27.169  1.00  0.00     0.059 A 
ATOM     66  F   UNL A   1      44.160  31.164  27.376  1.00  0.00    -0.206 F 
ATOM     67  C   UNL A   1      46.336  33.975  27.391  1.00  0.00     0.060 A 
BRANCH  67  68
ATOM     68  S   UNL A   1      46.177  35.758  27.207  1.00  0.00     0.124 S 
ATOM     69  O   UNL A   1      46.580  36.218  28.531  1.00  0.00    -0.237 OA
ATOM     70  O   UNL A   1      47.107  36.035  26.118  1.00  0.00    -0.237 OA
ATOM     71  O   UNL A   1      44.766  35.934  26.878  1.00  0.00    -0.744 OA
ENDBRANCH  67  68
ENDBRANCH  46  60
BRANCH  47  72
ATOM     72  C   UNL A   1      38.510  29.281  29.363  1.00  0.00     0.058 A 
ATOM     73  C   UNL A   1      37.436  29.498  30.244  1.00  0.00     0.135 A 
ATOM     74  C   UNL A   1      38.316  29.718  28.034  1.00  0.00     0.135 A 
ATOM     75  F   UNL A   1      37.540  29.144  31.534  1.00  0.00    -0.206 F 
ATOM     76  C   UNL A   1      36.260  30.140  29.842  1.00  0.00     0.059 A 
ATOM     77  C   UNL A   1      37.143  30.333  27.605  1.00  0.00     0.059 A 
ATOM     78  F   UNL A   1      39.296  29.643  27.122  1.00  0.00    -0.206 F 
ATOM     79  C   UNL A   1      36.127  30.566  28.522  1.00  0.00     0.060 A 
BRANCH  79  80
ATOM     80  S   UNL A   1      34.680  31.530  28.034  1.00  0.00     0.124 S 
ATOM     81  O   UNL A   1      33.913  30.555  27.266  1.00  0.00    -0.237 OA
ATOM     82  O   UNL A   1      34.117  31.913  29.324  1.00  0.00    -0.237 OA
ATOM     83  O   UNL A   1      35.250  32.626  27.255  1.00  0.00    -0.744 OA
ENDBRANCH  79  80
ENDBRANCH  47  72
BRANCH  59  84
ATOM     84  C   UNL A   1      43.367  28.680  33.510  1.00  0.00     0.058 A 
ATOM     85  C   UNL A   1      43.286  27.279  33.451  1.00  0.00     0.135 A 
ATOM     86  C   UNL A   1      43.286  29.279  34.777  1.00  0.00     0.135 A 
ATOM     87  F   UNL A   1      43.446  26.627  32.290  1.00  0.00    -0.206 F 
ATOM     88  C   UNL A   1      43.086  26.513  34.601  1.00  0.00     0.059 A 
ATOM     89  C   UNL A   1      43.119  28.533  35.938  1.00  0.00     0.059 A 
ATOM     90  F   UNL A   1      43.410  30.611  34.901  1.00  0.00    -0.206 F 
ATOM     91  C   UNL A   1      43.002  27.149  35.840  1.00  0.00     0.060 A 
BRANCH  91  92
ATOM     92  S   UNL A   1      42.808  26.152  37.332  1.00  0.00     0.124 S 
ATOM     93  O   UNL A   1      43.207  24.828  36.870  1.00  0.00    -0.237 OA
ATOM     94  O   UNL A   1      43.724  26.800  38.269  1.00  0.00    -0.237 OA
ATOM     95  O   UNL A   1      41.393  26.300  37.660  1.00  0.00    -0.744 OA
ENDBRANCH  91  92
ENDBRANCH  59  84
ENDBRANCH  33  34
ENDBRANCH  26  28
ENDBRANCH  25  26
ENDBRANCH  24  25
ENDBRANCH  23  24
ENDBRANCH   1  23
TORSDOF 20
ENDMDL
MODEL 3
REMARK VINA RESULT:     -10.9      2.843      9.563
REMARK SMILES CC1=C2C(=O)CC(C)(C)CC2=N[C@@H]1C(=O)OCCOCCOCCOC(=O)c1ccc(-c2c3nc(c(-c4c(F)cc(S(=O)(=O)[O-])cc4F)c4ccc([nH]4)c(-c4c(F)cc(S(=O)(=O)[O-])cc4F)c4nc(c(-c5c(F)cc(S(=O)(=O)[O-])cc5F)c5ccc2[nH]5)C=C4)C=C3)cc1
REMARK SMILES IDX 22 1 21 2 20 3 19 4 18 5 17 6 16 7 14 8 15 9 13 10 1 11 2 12
REMARK SMILES IDX 3 13 4 14 11 15 12 16 5 17 6 18 10 19 7 20 8 21 9 22 23 23
REMARK SMILES IDX 24 24 25 25 26 26 27 27 28 28 29 29 93 30 30 31 92 32 31 33
REMARK SMILES IDX 32 34 33 35 86 36 34 37 91 38 85 39 87 40 35 41 90 42 84 43
REMARK SMILES IDX 83 44 36 46 70 47 49 48 69 49 50 50 53 51 68 52 88 53 51 54
REMARK SMILES IDX 52 55 67 57 89 58 54 59 37 60 38 61 47 62 39 63 40 64 46 65
REMARK SMILES IDX 48 66 41 67 42 68 43 69 44 70 45 71 71 72 72 73 81 74 73 75
REMARK SMILES IDX 74 76 80 77 82 78 75 79 76 80 77 81 78 82 79 83 55 84 56 85
REMARK SMILES IDX 65 86 57 87 58 88 64 89 66 90 59 91 60 92 61 93 62 94 63 95
REMARK H PARENT 87 45 53 56
REMARK Flexibility Score: inf
ROOT
ATOM      1  O   UNL A   1      41.966  19.694  27.584  1.00  0.00    -0.376 OA
ENDROOT
BRANCH   1   2
ATOM      2  C   UNL A   1      41.160  20.844  27.500  1.00  0.00     0.188 C 
BRANCH   2   3
ATOM      3  C   UNL A   1      40.410  21.038  26.164  1.00  0.00     0.188 C 
BRANCH   3   4
ATOM      4  O   UNL A   1      38.991  20.949  26.083  1.00  0.00    -0.376 OA
BRANCH   4   5
ATOM      5  C   UNL A   1      38.244  22.096  25.734  1.00  0.00     0.202 C 
BRANCH   5   6
ATOM      6  C   UNL A   1      37.364  21.966  24.471  1.00  0.00     0.261 C 
BRANCH   6   7
ATOM      7  O   UNL A   1      36.868  23.190  23.879  1.00  0.00    -0.461 OA
BRANCH   7   8
ATOM      8  C   UNL A   1      35.512  23.225  23.775  1.00  0.00     0.335 C 
ATOM      9  O   UNL A   1      34.942  23.350  22.691  1.00  0.00    -0.249 OA
BRANCH   8  10
ATOM     10  C   UNL A   1      34.741  23.217  25.156  1.00  0.00     0.242 C 
ATOM     11  C   UNL A   1      32.323  22.014  25.060  1.00  0.00     0.043 C 
ATOM     12  C   UNL A   1      33.224  23.160  25.355  1.00  0.00    -0.025 C 
ATOM     13  C   UNL A   1      32.786  24.280  25.939  1.00  0.00     0.040 C 
ATOM     14  C   UNL A   1      31.530  24.839  26.486  1.00  0.00     0.165 C 
ATOM     15  C   UNL A   1      33.897  25.153  25.650  1.00  0.00     0.048 C 
ATOM     16  N   UNL A   1      35.074  24.613  25.656  1.00  0.00    -0.269 NA
ATOM     17  O   UNL A   1      30.753  24.151  27.138  1.00  0.00    -0.294 OA
ATOM     18  C   UNL A   1      31.335  26.339  26.267  1.00  0.00     0.088 C 
ATOM     19  C   UNL A   1      33.609  26.552  25.197  1.00  0.00     0.063 C 
ATOM     20  C   UNL A   1      32.081  26.792  24.988  1.00  0.00    -0.023 C 
ATOM     21  C   UNL A   1      31.470  26.044  23.769  1.00  0.00     0.012 C 
ATOM     22  C   UNL A   1      31.883  28.288  24.707  1.00  0.00     0.012 C 
ENDBRANCH   8  10
ENDBRANCH   7   8
ENDBRANCH   6   7
ENDBRANCH   5   6
ENDBRANCH   4   5
ENDBRANCH   3   4
ENDBRANCH   2   3
ENDBRANCH   1   2
BRANCH   1  23
ATOM     23  C   UNL A   1      42.192  18.810  26.508  1.00  0.00     0.202 C 
BRANCH  23  24
ATOM     24  C   UNL A   1      43.343  18.901  25.516  1.00  0.00     0.261 C 
BRANCH  24  25
ATOM     25  O   UNL A   1      43.396  20.062  24.714  1.00  0.00    -0.460 OA
BRANCH  25  26
ATOM     26  C   UNL A   1      44.645  20.342  24.307  1.00  0.00     0.338 C 
ATOM     27  O   UNL A   1      45.471  19.544  23.840  1.00  0.00    -0.246 OA
BRANCH  26  28
ATOM     28  C   UNL A   1      44.985  21.719  24.598  1.00  0.00     0.060 A 
ATOM     29  C   UNL A   1      46.019  21.922  25.514  1.00  0.00     0.016 A 
ATOM     30  C   UNL A   1      44.060  22.717  24.262  1.00  0.00     0.016 A 
ATOM     31  C   UNL A   1      45.992  23.062  26.273  1.00  0.00     0.010 A 
ATOM     32  C   UNL A   1      44.048  23.866  25.014  1.00  0.00     0.010 A 
ATOM     33  C   UNL A   1      44.949  23.974  26.076  1.00  0.00    -0.014 A 
BRANCH  33  34
ATOM     34  C   UNL A   1      44.872  25.096  26.994  1.00  0.00     0.031 A 
ATOM     35  C   UNL A   1      46.008  26.036  26.851  1.00  0.00     0.074 A 
ATOM     36  C   UNL A   1      43.791  25.271  27.781  1.00  0.00     0.049 A 
ATOM     37  N   UNL A   1      46.799  26.489  27.765  1.00  0.00    -0.248 NA
ATOM     38  C   UNL A   1      46.409  26.398  25.477  1.00  0.00     0.031 C 
ATOM     39  C   UNL A   1      42.563  24.463  27.753  1.00  0.00     0.029 A 
ATOM     40  N   UNL A   1      43.477  26.281  28.643  1.00  0.00    -0.354 N 
ATOM     41  C   UNL A   1      47.624  27.396  27.106  1.00  0.00     0.074 A 
ATOM     42  C   UNL A   1      47.489  27.144  25.699  1.00  0.00     0.031 C 
ATOM     43  C   UNL A   1      41.566  25.160  28.333  1.00  0.00     0.029 A 
ATOM     44  C   UNL A   1      42.108  26.402  28.858  1.00  0.00     0.049 A 
ATOM     45  H   UNL A   1      44.148  26.862  29.069  1.00  0.00     0.167 HD
ATOM     46  C   UNL A   1      48.065  28.512  27.743  1.00  0.00     0.037 A 
ATOM     47  C   UNL A   1      41.445  27.491  29.317  1.00  0.00     0.037 A 
ATOM     48  C   UNL A   1      48.037  28.346  29.172  1.00  0.00     0.049 A 
ATOM     49  C   UNL A   1      42.418  28.353  30.034  1.00  0.00     0.074 A 
ATOM     50  C   UNL A   1      48.748  27.623  30.103  1.00  0.00     0.029 A 
ATOM     51  N   UNL A   1      46.890  28.784  29.781  1.00  0.00    -0.354 N 
ATOM     52  N   UNL A   1      43.027  28.009  31.137  1.00  0.00    -0.248 NA
ATOM     53  C   UNL A   1      42.982  29.516  29.355  1.00  0.00     0.031 C 
ATOM     54  C   UNL A   1      47.896  27.488  31.237  1.00  0.00     0.029 A 
ATOM     55  C   UNL A   1      46.691  28.135  30.970  1.00  0.00     0.049 A 
ATOM     56  H   UNL A   1      46.291  29.474  29.413  1.00  0.00     0.167 HD
ATOM     57  C   UNL A   1      44.261  28.628  31.062  1.00  0.00     0.074 A 
ATOM     58  C   UNL A   1      44.107  29.669  30.059  1.00  0.00     0.031 C 
ATOM     59  C   UNL A   1      45.376  28.030  31.569  1.00  0.00     0.037 A 
BRANCH  46  60
ATOM     60  C   UNL A   1      48.000  29.891  27.113  1.00  0.00     0.058 A 
ATOM     61  C   UNL A   1      49.116  30.741  27.237  1.00  0.00     0.135 A 
ATOM     62  C   UNL A   1      46.798  30.519  26.707  1.00  0.00     0.135 A 
ATOM     63  F   UNL A   1      50.309  30.251  27.610  1.00  0.00    -0.206 F 
ATOM     64  C   UNL A   1      49.020  32.124  27.070  1.00  0.00     0.059 A 
ATOM     65  C   UNL A   1      46.695  31.885  26.485  1.00  0.00     0.059 A 
ATOM     66  F   UNL A   1      45.635  29.865  26.606  1.00  0.00    -0.206 F 
ATOM     67  C   UNL A   1      47.796  32.686  26.721  1.00  0.00     0.060 A 
BRANCH  67  68
ATOM     68  S   UNL A   1      47.622  34.476  26.649  1.00  0.00     0.124 S 
ATOM     69  O   UNL A   1      48.958  34.908  27.044  1.00  0.00    -0.237 OA
ATOM     70  O   UNL A   1      47.262  34.690  25.251  1.00  0.00    -0.237 OA
ATOM     71  O   UNL A   1      46.559  34.745  27.612  1.00  0.00    -0.744 OA
ENDBRANCH  67  68
ENDBRANCH  46  60
BRANCH  47  72
ATOM     72  C   UNL A   1      40.087  27.955  28.926  1.00  0.00     0.058 A 
ATOM     73  C   UNL A   1      39.013  27.903  29.832  1.00  0.00     0.135 A 
ATOM     74  C   UNL A   1      39.856  28.682  27.738  1.00  0.00     0.135 A 
ATOM     75  F   UNL A   1      39.148  27.260  31.002  1.00  0.00    -0.206 F 
ATOM     76  C   UNL A   1      37.802  28.562  29.593  1.00  0.00     0.059 A 
ATOM     77  C   UNL A   1      38.650  29.322  27.466  1.00  0.00     0.059 A 
ATOM     78  F   UNL A   1      40.829  28.873  26.834  1.00  0.00    -0.206 F 
ATOM     79  C   UNL A   1      37.635  29.281  28.410  1.00  0.00     0.060 A 
BRANCH  79  80
ATOM     80  S   UNL A   1      36.137  30.260  28.164  1.00  0.00     0.124 S 
ATOM     81  O   UNL A   1      36.677  31.510  27.642  1.00  0.00    -0.237 OA
ATOM     82  O   UNL A   1      35.387  29.442  27.218  1.00  0.00    -0.237 OA
ATOM     83  O   UNL A   1      35.562  30.342  29.504  1.00  0.00    -0.744 OA
ENDBRANCH  79  80
ENDBRANCH  47  72
BRANCH  59  84
ATOM     84  C   UNL A   1      45.194  27.069  32.705  1.00  0.00     0.058 A 
ATOM     85  C   UNL A   1      45.070  27.434  34.055  1.00  0.00     0.135 A 
ATOM     86  C   UNL A   1      45.061  25.707  32.389  1.00  0.00     0.135 A 
ATOM     87  F   UNL A   1      45.093  28.723  34.426  1.00  0.00    -0.206 F 
ATOM     88  C   UNL A   1      44.868  26.478  35.052  1.00  0.00     0.059 A 
ATOM     89  C   UNL A   1      44.827  24.742  33.362  1.00  0.00     0.059 A 
ATOM     90  F   UNL A   1      45.118  25.304  31.109  1.00  0.00    -0.206 F 
ATOM     91  C   UNL A   1      44.749  25.134  34.696  1.00  0.00     0.060 A 
BRANCH  91  92
ATOM     92  S   UNL A   1      44.424  23.907  35.979  1.00  0.00     0.124 S 
ATOM     93  O   UNL A   1      45.407  24.258  36.997  1.00  0.00    -0.237 OA
ATOM     94  O   UNL A   1      43.029  24.171  36.325  1.00  0.00    -0.237 OA
ATOM     95  O   UNL A   1      44.655  22.634  35.300  1.00  0.00    -0.744 OA
ENDBRANCH  91  92
ENDBRANCH  59  84
ENDBRANCH  33  34
ENDBRANCH  26  28
ENDBRANCH  25  26
ENDBRANCH  24  25
ENDBRANCH  23  24
ENDBRANCH   1  23
TORSDOF 20
ENDMDL
