MODEL 1
REMARK VINA RESULT:     -10.4      0.000      0.000
REMARK SMILES C[C@@H](NC(=O)CNC(=O)N1CC(=O)Nc2ccccc21)C(=O)OCCOCCOCCOC(=O)c1ccc(-c2c3nc(c(-c4c(F)cc(S(=O)(=O)[O-])cc4F)c4ccc([nH]4)c(-c4c(F)cc(S(=O)(=O)[O-])cc4F)c4nc(c(-c5c(F)cc(S(=O)(=O)[O-])cc5F)c5ccc2[nH]5)C=C4)C=C3)cc1
REMARK SMILES IDX 27 1 26 2 25 3 24 4 23 5 21 6 22 7 2 8 1 9 3 10 4 11 5 13
REMARK SMILES IDX 6 14 7 15 8 16 9 18 10 19 11 20 20 21 12 22 15 23 19 24
REMARK SMILES IDX 13 25 14 26 16 27 18 28 17 30 28 31 29 32 30 33 31 34 32 35
REMARK SMILES IDX 33 36 34 37 35 38 36 39 100 40 37 41 99 42 38 43 39 44 40 45
REMARK SMILES IDX 93 46 41 47 98 48 92 49 94 50 42 51 97 52 91 53 90 54 43 56
REMARK SMILES IDX 77 57 56 58 76 59 57 60 60 61 75 62 95 63 58 64 59 65 74 67
REMARK SMILES IDX 96 68 61 69 44 70 45 71 54 72 46 73 47 74 53 75 55 76 48 77
REMARK SMILES IDX 49 78 50 79 51 80 52 81 78 82 79 83 88 84 80 85 81 86 87 87
REMARK SMILES IDX 89 88 82 89 83 90 84 91 85 92 86 93 62 94 63 95 72 96 64 97
REMARK SMILES IDX 65 98 71 99 73 100 66 101 67 102 68 103 69 104 70 105
REMARK H PARENT 3 12 7 17 14 29 94 55 60 66
REMARK Flexibility Score: inf
ROOT
ATOM      1  C   UNL A   1      35.250  22.682  23.396  1.00  0.00     0.188 C 
ENDROOT
BRANCH   1   2
ATOM      2  O   UNL A   1      34.485  23.524  24.296  1.00  0.00    -0.376 OA
BRANCH   2   3
ATOM      3  C   UNL A   1      33.138  23.832  23.863  1.00  0.00     0.202 C 
BRANCH   3   4
ATOM      4  C   UNL A   1      32.952  24.294  22.333  1.00  0.00     0.261 C 
BRANCH   4   5
ATOM      5  O   UNL A   1      32.542  25.726  22.169  1.00  0.00    -0.462 OA
BRANCH   5   6
ATOM      6  C   UNL A   1      31.707  26.598  22.815  1.00  0.00     0.328 C 
ATOM      7  O   UNL A   1      30.648  26.272  23.332  1.00  0.00    -0.250 OA
BRANCH   6   8
ATOM      8  C   UNL A   1      32.249  28.094  22.792  1.00  0.00     0.189 C 
ATOM      9  C   UNL A   1      33.709  28.539  22.584  1.00  0.00     0.043 C 
BRANCH   8  10
ATOM     10  N   UNL A   1      31.378  28.843  21.909  1.00  0.00    -0.341 N 
ATOM     11  C   UNL A   1      30.294  29.578  22.260  1.00  0.00     0.240 C 
ATOM     12  H   UNL A   1      31.596  28.814  20.949  1.00  0.00     0.164 HD
ATOM     13  O   UNL A   1      29.802  30.291  21.376  1.00  0.00    -0.273 OA
BRANCH  11  14
ATOM     14  C   UNL A   1      29.829  29.720  23.732  1.00  0.00     0.218 C 
BRANCH  14  15
ATOM     15  N   UNL A   1      30.414  30.642  24.791  1.00  0.00    -0.329 N 
ATOM     16  C   UNL A   1      31.212  31.070  25.766  1.00  0.00     0.322 C 
ATOM     17  H   UNL A   1      29.822  31.422  24.692  1.00  0.00     0.165 HD
ATOM     18  O   UNL A   1      30.993  32.298  25.856  1.00  0.00    -0.248 OA
BRANCH  16  19
ATOM     19  N   UNL A   1      32.115  30.511  26.626  1.00  0.00    -0.283 N 
ATOM     20  C   UNL A   1      33.136  30.887  27.670  1.00  0.00     0.227 C 
ATOM     21  C   UNL A   1      32.371  29.089  26.425  1.00  0.00     0.070 A 
ATOM     22  C   UNL A   1      34.570  30.713  27.160  1.00  0.00     0.244 C 
ATOM     23  C   UNL A   1      33.709  28.646  26.318  1.00  0.00     0.065 A 
ATOM     24  C   UNL A   1      31.347  28.152  26.499  1.00  0.00     0.028 A 
ATOM     25  O   UNL A   1      35.523  31.389  27.533  1.00  0.00    -0.273 OA
ATOM     26  N   UNL A   1      34.764  29.555  26.451  1.00  0.00    -0.323 N 
ATOM     27  C   UNL A   1      34.008  27.299  26.202  1.00  0.00     0.028 A 
ATOM     28  C   UNL A   1      31.665  26.795  26.490  1.00  0.00     0.002 A 
ATOM     29  H   UNL A   1      35.638  29.364  26.039  1.00  0.00     0.170 HD
ATOM     30  C   UNL A   1      32.981  26.370  26.302  1.00  0.00     0.002 A 
ENDBRANCH  16  19
ENDBRANCH  14  15
ENDBRANCH  11  14
ENDBRANCH   8  10
ENDBRANCH   6   8
ENDBRANCH   5   6
ENDBRANCH   4   5
ENDBRANCH   3   4
ENDBRANCH   2   3
ENDBRANCH   1   2
BRANCH   1  31
ATOM     31  C   UNL A   1      36.754  22.576  23.786  1.00  0.00     0.188 C 
BRANCH  31  32
ATOM     32  O   UNL A   1      37.014  22.107  25.116  1.00  0.00    -0.376 OA
BRANCH  32  33
ATOM     33  C   UNL A   1      38.307  21.561  25.376  1.00  0.00     0.202 C 
BRANCH  33  34
ATOM     34  C   UNL A   1      39.101  22.186  26.537  1.00  0.00     0.261 C 
BRANCH  34  35
ATOM     35  O   UNL A   1      39.484  23.561  26.329  1.00  0.00    -0.460 OA
BRANCH  35  36
ATOM     36  C   UNL A   1      40.660  23.922  26.905  1.00  0.00     0.338 C 
ATOM     37  O   UNL A   1      41.696  23.260  26.920  1.00  0.00    -0.246 OA
BRANCH  36  38
ATOM     38  C   UNL A   1      40.557  25.211  27.626  1.00  0.00     0.060 A 
ATOM     39  C   UNL A   1      41.603  26.137  27.523  1.00  0.00     0.016 A 
ATOM     40  C   UNL A   1      39.511  25.450  28.522  1.00  0.00     0.016 A 
ATOM     41  C   UNL A   1      41.623  27.287  28.326  1.00  0.00     0.010 A 
ATOM     42  C   UNL A   1      39.523  26.612  29.309  1.00  0.00     0.010 A 
ATOM     43  C   UNL A   1      40.594  27.527  29.246  1.00  0.00    -0.014 A 
BRANCH  43  44
ATOM     44  C   UNL A   1      40.655  28.625  30.258  1.00  0.00     0.031 A 
ATOM     45  C   UNL A   1      41.526  28.438  31.469  1.00  0.00     0.074 A 
ATOM     46  C   UNL A   1      39.911  29.744  30.174  1.00  0.00     0.049 A 
ATOM     47  N   UNL A   1      41.554  29.114  32.587  1.00  0.00    -0.248 NA
ATOM     48  C   UNL A   1      42.503  27.341  31.397  1.00  0.00     0.031 C 
ATOM     49  C   UNL A   1      39.123  30.155  29.022  1.00  0.00     0.029 A 
ATOM     50  N   UNL A   1      39.649  30.715  31.116  1.00  0.00    -0.354 N 
ATOM     51  C   UNL A   1      42.551  28.527  33.355  1.00  0.00     0.074 A 
ATOM     52  C   UNL A   1      43.069  27.409  32.592  1.00  0.00     0.031 C 
ATOM     53  C   UNL A   1      38.358  31.207  29.361  1.00  0.00     0.029 A 
ATOM     54  C   UNL A   1      38.614  31.549  30.758  1.00  0.00     0.049 A 
ATOM     55  H   UNL A   1      40.149  30.802  31.959  1.00  0.00     0.167 HD
ATOM     56  C   UNL A   1      43.013  28.896  34.574  1.00  0.00     0.037 A 
ATOM     57  C   UNL A   1      37.923  32.456  31.476  1.00  0.00     0.037 A 
ATOM     58  C   UNL A   1      42.518  30.013  35.331  1.00  0.00     0.049 A 
ATOM     59  C   UNL A   1      38.348  32.778  32.881  1.00  0.00     0.074 A 
ATOM     60  C   UNL A   1      42.947  30.479  36.561  1.00  0.00     0.029 A 
ATOM     61  N   UNL A   1      41.476  30.837  34.933  1.00  0.00    -0.354 N 
ATOM     62  N   UNL A   1      39.303  32.231  33.592  1.00  0.00    -0.248 NA
ATOM     63  C   UNL A   1      37.635  33.866  33.567  1.00  0.00     0.031 C 
ATOM     64  C   UNL A   1      42.142  31.567  36.922  1.00  0.00     0.029 A 
ATOM     65  C   UNL A   1      41.235  31.797  35.901  1.00  0.00     0.049 A 
ATOM     66  H   UNL A   1      40.982  30.751  34.086  1.00  0.00     0.167 HD
ATOM     67  C   UNL A   1      39.354  32.953  34.780  1.00  0.00     0.074 A 
ATOM     68  C   UNL A   1      38.308  33.953  34.708  1.00  0.00     0.031 C 
ATOM     69  C   UNL A   1      40.213  32.812  35.817  1.00  0.00     0.037 A 
BRANCH  56  70
ATOM     70  C   UNL A   1      44.102  28.046  35.159  1.00  0.00     0.058 A 
ATOM     71  C   UNL A   1      43.824  26.807  35.760  1.00  0.00     0.135 A 
ATOM     72  C   UNL A   1      45.426  28.507  35.179  1.00  0.00     0.135 A 
ATOM     73  F   UNL A   1      42.568  26.333  35.781  1.00  0.00    -0.206 F 
ATOM     74  C   UNL A   1      44.813  26.083  36.416  1.00  0.00     0.059 A 
ATOM     75  C   UNL A   1      46.436  27.788  35.808  1.00  0.00     0.059 A 
ATOM     76  F   UNL A   1      45.741  29.684  34.615  1.00  0.00    -0.206 F 
ATOM     77  C   UNL A   1      46.112  26.594  36.452  1.00  0.00     0.060 A 
BRANCH  77  78
ATOM     78  S   UNL A   1      47.373  25.698  37.380  1.00  0.00     0.124 S 
ATOM     79  O   UNL A   1      48.597  26.223  36.782  1.00  0.00    -0.237 OA
ATOM     80  O   UNL A   1      47.113  26.112  38.755  1.00  0.00    -0.237 OA
ATOM     81  O   UNL A   1      47.079  24.300  37.085  1.00  0.00    -0.744 OA
ENDBRANCH  77  78
ENDBRANCH  56  70
BRANCH  57  82
ATOM     82  C   UNL A   1      36.743  33.127  30.871  1.00  0.00     0.058 A 
ATOM     83  C   UNL A   1      36.893  34.153  29.930  1.00  0.00     0.135 A 
ATOM     84  C   UNL A   1      35.439  32.739  31.217  1.00  0.00     0.135 A 
ATOM     85  F   UNL A   1      38.121  34.562  29.576  1.00  0.00    -0.206 F 
ATOM     86  C   UNL A   1      35.792  34.778  29.355  1.00  0.00     0.059 A 
ATOM     87  C   UNL A   1      34.322  33.341  30.648  1.00  0.00     0.059 A 
ATOM     88  F   UNL A   1      35.244  31.750  32.105  1.00  0.00    -0.206 F 
ATOM     89  C   UNL A   1      34.510  34.364  29.718  1.00  0.00     0.060 A 
BRANCH  89  90
ATOM     90  S   UNL A   1      33.091  35.145  28.919  1.00  0.00     0.124 S 
ATOM     91  O   UNL A   1      32.653  34.097  28.006  1.00  0.00    -0.237 OA
ATOM     92  O   UNL A   1      32.214  35.413  30.055  1.00  0.00    -0.237 OA
ATOM     93  O   UNL A   1      33.672  36.329  28.291  1.00  0.00    -0.744 OA
ENDBRANCH  89  90
ENDBRANCH  57  82
BRANCH  69  94
ATOM     94  C   UNL A   1      40.126  33.802  36.942  1.00  0.00     0.058 A 
ATOM     95  C   UNL A   1      40.832  35.013  36.923  1.00  0.00     0.135 A 
ATOM     96  C   UNL A   1      39.246  33.570  38.013  1.00  0.00     0.135 A 
ATOM     97  F   UNL A   1      41.694  35.276  35.928  1.00  0.00    -0.206 F 
ATOM     98  C   UNL A   1      40.666  35.966  37.924  1.00  0.00     0.059 A 
ATOM     99  C   UNL A   1      39.051  34.515  39.016  1.00  0.00     0.059 A 
ATOM    100  F   UNL A   1      38.545  32.427  38.077  1.00  0.00    -0.206 F 
ATOM    101  C   UNL A   1      39.766  35.711  38.962  1.00  0.00     0.060 A 
BRANCH 101 102
ATOM    102  S   UNL A   1      39.492  36.988  40.211  1.00  0.00     0.124 S 
ATOM    103  O   UNL A   1      38.478  36.363  41.053  1.00  0.00    -0.237 OA
ATOM    104  O   UNL A   1      40.815  37.129  40.811  1.00  0.00    -0.237 OA
ATOM    105  O   UNL A   1      39.041  38.135  39.428  1.00  0.00    -0.744 OA
ENDBRANCH 101 102
ENDBRANCH  69  94
ENDBRANCH  43  44
ENDBRANCH  36  38
ENDBRANCH  35  36
ENDBRANCH  34  35
ENDBRANCH  33  34
ENDBRANCH  32  33
ENDBRANCH  31  32
ENDBRANCH   1  31
TORSDOF 24
ENDMDL
MODEL 2
REMARK VINA RESULT:     -10.2      1.618      8.428
REMARK SMILES C[C@@H](NC(=O)CNC(=O)N1CC(=O)Nc2ccccc21)C(=O)OCCOCCOCCOC(=O)c1ccc(-c2c3nc(c(-c4c(F)cc(S(=O)(=O)[O-])cc4F)c4ccc([nH]4)c(-c4c(F)cc(S(=O)(=O)[O-])cc4F)c4nc(c(-c5c(F)cc(S(=O)(=O)[O-])cc5F)c5ccc2[nH]5)C=C4)C=C3)cc1
REMARK SMILES IDX 27 1 26 2 25 3 24 4 23 5 21 6 22 7 2 8 1 9 3 10 4 11 5 13
REMARK SMILES IDX 6 14 7 15 8 16 9 18 10 19 11 20 20 21 12 22 15 23 19 24
REMARK SMILES IDX 13 25 14 26 16 27 18 28 17 30 28 31 29 32 30 33 31 34 32 35
REMARK SMILES IDX 33 36 34 37 35 38 36 39 100 40 37 41 99 42 38 43 39 44 40 45
REMARK SMILES IDX 93 46 41 47 98 48 92 49 94 50 42 51 97 52 91 53 90 54 43 56
REMARK SMILES IDX 77 57 56 58 76 59 57 60 60 61 75 62 95 63 58 64 59 65 74 67
REMARK SMILES IDX 96 68 61 69 44 70 45 71 54 72 46 73 47 74 53 75 55 76 48 77
REMARK SMILES IDX 49 78 50 79 51 80 52 81 78 82 79 83 88 84 80 85 81 86 87 87
REMARK SMILES IDX 89 88 82 89 83 90 84 91 85 92 86 93 62 94 63 95 72 96 64 97
REMARK SMILES IDX 65 98 71 99 73 100 66 101 67 102 68 103 69 104 70 105
REMARK H PARENT 3 12 7 17 14 29 94 55 60 66
REMARK Flexibility Score: inf
ROOT
ATOM      1  C   UNL A   1      39.082  22.625  26.561  1.00  0.00     0.188 C 
ENDROOT
BRANCH   1   2
ATOM      2  O   UNL A   1      38.421  22.321  25.306  1.00  0.00    -0.376 OA
BRANCH   2   3
ATOM      3  C   UNL A   1      36.975  22.369  25.338  1.00  0.00     0.202 C 
BRANCH   3   4
ATOM      4  C   UNL A   1      36.260  23.448  24.381  1.00  0.00     0.261 C 
BRANCH   4   5
ATOM      5  O   UNL A   1      34.981  24.002  24.929  1.00  0.00    -0.462 OA
BRANCH   5   6
ATOM      6  C   UNL A   1      33.888  23.507  25.588  1.00  0.00     0.328 C 
ATOM      7  O   UNL A   1      33.894  23.171  26.764  1.00  0.00    -0.250 OA
BRANCH   6   8
ATOM      8  C   UNL A   1      32.610  23.384  24.647  1.00  0.00     0.189 C 
ATOM      9  C   UNL A   1      32.607  23.079  23.137  1.00  0.00     0.043 C 
BRANCH   8  10
ATOM     10  N   UNL A   1      31.671  22.514  25.325  1.00  0.00    -0.341 N 
ATOM     11  C   UNL A   1      30.617  22.888  26.092  1.00  0.00     0.240 C 
ATOM     12  H   UNL A   1      31.814  21.546  25.218  1.00  0.00     0.164 HD
ATOM     13  O   UNL A   1      29.830  21.991  26.422  1.00  0.00    -0.273 OA
BRANCH  11  14
ATOM     14  C   UNL A   1      30.264  24.375  26.350  1.00  0.00     0.218 C 
BRANCH  14  15
ATOM     15  N   UNL A   1      29.883  25.419  25.310  1.00  0.00    -0.329 N 
ATOM     16  C   UNL A   1      30.024  26.324  24.346  1.00  0.00     0.322 C 
ATOM     17  H   UNL A   1      28.906  25.432  25.424  1.00  0.00     0.165 HD
ATOM     18  O   UNL A   1      28.871  26.512  23.899  1.00  0.00    -0.248 OA
BRANCH  16  19
ATOM     19  N   UNL A   1      31.052  27.045  23.803  1.00  0.00    -0.283 N 
ATOM     20  C   UNL A   1      31.800  27.236  22.509  1.00  0.00     0.227 C 
ATOM     21  C   UNL A   1      31.868  27.783  24.759  1.00  0.00     0.070 A 
ATOM     22  C   UNL A   1      33.196  26.605  22.554  1.00  0.00     0.244 C 
ATOM     23  C   UNL A   1      33.274  27.638  24.710  1.00  0.00     0.065 A 
ATOM     24  C   UNL A   1      31.312  28.741  25.600  1.00  0.00     0.028 A 
ATOM     25  O   UNL A   1      33.781  26.151  21.576  1.00  0.00    -0.273 OA
ATOM     26  N   UNL A   1      33.864  26.834  23.730  1.00  0.00    -0.323 N 
ATOM     27  C   UNL A   1      34.097  28.374  25.546  1.00  0.00     0.028 A 
ATOM     28  C   UNL A   1      32.153  29.553  26.357  1.00  0.00     0.002 A 
ATOM     29  H   UNL A   1      34.751  26.435  23.883  1.00  0.00     0.170 HD
ATOM     30  C   UNL A   1      33.534  29.345  26.363  1.00  0.00     0.002 A 
ENDBRANCH  16  19
ENDBRANCH  14  15
ENDBRANCH  11  14
ENDBRANCH   8  10
ENDBRANCH   6   8
ENDBRANCH   5   6
ENDBRANCH   4   5
ENDBRANCH   3   4
ENDBRANCH   2   3
ENDBRANCH   1   2
BRANCH   1  31
ATOM     31  C   UNL A   1      40.404  21.826  26.765  1.00  0.00     0.188 C 
BRANCH  31  32
ATOM     32  O   UNL A   1      41.333  21.881  25.673  1.00  0.00    -0.376 OA
BRANCH  32  33
ATOM     33  C   UNL A   1      42.719  21.989  25.998  1.00  0.00     0.202 C 
BRANCH  33  34
ATOM     34  C   UNL A   1      43.401  23.330  25.681  1.00  0.00     0.261 C 
BRANCH  34  35
ATOM     35  O   UNL A   1      43.121  24.384  26.626  1.00  0.00    -0.460 OA
BRANCH  35  36
ATOM     36  C   UNL A   1      42.467  25.457  26.110  1.00  0.00     0.338 C 
ATOM     37  O   UNL A   1      42.360  25.740  24.919  1.00  0.00    -0.246 OA
BRANCH  36  38
ATOM     38  C   UNL A   1      41.938  26.349  27.167  1.00  0.00     0.060 A 
ATOM     39  C   UNL A   1      42.617  27.538  27.460  1.00  0.00     0.016 A 
ATOM     40  C   UNL A   1      40.867  25.950  27.973  1.00  0.00     0.016 A 
ATOM     41  C   UNL A   1      42.250  28.318  28.567  1.00  0.00     0.010 A 
ATOM     42  C   UNL A   1      40.488  26.744  29.066  1.00  0.00     0.010 A 
ATOM     43  C   UNL A   1      41.195  27.919  29.398  1.00  0.00    -0.014 A 
BRANCH  43  44
ATOM     44  C   UNL A   1      40.883  28.598  30.691  1.00  0.00     0.031 A 
ATOM     45  C   UNL A   1      39.839  29.680  30.700  1.00  0.00     0.074 A 
ATOM     46  C   UNL A   1      41.543  28.338  31.836  1.00  0.00     0.049 A 
ATOM     47  N   UNL A   1      39.573  30.573  31.618  1.00  0.00    -0.248 NA
ATOM     48  C   UNL A   1      38.974  29.752  29.513  1.00  0.00     0.031 C 
ATOM     49  C   UNL A   1      42.478  27.243  32.047  1.00  0.00     0.029 A 
ATOM     50  N   UNL A   1      41.569  29.029  33.028  1.00  0.00    -0.354 N 
ATOM     51  C   UNL A   1      38.511  31.316  31.120  1.00  0.00     0.074 A 
ATOM     52  C   UNL A   1      38.214  30.798  29.800  1.00  0.00     0.031 C 
ATOM     53  C   UNL A   1      43.092  27.409  33.231  1.00  0.00     0.029 A 
ATOM     54  C   UNL A   1      42.582  28.621  33.865  1.00  0.00     0.049 A 
ATOM     55  H   UNL A   1      40.930  29.742  33.256  1.00  0.00     0.167 HD
ATOM     56  C   UNL A   1      37.825  32.322  31.715  1.00  0.00     0.037 A 
ATOM     57  C   UNL A   1      43.073  29.174  34.992  1.00  0.00     0.037 A 
ATOM     58  C   UNL A   1      38.100  32.832  33.031  1.00  0.00     0.049 A 
ATOM     59  C   UNL A   1      42.396  30.376  35.590  1.00  0.00     0.074 A 
ATOM     60  C   UNL A   1      37.438  33.829  33.725  1.00  0.00     0.029 A 
ATOM     61  N   UNL A   1      39.128  32.389  33.849  1.00  0.00    -0.354 N 
ATOM     62  N   UNL A   1      41.381  31.060  35.124  1.00  0.00    -0.248 NA
ATOM     63  C   UNL A   1      42.900  30.856  36.886  1.00  0.00     0.031 C 
ATOM     64  C   UNL A   1      38.085  34.011  34.954  1.00  0.00     0.029 A 
ATOM     65  C   UNL A   1      39.130  33.104  35.035  1.00  0.00     0.049 A 
ATOM     66  H   UNL A   1      39.761  31.671  33.621  1.00  0.00     0.167 HD
ATOM     67  C   UNL A   1      41.078  32.004  36.098  1.00  0.00     0.074 A 
ATOM     68  C   UNL A   1      42.041  31.829  37.165  1.00  0.00     0.031 C 
ATOM     69  C   UNL A   1      40.071  32.910  36.112  1.00  0.00     0.037 A 
BRANCH  56  70
ATOM     70  C   UNL A   1      36.723  32.943  30.910  1.00  0.00     0.058 A 
ATOM     71  C   UNL A   1      36.982  33.936  29.951  1.00  0.00     0.135 A 
ATOM     72  C   UNL A   1      35.386  32.590  31.149  1.00  0.00     0.135 A 
ATOM     73  F   UNL A   1      38.244  34.320  29.701  1.00  0.00    -0.206 F 
ATOM     74  C   UNL A   1      35.950  34.603  29.301  1.00  0.00     0.059 A 
ATOM     75  C   UNL A   1      34.339  33.226  30.492  1.00  0.00     0.059 A 
ATOM     76  F   UNL A   1      35.088  31.644  32.053  1.00  0.00    -0.206 F 
ATOM     77  C   UNL A   1      34.630  34.253  29.595  1.00  0.00     0.060 A 
BRANCH  77  78
ATOM     78  S   UNL A   1      33.292  35.180  28.818  1.00  0.00     0.124 S 
ATOM     79  O   UNL A   1      34.038  36.155  28.030  1.00  0.00    -0.237 OA
ATOM     80  O   UNL A   1      32.591  34.152  28.055  1.00  0.00    -0.237 OA
ATOM     81  O   UNL A   1      32.554  35.723  29.955  1.00  0.00    -0.744 OA
ENDBRANCH  77  78
ENDBRANCH  56  70
BRANCH  57  82
ATOM     82  C   UNL A   1      44.282  28.592  35.630  1.00  0.00     0.058 A 
ATOM     83  C   UNL A   1      44.180  27.590  36.603  1.00  0.00     0.135 A 
ATOM     84  C   UNL A   1      45.566  29.024  35.263  1.00  0.00     0.135 A 
ATOM     85  F   UNL A   1      42.971  27.154  36.990  1.00  0.00    -0.206 F 
ATOM     86  C   UNL A   1      45.309  27.037  37.197  1.00  0.00     0.059 A 
ATOM     87  C   UNL A   1      46.712  28.478  35.835  1.00  0.00     0.059 A 
ATOM     88  F   UNL A   1      45.716  29.973  34.325  1.00  0.00    -0.206 F 
ATOM     89  C   UNL A   1      46.571  27.486  36.804  1.00  0.00     0.060 A 
BRANCH  89  90
ATOM     90  S   UNL A   1      48.029  26.715  37.543  1.00  0.00     0.124 S 
ATOM     91  O   UNL A   1      47.734  26.831  38.965  1.00  0.00    -0.237 OA
ATOM     92  O   UNL A   1      47.974  25.368  36.984  1.00  0.00    -0.237 OA
ATOM     93  O   UNL A   1      49.127  27.545  37.054  1.00  0.00    -0.744 OA
ENDBRANCH  89  90
ENDBRANCH  57  82
BRANCH  69  94
ATOM     94  C   UNL A   1      39.894  33.747  37.345  1.00  0.00     0.058 A 
ATOM     95  C   UNL A   1      40.616  34.932  37.548  1.00  0.00     0.135 A 
ATOM     96  C   UNL A   1      38.917  33.401  38.294  1.00  0.00     0.135 A 
ATOM     97  F   UNL A   1      41.568  35.300  36.678  1.00  0.00    -0.206 F 
ATOM     98  C   UNL A   1      40.371  35.750  38.648  1.00  0.00     0.059 A 
ATOM     99  C   UNL A   1      38.643  34.212  39.391  1.00  0.00     0.059 A 
ATOM    100  F   UNL A   1      38.197  32.277  38.144  1.00  0.00    -0.206 F 
ATOM    101  C   UNL A   1      39.376  35.387  39.559  1.00  0.00     0.060 A 
BRANCH 101 102
ATOM    102  S   UNL A   1      39.006  36.497  40.935  1.00  0.00     0.124 S 
ATOM    103  O   UNL A   1      40.323  36.666  41.539  1.00  0.00    -0.237 OA
ATOM    104  O   UNL A   1      38.465  37.670  40.255  1.00  0.00    -0.237 OA
ATOM    105  O   UNL A   1      38.041  35.742  41.728  1.00  0.00    -0.744 OA
ENDBRANCH 101 102
ENDBRANCH  69  94
ENDBRANCH  43  44
ENDBRANCH  36  38
ENDBRANCH  35  36
ENDBRANCH  34  35
ENDBRANCH  33  34
ENDBRANCH  32  33
ENDBRANCH  31  32
ENDBRANCH   1  31
TORSDOF 24
ENDMDL
MODEL 3
REMARK VINA RESULT:     -10.0      1.631      3.323
REMARK SMILES C[C@@H](NC(=O)CNC(=O)N1CC(=O)Nc2ccccc21)C(=O)OCCOCCOCCOC(=O)c1ccc(-c2c3nc(c(-c4c(F)cc(S(=O)(=O)[O-])cc4F)c4ccc([nH]4)c(-c4c(F)cc(S(=O)(=O)[O-])cc4F)c4nc(c(-c5c(F)cc(S(=O)(=O)[O-])cc5F)c5ccc2[nH]5)C=C4)C=C3)cc1
REMARK SMILES IDX 27 1 26 2 25 3 24 4 23 5 21 6 22 7 2 8 1 9 3 10 4 11 5 13
REMARK SMILES IDX 6 14 7 15 8 16 9 18 10 19 11 20 20 21 12 22 15 23 19 24
REMARK SMILES IDX 13 25 14 26 16 27 18 28 17 30 28 31 29 32 30 33 31 34 32 35
REMARK SMILES IDX 33 36 34 37 35 38 36 39 100 40 37 41 99 42 38 43 39 44 40 45
REMARK SMILES IDX 93 46 41 47 98 48 92 49 94 50 42 51 97 52 91 53 90 54 43 56
REMARK SMILES IDX 77 57 56 58 76 59 57 60 60 61 75 62 95 63 58 64 59 65 74 67
REMARK SMILES IDX 96 68 61 69 44 70 45 71 54 72 46 73 47 74 53 75 55 76 48 77
REMARK SMILES IDX 49 78 50 79 51 80 52 81 78 82 79 83 88 84 80 85 81 86 87 87
REMARK SMILES IDX 89 88 82 89 83 90 84 91 85 92 86 93 62 94 63 95 72 96 64 97
REMARK SMILES IDX 65 98 71 99 73 100 66 101 67 102 68 103 69 104 70 105
REMARK H PARENT 3 12 7 17 14 29 94 55 60 66
REMARK Flexibility Score: inf
ROOT
ATOM      1  C   UNL A   1      38.464  22.913  26.105  1.00  0.00     0.188 C 
ENDROOT
BRANCH   1   2
ATOM      2  O   UNL A   1      37.781  21.990  25.220  1.00  0.00    -0.376 OA
BRANCH   2   3
ATOM      3  C   UNL A   1      36.452  21.596  25.638  1.00  0.00     0.202 C 
BRANCH   3   4
ATOM      4  C   UNL A   1      35.217  22.193  24.796  1.00  0.00     0.261 C 
BRANCH   4   5
ATOM      5  O   UNL A   1      34.822  23.583  25.190  1.00  0.00    -0.462 OA
BRANCH   5   6
ATOM      6  C   UNL A   1      33.650  24.271  25.359  1.00  0.00     0.328 C 
ATOM      7  O   UNL A   1      33.521  25.225  26.113  1.00  0.00    -0.250 OA
BRANCH   6   8
ATOM      8  C   UNL A   1      32.459  23.672  24.489  1.00  0.00     0.189 C 
ATOM      9  C   UNL A   1      32.575  23.014  23.101  1.00  0.00     0.043 C 
BRANCH   8  10
ATOM     10  N   UNL A   1      31.681  22.825  25.369  1.00  0.00    -0.341 N 
ATOM     11  C   UNL A   1      30.660  23.203  26.178  1.00  0.00     0.240 C 
ATOM     12  H   UNL A   1      31.919  21.869  25.383  1.00  0.00     0.164 HD
ATOM     13  O   UNL A   1      30.006  22.293  26.703  1.00  0.00    -0.273 OA
BRANCH  11  14
ATOM     14  C   UNL A   1      30.169  24.672  26.262  1.00  0.00     0.218 C 
BRANCH  14  15
ATOM     15  N   UNL A   1      29.686  25.542  25.112  1.00  0.00    -0.329 N 
ATOM     16  C   UNL A   1      29.733  26.312  24.028  1.00  0.00     0.322 C 
ATOM     17  H   UNL A   1      28.715  25.525  25.274  1.00  0.00     0.165 HD
ATOM     18  O   UNL A   1      28.553  26.381  23.620  1.00  0.00    -0.248 OA
BRANCH  16  19
ATOM     19  N   UNL A   1      30.695  26.999  23.340  1.00  0.00    -0.283 N 
ATOM     20  C   UNL A   1      31.351  27.066  21.985  1.00  0.00     0.227 C 
ATOM     21  C   UNL A   1      31.541  27.867  24.150  1.00  0.00     0.070 A 
ATOM     22  C   UNL A   1      32.771  26.489  22.005  1.00  0.00     0.244 C 
ATOM     23  C   UNL A   1      32.945  27.762  24.023  1.00  0.00     0.065 A 
ATOM     24  C   UNL A   1      31.002  28.896  24.914  1.00  0.00     0.028 A 
ATOM     25  O   UNL A   1      33.310  25.946  21.047  1.00  0.00    -0.273 OA
ATOM     26  N   UNL A   1      33.503  26.872  23.100  1.00  0.00    -0.323 N 
ATOM     27  C   UNL A   1      33.791  28.615  24.713  1.00  0.00     0.028 A 
ATOM     28  C   UNL A   1      31.857  29.815  25.518  1.00  0.00     0.002 A 
ATOM     29  H   UNL A   1      34.414  26.522  23.236  1.00  0.00     0.170 HD
ATOM     30  C   UNL A   1      33.242  29.654  25.453  1.00  0.00     0.002 A 
ENDBRANCH  16  19
ENDBRANCH  14  15
ENDBRANCH  11  14
ENDBRANCH   8  10
ENDBRANCH   6   8
ENDBRANCH   5   6
ENDBRANCH   4   5
ENDBRANCH   3   4
ENDBRANCH   2   3
ENDBRANCH   1   2
BRANCH   1  31
ATOM     31  C   UNL A   1      39.745  22.308  26.753  1.00  0.00     0.188 C 
BRANCH  31  32
ATOM     32  O   UNL A   1      40.663  21.690  25.840  1.00  0.00    -0.376 OA
BRANCH  32  33
ATOM     33  C   UNL A   1      42.055  21.910  26.064  1.00  0.00     0.202 C 
BRANCH  33  34
ATOM     34  C   UNL A   1      42.679  23.141  25.383  1.00  0.00     0.261 C 
BRANCH  34  35
ATOM     35  O   UNL A   1      42.936  24.251  26.268  1.00  0.00    -0.460 OA
BRANCH  35  36
ATOM     36  C   UNL A   1      42.019  25.251  26.214  1.00  0.00     0.338 C 
ATOM     37  O   UNL A   1      41.327  25.552  25.244  1.00  0.00    -0.246 OA
BRANCH  36  38
ATOM     38  C   UNL A   1      41.983  26.044  27.463  1.00  0.00     0.060 A 
ATOM     39  C   UNL A   1      40.845  25.987  28.277  1.00  0.00     0.016 A 
ATOM     40  C   UNL A   1      42.998  26.960  27.760  1.00  0.00     0.016 A 
ATOM     41  C   UNL A   1      40.703  26.854  29.371  1.00  0.00     0.010 A 
ATOM     42  C   UNL A   1      42.862  27.812  28.867  1.00  0.00     0.010 A 
ATOM     43  C   UNL A   1      41.699  27.793  29.666  1.00  0.00    -0.014 A 
BRANCH  43  44
ATOM     44  C   UNL A   1      41.521  28.865  30.691  1.00  0.00     0.031 A 
ATOM     45  C   UNL A   1      42.270  28.748  31.991  1.00  0.00     0.074 A 
ATOM     46  C   UNL A   1      40.667  29.895  30.538  1.00  0.00     0.049 A 
ATOM     47  N   UNL A   1      42.097  29.397  33.113  1.00  0.00    -0.248 NA
ATOM     48  C   UNL A   1      43.369  27.771  32.016  1.00  0.00     0.031 C 
ATOM     49  C   UNL A   1      39.969  30.242  29.309  1.00  0.00     0.029 A 
ATOM     50  N   UNL A   1      40.193  30.806  31.455  1.00  0.00    -0.354 N 
ATOM     51  C   UNL A   1      43.064  28.907  33.981  1.00  0.00     0.074 A 
ATOM     52  C   UNL A   1      43.788  27.875  33.268  1.00  0.00     0.031 C 
ATOM     53  C   UNL A   1      39.056  31.192  29.573  1.00  0.00     0.029 A 
ATOM     54  C   UNL A   1      39.115  31.526  30.994  1.00  0.00     0.049 A 
ATOM     55  H   UNL A   1      40.584  30.929  32.351  1.00  0.00     0.167 HD
ATOM     56  C   UNL A   1      43.343  29.297  35.248  1.00  0.00     0.037 A 
ATOM     57  C   UNL A   1      38.249  32.332  31.640  1.00  0.00     0.037 A 
ATOM     58  C   UNL A   1      42.642  30.331  35.958  1.00  0.00     0.049 A 
ATOM     59  C   UNL A   1      38.477  32.665  33.088  1.00  0.00     0.074 A 
ATOM     60  C   UNL A   1      42.877  30.812  37.234  1.00  0.00     0.029 A 
ATOM     61  N   UNL A   1      41.562  31.041  35.455  1.00  0.00    -0.354 N 
ATOM     62  N   UNL A   1      39.404  32.213  33.895  1.00  0.00    -0.248 NA
ATOM     63  C   UNL A   1      37.572  33.648  33.702  1.00  0.00     0.031 C 
ATOM     64  C   UNL A   1      41.917  31.794  37.515  1.00  0.00     0.029 A 
ATOM     65  C   UNL A   1      41.107  31.944  36.401  1.00  0.00     0.049 A 
ATOM     66  H   UNL A   1      41.178  30.921  34.557  1.00  0.00     0.167 HD
ATOM     67  C   UNL A   1      39.240  32.906  35.089  1.00  0.00     0.074 A 
ATOM     68  C   UNL A   1      38.101  33.783  34.912  1.00  0.00     0.031 C 
ATOM     69  C   UNL A   1      39.991  32.839  36.214  1.00  0.00     0.037 A 
BRANCH  56  70
ATOM     70  C   UNL A   1      44.451  28.562  35.942  1.00  0.00     0.058 A 
ATOM     71  C   UNL A   1      44.198  27.438  36.746  1.00  0.00     0.135 A 
ATOM     72  C   UNL A   1      45.772  29.026  35.855  1.00  0.00     0.135 A 
ATOM     73  F   UNL A   1      42.947  26.967  36.874  1.00  0.00    -0.206 F 
ATOM     74  C   UNL A   1      45.206  26.838  37.491  1.00  0.00     0.059 A 
ATOM     75  C   UNL A   1      46.801  28.426  36.572  1.00  0.00     0.059 A 
ATOM     76  F   UNL A   1      46.065  30.094  35.096  1.00  0.00    -0.206 F 
ATOM     77  C   UNL A   1      46.502  27.355  37.412  1.00  0.00     0.060 A 
BRANCH  77  78
ATOM     78  S   UNL A   1      47.790  26.632  38.448  1.00  0.00     0.124 S 
ATOM     79  O   UNL A   1      48.756  27.725  38.508  1.00  0.00    -0.237 OA
ATOM     80  O   UNL A   1      47.079  26.346  39.690  1.00  0.00    -0.237 OA
ATOM     81  O   UNL A   1      48.214  25.460  37.689  1.00  0.00    -0.744 OA
ENDBRANCH  77  78
ENDBRANCH  56  70
BRANCH  57  82
ATOM     82  C   UNL A   1      37.073  32.879  30.914  1.00  0.00     0.058 A 
ATOM     83  C   UNL A   1      35.784  32.382  31.140  1.00  0.00     0.135 A 
ATOM     84  C   UNL A   1      37.223  33.924  29.988  1.00  0.00     0.135 A 
ATOM     85  F   UNL A   1      35.596  31.378  32.010  1.00  0.00    -0.206 F 
ATOM     86  C   UNL A   1      34.679  32.897  30.469  1.00  0.00     0.059 A 
ATOM     87  C   UNL A   1      36.132  34.463  29.313  1.00  0.00     0.059 A 
ATOM     88  F   UNL A   1      38.438  34.442  29.749  1.00  0.00    -0.206 F 
ATOM     89  C   UNL A   1      34.863  33.939  29.559  1.00  0.00     0.060 A 
BRANCH  89  90
ATOM     90  S   UNL A   1      33.412  34.636  28.740  1.00  0.00     0.124 S 
ATOM     91  O   UNL A   1      32.505  34.829  29.864  1.00  0.00    -0.237 OA
ATOM     92  O   UNL A   1      33.957  35.850  28.140  1.00  0.00    -0.237 OA
ATOM     93  O   UNL A   1      33.032  33.592  27.791  1.00  0.00    -0.744 OA
ENDBRANCH  89  90
ENDBRANCH  57  82
BRANCH  69  94
ATOM     94  C   UNL A   1      39.666  33.784  37.335  1.00  0.00     0.058 A 
ATOM     95  C   UNL A   1      38.796  33.430  38.376  1.00  0.00     0.135 A 
ATOM     96  C   UNL A   1      40.312  35.030  37.411  1.00  0.00     0.135 A 
ATOM     97  F   UNL A   1      38.146  32.257  38.343  1.00  0.00    -0.206 F 
ATOM     98  C   UNL A   1      38.581  34.277  39.460  1.00  0.00     0.059 A 
ATOM     99  C   UNL A   1      40.126  35.884  38.493  1.00  0.00     0.059 A 
ATOM    100  F   UNL A   1      41.156  35.414  36.440  1.00  0.00    -0.206 F 
ATOM    101  C   UNL A   1      39.258  35.498  39.514  1.00  0.00     0.060 A 
BRANCH 101 102
ATOM    102  S   UNL A   1      39.039  36.552  40.965  1.00  0.00     0.124 S 
ATOM    103  O   UNL A   1      38.573  37.794  40.359  1.00  0.00    -0.237 OA
ATOM    104  O   UNL A   1      38.047  35.815  41.742  1.00  0.00    -0.237 OA
ATOM    105  O   UNL A   1      40.375  36.600  41.552  1.00  0.00    -0.744 OA
ENDBRANCH 101 102
ENDBRANCH  69  94
ENDBRANCH  43  44
ENDBRANCH  36  38
ENDBRANCH  35  36
ENDBRANCH  34  35
ENDBRANCH  33  34
ENDBRANCH  32  33
ENDBRANCH  31  32
ENDBRANCH   1  31
TORSDOF 24
ENDMDL
