MODEL 1
REMARK VINA RESULT:     -10.3      0.000      0.000
REMARK SMILES COc1ccccc1[C@@H]1C[N@@H+](Cc2cn3cc(C)ccc3n2)C[C@H]1C(=O)OCCOCCOCCOC(=O)c1ccc(-c2c3nc(c(-c4c(F)cc(S(=O)(=O)[O-])cc4F)c4ccc([nH]4)c(-c4c(F)cc(S(=O)(=O)[O-])cc4F)c4nc(c(-c5c(F)cc(S(=O)(=O)[O-])cc5F)c5ccc2[nH]5)C=C4)C=C3)cc1
REMARK SMILES IDX 32 1 31 2 30 3 29 4 28 5 27 6 25 7 26 8 24 9 9 10 10 11
REMARK SMILES IDX 11 12 23 13 8 15 3 16 4 17 5 18 7 19 6 20 2 21 1 22 12 23
REMARK SMILES IDX 13 24 14 25 22 26 15 27 21 28 16 29 20 30 17 31 19 32 18 33
REMARK SMILES IDX 33 34 34 35 35 36 36 37 37 38 38 39 39 40 40 41 104 42 41 43
REMARK SMILES IDX 103 44 42 45 43 46 44 47 97 48 45 49 102 50 96 51 98 52
REMARK SMILES IDX 46 53 101 54 95 55 94 56 47 58 81 59 60 60 80 61 61 62 64 63
REMARK SMILES IDX 79 64 99 65 62 66 63 67 78 69 100 70 65 71 48 72 49 73 58 74
REMARK SMILES IDX 50 75 51 76 57 77 59 78 52 79 53 80 54 81 55 82 56 83 82 84
REMARK SMILES IDX 83 85 92 86 84 87 85 88 91 89 93 90 86 91 87 92 88 93 89 94
REMARK SMILES IDX 90 95 66 96 67 97 76 98 68 99 69 100 75 101 77 102 70 103
REMARK SMILES IDX 71 104 72 105 73 106 74 107
REMARK H PARENT 11 14 98 57 64 68
REMARK Flexibility Score: inf
ROOT
ATOM      1  C   UNL A   1      35.081  30.882  28.414  1.00  0.00     0.188 C 
ENDROOT
BRANCH   1   2
ATOM      2  C   UNL A   1      35.296  29.763  27.391  1.00  0.00     0.188 C 
BRANCH   2   3
ATOM      3  O   UNL A   1      34.329  29.621  26.360  1.00  0.00    -0.376 OA
BRANCH   3   4
ATOM      4  C   UNL A   1      32.977  29.965  26.680  1.00  0.00     0.202 C 
BRANCH   4   5
ATOM      5  C   UNL A   1      31.854  29.318  25.846  1.00  0.00     0.261 C 
BRANCH   5   6
ATOM      6  O   UNL A   1      32.169  27.988  25.350  1.00  0.00    -0.463 OA
BRANCH   6   7
ATOM      7  C   UNL A   1      31.563  26.966  25.987  1.00  0.00     0.315 C 
ATOM      8  O   UNL A   1      31.505  26.890  27.217  1.00  0.00    -0.252 OA
BRANCH   7   9
ATOM      9  C   UNL A   1      30.947  25.863  25.133  1.00  0.00     0.167 C 
ATOM     10  C   UNL A   1      31.691  24.781  24.325  1.00  0.00     0.098 C 
ATOM     11  C   UNL A   1      30.747  23.570  24.433  1.00  0.00     0.272 C 
ATOM     12  N   UNL A   1      30.127  23.641  25.751  1.00  0.00    -0.329 N 
ATOM     13  C   UNL A   1      30.051  25.065  26.096  1.00  0.00     0.278 C 
ATOM     14  H   UNL A   1      29.190  23.239  25.722  1.00  0.00     0.348 HD
BRANCH  10  15
ATOM     15  C   UNL A   1      32.033  24.938  22.841  1.00  0.00     0.004 A 
ATOM     16  C   UNL A   1      32.900  24.111  22.109  1.00  0.00     0.122 A 
ATOM     17  C   UNL A   1      33.153  24.355  20.749  1.00  0.00     0.047 A 
ATOM     18  C   UNL A   1      32.584  25.459  20.111  1.00  0.00     0.004 A 
ATOM     19  C   UNL A   1      31.533  26.084  22.186  1.00  0.00     0.008 A 
ATOM     20  C   UNL A   1      31.797  26.341  20.839  1.00  0.00     0.001 A 
BRANCH  16  21
ATOM     21  O   UNL A   1      33.713  23.228  22.769  1.00  0.00    -0.496 OA
ATOM     22  C   UNL A   1      34.949  23.786  23.195  1.00  0.00     0.278 C 
ENDBRANCH  16  21
ENDBRANCH  10  15
BRANCH  12  23
ATOM     23  C   UNL A   1      30.764  22.798  26.770  1.00  0.00     0.321 C 
BRANCH  23  24
ATOM     24  C   UNL A   1      31.914  21.965  26.293  1.00  0.00     0.114 A 
ATOM     25  C   UNL A   1      33.267  22.232  26.406  1.00  0.00     0.122 A 
ATOM     26  N   UNL A   1      31.719  20.768  25.631  1.00  0.00    -0.228 NA
ATOM     27  N   UNL A   1      33.912  21.185  25.804  1.00  0.00    -0.306 N 
ATOM     28  C   UNL A   1      32.925  20.321  25.346  1.00  0.00     0.137 A 
ATOM     29  C   UNL A   1      35.277  20.962  25.645  1.00  0.00     0.096 A 
ATOM     30  C   UNL A   1      33.365  19.149  24.665  1.00  0.00     0.048 A 
ATOM     31  C   UNL A   1      35.699  19.863  24.988  1.00  0.00    -0.034 A 
ATOM     32  C   UNL A   1      34.682  18.939  24.471  1.00  0.00     0.009 A 
ATOM     33  C   UNL A   1      37.140  19.476  24.865  1.00  0.00     0.046 C 
ENDBRANCH  23  24
ENDBRANCH  12  23
ENDBRANCH   7   9
ENDBRANCH   6   7
ENDBRANCH   5   6
ENDBRANCH   4   5
ENDBRANCH   3   4
ENDBRANCH   2   3
ENDBRANCH   1   2
BRANCH   1  34
ATOM     34  O   UNL A   1      35.195  32.195  27.890  1.00  0.00    -0.376 OA
BRANCH  34  35
ATOM     35  C   UNL A   1      34.107  33.083  28.052  1.00  0.00     0.202 C 
BRANCH  35  36
ATOM     36  C   UNL A   1      34.203  34.007  29.254  1.00  0.00     0.261 C 
BRANCH  36  37
ATOM     37  O   UNL A   1      35.283  33.663  30.102  1.00  0.00    -0.460 OA
BRANCH  37  38
ATOM     38  C   UNL A   1      34.935  33.184  31.304  1.00  0.00     0.338 C 
ATOM     39  O   UNL A   1      33.845  33.277  31.877  1.00  0.00    -0.246 OA
BRANCH  38  40
ATOM     40  C   UNL A   1      36.087  32.509  31.865  1.00  0.00     0.060 A 
ATOM     41  C   UNL A   1      37.243  33.265  32.064  1.00  0.00     0.016 A 
ATOM     42  C   UNL A   1      36.065  31.110  31.932  1.00  0.00     0.016 A 
ATOM     43  C   UNL A   1      38.440  32.603  32.104  1.00  0.00     0.010 A 
ATOM     44  C   UNL A   1      37.261  30.450  31.956  1.00  0.00     0.010 A 
ATOM     45  C   UNL A   1      38.425  31.216  31.940  1.00  0.00    -0.014 A 
BRANCH  45  46
ATOM     46  C   UNL A   1      39.682  30.563  31.683  1.00  0.00     0.031 A 
ATOM     47  C   UNL A   1      40.528  30.388  32.873  1.00  0.00     0.074 A 
ATOM     48  C   UNL A   1      39.943  30.060  30.463  1.00  0.00     0.049 A 
ATOM     49  N   UNL A   1      41.724  30.832  33.067  1.00  0.00    -0.248 NA
ATOM     50  C   UNL A   1      39.918  29.745  34.049  1.00  0.00     0.031 C 
ATOM     51  C   UNL A   1      39.020  29.952  29.327  1.00  0.00     0.029 A 
ATOM     52  N   UNL A   1      41.045  29.395  30.032  1.00  0.00    -0.354 N 
ATOM     53  C   UNL A   1      42.107  30.307  34.294  1.00  0.00     0.074 A 
ATOM     54  C   UNL A   1      40.913  29.811  34.929  1.00  0.00     0.031 C 
ATOM     55  C   UNL A   1      39.515  29.057  28.447  1.00  0.00     0.029 A 
ATOM     56  C   UNL A   1      40.817  28.608  28.913  1.00  0.00     0.049 A 
ATOM     57  H   UNL A   1      41.923  29.465  30.472  1.00  0.00     0.167 HD
ATOM     58  C   UNL A   1      43.410  30.051  34.569  1.00  0.00     0.037 A 
ATOM     59  C   UNL A   1      41.591  27.579  28.489  1.00  0.00     0.037 A 
ATOM     60  C   UNL A   1      44.304  30.806  33.729  1.00  0.00     0.049 A 
ATOM     61  C   UNL A   1      42.933  27.748  29.115  1.00  0.00     0.074 A 
ATOM     62  C   UNL A   1      44.430  32.151  33.432  1.00  0.00     0.029 A 
ATOM     63  N   UNL A   1      45.011  30.142  32.756  1.00  0.00    -0.354 N 
ATOM     64  N   UNL A   1      43.767  28.708  28.823  1.00  0.00    -0.248 NA
ATOM     65  C   UNL A   1      43.182  27.082  30.387  1.00  0.00     0.031 C 
ATOM     66  C   UNL A   1      44.787  32.197  32.054  1.00  0.00     0.029 A 
ATOM     67  C   UNL A   1      44.902  30.882  31.604  1.00  0.00     0.049 A 
ATOM     68  H   UNL A   1      45.503  29.296  32.863  1.00  0.00     0.167 HD
ATOM     69  C   UNL A   1      44.365  29.045  30.029  1.00  0.00     0.074 A 
ATOM     70  C   UNL A   1      44.050  27.939  30.929  1.00  0.00     0.031 C 
ATOM     71  C   UNL A   1      44.813  30.312  30.277  1.00  0.00     0.037 A 
BRANCH  58  72
ATOM     72  C   UNL A   1      43.827  28.831  35.340  1.00  0.00     0.058 A 
ATOM     73  C   UNL A   1      44.718  28.956  36.418  1.00  0.00     0.135 A 
ATOM     74  C   UNL A   1      43.586  27.513  34.883  1.00  0.00     0.135 A 
ATOM     75  F   UNL A   1      45.037  30.168  36.899  1.00  0.00    -0.206 F 
ATOM     76  C   UNL A   1      45.364  27.852  36.972  1.00  0.00     0.059 A 
ATOM     77  C   UNL A   1      44.167  26.396  35.461  1.00  0.00     0.059 A 
ATOM     78  F   UNL A   1      42.856  27.260  33.787  1.00  0.00    -0.206 F 
ATOM     79  C   UNL A   1      45.090  26.579  36.475  1.00  0.00     0.060 A 
BRANCH  79  80
ATOM     80  S   UNL A   1      46.010  25.163  37.097  1.00  0.00     0.124 S 
ATOM     81  O   UNL A   1      46.962  24.946  36.014  1.00  0.00    -0.237 OA
ATOM     82  O   UNL A   1      46.563  25.680  38.344  1.00  0.00    -0.237 OA
ATOM     83  O   UNL A   1      44.979  24.140  37.252  1.00  0.00    -0.744 OA
ENDBRANCH  79  80
ENDBRANCH  58  72
BRANCH  59  84
ATOM     84  C   UNL A   1      41.148  26.313  27.843  1.00  0.00     0.058 A 
ATOM     85  C   UNL A   1      41.913  25.724  26.820  1.00  0.00     0.135 A 
ATOM     86  C   UNL A   1      40.105  25.518  28.366  1.00  0.00     0.135 A 
ATOM     87  F   UNL A   1      42.945  26.388  26.280  1.00  0.00    -0.206 F 
ATOM     88  C   UNL A   1      41.684  24.417  26.374  1.00  0.00     0.059 A 
ATOM     89  C   UNL A   1      39.841  24.227  27.918  1.00  0.00     0.059 A 
ATOM     90  F   UNL A   1      39.360  25.930  29.401  1.00  0.00    -0.206 F 
ATOM     91  C   UNL A   1      40.653  23.670  26.940  1.00  0.00     0.060 A 
BRANCH  91  92
ATOM     92  S   UNL A   1      40.456  21.932  26.490  1.00  0.00     0.124 S 
ATOM     93  O   UNL A   1      40.429  21.284  27.797  1.00  0.00    -0.237 OA
ATOM     94  O   UNL A   1      39.196  21.946  25.756  1.00  0.00    -0.237 OA
ATOM     95  O   UNL A   1      41.641  21.655  25.682  1.00  0.00    -0.744 OA
ENDBRANCH  91  92
ENDBRANCH  59  84
BRANCH  71  96
ATOM     96  C   UNL A   1      44.972  31.262  29.117  1.00  0.00     0.058 A 
ATOM     97  C   UNL A   1      43.959  32.120  28.650  1.00  0.00     0.135 A 
ATOM     98  C   UNL A   1      46.247  31.414  28.549  1.00  0.00     0.135 A 
ATOM     99  F   UNL A   1      42.746  32.129  29.218  1.00  0.00    -0.206 F 
ATOM    100  C   UNL A   1      44.189  33.043  27.629  1.00  0.00     0.059 A 
ATOM    101  C   UNL A   1      46.508  32.352  27.554  1.00  0.00     0.059 A 
ATOM    102  F   UNL A   1      47.276  30.675  28.997  1.00  0.00    -0.206 F 
ATOM    103  C   UNL A   1      45.469  33.152  27.084  1.00  0.00     0.060 A 
BRANCH 103 104
ATOM    104  S   UNL A   1      45.782  34.402  25.819  1.00  0.00     0.124 S 
ATOM    105  O   UNL A   1      47.195  34.189  25.523  1.00  0.00    -0.237 OA
ATOM    106  O   UNL A   1      44.850  34.027  24.760  1.00  0.00    -0.237 OA
ATOM    107  O   UNL A   1      45.467  35.657  26.496  1.00  0.00    -0.744 OA
ENDBRANCH 103 104
ENDBRANCH  71  96
ENDBRANCH  45  46
ENDBRANCH  38  40
ENDBRANCH  37  38
ENDBRANCH  36  37
ENDBRANCH  35  36
ENDBRANCH  34  35
ENDBRANCH   1  34
TORSDOF 24
ENDMDL
MODEL 2
REMARK VINA RESULT:     -10.2      1.950      2.974
REMARK SMILES COc1ccccc1[C@@H]1C[N@@H+](Cc2cn3cc(C)ccc3n2)C[C@H]1C(=O)OCCOCCOCCOC(=O)c1ccc(-c2c3nc(c(-c4c(F)cc(S(=O)(=O)[O-])cc4F)c4ccc([nH]4)c(-c4c(F)cc(S(=O)(=O)[O-])cc4F)c4nc(c(-c5c(F)cc(S(=O)(=O)[O-])cc5F)c5ccc2[nH]5)C=C4)C=C3)cc1
REMARK SMILES IDX 32 1 31 2 30 3 29 4 28 5 27 6 25 7 26 8 24 9 9 10 10 11
REMARK SMILES IDX 11 12 23 13 8 15 3 16 4 17 5 18 7 19 6 20 2 21 1 22 12 23
REMARK SMILES IDX 13 24 14 25 22 26 15 27 21 28 16 29 20 30 17 31 19 32 18 33
REMARK SMILES IDX 33 34 34 35 35 36 36 37 37 38 38 39 39 40 40 41 104 42 41 43
REMARK SMILES IDX 103 44 42 45 43 46 44 47 97 48 45 49 102 50 96 51 98 52
REMARK SMILES IDX 46 53 101 54 95 55 94 56 47 58 81 59 60 60 80 61 61 62 64 63
REMARK SMILES IDX 79 64 99 65 62 66 63 67 78 69 100 70 65 71 48 72 49 73 58 74
REMARK SMILES IDX 50 75 51 76 57 77 59 78 52 79 53 80 54 81 55 82 56 83 82 84
REMARK SMILES IDX 83 85 92 86 84 87 85 88 91 89 93 90 86 91 87 92 88 93 89 94
REMARK SMILES IDX 90 95 66 96 67 97 76 98 68 99 69 100 75 101 77 102 70 103
REMARK SMILES IDX 71 104 72 105 73 106 74 107
REMARK H PARENT 11 14 98 57 64 68
REMARK Flexibility Score: inf
ROOT
ATOM      1  C   UNL A   1      32.546  32.728  26.922  1.00  0.00     0.188 C 
ENDROOT
BRANCH   1   2
ATOM      2  C   UNL A   1      31.234  32.027  26.556  1.00  0.00     0.188 C 
BRANCH   2   3
ATOM      3  O   UNL A   1      31.275  30.622  26.356  1.00  0.00    -0.376 OA
BRANCH   3   4
ATOM      4  C   UNL A   1      32.405  30.094  25.655  1.00  0.00     0.202 C 
BRANCH   4   5
ATOM      5  C   UNL A   1      33.216  28.974  26.339  1.00  0.00     0.261 C 
BRANCH   5   6
ATOM      6  O   UNL A   1      32.795  27.629  25.982  1.00  0.00    -0.463 OA
BRANCH   6   7
ATOM      7  C   UNL A   1      31.523  27.310  26.295  1.00  0.00     0.315 C 
ATOM      8  O   UNL A   1      31.078  27.402  27.442  1.00  0.00    -0.252 OA
BRANCH   7   9
ATOM      9  C   UNL A   1      30.623  26.800  25.175  1.00  0.00     0.167 C 
ATOM     10  C   UNL A   1      30.680  27.183  23.683  1.00  0.00     0.098 C 
ATOM     11  C   UNL A   1      30.264  25.878  22.982  1.00  0.00     0.272 C 
ATOM     12  N   UNL A   1      30.784  24.785  23.795  1.00  0.00    -0.329 N 
ATOM     13  C   UNL A   1      30.805  25.273  25.178  1.00  0.00     0.278 C 
ATOM     14  H   UNL A   1      30.174  23.971  23.722  1.00  0.00     0.348 HD
BRANCH  10  15
ATOM     15  C   UNL A   1      29.823  28.298  23.076  1.00  0.00     0.004 A 
ATOM     16  C   UNL A   1      28.433  28.433  23.221  1.00  0.00     0.122 A 
ATOM     17  C   UNL A   1      27.742  29.491  22.608  1.00  0.00     0.047 A 
ATOM     18  C   UNL A   1      28.422  30.403  21.798  1.00  0.00     0.004 A 
ATOM     19  C   UNL A   1      30.466  29.192  22.193  1.00  0.00     0.008 A 
ATOM     20  C   UNL A   1      29.780  30.235  21.566  1.00  0.00     0.001 A 
BRANCH  16  21
ATOM     21  O   UNL A   1      27.701  27.394  23.733  1.00  0.00    -0.496 OA
ATOM     22  C   UNL A   1      26.317  27.683  23.888  1.00  0.00     0.278 C 
ENDBRANCH  16  21
ENDBRANCH  10  15
BRANCH  12  23
ATOM     23  C   UNL A   1      32.058  24.227  23.323  1.00  0.00     0.321 C 
BRANCH  23  24
ATOM     24  C   UNL A   1      32.279  22.777  23.625  1.00  0.00     0.114 A 
ATOM     25  C   UNL A   1      32.171  21.699  22.764  1.00  0.00     0.122 A 
ATOM     26  N   UNL A   1      32.623  22.343  24.890  1.00  0.00    -0.228 NA
ATOM     27  N   UNL A   1      32.452  20.587  23.512  1.00  0.00    -0.306 N 
ATOM     28  C   UNL A   1      32.719  21.032  24.801  1.00  0.00     0.137 A 
ATOM     29  C   UNL A   1      32.484  19.250  23.128  1.00  0.00     0.096 A 
ATOM     30  C   UNL A   1      33.029  20.036  25.772  1.00  0.00     0.048 A 
ATOM     31  C   UNL A   1      32.762  18.301  24.046  1.00  0.00    -0.034 A 
ATOM     32  C   UNL A   1      33.027  18.734  25.423  1.00  0.00     0.009 A 
ATOM     33  C   UNL A   1      32.932  16.851  23.710  1.00  0.00     0.046 C 
ENDBRANCH  23  24
ENDBRANCH  12  23
ENDBRANCH   7   9
ENDBRANCH   6   7
ENDBRANCH   5   6
ENDBRANCH   4   5
ENDBRANCH   3   4
ENDBRANCH   2   3
ENDBRANCH   1   2
BRANCH   1  34
ATOM     34  O   UNL A   1      32.393  33.919  27.676  1.00  0.00    -0.376 OA
BRANCH  34  35
ATOM     35  C   UNL A   1      33.479  34.363  28.463  1.00  0.00     0.202 C 
BRANCH  35  36
ATOM     36  C   UNL A   1      34.012  33.346  29.459  1.00  0.00     0.261 C 
BRANCH  36  37
ATOM     37  O   UNL A   1      35.285  32.856  29.084  1.00  0.00    -0.460 OA
BRANCH  37  38
ATOM     38  C   UNL A   1      35.364  31.525  28.941  1.00  0.00     0.338 C 
ATOM     39  O   UNL A   1      34.646  30.786  28.263  1.00  0.00    -0.246 OA
BRANCH  38  40
ATOM     40  C   UNL A   1      36.473  31.056  29.746  1.00  0.00     0.060 A 
ATOM     41  C   UNL A   1      37.400  32.005  30.182  1.00  0.00     0.016 A 
ATOM     42  C   UNL A   1      36.697  29.675  29.824  1.00  0.00     0.016 A 
ATOM     43  C   UNL A   1      38.661  31.572  30.488  1.00  0.00     0.010 A 
ATOM     44  C   UNL A   1      37.959  29.245  30.114  1.00  0.00     0.010 A 
ATOM     45  C   UNL A   1      38.938  30.211  30.342  1.00  0.00    -0.014 A 
BRANCH  45  46
ATOM     46  C   UNL A   1      40.320  29.807  30.371  1.00  0.00     0.031 A 
ATOM     47  C   UNL A   1      40.882  29.673  31.723  1.00  0.00     0.074 A 
ATOM     48  C   UNL A   1      40.946  29.465  29.231  1.00  0.00     0.049 A 
ATOM     49  N   UNL A   1      41.896  30.295  32.224  1.00  0.00    -0.248 NA
ATOM     50  C   UNL A   1      40.146  28.834  32.683  1.00  0.00     0.031 C 
ATOM     51  C   UNL A   1      40.349  29.303  27.900  1.00  0.00     0.029 A 
ATOM     52  N   UNL A   1      42.222  29.038  29.053  1.00  0.00    -0.354 N 
ATOM     53  C   UNL A   1      42.074  29.736  33.482  1.00  0.00     0.074 A 
ATOM     54  C   UNL A   1      40.880  28.990  33.783  1.00  0.00     0.031 C 
ATOM     55  C   UNL A   1      41.193  28.586  27.128  1.00  0.00     0.029 A 
ATOM     56  C   UNL A   1      42.411  28.326  27.878  1.00  0.00     0.049 A 
ATOM     57  H   UNL A   1      42.945  29.217  29.698  1.00  0.00     0.167 HD
ATOM     58  C   UNL A   1      43.302  29.682  34.056  1.00  0.00     0.037 A 
ATOM     59  C   UNL A   1      43.440  27.484  27.611  1.00  0.00     0.037 A 
ATOM     60  C   UNL A   1      44.210  30.649  33.495  1.00  0.00     0.049 A 
ATOM     61  C   UNL A   1      44.544  27.823  28.553  1.00  0.00     0.074 A 
ATOM     62  C   UNL A   1      44.149  32.017  33.299  1.00  0.00     0.029 A 
ATOM     63  N   UNL A   1      45.235  30.204  32.696  1.00  0.00    -0.354 N 
ATOM     64  N   UNL A   1      45.230  28.933  28.518  1.00  0.00    -0.248 NA
ATOM     65  C   UNL A   1      44.610  27.100  29.816  1.00  0.00     0.031 C 
ATOM     66  C   UNL A   1      44.802  32.245  32.054  1.00  0.00     0.029 A 
ATOM     67  C   UNL A   1      45.261  31.013  31.587  1.00  0.00     0.049 A 
ATOM     68  H   UNL A   1      45.838  29.447  32.882  1.00  0.00     0.167 HD
ATOM     69  C   UNL A   1      45.457  29.258  29.848  1.00  0.00     0.074 A 
ATOM     70  C   UNL A   1      45.153  28.040  30.592  1.00  0.00     0.031 C 
ATOM     71  C   UNL A   1      45.591  30.556  30.254  1.00  0.00     0.037 A 
BRANCH  58  72
ATOM     72  C   UNL A   1      43.748  28.487  34.850  1.00  0.00     0.058 A 
ATOM     73  C   UNL A   1      44.297  28.664  36.130  1.00  0.00     0.135 A 
ATOM     74  C   UNL A   1      43.897  27.198  34.282  1.00  0.00     0.135 A 
ATOM     75  F   UNL A   1      44.236  29.860  36.737  1.00  0.00    -0.206 F 
ATOM     76  C   UNL A   1      44.990  27.645  36.782  1.00  0.00     0.059 A 
ATOM     77  C   UNL A   1      44.527  26.153  34.938  1.00  0.00     0.059 A 
ATOM     78  F   UNL A   1      43.531  26.928  33.021  1.00  0.00    -0.206 F 
ATOM     79  C   UNL A   1      45.111  26.399  36.168  1.00  0.00     0.060 A 
BRANCH  79  80
ATOM     80  S   UNL A   1      46.109  25.117  36.942  1.00  0.00     0.124 S 
ATOM     81  O   UNL A   1      46.338  25.695  38.261  1.00  0.00    -0.237 OA
ATOM     82  O   UNL A   1      45.218  23.962  36.893  1.00  0.00    -0.237 OA
ATOM     83  O   UNL A   1      47.278  25.037  36.072  1.00  0.00    -0.744 OA
ENDBRANCH  79  80
ENDBRANCH  58  72
BRANCH  59  84
ATOM     84  C   UNL A   1      43.404  26.224  26.820  1.00  0.00     0.058 A 
ATOM     85  C   UNL A   1      44.149  26.099  25.633  1.00  0.00     0.135 A 
ATOM     86  C   UNL A   1      42.841  25.030  27.321  1.00  0.00     0.135 A 
ATOM     87  F   UNL A   1      44.748  27.173  25.096  1.00  0.00    -0.206 F 
ATOM     88  C   UNL A   1      44.356  24.865  25.007  1.00  0.00     0.059 A 
ATOM     89  C   UNL A   1      43.010  23.796  26.699  1.00  0.00     0.059 A 
ATOM     90  F   UNL A   1      42.183  24.999  28.487  1.00  0.00    -0.206 F 
ATOM     91  C   UNL A   1      43.794  23.715  25.557  1.00  0.00     0.060 A 
BRANCH  91  92
ATOM     92  S   UNL A   1      44.192  22.100  24.852  1.00  0.00     0.124 S 
ATOM     93  O   UNL A   1      44.365  22.422  23.440  1.00  0.00    -0.237 OA
ATOM     94  O   UNL A   1      45.404  21.739  25.579  1.00  0.00    -0.237 OA
ATOM     95  O   UNL A   1      43.016  21.293  25.167  1.00  0.00    -0.744 OA
ENDBRANCH  91  92
ENDBRANCH  59  84
BRANCH  71  96
ATOM     96  C   UNL A   1      45.835  31.618  29.212  1.00  0.00     0.058 A 
ATOM     97  C   UNL A   1      47.106  31.970  28.721  1.00  0.00     0.135 A 
ATOM     98  C   UNL A   1      44.724  32.202  28.582  1.00  0.00     0.135 A 
ATOM     99  F   UNL A   1      48.214  31.372  29.179  1.00  0.00    -0.206 F 
ATOM    100  C   UNL A   1      47.264  32.899  27.692  1.00  0.00     0.059 A 
ATOM    101  C   UNL A   1      44.858  33.105  27.530  1.00  0.00     0.059 A 
ATOM    102  F   UNL A   1      43.481  31.857  28.956  1.00  0.00    -0.206 F 
ATOM    103  C   UNL A   1      46.134  33.464  27.102  1.00  0.00     0.060 A 
BRANCH 103 104
ATOM    104  S   UNL A   1      46.341  34.606  25.718  1.00  0.00     0.124 S 
ATOM    105  O   UNL A   1      46.006  35.889  26.327  1.00  0.00    -0.237 OA
ATOM    106  O   UNL A   1      47.744  34.423  25.359  1.00  0.00    -0.237 OA
ATOM    107  O   UNL A   1      45.386  34.116  24.727  1.00  0.00    -0.744 OA
ENDBRANCH 103 104
ENDBRANCH  71  96
ENDBRANCH  45  46
ENDBRANCH  38  40
ENDBRANCH  37  38
ENDBRANCH  36  37
ENDBRANCH  35  36
ENDBRANCH  34  35
ENDBRANCH   1  34
TORSDOF 24
ENDMDL
MODEL 3
REMARK VINA RESULT:     -10.1      3.509      9.078
REMARK SMILES COc1ccccc1[C@@H]1C[N@@H+](Cc2cn3cc(C)ccc3n2)C[C@H]1C(=O)OCCOCCOCCOC(=O)c1ccc(-c2c3nc(c(-c4c(F)cc(S(=O)(=O)[O-])cc4F)c4ccc([nH]4)c(-c4c(F)cc(S(=O)(=O)[O-])cc4F)c4nc(c(-c5c(F)cc(S(=O)(=O)[O-])cc5F)c5ccc2[nH]5)C=C4)C=C3)cc1
REMARK SMILES IDX 32 1 31 2 30 3 29 4 28 5 27 6 25 7 26 8 24 9 9 10 10 11
REMARK SMILES IDX 11 12 23 13 8 15 3 16 4 17 5 18 7 19 6 20 2 21 1 22 12 23
REMARK SMILES IDX 13 24 14 25 22 26 15 27 21 28 16 29 20 30 17 31 19 32 18 33
REMARK SMILES IDX 33 34 34 35 35 36 36 37 37 38 38 39 39 40 40 41 104 42 41 43
REMARK SMILES IDX 103 44 42 45 43 46 44 47 97 48 45 49 102 50 96 51 98 52
REMARK SMILES IDX 46 53 101 54 95 55 94 56 47 58 81 59 60 60 80 61 61 62 64 63
REMARK SMILES IDX 79 64 99 65 62 66 63 67 78 69 100 70 65 71 48 72 49 73 58 74
REMARK SMILES IDX 50 75 51 76 57 77 59 78 52 79 53 80 54 81 55 82 56 83 82 84
REMARK SMILES IDX 83 85 92 86 84 87 85 88 91 89 93 90 86 91 87 92 88 93 89 94
REMARK SMILES IDX 90 95 66 96 67 97 76 98 68 99 69 100 75 101 77 102 70 103
REMARK SMILES IDX 71 104 72 105 73 106 74 107
REMARK H PARENT 11 14 98 57 64 68
REMARK Flexibility Score: inf
ROOT
ATOM      1  C   UNL A   1      39.673  22.641  26.876  1.00  0.00     0.188 C 
ENDROOT
BRANCH   1   2
ATOM      2  C   UNL A   1      39.014  21.820  25.764  1.00  0.00     0.188 C 
BRANCH   2   3
ATOM      3  O   UNL A   1      37.646  22.077  25.481  1.00  0.00    -0.376 OA
BRANCH   3   4
ATOM      4  C   UNL A   1      37.355  23.158  24.591  1.00  0.00     0.202 C 
BRANCH   4   5
ATOM      5  C   UNL A   1      36.550  22.841  23.315  1.00  0.00     0.261 C 
BRANCH   5   6
ATOM      6  O   UNL A   1      35.126  22.652  23.538  1.00  0.00    -0.463 OA
BRANCH   6   7
ATOM      7  C   UNL A   1      34.338  23.698  23.214  1.00  0.00     0.315 C 
ATOM      8  O   UNL A   1      34.012  23.949  22.052  1.00  0.00    -0.252 OA
BRANCH   7   9
ATOM      9  C   UNL A   1      33.857  24.600  24.346  1.00  0.00     0.167 C 
ATOM     10  C   UNL A   1      32.435  25.157  24.557  1.00  0.00     0.098 C 
ATOM     11  C   UNL A   1      32.310  25.189  26.090  1.00  0.00     0.272 C 
ATOM     12  N   UNL A   1      33.064  24.048  26.594  1.00  0.00    -0.329 N 
ATOM     13  C   UNL A   1      34.150  23.814  25.635  1.00  0.00     0.278 C 
ATOM     14  H   UNL A   1      33.452  24.260  27.514  1.00  0.00     0.348 HD
BRANCH  10  15
ATOM     15  C   UNL A   1      31.997  26.535  24.053  1.00  0.00     0.004 A 
ATOM     16  C   UNL A   1      30.701  27.067  24.146  1.00  0.00     0.122 A 
ATOM     17  C   UNL A   1      30.406  28.342  23.637  1.00  0.00     0.047 A 
ATOM     18  C   UNL A   1      31.389  29.087  22.982  1.00  0.00     0.004 A 
ATOM     19  C   UNL A   1      32.946  27.281  23.322  1.00  0.00     0.008 A 
ATOM     20  C   UNL A   1      32.653  28.542  22.798  1.00  0.00     0.001 A 
BRANCH  16  21
ATOM     21  O   UNL A   1      29.656  26.249  24.486  1.00  0.00    -0.496 OA
ATOM     22  C   UNL A   1      28.421  26.603  23.876  1.00  0.00     0.278 C 
ENDBRANCH  16  21
ENDBRANCH  10  15
BRANCH  12  23
ATOM     23  C   UNL A   1      32.250  22.865  26.898  1.00  0.00     0.321 C 
BRANCH  23  24
ATOM     24  C   UNL A   1      32.488  21.674  26.020  1.00  0.00     0.114 A 
ATOM     25  C   UNL A   1      33.267  20.561  26.283  1.00  0.00     0.122 A 
ATOM     26  N   UNL A   1      31.922  21.573  24.764  1.00  0.00    -0.228 NA
ATOM     27  N   UNL A   1      33.179  19.766  25.172  1.00  0.00    -0.306 N 
ATOM     28  C   UNL A   1      32.350  20.427  24.274  1.00  0.00     0.137 A 
ATOM     29  C   UNL A   1      33.771  18.532  24.921  1.00  0.00     0.096 A 
ATOM     30  C   UNL A   1      32.119  19.786  23.023  1.00  0.00     0.048 A 
ATOM     31  C   UNL A   1      33.569  17.927  23.732  1.00  0.00    -0.034 A 
ATOM     32  C   UNL A   1      32.716  18.608  22.751  1.00  0.00     0.009 A 
ATOM     33  C   UNL A   1      34.066  16.551  23.410  1.00  0.00     0.046 C 
ENDBRANCH  23  24
ENDBRANCH  12  23
ENDBRANCH   7   9
ENDBRANCH   6   7
ENDBRANCH   5   6
ENDBRANCH   4   5
ENDBRANCH   3   4
ENDBRANCH   2   3
ENDBRANCH   1   2
BRANCH   1  34
ATOM     34  O   UNL A   1      41.082  22.764  26.769  1.00  0.00    -0.376 OA
BRANCH  34  35
ATOM     35  C   UNL A   1      41.632  24.047  26.548  1.00  0.00     0.202 C 
BRANCH  35  36
ATOM     36  C   UNL A   1      42.626  24.133  25.401  1.00  0.00     0.261 C 
BRANCH  36  37
ATOM     37  O   UNL A   1      43.017  25.467  25.139  1.00  0.00    -0.460 OA
BRANCH  37  38
ATOM     38  C   UNL A   1      44.127  25.872  25.774  1.00  0.00     0.338 C 
ATOM     39  O   UNL A   1      45.052  25.181  26.208  1.00  0.00    -0.246 OA
BRANCH  38  40
ATOM     40  C   UNL A   1      44.075  27.315  25.884  1.00  0.00     0.060 A 
ATOM     41  C   UNL A   1      45.239  27.974  26.281  1.00  0.00     0.016 A 
ATOM     42  C   UNL A   1      42.819  27.936  25.842  1.00  0.00     0.016 A 
ATOM     43  C   UNL A   1      45.110  29.205  26.863  1.00  0.00     0.010 A 
ATOM     44  C   UNL A   1      42.688  29.158  26.437  1.00  0.00     0.010 A 
ATOM     45  C   UNL A   1      43.821  29.719  27.023  1.00  0.00    -0.014 A 
BRANCH  45  46
ATOM     46  C   UNL A   1      43.663  30.856  27.892  1.00  0.00     0.031 A 
ATOM     47  C   UNL A   1      44.241  32.103  27.368  1.00  0.00     0.074 A 
ATOM     48  C   UNL A   1      42.922  30.752  29.010  1.00  0.00     0.049 A 
ATOM     49  N   UNL A   1      45.151  32.842  27.907  1.00  0.00    -0.248 NA
ATOM     50  C   UNL A   1      43.846  32.515  26.011  1.00  0.00     0.031 C 
ATOM     51  C   UNL A   1      42.090  29.617  29.426  1.00  0.00     0.029 A 
ATOM     52  N   UNL A   1      42.635  31.703  29.935  1.00  0.00    -0.354 N 
ATOM     53  C   UNL A   1      45.261  33.944  27.070  1.00  0.00     0.074 A 
ATOM     54  C   UNL A   1      44.585  33.609  25.844  1.00  0.00     0.031 C 
ATOM     55  C   UNL A   1      41.218  30.037  30.366  1.00  0.00     0.029 A 
ATOM     56  C   UNL A   1      41.495  31.430  30.677  1.00  0.00     0.049 A 
ATOM     57  H   UNL A   1      43.183  32.510  30.067  1.00  0.00     0.167 HD
ATOM     58  C   UNL A   1      45.640  35.154  27.553  1.00  0.00     0.037 A 
ATOM     59  C   UNL A   1      40.770  32.329  31.387  1.00  0.00     0.037 A 
ATOM     60  C   UNL A   1      46.351  35.046  28.800  1.00  0.00     0.049 A 
ATOM     61  C   UNL A   1      41.646  33.509  31.631  1.00  0.00     0.074 A 
ATOM     62  C   UNL A   1      47.455  34.321  29.211  1.00  0.00     0.029 A 
ATOM     63  N   UNL A   1      45.730  35.461  29.953  1.00  0.00    -0.354 N 
ATOM     64  N   UNL A   1      42.696  33.501  32.407  1.00  0.00    -0.248 NA
ATOM     65  C   UNL A   1      41.598  34.605  30.672  1.00  0.00     0.031 C 
ATOM     66  C   UNL A   1      47.171  33.936  30.553  1.00  0.00     0.029 A 
ATOM     67  C   UNL A   1      45.936  34.485  30.895  1.00  0.00     0.049 A 
ATOM     68  H   UNL A   1      45.231  36.301  30.079  1.00  0.00     0.167 HD
ATOM     69  C   UNL A   1      43.622  34.313  31.767  1.00  0.00     0.074 A 
ATOM     70  C   UNL A   1      42.853  35.051  30.770  1.00  0.00     0.031 C 
ATOM     71  C   UNL A   1      44.966  34.110  31.903  1.00  0.00     0.037 A 
BRANCH  58  72
ATOM     72  C   UNL A   1      45.013  36.429  27.063  1.00  0.00     0.058 A 
ATOM     73  C   UNL A   1      45.826  37.520  26.720  1.00  0.00     0.135 A 
ATOM     74  C   UNL A   1      43.627  36.697  27.175  1.00  0.00     0.135 A 
ATOM     75  F   UNL A   1      47.157  37.373  26.624  1.00  0.00    -0.206 F 
ATOM     76  C   UNL A   1      45.306  38.802  26.548  1.00  0.00     0.059 A 
ATOM     77  C   UNL A   1      43.080  37.949  26.945  1.00  0.00     0.059 A 
ATOM     78  F   UNL A   1      42.755  35.778  27.615  1.00  0.00    -0.206 F 
ATOM     79  C   UNL A   1      43.933  39.006  26.678  1.00  0.00     0.060 A 
BRANCH  79  80
ATOM     80  S   UNL A   1      43.266  40.674  26.582  1.00  0.00     0.124 S 
ATOM     81  O   UNL A   1      43.824  41.129  25.314  1.00  0.00    -0.237 OA
ATOM     82  O   UNL A   1      41.827  40.431  26.601  1.00  0.00    -0.237 OA
ATOM     83  O   UNL A   1      43.803  41.314  27.779  1.00  0.00    -0.744 OA
ENDBRANCH  79  80
ENDBRANCH  58  72
BRANCH  59  84
ATOM     84  C   UNL A   1      39.295  32.356  31.584  1.00  0.00     0.058 A 
ATOM     85  C   UNL A   1      38.745  32.571  32.861  1.00  0.00     0.135 A 
ATOM     86  C   UNL A   1      38.386  32.417  30.505  1.00  0.00     0.135 A 
ATOM     87  F   UNL A   1      39.533  32.562  33.946  1.00  0.00    -0.206 F 
ATOM     88  C   UNL A   1      37.391  32.868  33.051  1.00  0.00     0.059 A 
ATOM     89  C   UNL A   1      37.029  32.683  30.674  1.00  0.00     0.059 A 
ATOM     90  F   UNL A   1      38.797  32.316  29.234  1.00  0.00    -0.206 F 
ATOM     91  C   UNL A   1      36.542  32.935  31.948  1.00  0.00     0.060 A 
BRANCH  91  92
ATOM     92  S   UNL A   1      34.833  33.479  32.166  1.00  0.00     0.124 S 
ATOM     93  O   UNL A   1      34.955  34.924  32.006  1.00  0.00    -0.237 OA
ATOM     94  O   UNL A   1      34.147  32.771  31.091  1.00  0.00    -0.237 OA
ATOM     95  O   UNL A   1      34.503  33.028  33.516  1.00  0.00    -0.744 OA
ENDBRANCH  91  92
ENDBRANCH  59  84
BRANCH  71  96
ATOM     96  C   UNL A   1      45.454  33.219  33.017  1.00  0.00     0.058 A 
ATOM     97  C   UNL A   1      45.570  31.820  32.921  1.00  0.00     0.135 A 
ATOM     98  C   UNL A   1      45.962  33.822  34.179  1.00  0.00     0.135 A 
ATOM     99  F   UNL A   1      45.224  31.174  31.799  1.00  0.00    -0.206 F 
ATOM    100  C   UNL A   1      46.112  31.054  33.954  1.00  0.00     0.059 A 
ATOM    101  C   UNL A   1      46.539  33.081  35.207  1.00  0.00     0.059 A 
ATOM    102  F   UNL A   1      45.946  35.159  34.305  1.00  0.00    -0.206 F 
ATOM    103  C   UNL A   1      46.593  31.693  35.096  1.00  0.00     0.060 A 
BRANCH 103 104
ATOM    104  S   UNL A   1      47.366  30.706  36.396  1.00  0.00     0.124 S 
ATOM    105  O   UNL A   1      47.216  31.568  37.564  1.00  0.00    -0.237 OA
ATOM    106  O   UNL A   1      46.558  29.490  36.398  1.00  0.00    -0.237 OA
ATOM    107  O   UNL A   1      48.736  30.530  35.921  1.00  0.00    -0.744 OA
ENDBRANCH 103 104
ENDBRANCH  71  96
ENDBRANCH  45  46
ENDBRANCH  38  40
ENDBRANCH  37  38
ENDBRANCH  36  37
ENDBRANCH  35  36
ENDBRANCH  34  35
ENDBRANCH   1  34
TORSDOF 24
ENDMDL
