MODEL 1
REMARK VINA RESULT:     -10.9      0.000      0.000
REMARK SMILES Cc1nsc(N(C)C(=O)c2ccc(F)cc2)c1C(=O)OCCOCCOCCOC(=O)c1ccc(-c2c3nc(c(-c4c(F)cc(S(=O)(=O)[O-])cc4F)c4ccc([nH]4)c(-c4c(F)cc(S(=O)(=O)[O-])cc4F)c4nc(c(-c5c(F)cc(S(=O)(=O)[O-])cc5F)c5ccc2[nH]5)C=C4)C=C3)cc1
REMARK SMILES IDX 24 1 23 2 22 3 21 4 20 5 18 6 19 7 17 8 1 9 2 10 3 11 4 12
REMARK SMILES IDX 5 13 6 14 7 15 8 16 9 17 10 18 11 19 16 20 12 21 15 22 13 23
REMARK SMILES IDX 14 24 25 25 26 26 27 27 28 28 29 29 30 30 31 31 32 32 33 33
REMARK SMILES IDX 97 34 34 35 96 36 35 37 36 38 37 39 90 40 38 41 95 42 89 43
REMARK SMILES IDX 91 44 39 45 94 46 88 47 87 48 40 50 74 51 53 52 73 53 54 54
REMARK SMILES IDX 57 55 72 56 92 57 55 58 56 59 71 61 93 62 58 63 41 64 42 65
REMARK SMILES IDX 51 66 43 67 44 68 50 69 52 70 45 71 46 72 47 73 48 74 49 75
REMARK SMILES IDX 75 76 76 77 85 78 77 79 78 80 84 81 86 82 79 83 80 84 81 85
REMARK SMILES IDX 82 86 83 87 59 88 60 89 69 90 61 91 62 92 68 93 70 94 63 95
REMARK SMILES IDX 64 96 65 97 66 98 67 99
REMARK H PARENT 91 49 57 60
REMARK Flexibility Score: inf
ROOT
ATOM      1  C   UNL A   1      38.417  21.090  25.444  1.00  0.00     0.188 C 
ENDROOT
BRANCH   1   2
ATOM      2  O   UNL A   1      37.159  21.718  25.249  1.00  0.00    -0.376 OA
BRANCH   2   3
ATOM      3  C   UNL A   1      36.741  21.851  23.888  1.00  0.00     0.202 C 
BRANCH   3   4
ATOM      4  C   UNL A   1      36.672  23.293  23.365  1.00  0.00     0.261 C 
BRANCH   4   5
ATOM      5  O   UNL A   1      35.316  23.677  23.113  1.00  0.00    -0.460 OA
BRANCH   5   6
ATOM      6  C   UNL A   1      34.628  24.386  24.057  1.00  0.00     0.343 C 
ATOM      7  O   UNL A   1      35.088  24.829  25.074  1.00  0.00    -0.246 OA
BRANCH   6   8
ATOM      8  C   UNL A   1      33.209  24.393  23.703  1.00  0.00     0.117 A 
ATOM      9  C   UNL A   1      33.403  26.648  22.366  1.00  0.00     0.069 C 
ATOM     10  C   UNL A   1      32.668  25.438  22.849  1.00  0.00     0.068 A 
ATOM     11  N   UNL A   1      31.386  25.328  22.525  1.00  0.00    -0.195 NA
ATOM     12  S   UNL A   1      30.760  24.034  23.304  1.00  0.00    -0.017 S 
ATOM     13  C   UNL A   1      32.172  23.593  24.203  1.00  0.00     0.133 A 
BRANCH  13  14
ATOM     14  N   UNL A   1      32.000  22.617  25.237  1.00  0.00    -0.301 N 
ATOM     15  C   UNL A   1      30.805  22.553  26.098  1.00  0.00     0.154 C 
BRANCH  14  16
ATOM     16  C   UNL A   1      33.066  21.742  25.535  1.00  0.00     0.258 C 
ATOM     17  O   UNL A   1      33.891  21.869  26.431  1.00  0.00    -0.269 OA
BRANCH  16  18
ATOM     18  C   UNL A   1      33.223  20.482  24.767  1.00  0.00     0.040 A 
ATOM     19  C   UNL A   1      34.226  19.562  25.088  1.00  0.00     0.017 A 
ATOM     20  C   UNL A   1      32.254  20.166  23.801  1.00  0.00     0.017 A 
ATOM     21  C   UNL A   1      34.279  18.340  24.413  1.00  0.00     0.040 A 
ATOM     22  C   UNL A   1      32.307  18.940  23.137  1.00  0.00     0.040 A 
ATOM     23  C   UNL A   1      33.320  18.039  23.449  1.00  0.00     0.123 A 
ATOM     24  F   UNL A   1      33.360  16.852  22.831  1.00  0.00    -0.207 F 
ENDBRANCH  16  18
ENDBRANCH  14  16
ENDBRANCH  13  14
ENDBRANCH   6   8
ENDBRANCH   5   6
ENDBRANCH   4   5
ENDBRANCH   3   4
ENDBRANCH   2   3
ENDBRANCH   1   2
BRANCH   1  25
ATOM     25  C   UNL A   1      39.479  21.914  26.203  1.00  0.00     0.188 C 
BRANCH  25  26
ATOM     26  O   UNL A   1      40.028  21.480  27.442  1.00  0.00    -0.376 OA
BRANCH  26  27
ATOM     27  C   UNL A   1      41.165  20.629  27.488  1.00  0.00     0.202 C 
BRANCH  27  28
ATOM     28  C   UNL A   1      42.511  21.143  26.987  1.00  0.00     0.261 C 
BRANCH  28  29
ATOM     29  O   UNL A   1      42.753  20.805  25.631  1.00  0.00    -0.460 OA
BRANCH  29  30
ATOM     30  C   UNL A   1      44.057  20.654  25.320  1.00  0.00     0.338 C 
ATOM     31  O   UNL A   1      44.682  19.609  25.251  1.00  0.00    -0.246 OA
BRANCH  30  32
ATOM     32  C   UNL A   1      44.657  21.980  25.120  1.00  0.00     0.060 A 
ATOM     33  C   UNL A   1      45.618  22.338  26.062  1.00  0.00     0.016 A 
ATOM     34  C   UNL A   1      44.011  22.925  24.303  1.00  0.00     0.016 A 
ATOM     35  C   UNL A   1      45.636  23.646  26.465  1.00  0.00     0.010 A 
ATOM     36  C   UNL A   1      44.033  24.237  24.705  1.00  0.00     0.010 A 
ATOM     37  C   UNL A   1      44.726  24.529  25.874  1.00  0.00    -0.014 A 
BRANCH  37  38
ATOM     38  C   UNL A   1      44.389  25.698  26.652  1.00  0.00     0.031 A 
ATOM     39  C   UNL A   1      45.351  26.801  26.552  1.00  0.00     0.074 A 
ATOM     40  C   UNL A   1      43.294  25.729  27.433  1.00  0.00     0.049 A 
ATOM     41  N   UNL A   1      46.164  27.227  27.459  1.00  0.00    -0.248 NA
ATOM     42  C   UNL A   1      45.531  27.401  25.228  1.00  0.00     0.031 C 
ATOM     43  C   UNL A   1      42.137  24.829  27.444  1.00  0.00     0.029 A 
ATOM     44  N   UNL A   1      42.960  26.672  28.347  1.00  0.00    -0.354 N 
ATOM     45  C   UNL A   1      46.861  28.271  26.869  1.00  0.00     0.074 A 
ATOM     46  C   UNL A   1      46.541  28.238  25.463  1.00  0.00     0.031 C 
ATOM     47  C   UNL A   1      41.140  25.406  28.153  1.00  0.00     0.029 A 
ATOM     48  C   UNL A   1      41.633  26.643  28.740  1.00  0.00     0.049 A 
ATOM     49  H   UNL A   1      43.607  27.323  28.703  1.00  0.00     0.167 HD
ATOM     50  C   UNL A   1      47.525  29.203  27.601  1.00  0.00     0.037 A 
ATOM     51  C   UNL A   1      40.991  27.645  29.389  1.00  0.00     0.037 A 
ATOM     52  C   UNL A   1      47.714  28.791  28.965  1.00  0.00     0.049 A 
ATOM     53  C   UNL A   1      42.040  28.465  30.065  1.00  0.00     0.074 A 
ATOM     54  C   UNL A   1      48.417  27.767  29.569  1.00  0.00     0.029 A 
ATOM     55  N   UNL A   1      46.833  29.253  29.914  1.00  0.00    -0.354 N 
ATOM     56  N   UNL A   1      42.780  28.038  31.055  1.00  0.00    -0.248 NA
ATOM     57  C   UNL A   1      42.577  29.616  29.350  1.00  0.00     0.031 C 
ATOM     58  C   UNL A   1      47.621  27.368  30.681  1.00  0.00     0.029 A 
ATOM     59  C   UNL A   1      46.488  28.184  30.706  1.00  0.00     0.049 A 
ATOM     60  H   UNL A   1      46.508  30.177  30.007  1.00  0.00     0.167 HD
ATOM     61  C   UNL A   1      44.036  28.591  30.838  1.00  0.00     0.074 A 
ATOM     62  C   UNL A   1      43.824  29.626  29.831  1.00  0.00     0.031 C 
ATOM     63  C   UNL A   1      45.175  27.981  31.285  1.00  0.00     0.037 A 
BRANCH  50  64
ATOM     64  C   UNL A   1      47.775  30.600  27.118  1.00  0.00     0.058 A 
ATOM     65  C   UNL A   1      46.735  31.531  26.901  1.00  0.00     0.135 A 
ATOM     66  C   UNL A   1      49.083  31.113  27.078  1.00  0.00     0.135 A 
ATOM     67  F   UNL A   1      45.445  31.198  27.041  1.00  0.00    -0.206 F 
ATOM     68  C   UNL A   1      46.972  32.868  26.621  1.00  0.00     0.059 A 
ATOM     69  C   UNL A   1      49.341  32.468  26.863  1.00  0.00     0.059 A 
ATOM     70  F   UNL A   1      50.137  30.315  27.305  1.00  0.00    -0.206 F 
ATOM     71  C   UNL A   1      48.277  33.335  26.634  1.00  0.00     0.060 A 
BRANCH  71  72
ATOM     72  S   UNL A   1      48.528  35.111  26.478  1.00  0.00     0.124 S 
ATOM     73  O   UNL A   1      49.370  35.389  27.636  1.00  0.00    -0.237 OA
ATOM     74  O   UNL A   1      49.183  35.211  25.176  1.00  0.00    -0.237 OA
ATOM     75  O   UNL A   1      47.173  35.647  26.537  1.00  0.00    -0.744 OA
ENDBRANCH  71  72
ENDBRANCH  50  64
BRANCH  51  76
ATOM     76  C   UNL A   1      39.626  28.157  29.082  1.00  0.00     0.058 A 
ATOM     77  C   UNL A   1      39.349  28.902  27.914  1.00  0.00     0.135 A 
ATOM     78  C   UNL A   1      38.621  28.158  30.065  1.00  0.00     0.135 A 
ATOM     79  F   UNL A   1      40.248  29.026  26.929  1.00  0.00    -0.206 F 
ATOM     80  C   UNL A   1      38.177  29.633  27.751  1.00  0.00     0.059 A 
ATOM     81  C   UNL A   1      37.440  28.898  29.930  1.00  0.00     0.059 A 
ATOM     82  F   UNL A   1      38.805  27.493  31.217  1.00  0.00    -0.206 F 
ATOM     83  C   UNL A   1      37.243  29.657  28.778  1.00  0.00     0.060 A 
BRANCH  83  84
ATOM     84  S   UNL A   1      35.837  30.774  28.604  1.00  0.00     0.124 S 
ATOM     85  O   UNL A   1      36.382  31.801  27.721  1.00  0.00    -0.237 OA
ATOM     86  O   UNL A   1      34.827  29.902  28.009  1.00  0.00    -0.237 OA
ATOM     87  O   UNL A   1      35.567  31.201  29.973  1.00  0.00    -0.744 OA
ENDBRANCH  83  84
ENDBRANCH  51  76
BRANCH  63  88
ATOM     88  C   UNL A   1      45.037  26.822  32.242  1.00  0.00     0.058 A 
ATOM     89  C   UNL A   1      44.813  25.537  31.723  1.00  0.00     0.135 A 
ATOM     90  C   UNL A   1      44.931  26.975  33.637  1.00  0.00     0.135 A 
ATOM     91  F   UNL A   1      44.839  25.333  30.395  1.00  0.00    -0.206 F 
ATOM     92  C   UNL A   1      44.495  24.457  32.542  1.00  0.00     0.059 A 
ATOM     93  C   UNL A   1      44.648  25.900  34.481  1.00  0.00     0.059 A 
ATOM     94  F   UNL A   1      45.025  28.185  34.203  1.00  0.00    -0.206 F 
ATOM     95  C   UNL A   1      44.410  24.647  33.921  1.00  0.00     0.060 A 
BRANCH  95  96
ATOM     96  S   UNL A   1      43.952  23.242  34.958  1.00  0.00     0.124 S 
ATOM     97  O   UNL A   1      44.615  23.567  36.217  1.00  0.00    -0.237 OA
ATOM     98  O   UNL A   1      42.494  23.327  34.976  1.00  0.00    -0.237 OA
ATOM     99  O   UNL A   1      44.497  22.090  34.246  1.00  0.00    -0.744 OA
ENDBRANCH  95  96
ENDBRANCH  63  88
ENDBRANCH  37  38
ENDBRANCH  30  32
ENDBRANCH  29  30
ENDBRANCH  28  29
ENDBRANCH  27  28
ENDBRANCH  26  27
ENDBRANCH  25  26
ENDBRANCH   1  25
TORSDOF 23
ENDMDL
MODEL 2
REMARK VINA RESULT:     -10.6      1.735      3.102
REMARK SMILES Cc1nsc(N(C)C(=O)c2ccc(F)cc2)c1C(=O)OCCOCCOCCOC(=O)c1ccc(-c2c3nc(c(-c4c(F)cc(S(=O)(=O)[O-])cc4F)c4ccc([nH]4)c(-c4c(F)cc(S(=O)(=O)[O-])cc4F)c4nc(c(-c5c(F)cc(S(=O)(=O)[O-])cc5F)c5ccc2[nH]5)C=C4)C=C3)cc1
REMARK SMILES IDX 24 1 23 2 22 3 21 4 20 5 18 6 19 7 17 8 1 9 2 10 3 11 4 12
REMARK SMILES IDX 5 13 6 14 7 15 8 16 9 17 10 18 11 19 16 20 12 21 15 22 13 23
REMARK SMILES IDX 14 24 25 25 26 26 27 27 28 28 29 29 30 30 31 31 32 32 33 33
REMARK SMILES IDX 97 34 34 35 96 36 35 37 36 38 37 39 90 40 38 41 95 42 89 43
REMARK SMILES IDX 91 44 39 45 94 46 88 47 87 48 40 50 74 51 53 52 73 53 54 54
REMARK SMILES IDX 57 55 72 56 92 57 55 58 56 59 71 61 93 62 58 63 41 64 42 65
REMARK SMILES IDX 51 66 43 67 44 68 50 69 52 70 45 71 46 72 47 73 48 74 49 75
REMARK SMILES IDX 75 76 76 77 85 78 77 79 78 80 84 81 86 82 79 83 80 84 81 85
REMARK SMILES IDX 82 86 83 87 59 88 60 89 69 90 61 91 62 92 68 93 70 94 63 95
REMARK SMILES IDX 64 96 65 97 66 98 67 99
REMARK H PARENT 91 49 57 60
REMARK Flexibility Score: inf
ROOT
ATOM      1  C   UNL A   1      39.127  22.065  25.961  1.00  0.00     0.188 C 
ENDROOT
BRANCH   1   2
ATOM      2  O   UNL A   1      38.273  23.183  26.147  1.00  0.00    -0.376 OA
BRANCH   2   3
ATOM      3  C   UNL A   1      37.436  23.512  25.036  1.00  0.00     0.202 C 
BRANCH   3   4
ATOM      4  C   UNL A   1      35.980  23.840  25.390  1.00  0.00     0.261 C 
BRANCH   4   5
ATOM      5  O   UNL A   1      35.415  22.817  26.217  1.00  0.00    -0.460 OA
BRANCH   5   6
ATOM      6  C   UNL A   1      34.514  21.939  25.686  1.00  0.00     0.343 C 
ATOM      7  O   UNL A   1      34.777  20.879  25.188  1.00  0.00    -0.246 OA
BRANCH   6   8
ATOM      8  C   UNL A   1      33.190  22.561  25.687  1.00  0.00     0.117 A 
ATOM      9  C   UNL A   1      32.870  22.222  28.274  1.00  0.00     0.069 C 
ATOM     10  C   UNL A   1      32.462  22.742  26.933  1.00  0.00     0.068 A 
ATOM     11  N   UNL A   1      31.298  23.375  26.848  1.00  0.00    -0.195 NA
ATOM     12  S   UNL A   1      30.988  23.689  25.273  1.00  0.00    -0.017 S 
ATOM     13  C   UNL A   1      32.376  22.903  24.598  1.00  0.00     0.133 A 
BRANCH  13  14
ATOM     14  N   UNL A   1      32.386  22.720  23.177  1.00  0.00    -0.301 N 
ATOM     15  C   UNL A   1      31.892  21.500  22.514  1.00  0.00     0.154 C 
BRANCH  14  16
ATOM     16  C   UNL A   1      33.002  23.698  22.368  1.00  0.00     0.258 C 
ATOM     17  O   UNL A   1      33.720  23.500  21.395  1.00  0.00    -0.269 OA
BRANCH  16  18
ATOM     18  C   UNL A   1      32.742  25.137  22.621  1.00  0.00     0.040 A 
ATOM     19  C   UNL A   1      33.694  25.942  23.255  1.00  0.00     0.017 A 
ATOM     20  C   UNL A   1      31.577  25.708  22.083  1.00  0.00     0.017 A 
ATOM     21  C   UNL A   1      33.460  27.312  23.382  1.00  0.00     0.040 A 
ATOM     22  C   UNL A   1      31.353  27.080  22.206  1.00  0.00     0.040 A 
ATOM     23  C   UNL A   1      32.297  27.868  22.855  1.00  0.00     0.123 A 
ATOM     24  F   UNL A   1      32.096  29.189  22.953  1.00  0.00    -0.207 F 
ENDBRANCH  16  18
ENDBRANCH  14  16
ENDBRANCH  13  14
ENDBRANCH   6   8
ENDBRANCH   5   6
ENDBRANCH   4   5
ENDBRANCH   3   4
ENDBRANCH   2   3
ENDBRANCH   1   2
BRANCH   1  25
ATOM     25  C   UNL A   1      40.135  21.782  27.096  1.00  0.00     0.188 C 
BRANCH  25  26
ATOM     26  O   UNL A   1      40.473  20.459  27.493  1.00  0.00    -0.376 OA
BRANCH  26  27
ATOM     27  C   UNL A   1      41.781  19.939  27.293  1.00  0.00     0.202 C 
BRANCH  27  28
ATOM     28  C   UNL A   1      42.892  20.862  26.803  1.00  0.00     0.261 C 
BRANCH  28  29
ATOM     29  O   UNL A   1      43.168  20.696  25.422  1.00  0.00    -0.460 OA
BRANCH  29  30
ATOM     30  C   UNL A   1      44.481  20.672  25.117  1.00  0.00     0.338 C 
ATOM     31  O   UNL A   1      45.202  19.690  25.041  1.00  0.00    -0.246 OA
BRANCH  30  32
ATOM     32  C   UNL A   1      44.956  22.050  24.934  1.00  0.00     0.060 A 
ATOM     33  C   UNL A   1      45.977  22.440  25.797  1.00  0.00     0.016 A 
ATOM     34  C   UNL A   1      44.161  22.978  24.238  1.00  0.00     0.016 A 
ATOM     35  C   UNL A   1      45.935  23.724  26.269  1.00  0.00     0.010 A 
ATOM     36  C   UNL A   1      44.123  24.266  24.708  1.00  0.00     0.010 A 
ATOM     37  C   UNL A   1      44.906  24.558  25.819  1.00  0.00    -0.014 A 
BRANCH  37  38
ATOM     38  C   UNL A   1      44.561  25.656  26.690  1.00  0.00     0.031 A 
ATOM     39  C   UNL A   1      45.536  26.753  26.712  1.00  0.00     0.074 A 
ATOM     40  C   UNL A   1      43.447  25.631  27.444  1.00  0.00     0.049 A 
ATOM     41  N   UNL A   1      46.330  27.086  27.671  1.00  0.00    -0.248 NA
ATOM     42  C   UNL A   1      45.755  27.466  25.450  1.00  0.00     0.031 C 
ATOM     43  C   UNL A   1      42.282  24.747  27.347  1.00  0.00     0.029 A 
ATOM     44  N   UNL A   1      43.099  26.493  28.430  1.00  0.00    -0.354 N 
ATOM     45  C   UNL A   1      47.052  28.170  27.194  1.00  0.00     0.074 A 
ATOM     46  C   UNL A   1      46.767  28.266  25.784  1.00  0.00     0.031 C 
ATOM     47  C   UNL A   1      41.273  25.271  28.080  1.00  0.00     0.029 A 
ATOM     48  C   UNL A   1      41.763  26.445  28.786  1.00  0.00     0.049 A 
ATOM     49  H   UNL A   1      43.744  27.102  28.858  1.00  0.00     0.167 HD
ATOM     50  C   UNL A   1      47.707  29.026  28.022  1.00  0.00     0.037 A 
ATOM     51  C   UNL A   1      41.115  27.393  29.507  1.00  0.00     0.037 A 
ATOM     52  C   UNL A   1      47.857  28.492  29.348  1.00  0.00     0.049 A 
ATOM     53  C   UNL A   1      42.154  28.137  30.277  1.00  0.00     0.074 A 
ATOM     54  C   UNL A   1      48.535  27.411  29.875  1.00  0.00     0.029 A 
ATOM     55  N   UNL A   1      46.957  28.878  30.313  1.00  0.00    -0.354 N 
ATOM     56  N   UNL A   1      42.865  27.615  31.243  1.00  0.00    -0.248 NA
ATOM     57  C   UNL A   1      42.720  29.341  29.681  1.00  0.00     0.031 C 
ATOM     58  C   UNL A   1      47.708  26.923  30.928  1.00  0.00     0.029 A 
ATOM     59  C   UNL A   1      46.583  27.748  30.998  1.00  0.00     0.049 A 
ATOM     60  H   UNL A   1      46.639  29.795  30.481  1.00  0.00     0.167 HD
ATOM     61  C   UNL A   1      44.131  28.170  31.107  1.00  0.00     0.074 A 
ATOM     62  C   UNL A   1      43.955  29.293  30.191  1.00  0.00     0.031 C 
ATOM     63  C   UNL A   1      45.253  27.510  31.525  1.00  0.00     0.037 A 
BRANCH  50  64
ATOM     64  C   UNL A   1      47.982  30.457  27.671  1.00  0.00     0.058 A 
ATOM     65  C   UNL A   1      49.276  30.933  27.362  1.00  0.00     0.135 A 
ATOM     66  C   UNL A   1      46.920  31.341  27.413  1.00  0.00     0.135 A 
ATOM     67  F   UNL A   1      50.358  30.146  27.438  1.00  0.00    -0.206 F 
ATOM     68  C   UNL A   1      49.508  32.209  26.872  1.00  0.00     0.059 A 
ATOM     69  C   UNL A   1      47.126  32.606  26.859  1.00  0.00     0.059 A 
ATOM     70  F   UNL A   1      45.651  30.969  27.642  1.00  0.00    -0.206 F 
ATOM     71  C   UNL A   1      48.424  33.028  26.595  1.00  0.00     0.060 A 
BRANCH  71  72
ATOM     72  S   UNL A   1      48.754  34.592  25.764  1.00  0.00     0.124 S 
ATOM     73  O   UNL A   1      49.945  34.263  24.988  1.00  0.00    -0.237 OA
ATOM     74  O   UNL A   1      47.528  34.791  24.996  1.00  0.00    -0.237 OA
ATOM     75  O   UNL A   1      48.956  35.522  26.869  1.00  0.00    -0.744 OA
ENDBRANCH  71  72
ENDBRANCH  50  64
BRANCH  51  76
ATOM     76  C   UNL A   1      39.763  27.946  29.213  1.00  0.00     0.058 A 
ATOM     77  C   UNL A   1      39.486  28.664  28.028  1.00  0.00     0.135 A 
ATOM     78  C   UNL A   1      38.783  28.018  30.219  1.00  0.00     0.135 A 
ATOM     79  F   UNL A   1      40.365  28.722  27.019  1.00  0.00    -0.206 F 
ATOM     80  C   UNL A   1      38.338  29.433  27.868  1.00  0.00     0.059 A 
ATOM     81  C   UNL A   1      37.627  28.798  30.085  1.00  0.00     0.059 A 
ATOM     82  F   UNL A   1      38.969  27.384  31.387  1.00  0.00    -0.206 F 
ATOM     83  C   UNL A   1      37.431  29.526  28.914  1.00  0.00     0.060 A 
BRANCH  83  84
ATOM     84  S   UNL A   1      36.064  30.690  28.735  1.00  0.00     0.124 S 
ATOM     85  O   UNL A   1      35.730  30.972  30.128  1.00  0.00    -0.237 OA
ATOM     86  O   UNL A   1      36.692  31.787  28.003  1.00  0.00    -0.237 OA
ATOM     87  O   UNL A   1      35.064  29.932  27.990  1.00  0.00    -0.744 OA
ENDBRANCH  83  84
ENDBRANCH  51  76
BRANCH  63  88
ATOM     88  C   UNL A   1      45.080  26.271  32.371  1.00  0.00     0.058 A 
ATOM     89  C   UNL A   1      45.360  26.344  33.744  1.00  0.00     0.135 A 
ATOM     90  C   UNL A   1      44.833  24.993  31.835  1.00  0.00     0.135 A 
ATOM     91  F   UNL A   1      45.663  27.525  34.309  1.00  0.00    -0.206 F 
ATOM     92  C   UNL A   1      45.400  25.208  34.549  1.00  0.00     0.059 A 
ATOM     93  C   UNL A   1      44.834  23.845  32.628  1.00  0.00     0.059 A 
ATOM     94  F   UNL A   1      44.662  24.824  30.517  1.00  0.00    -0.206 F 
ATOM     95  C   UNL A   1      45.139  23.960  33.982  1.00  0.00     0.060 A 
BRANCH  95  96
ATOM     96  S   UNL A   1      45.242  22.497  35.036  1.00  0.00     0.124 S 
ATOM     97  O   UNL A   1      44.949  23.054  36.353  1.00  0.00    -0.237 OA
ATOM     98  O   UNL A   1      44.207  21.632  34.475  1.00  0.00    -0.237 OA
ATOM     99  O   UNL A   1      46.611  22.027  34.848  1.00  0.00    -0.744 OA
ENDBRANCH  95  96
ENDBRANCH  63  88
ENDBRANCH  37  38
ENDBRANCH  30  32
ENDBRANCH  29  30
ENDBRANCH  28  29
ENDBRANCH  27  28
ENDBRANCH  26  27
ENDBRANCH  25  26
ENDBRANCH   1  25
TORSDOF 23
ENDMDL
MODEL 3
REMARK VINA RESULT:     -10.5      3.311      5.104
REMARK SMILES Cc1nsc(N(C)C(=O)c2ccc(F)cc2)c1C(=O)OCCOCCOCCOC(=O)c1ccc(-c2c3nc(c(-c4c(F)cc(S(=O)(=O)[O-])cc4F)c4ccc([nH]4)c(-c4c(F)cc(S(=O)(=O)[O-])cc4F)c4nc(c(-c5c(F)cc(S(=O)(=O)[O-])cc5F)c5ccc2[nH]5)C=C4)C=C3)cc1
REMARK SMILES IDX 24 1 23 2 22 3 21 4 20 5 18 6 19 7 17 8 1 9 2 10 3 11 4 12
REMARK SMILES IDX 5 13 6 14 7 15 8 16 9 17 10 18 11 19 16 20 12 21 15 22 13 23
REMARK SMILES IDX 14 24 25 25 26 26 27 27 28 28 29 29 30 30 31 31 32 32 33 33
REMARK SMILES IDX 97 34 34 35 96 36 35 37 36 38 37 39 90 40 38 41 95 42 89 43
REMARK SMILES IDX 91 44 39 45 94 46 88 47 87 48 40 50 74 51 53 52 73 53 54 54
REMARK SMILES IDX 57 55 72 56 92 57 55 58 56 59 71 61 93 62 58 63 41 64 42 65
REMARK SMILES IDX 51 66 43 67 44 68 50 69 52 70 45 71 46 72 47 73 48 74 49 75
REMARK SMILES IDX 75 76 76 77 85 78 77 79 78 80 84 81 86 82 79 83 80 84 81 85
REMARK SMILES IDX 82 86 83 87 59 88 60 89 69 90 61 91 62 92 68 93 70 94 63 95
REMARK SMILES IDX 64 96 65 97 66 98 67 99
REMARK H PARENT 91 49 57 60
REMARK Flexibility Score: inf
ROOT
ATOM      1  C   UNL A   1      35.886  21.690  25.257  1.00  0.00     0.188 C 
ENDROOT
BRANCH   1   2
ATOM      2  O   UNL A   1      34.854  21.598  24.287  1.00  0.00    -0.376 OA
BRANCH   2   3
ATOM      3  C   UNL A   1      33.753  20.756  24.636  1.00  0.00     0.202 C 
BRANCH   3   4
ATOM      4  C   UNL A   1      32.366  21.386  24.454  1.00  0.00     0.261 C 
BRANCH   4   5
ATOM      5  O   UNL A   1      31.775  21.687  25.723  1.00  0.00    -0.460 OA
BRANCH   5   6
ATOM      6  C   UNL A   1      32.241  22.745  26.451  1.00  0.00     0.343 C 
ATOM      7  O   UNL A   1      33.168  22.717  27.214  1.00  0.00    -0.246 OA
BRANCH   6   8
ATOM      8  C   UNL A   1      31.339  23.881  26.266  1.00  0.00     0.117 A 
ATOM      9  C   UNL A   1      29.291  22.621  27.326  1.00  0.00     0.069 C 
ATOM     10  C   UNL A   1      29.968  23.821  26.746  1.00  0.00     0.068 A 
ATOM     11  N   UNL A   1      29.242  24.922  26.594  1.00  0.00    -0.195 NA
ATOM     12  S   UNL A   1      30.136  26.030  25.789  1.00  0.00    -0.017 S 
ATOM     13  C   UNL A   1      31.537  25.049  25.515  1.00  0.00     0.133 A 
BRANCH  13  14
ATOM     14  N   UNL A   1      32.514  25.562  24.602  1.00  0.00    -0.301 N 
ATOM     15  C   UNL A   1      33.636  24.758  24.082  1.00  0.00     0.154 C 
BRANCH  14  16
ATOM     16  C   UNL A   1      32.483  26.932  24.266  1.00  0.00     0.258 C 
ATOM     17  O   UNL A   1      32.222  27.413  23.171  1.00  0.00    -0.269 OA
BRANCH  16  18
ATOM     18  C   UNL A   1      32.715  27.955  25.317  1.00  0.00     0.040 A 
ATOM     19  C   UNL A   1      33.724  27.792  26.272  1.00  0.00     0.017 A 
ATOM     20  C   UNL A   1      31.993  29.157  25.245  1.00  0.00     0.017 A 
ATOM     21  C   UNL A   1      33.983  28.822  27.179  1.00  0.00     0.040 A 
ATOM     22  C   UNL A   1      32.263  30.185  26.149  1.00  0.00     0.040 A 
ATOM     23  C   UNL A   1      33.254  30.007  27.107  1.00  0.00     0.123 A 
ATOM     24  F   UNL A   1      33.532  31.001  27.961  1.00  0.00    -0.207 F 
ENDBRANCH  16  18
ENDBRANCH  14  16
ENDBRANCH  13  14
ENDBRANCH   6   8
ENDBRANCH   5   6
ENDBRANCH   4   5
ENDBRANCH   3   4
ENDBRANCH   2   3
ENDBRANCH   1   2
BRANCH   1  25
ATOM     25  C   UNL A   1      36.927  20.550  25.255  1.00  0.00     0.188 C 
BRANCH  25  26
ATOM     26  O   UNL A   1      38.286  20.769  24.900  1.00  0.00    -0.376 OA
BRANCH  26  27
ATOM     27  C   UNL A   1      39.346  20.408  25.776  1.00  0.00     0.202 C 
BRANCH  27  28
ATOM     28  C   UNL A   1      40.445  21.420  26.085  1.00  0.00     0.261 C 
BRANCH  28  29
ATOM     29  O   UNL A   1      40.111  22.274  27.166  1.00  0.00    -0.460 OA
BRANCH  29  30
ATOM     30  C   UNL A   1      39.571  23.453  26.797  1.00  0.00     0.338 C 
ATOM     31  O   UNL A   1      38.424  23.658  26.436  1.00  0.00    -0.246 OA
BRANCH  30  32
ATOM     32  C   UNL A   1      40.612  24.490  26.838  1.00  0.00     0.060 A 
ATOM     33  C   UNL A   1      41.314  24.569  28.039  1.00  0.00     0.016 A 
ATOM     34  C   UNL A   1      40.591  25.541  25.905  1.00  0.00     0.016 A 
ATOM     35  C   UNL A   1      41.649  25.820  28.480  1.00  0.00     0.010 A 
ATOM     36  C   UNL A   1      40.932  26.795  26.347  1.00  0.00     0.010 A 
ATOM     37  C   UNL A   1      41.305  26.915  27.681  1.00  0.00    -0.014 A 
BRANCH  37  38
ATOM     38  C   UNL A   1      41.166  28.177  28.368  1.00  0.00     0.031 A 
ATOM     39  C   UNL A   1      42.290  29.103  28.186  1.00  0.00     0.074 A 
ATOM     40  C   UNL A   1      40.099  28.440  29.144  1.00  0.00     0.049 A 
ATOM     41  N   UNL A   1      43.170  29.461  29.059  1.00  0.00    -0.248 NA
ATOM     42  C   UNL A   1      42.549  29.567  26.820  1.00  0.00     0.031 C 
ATOM     43  C   UNL A   1      38.814  27.738  29.221  1.00  0.00     0.029 A 
ATOM     44  N   UNL A   1      39.928  29.489  29.984  1.00  0.00    -0.354 N 
ATOM     45  C   UNL A   1      44.017  30.334  28.393  1.00  0.00     0.074 A 
ATOM     46  C   UNL A   1      43.680  30.248  26.993  1.00  0.00     0.031 C 
ATOM     47  C   UNL A   1      37.929  28.517  29.884  1.00  0.00     0.029 A 
ATOM     48  C   UNL A   1      38.618  29.700  30.376  1.00  0.00     0.049 A 
ATOM     49  H   UNL A   1      40.674  30.054  30.290  1.00  0.00     0.167 HD
ATOM     50  C   UNL A   1      44.829  31.201  29.053  1.00  0.00     0.037 A 
ATOM     51  C   UNL A   1      38.150  30.837  30.948  1.00  0.00     0.037 A 
ATOM     52  C   UNL A   1      44.964  30.867  30.445  1.00  0.00     0.049 A 
ATOM     53  C   UNL A   1      39.322  31.528  31.560  1.00  0.00     0.074 A 
ATOM     54  C   UNL A   1      45.503  29.792  31.124  1.00  0.00     0.029 A 
ATOM     55  N   UNL A   1      44.178  31.532  31.356  1.00  0.00    -0.354 N 
ATOM     56  N   UNL A   1      39.996  31.063  32.580  1.00  0.00    -0.248 NA
ATOM     57  C   UNL A   1      40.027  32.523  30.762  1.00  0.00     0.031 C 
ATOM     58  C   UNL A   1      44.666  29.608  32.263  1.00  0.00     0.029 A 
ATOM     59  C   UNL A   1      43.678  30.593  32.226  1.00  0.00     0.049 A 
ATOM     60  H   UNL A   1      44.005  32.501  31.379  1.00  0.00     0.167 HD
ATOM     61  C   UNL A   1      41.322  31.393  32.324  1.00  0.00     0.074 A 
ATOM     62  C   UNL A   1      41.265  32.370  31.241  1.00  0.00     0.031 C 
ATOM     63  C   UNL A   1      42.355  30.645  32.817  1.00  0.00     0.037 A 
BRANCH  50  64
ATOM     64  C   UNL A   1      45.291  32.501  28.467  1.00  0.00     0.058 A 
ATOM     65  C   UNL A   1      44.453  33.633  28.363  1.00  0.00     0.135 A 
ATOM     66  C   UNL A   1      46.655  32.714  28.203  1.00  0.00     0.135 A 
ATOM     67  F   UNL A   1      43.161  33.594  28.715  1.00  0.00    -0.206 F 
ATOM     68  C   UNL A   1      44.923  34.881  27.983  1.00  0.00     0.059 A 
ATOM     69  C   UNL A   1      47.159  33.975  27.881  1.00  0.00     0.059 A 
ATOM     70  F   UNL A   1      47.536  31.707  28.307  1.00  0.00    -0.206 F 
ATOM     71  C   UNL A   1      46.283  35.050  27.773  1.00  0.00     0.060 A 
BRANCH  71  72
ATOM     72  S   UNL A   1      46.880  36.725  27.489  1.00  0.00     0.124 S 
ATOM     73  O   UNL A   1      46.243  37.450  28.584  1.00  0.00    -0.237 OA
ATOM     74  O   UNL A   1      48.326  36.554  27.596  1.00  0.00    -0.237 OA
ATOM     75  O   UNL A   1      46.385  37.035  26.152  1.00  0.00    -0.744 OA
ENDBRANCH  71  72
ENDBRANCH  50  64
BRANCH  51  76
ATOM     76  C   UNL A   1      36.880  31.534  30.601  1.00  0.00     0.058 A 
ATOM     77  C   UNL A   1      36.611  32.001  29.295  1.00  0.00     0.135 A 
ATOM     78  C   UNL A   1      36.019  32.001  31.610  1.00  0.00     0.135 A 
ATOM     79  F   UNL A   1      37.393  31.675  28.257  1.00  0.00    -0.206 F 
ATOM     80  C   UNL A   1      35.588  32.900  29.015  1.00  0.00     0.059 A 
ATOM     81  C   UNL A   1      34.992  32.918  31.354  1.00  0.00     0.059 A 
ATOM     82  F   UNL A   1      36.210  31.627  32.885  1.00  0.00    -0.206 F 
ATOM     83  C   UNL A   1      34.806  33.384  30.055  1.00  0.00     0.060 A 
BRANCH  83  84
ATOM     84  S   UNL A   1      33.626  34.695  29.674  1.00  0.00     0.124 S 
ATOM     85  O   UNL A   1      34.478  35.676  29.008  1.00  0.00    -0.237 OA
ATOM     86  O   UNL A   1      32.669  34.004  28.814  1.00  0.00    -0.237 OA
ATOM     87  O   UNL A   1      33.119  35.090  30.984  1.00  0.00    -0.744 OA
ENDBRANCH  83  84
ENDBRANCH  51  76
BRANCH  63  88
ATOM     88  C   UNL A   1      42.045  29.596  33.858  1.00  0.00     0.058 A 
ATOM     89  C   UNL A   1      42.385  29.849  35.196  1.00  0.00     0.135 A 
ATOM     90  C   UNL A   1      41.605  28.297  33.544  1.00  0.00     0.135 A 
ATOM     91  F   UNL A   1      42.869  31.050  35.553  1.00  0.00    -0.206 F 
ATOM     92  C   UNL A   1      42.299  28.863  36.176  1.00  0.00     0.059 A 
ATOM     93  C   UNL A   1      41.479  27.303  34.515  1.00  0.00     0.059 A 
ATOM     94  F   UNL A   1      41.363  27.943  32.275  1.00  0.00    -0.206 F 
ATOM     95  C   UNL A   1      41.848  27.590  35.827  1.00  0.00     0.060 A 
BRANCH  95  96
ATOM     96  S   UNL A   1      41.789  26.316  37.106  1.00  0.00     0.124 S 
ATOM     97  O   UNL A   1      42.918  26.688  37.953  1.00  0.00    -0.237 OA
ATOM     98  O   UNL A   1      40.468  26.522  37.693  1.00  0.00    -0.237 OA
ATOM     99  O   UNL A   1      41.950  25.069  36.364  1.00  0.00    -0.744 OA
ENDBRANCH  95  96
ENDBRANCH  63  88
ENDBRANCH  37  38
ENDBRANCH  30  32
ENDBRANCH  29  30
ENDBRANCH  28  29
ENDBRANCH  27  28
ENDBRANCH  26  27
ENDBRANCH  25  26
ENDBRANCH   1  25
TORSDOF 23
ENDMDL
