MODEL 1
REMARK VINA RESULT:     -10.5      0.000      0.000
REMARK SMILES O=C(OCCOCCOCCOC(=O)c1ccc(-c2c3nc(c(-c4c(F)cc(S(=O)(=O)[O-])cc4F)c4ccc([nH]4)c(-c4c(F)cc(S(=O)(=O)[O-])cc4F)c4nc(c(-c5c(F)cc(S(=O)(=O)[O-])cc5F)c5ccc2[nH]5)C=C4)C=C3)cc1)C1=Cc2c(ccc(Cl)c2Cl)O[C@H]1C(F)(F)F
REMARK SMILES IDX 8 1 7 2 6 3 5 4 4 5 3 6 2 7 1 8 81 9 82 10 92 11 83 12 91 13
REMARK SMILES IDX 84 14 89 15 85 16 87 17 90 18 86 19 88 20 93 21 94 22 95 23
REMARK SMILES IDX 96 24 9 25 10 26 11 27 12 28 13 29 14 30 15 31 16 32 80 33
REMARK SMILES IDX 17 34 79 35 18 36 19 37 20 38 73 39 21 40 78 41 72 42 74 43
REMARK SMILES IDX 22 44 77 45 71 46 70 47 23 49 57 50 36 51 56 52 37 53 40 54
REMARK SMILES IDX 55 55 75 56 38 57 39 58 54 60 76 61 41 62 24 63 25 64 34 65
REMARK SMILES IDX 26 66 27 67 33 68 35 69 28 70 29 71 30 72 31 73 32 74 58 75
REMARK SMILES IDX 59 76 68 77 60 78 61 79 67 80 69 81 62 82 63 83 64 84 65 85
REMARK SMILES IDX 66 86 42 87 43 88 52 89 44 90 45 91 51 92 53 93 46 94 47 95
REMARK SMILES IDX 48 96 49 97 50 98
REMARK H PARENT 74 48 40 59
REMARK Flexibility Score: inf
ROOT
ATOM      1  C   UNL A   1      40.761  21.001  27.093  1.00  0.00     0.188 C 
ENDROOT
BRANCH   1   2
ATOM      2  C   UNL A   1      39.669  21.824  26.394  1.00  0.00     0.188 C 
BRANCH   2   3
ATOM      3  O   UNL A   1      39.302  22.975  27.137  1.00  0.00    -0.376 OA
BRANCH   3   4
ATOM      4  C   UNL A   1      38.430  23.816  26.395  1.00  0.00     0.202 C 
BRANCH   4   5
ATOM      5  C   UNL A   1      37.567  23.039  25.407  1.00  0.00     0.261 C 
BRANCH   5   6
ATOM      6  O   UNL A   1      36.495  23.834  24.856  1.00  0.00    -0.460 OA
BRANCH   6   7
ATOM      7  C   UNL A   1      35.602  23.525  23.890  1.00  0.00     0.338 C 
ATOM      8  O   UNL A   1      35.987  22.978  22.862  1.00  0.00    -0.246 OA
BRANCH   7   9
ATOM      9  C   UNL A   1      34.150  23.615  24.149  1.00  0.00     0.087 C 
ATOM     10  C   UNL A   1      33.219  24.012  23.278  1.00  0.00     0.029 C 
ATOM     11  C   UNL A   1      33.689  22.940  25.426  1.00  0.00     0.316 C 
ATOM     12  C   UNL A   1      32.001  24.591  23.828  1.00  0.00     0.037 A 
ATOM     13  O   UNL A   1      32.347  23.316  25.868  1.00  0.00    -0.475 OA
ATOM     14  C   UNL A   1      31.642  24.218  25.124  1.00  0.00     0.129 A 
ATOM     15  C   UNL A   1      31.288  25.627  23.181  1.00  0.00     0.070 A 
ATOM     16  C   UNL A   1      30.550  24.815  25.751  1.00  0.00     0.049 A 
ATOM     17  C   UNL A   1      30.230  26.264  23.842  1.00  0.00     0.060 A 
ATOM     18  Cl  UNL A   1      31.766  26.201  21.609  1.00  0.00    -0.082 Cl
ATOM     19  C   UNL A   1      29.854  25.846  25.118  1.00  0.00     0.026 A 
ATOM     20  Cl  UNL A   1      29.384  27.615  23.165  1.00  0.00    -0.083 Cl
BRANCH  11  21
ATOM     21  C   UNL A   1      33.766  21.395  25.238  1.00  0.00     0.430 C 
ATOM     22  F   UNL A   1      33.589  21.023  23.942  1.00  0.00    -0.167 F 
ATOM     23  F   UNL A   1      34.949  20.892  25.651  1.00  0.00    -0.167 F 
ATOM     24  F   UNL A   1      32.797  20.758  25.941  1.00  0.00    -0.167 F 
ENDBRANCH  11  21
ENDBRANCH   7   9
ENDBRANCH   6   7
ENDBRANCH   5   6
ENDBRANCH   4   5
ENDBRANCH   3   4
ENDBRANCH   2   3
ENDBRANCH   1   2
BRANCH   1  25
ATOM     25  O   UNL A   1      42.109  21.433  26.961  1.00  0.00    -0.376 OA
BRANCH  25  26
ATOM     26  C   UNL A   1      42.547  22.107  25.783  1.00  0.00     0.202 C 
BRANCH  26  27
ATOM     27  C   UNL A   1      42.878  23.609  25.724  1.00  0.00     0.261 C 
BRANCH  27  28
ATOM     28  O   UNL A   1      41.763  24.503  25.752  1.00  0.00    -0.460 OA
BRANCH  28  29
ATOM     29  C   UNL A   1      42.097  25.811  25.750  1.00  0.00     0.338 C 
ATOM     30  O   UNL A   1      42.365  26.510  24.773  1.00  0.00    -0.246 OA
BRANCH  29  31
ATOM     31  C   UNL A   1      42.095  26.354  27.108  1.00  0.00     0.060 A 
ATOM     32  C   UNL A   1      41.054  26.031  27.983  1.00  0.00     0.016 A 
ATOM     33  C   UNL A   1      43.024  27.345  27.433  1.00  0.00     0.016 A 
ATOM     34  C   UNL A   1      40.915  26.729  29.177  1.00  0.00     0.010 A 
ATOM     35  C   UNL A   1      42.887  28.043  28.633  1.00  0.00     0.010 A 
ATOM     36  C   UNL A   1      41.805  27.765  29.484  1.00  0.00    -0.014 A 
BRANCH  36  37
ATOM     37  C   UNL A   1      41.490  28.663  30.614  1.00  0.00     0.031 A 
ATOM     38  C   UNL A   1      42.318  28.567  31.866  1.00  0.00     0.074 A 
ATOM     39  C   UNL A   1      40.518  29.583  30.491  1.00  0.00     0.049 A 
ATOM     40  N   UNL A   1      42.223  29.250  32.976  1.00  0.00    -0.248 NA
ATOM     41  C   UNL A   1      43.407  27.573  31.863  1.00  0.00     0.031 C 
ATOM     42  C   UNL A   1      39.692  29.782  29.300  1.00  0.00     0.029 A 
ATOM     43  N   UNL A   1      40.065  30.521  31.379  1.00  0.00    -0.354 N 
ATOM     44  C   UNL A   1      43.241  28.780  33.797  1.00  0.00     0.074 A 
ATOM     45  C   UNL A   1      43.921  27.728  33.074  1.00  0.00     0.031 C 
ATOM     46  C   UNL A   1      38.816  30.773  29.540  1.00  0.00     0.029 A 
ATOM     47  C   UNL A   1      39.005  31.256  30.905  1.00  0.00     0.049 A 
ATOM     48  H   UNL A   1      40.459  30.655  32.271  1.00  0.00     0.167 HD
ATOM     49  C   UNL A   1      43.581  29.199  35.038  1.00  0.00     0.037 A 
ATOM     50  C   UNL A   1      38.261  32.195  31.520  1.00  0.00     0.037 A 
ATOM     51  C   UNL A   1      42.883  30.237  35.750  1.00  0.00     0.049 A 
ATOM     52  C   UNL A   1      38.615  32.591  32.930  1.00  0.00     0.074 A 
ATOM     53  C   UNL A   1      43.132  30.732  37.018  1.00  0.00     0.029 A 
ATOM     54  N   UNL A   1      41.794  30.940  35.253  1.00  0.00    -0.354 N 
ATOM     55  N   UNL A   1      39.584  32.143  33.697  1.00  0.00    -0.248 NA
ATOM     56  C   UNL A   1      37.782  33.624  33.558  1.00  0.00     0.031 C 
ATOM     57  C   UNL A   1      42.167  31.704  37.303  1.00  0.00     0.029 A 
ATOM     58  C   UNL A   1      41.348  31.852  36.195  1.00  0.00     0.049 A 
ATOM     59  H   UNL A   1      41.397  30.811  34.361  1.00  0.00     0.167 HD
ATOM     60  C   UNL A   1      39.489  32.857  34.886  1.00  0.00     0.074 A 
ATOM     61  C   UNL A   1      38.383  33.780  34.729  1.00  0.00     0.031 C 
ATOM     62  C   UNL A   1      40.242  32.759  36.012  1.00  0.00     0.037 A 
BRANCH  49  63
ATOM     63  C   UNL A   1      44.746  28.526  35.711  1.00  0.00     0.058 A 
ATOM     64  C   UNL A   1      46.053  29.025  35.589  1.00  0.00     0.135 A 
ATOM     65  C   UNL A   1      44.548  27.401  36.527  1.00  0.00     0.135 A 
ATOM     66  F   UNL A   1      46.302  30.085  34.803  1.00  0.00    -0.206 F 
ATOM     67  C   UNL A   1      47.124  28.428  36.246  1.00  0.00     0.059 A 
ATOM     68  C   UNL A   1      45.602  26.801  37.212  1.00  0.00     0.059 A 
ATOM     69  F   UNL A   1      43.321  26.878  36.670  1.00  0.00    -0.206 F 
ATOM     70  C   UNL A   1      46.887  27.318  37.060  1.00  0.00     0.060 A 
BRANCH  70  71
ATOM     71  S   UNL A   1      48.283  26.577  37.934  1.00  0.00     0.124 S 
ATOM     72  O   UNL A   1      49.012  27.760  38.378  1.00  0.00    -0.237 OA
ATOM     73  O   UNL A   1      47.620  25.811  38.985  1.00  0.00    -0.237 OA
ATOM     74  O   UNL A   1      48.945  25.780  36.906  1.00  0.00    -0.744 OA
ENDBRANCH  70  71
ENDBRANCH  49  63
BRANCH  50  75
ATOM     75  C   UNL A   1      37.096  32.802  30.823  1.00  0.00     0.058 A 
ATOM     76  C   UNL A   1      37.258  33.833  29.887  1.00  0.00     0.135 A 
ATOM     77  C   UNL A   1      35.788  32.374  31.102  1.00  0.00     0.135 A 
ATOM     78  F   UNL A   1      38.488  34.283  29.591  1.00  0.00    -0.206 F 
ATOM     79  C   UNL A   1      36.167  34.442  29.277  1.00  0.00     0.059 A 
ATOM     80  C   UNL A   1      34.682  32.947  30.483  1.00  0.00     0.059 A 
ATOM     81  F   UNL A   1      35.577  31.383  31.982  1.00  0.00    -0.206 F 
ATOM     82  C   UNL A   1      34.881  33.995  29.585  1.00  0.00     0.060 A 
BRANCH  82  83
ATOM     83  S   UNL A   1      33.467  34.786  28.784  1.00  0.00     0.124 S 
ATOM     84  O   UNL A   1      34.076  35.997  28.245  1.00  0.00    -0.237 OA
ATOM     85  O   UNL A   1      33.067  33.783  27.803  1.00  0.00    -0.237 OA
ATOM     86  O   UNL A   1      32.528  34.986  29.883  1.00  0.00    -0.744 OA
ENDBRANCH  82  83
ENDBRANCH  50  75
BRANCH  62  87
ATOM     87  C   UNL A   1      39.906  33.692  37.141  1.00  0.00     0.058 A 
ATOM     88  C   UNL A   1      40.464  34.979  37.224  1.00  0.00     0.135 A 
ATOM     89  C   UNL A   1      39.003  33.303  38.143  1.00  0.00     0.135 A 
ATOM     90  F   UNL A   1      41.336  35.399  36.294  1.00  0.00    -0.206 F 
ATOM     91  C   UNL A   1      40.172  35.829  38.285  1.00  0.00     0.059 A 
ATOM     92  C   UNL A   1      38.672  34.150  39.195  1.00  0.00     0.059 A 
ATOM     93  F   UNL A   1      38.428  32.090  38.102  1.00  0.00    -0.206 F 
ATOM     94  C   UNL A   1      39.277  35.404  39.268  1.00  0.00     0.060 A 
BRANCH  94  95
ATOM     95  S   UNL A   1      38.905  36.515  40.641  1.00  0.00     0.124 S 
ATOM     96  O   UNL A   1      40.181  36.546  41.348  1.00  0.00    -0.237 OA
ATOM     97  O   UNL A   1      38.531  37.748  39.954  1.00  0.00    -0.237 OA
ATOM     98  O   UNL A   1      37.816  35.840  41.340  1.00  0.00    -0.744 OA
ENDBRANCH  94  95
ENDBRANCH  62  87
ENDBRANCH  36  37
ENDBRANCH  29  31
ENDBRANCH  28  29
ENDBRANCH  27  28
ENDBRANCH  26  27
ENDBRANCH  25  26
ENDBRANCH   1  25
TORSDOF 21
ENDMDL
MODEL 2
REMARK VINA RESULT:     -10.4      0.907      8.171
REMARK SMILES O=C(OCCOCCOCCOC(=O)c1ccc(-c2c3nc(c(-c4c(F)cc(S(=O)(=O)[O-])cc4F)c4ccc([nH]4)c(-c4c(F)cc(S(=O)(=O)[O-])cc4F)c4nc(c(-c5c(F)cc(S(=O)(=O)[O-])cc5F)c5ccc2[nH]5)C=C4)C=C3)cc1)C1=Cc2c(ccc(Cl)c2Cl)O[C@H]1C(F)(F)F
REMARK SMILES IDX 8 1 7 2 6 3 5 4 4 5 3 6 2 7 1 8 81 9 82 10 92 11 83 12 91 13
REMARK SMILES IDX 84 14 89 15 85 16 87 17 90 18 86 19 88 20 93 21 94 22 95 23
REMARK SMILES IDX 96 24 9 25 10 26 11 27 12 28 13 29 14 30 15 31 16 32 80 33
REMARK SMILES IDX 17 34 79 35 18 36 19 37 20 38 73 39 21 40 78 41 72 42 74 43
REMARK SMILES IDX 22 44 77 45 71 46 70 47 23 49 57 50 36 51 56 52 37 53 40 54
REMARK SMILES IDX 55 55 75 56 38 57 39 58 54 60 76 61 41 62 24 63 25 64 34 65
REMARK SMILES IDX 26 66 27 67 33 68 35 69 28 70 29 71 30 72 31 73 32 74 58 75
REMARK SMILES IDX 59 76 68 77 60 78 61 79 67 80 69 81 62 82 63 83 64 84 65 85
REMARK SMILES IDX 66 86 42 87 43 88 52 89 44 90 45 91 51 92 53 93 46 94 47 95
REMARK SMILES IDX 48 96 49 97 50 98
REMARK H PARENT 74 48 40 59
REMARK Flexibility Score: inf
ROOT
ATOM      1  C   UNL A   1      42.185  21.789  26.419  1.00  0.00     0.188 C 
ENDROOT
BRANCH   1   2
ATOM      2  C   UNL A   1      40.667  21.973  26.561  1.00  0.00     0.188 C 
BRANCH   2   3
ATOM      3  O   UNL A   1      40.332  23.125  27.319  1.00  0.00    -0.376 OA
BRANCH   3   4
ATOM      4  C   UNL A   1      39.179  23.771  26.797  1.00  0.00     0.202 C 
BRANCH   4   5
ATOM      5  C   UNL A   1      38.249  22.811  26.065  1.00  0.00     0.261 C 
BRANCH   5   6
ATOM      6  O   UNL A   1      36.911  23.333  25.916  1.00  0.00    -0.460 OA
BRANCH   6   7
ATOM      7  C   UNL A   1      36.232  23.655  24.792  1.00  0.00     0.338 C 
ATOM      8  O   UNL A   1      36.731  23.423  23.696  1.00  0.00    -0.246 OA
BRANCH   7   9
ATOM      9  C   UNL A   1      34.812  24.056  24.859  1.00  0.00     0.087 C 
ATOM     10  C   UNL A   1      34.209  24.945  24.066  1.00  0.00     0.029 C 
ATOM     11  C   UNL A   1      33.941  23.172  25.730  1.00  0.00     0.316 C 
ATOM     12  C   UNL A   1      33.047  25.636  24.609  1.00  0.00     0.037 A 
ATOM     13  O   UNL A   1      32.644  23.746  26.083  1.00  0.00    -0.475 OA
ATOM     14  C   UNL A   1      32.333  24.992  25.621  1.00  0.00     0.129 A 
ATOM     15  C   UNL A   1      32.734  26.977  24.284  1.00  0.00     0.070 A 
ATOM     16  C   UNL A   1      31.278  25.641  26.260  1.00  0.00     0.049 A 
ATOM     17  C   UNL A   1      31.712  27.642  24.974  1.00  0.00     0.060 A 
ATOM     18  Cl  UNL A   1      33.666  27.856  23.107  1.00  0.00    -0.082 Cl
ATOM     19  C   UNL A   1      30.977  26.967  25.948  1.00  0.00     0.026 A 
ATOM     20  Cl  UNL A   1      31.346  29.314  24.714  1.00  0.00    -0.083 Cl
BRANCH  11  21
ATOM     21  C   UNL A   1      33.732  21.804  25.012  1.00  0.00     0.430 C 
ATOM     22  F   UNL A   1      32.525  21.249  25.300  1.00  0.00    -0.167 F 
ATOM     23  F   UNL A   1      33.823  21.917  23.670  1.00  0.00    -0.167 F 
ATOM     24  F   UNL A   1      34.660  20.892  25.398  1.00  0.00    -0.167 F 
ENDBRANCH  11  21
ENDBRANCH   7   9
ENDBRANCH   6   7
ENDBRANCH   5   6
ENDBRANCH   4   5
ENDBRANCH   3   4
ENDBRANCH   2   3
ENDBRANCH   1   2
BRANCH   1  25
ATOM     25  O   UNL A   1      42.766  21.999  25.138  1.00  0.00    -0.376 OA
BRANCH  25  26
ATOM     26  C   UNL A   1      43.360  23.250  24.803  1.00  0.00     0.202 C 
BRANCH  26  27
ATOM     27  C   UNL A   1      43.269  24.509  25.684  1.00  0.00     0.261 C 
BRANCH  27  28
ATOM     28  O   UNL A   1      42.062  25.269  25.577  1.00  0.00    -0.460 OA
BRANCH  28  29
ATOM     29  C   UNL A   1      42.234  26.604  25.673  1.00  0.00     0.338 C 
ATOM     30  O   UNL A   1      42.346  27.409  24.748  1.00  0.00    -0.246 OA
BRANCH  29  31
ATOM     31  C   UNL A   1      42.260  27.030  27.071  1.00  0.00     0.060 A 
ATOM     32  C   UNL A   1      41.261  26.595  27.948  1.00  0.00     0.016 A 
ATOM     33  C   UNL A   1      43.164  28.024  27.452  1.00  0.00     0.016 A 
ATOM     34  C   UNL A   1      41.140  27.183  29.201  1.00  0.00     0.010 A 
ATOM     35  C   UNL A   1      43.044  28.611  28.710  1.00  0.00     0.010 A 
ATOM     36  C   UNL A   1      42.003  28.222  29.569  1.00  0.00    -0.014 A 
BRANCH  36  37
ATOM     37  C   UNL A   1      41.696  29.008  30.781  1.00  0.00     0.031 A 
ATOM     38  C   UNL A   1      40.528  29.954  30.753  1.00  0.00     0.074 A 
ATOM     39  C   UNL A   1      42.419  28.827  31.899  1.00  0.00     0.049 A 
ATOM     40  N   UNL A   1      40.076  30.739  31.693  1.00  0.00    -0.248 NA
ATOM     41  C   UNL A   1      39.759  30.016  29.497  1.00  0.00     0.031 C 
ATOM     42  C   UNL A   1      43.542  27.899  32.037  1.00  0.00     0.029 A 
ATOM     43  N   UNL A   1      42.314  29.417  33.130  1.00  0.00    -0.354 N 
ATOM     44  C   UNL A   1      38.968  31.380  31.152  1.00  0.00     0.074 A 
ATOM     45  C   UNL A   1      38.834  30.920  29.787  1.00  0.00     0.031 C 
ATOM     46  C   UNL A   1      44.036  27.996  33.283  1.00  0.00     0.029 A 
ATOM     47  C   UNL A   1      43.280  29.008  34.018  1.00  0.00     0.049 A 
ATOM     48  H   UNL A   1      41.614  30.071  33.358  1.00  0.00     0.167 HD
ATOM     49  C   UNL A   1      38.132  32.263  31.746  1.00  0.00     0.037 A 
ATOM     50  C   UNL A   1      43.534  29.427  35.272  1.00  0.00     0.037 A 
ATOM     51  C   UNL A   1      38.288  32.722  33.102  1.00  0.00     0.049 A 
ATOM     52  C   UNL A   1      42.632  30.467  35.885  1.00  0.00     0.074 A 
ATOM     53  C   UNL A   1      37.510  33.627  33.802  1.00  0.00     0.029 A 
ATOM     54  N   UNL A   1      39.297  32.312  33.963  1.00  0.00    -0.354 N 
ATOM     55  N   UNL A   1      41.583  31.062  35.365  1.00  0.00    -0.248 NA
ATOM     56  C   UNL A   1      42.942  30.887  37.258  1.00  0.00     0.031 C 
ATOM     57  C   UNL A   1      38.072  33.794  35.072  1.00  0.00     0.029 A 
ATOM     58  C   UNL A   1      39.171  32.957  35.181  1.00  0.00     0.049 A 
ATOM     59  H   UNL A   1      39.997  31.656  33.741  1.00  0.00     0.167 HD
ATOM     60  C   UNL A   1      41.096  31.909  36.355  1.00  0.00     0.074 A 
ATOM     61  C   UNL A   1      41.952  31.731  37.510  1.00  0.00     0.031 C 
ATOM     62  C   UNL A   1      40.040  32.762  36.316  1.00  0.00     0.037 A 
BRANCH  49  63
ATOM     63  C   UNL A   1      36.987  32.801  30.934  1.00  0.00     0.058 A 
ATOM     64  C   UNL A   1      35.688  32.281  31.059  1.00  0.00     0.135 A 
ATOM     65  C   UNL A   1      37.178  33.882  30.058  1.00  0.00     0.135 A 
ATOM     66  F   UNL A   1      35.454  31.234  31.865  1.00  0.00    -0.206 F 
ATOM     67  C   UNL A   1      34.621  32.808  30.339  1.00  0.00     0.059 A 
ATOM     68  C   UNL A   1      36.120  34.439  29.344  1.00  0.00     0.059 A 
ATOM     69  F   UNL A   1      38.400  34.410  29.893  1.00  0.00    -0.206 F 
ATOM     70  C   UNL A   1      34.846  33.892  29.487  1.00  0.00     0.060 A 
BRANCH  70  71
ATOM     71  S   UNL A   1      33.443  34.587  28.587  1.00  0.00     0.124 S 
ATOM     72  O   UNL A   1      34.067  35.709  27.894  1.00  0.00    -0.237 OA
ATOM     73  O   UNL A   1      33.032  33.471  27.742  1.00  0.00    -0.237 OA
ATOM     74  O   UNL A   1      32.504  34.947  29.645  1.00  0.00    -0.744 OA
ENDBRANCH  70  71
ENDBRANCH  49  63
BRANCH  50  75
ATOM     75  C   UNL A   1      44.703  28.889  36.018  1.00  0.00     0.058 A 
ATOM     76  C   UNL A   1      45.974  29.470  35.905  1.00  0.00     0.135 A 
ATOM     77  C   UNL A   1      44.572  27.761  36.843  1.00  0.00     0.135 A 
ATOM     78  F   UNL A   1      46.153  30.546  35.122  1.00  0.00    -0.206 F 
ATOM     79  C   UNL A   1      47.081  28.934  36.556  1.00  0.00     0.059 A 
ATOM     80  C   UNL A   1      45.657  27.225  37.528  1.00  0.00     0.059 A 
ATOM     81  F   UNL A   1      43.376  27.173  36.996  1.00  0.00    -0.206 F 
ATOM     82  C   UNL A   1      46.913  27.807  37.363  1.00  0.00     0.060 A 
BRANCH  82  83
ATOM     83  S   UNL A   1      48.353  27.119  38.210  1.00  0.00     0.124 S 
ATOM     84  O   UNL A   1      47.889  27.084  39.593  1.00  0.00    -0.237 OA
ATOM     85  O   UNL A   1      48.506  25.824  37.557  1.00  0.00    -0.237 OA
ATOM     86  O   UNL A   1      49.407  28.087  37.922  1.00  0.00    -0.744 OA
ENDBRANCH  82  83
ENDBRANCH  50  75
BRANCH  62  87
ATOM     87  C   UNL A   1      39.744  33.540  37.568  1.00  0.00     0.058 A 
ATOM     88  C   UNL A   1      38.779  33.109  38.492  1.00  0.00     0.135 A 
ATOM     89  C   UNL A   1      40.447  34.721  37.855  1.00  0.00     0.135 A 
ATOM     90  F   UNL A   1      38.077  31.988  38.263  1.00  0.00    -0.206 F 
ATOM     91  C   UNL A   1      38.489  33.845  39.635  1.00  0.00     0.059 A 
ATOM     92  C   UNL A   1      40.196  35.456  39.009  1.00  0.00     0.059 A 
ATOM     93  F   UNL A   1      41.393  35.168  37.013  1.00  0.00    -0.206 F 
ATOM     94  C   UNL A   1      39.201  35.021  39.883  1.00  0.00     0.060 A 
BRANCH  94  95
ATOM     95  S   UNL A   1      38.817  35.970  41.369  1.00  0.00     0.124 S 
ATOM     96  O   UNL A   1      37.610  35.300  41.841  1.00  0.00    -0.237 OA
ATOM     97  O   UNL A   1      40.011  35.773  42.185  1.00  0.00    -0.237 OA
ATOM     98  O   UNL A   1      38.627  37.327  40.867  1.00  0.00    -0.744 OA
ENDBRANCH  94  95
ENDBRANCH  62  87
ENDBRANCH  36  37
ENDBRANCH  29  31
ENDBRANCH  28  29
ENDBRANCH  27  28
ENDBRANCH  26  27
ENDBRANCH  25  26
ENDBRANCH   1  25
TORSDOF 21
ENDMDL
MODEL 3
REMARK VINA RESULT:     -10.3      5.061      6.780
REMARK SMILES O=C(OCCOCCOCCOC(=O)c1ccc(-c2c3nc(c(-c4c(F)cc(S(=O)(=O)[O-])cc4F)c4ccc([nH]4)c(-c4c(F)cc(S(=O)(=O)[O-])cc4F)c4nc(c(-c5c(F)cc(S(=O)(=O)[O-])cc5F)c5ccc2[nH]5)C=C4)C=C3)cc1)C1=Cc2c(ccc(Cl)c2Cl)O[C@H]1C(F)(F)F
REMARK SMILES IDX 8 1 7 2 6 3 5 4 4 5 3 6 2 7 1 8 81 9 82 10 92 11 83 12 91 13
REMARK SMILES IDX 84 14 89 15 85 16 87 17 90 18 86 19 88 20 93 21 94 22 95 23
REMARK SMILES IDX 96 24 9 25 10 26 11 27 12 28 13 29 14 30 15 31 16 32 80 33
REMARK SMILES IDX 17 34 79 35 18 36 19 37 20 38 73 39 21 40 78 41 72 42 74 43
REMARK SMILES IDX 22 44 77 45 71 46 70 47 23 49 57 50 36 51 56 52 37 53 40 54
REMARK SMILES IDX 55 55 75 56 38 57 39 58 54 60 76 61 41 62 24 63 25 64 34 65
REMARK SMILES IDX 26 66 27 67 33 68 35 69 28 70 29 71 30 72 31 73 32 74 58 75
REMARK SMILES IDX 59 76 68 77 60 78 61 79 67 80 69 81 62 82 63 83 64 84 65 85
REMARK SMILES IDX 66 86 42 87 43 88 52 89 44 90 45 91 51 92 53 93 46 94 47 95
REMARK SMILES IDX 48 96 49 97 50 98
REMARK H PARENT 74 48 40 59
REMARK Flexibility Score: inf
ROOT
ATOM      1  C   UNL A   1      34.216  21.027  25.366  1.00  0.00     0.188 C 
ENDROOT
BRANCH   1   2
ATOM      2  C   UNL A   1      33.197  21.230  24.235  1.00  0.00     0.188 C 
BRANCH   2   3
ATOM      3  O   UNL A   1      31.960  21.740  24.709  1.00  0.00    -0.376 OA
BRANCH   3   4
ATOM      4  C   UNL A   1      31.986  21.936  26.116  1.00  0.00     0.202 C 
BRANCH   4   5
ATOM      5  C   UNL A   1      31.484  23.316  26.525  1.00  0.00     0.261 C 
BRANCH   5   6
ATOM      6  O   UNL A   1      31.834  24.344  25.573  1.00  0.00    -0.460 OA
BRANCH   6   7
ATOM      7  C   UNL A   1      32.923  25.144  25.531  1.00  0.00     0.338 C 
ATOM      8  O   UNL A   1      34.039  24.644  25.439  1.00  0.00    -0.246 OA
BRANCH   7   9
ATOM      9  C   UNL A   1      32.778  26.604  25.355  1.00  0.00     0.087 C 
ATOM     10  C   UNL A   1      33.719  27.521  25.593  1.00  0.00     0.029 C 
ATOM     11  C   UNL A   1      31.542  27.033  24.589  1.00  0.00     0.316 C 
ATOM     12  C   UNL A   1      33.265  28.863  25.935  1.00  0.00     0.037 A 
ATOM     13  O   UNL A   1      31.207  28.450  24.710  1.00  0.00    -0.475 OA
ATOM     14  C   UNL A   1      32.002  29.247  25.484  1.00  0.00     0.129 A 
ATOM     15  C   UNL A   1      33.964  29.699  26.838  1.00  0.00     0.070 A 
ATOM     16  C   UNL A   1      31.461  30.473  25.864  1.00  0.00     0.049 A 
ATOM     17  C   UNL A   1      33.386  30.901  27.264  1.00  0.00     0.060 A 
ATOM     18  Cl  UNL A   1      35.492  29.212  27.513  1.00  0.00    -0.082 Cl
ATOM     19  C   UNL A   1      32.144  31.293  26.764  1.00  0.00     0.026 A 
ATOM     20  Cl  UNL A   1      34.125  31.922  28.452  1.00  0.00    -0.083 Cl
BRANCH  11  21
ATOM     21  C   UNL A   1      31.728  26.664  23.085  1.00  0.00     0.430 C 
ATOM     22  F   UNL A   1      30.825  25.739  22.665  1.00  0.00    -0.167 F 
ATOM     23  F   UNL A   1      31.615  27.743  22.281  1.00  0.00    -0.167 F 
ATOM     24  F   UNL A   1      32.949  26.122  22.852  1.00  0.00    -0.167 F 
ENDBRANCH  11  21
ENDBRANCH   7   9
ENDBRANCH   6   7
ENDBRANCH   5   6
ENDBRANCH   4   5
ENDBRANCH   3   4
ENDBRANCH   2   3
ENDBRANCH   1   2
BRANCH   1  25
ATOM     25  O   UNL A   1      35.378  20.256  25.086  1.00  0.00    -0.376 OA
BRANCH  25  26
ATOM     26  C   UNL A   1      36.643  20.887  24.900  1.00  0.00     0.202 C 
BRANCH  26  27
ATOM     27  C   UNL A   1      37.152  22.063  25.752  1.00  0.00     0.261 C 
BRANCH  27  28
ATOM     28  O   UNL A   1      38.464  22.543  25.447  1.00  0.00    -0.460 OA
BRANCH  28  29
ATOM     29  C   UNL A   1      39.284  22.639  26.515  1.00  0.00     0.338 C 
ATOM     30  O   UNL A   1      39.835  21.718  27.116  1.00  0.00    -0.246 OA
BRANCH  29  31
ATOM     31  C   UNL A   1      39.477  24.036  26.902  1.00  0.00     0.060 A 
ATOM     32  C   UNL A   1      40.054  24.933  25.998  1.00  0.00     0.016 A 
ATOM     33  C   UNL A   1      39.269  24.396  28.235  1.00  0.00     0.016 A 
ATOM     34  C   UNL A   1      40.463  26.187  26.437  1.00  0.00     0.010 A 
ATOM     35  C   UNL A   1      39.676  25.656  28.674  1.00  0.00     0.010 A 
ATOM     36  C   UNL A   1      40.315  26.535  27.785  1.00  0.00    -0.014 A 
BRANCH  36  37
ATOM     37  C   UNL A   1      40.987  27.751  28.285  1.00  0.00     0.031 A 
ATOM     38  C   UNL A   1      42.487  27.828  28.216  1.00  0.00     0.074 A 
ATOM     39  C   UNL A   1      40.257  28.786  28.735  1.00  0.00     0.049 A 
ATOM     40  N   UNL A   1      43.285  28.790  28.594  1.00  0.00    -0.248 NA
ATOM     41  C   UNL A   1      43.181  26.665  27.634  1.00  0.00     0.031 C 
ATOM     42  C   UNL A   1      38.796  28.823  28.797  1.00  0.00     0.029 A 
ATOM     43  N   UNL A   1      40.649  30.003  29.224  1.00  0.00    -0.354 N 
ATOM     44  C   UNL A   1      44.570  28.358  28.287  1.00  0.00     0.074 A 
ATOM     45  C   UNL A   1      44.452  27.031  27.724  1.00  0.00     0.031 C 
ATOM     46  C   UNL A   1      38.413  30.002  29.316  1.00  0.00     0.029 A 
ATOM     47  C   UNL A   1      39.600  30.788  29.642  1.00  0.00     0.049 A 
ATOM     48  H   UNL A   1      41.589  30.289  29.271  1.00  0.00     0.167 HD
ATOM     49  C   UNL A   1      45.741  29.017  28.451  1.00  0.00     0.037 A 
ATOM     50  C   UNL A   1      39.610  31.993  30.243  1.00  0.00     0.037 A 
ATOM     51  C   UNL A   1      45.843  30.333  29.027  1.00  0.00     0.049 A 
ATOM     52  C   UNL A   1      40.933  32.673  30.482  1.00  0.00     0.074 A 
ATOM     53  C   UNL A   1      46.979  31.090  29.255  1.00  0.00     0.029 A 
ATOM     54  N   UNL A   1      44.764  31.087  29.470  1.00  0.00    -0.354 N 
ATOM     55  N   UNL A   1      42.143  32.258  30.183  1.00  0.00    -0.248 NA
ATOM     56  C   UNL A   1      40.893  33.990  31.131  1.00  0.00     0.031 C 
ATOM     57  C   UNL A   1      46.590  32.283  29.873  1.00  0.00     0.029 A 
ATOM     58  C   UNL A   1      45.208  32.292  29.986  1.00  0.00     0.049 A 
ATOM     59  H   UNL A   1      43.822  30.806  29.423  1.00  0.00     0.167 HD
ATOM     60  C   UNL A   1      43.004  33.271  30.588  1.00  0.00     0.074 A 
ATOM     61  C   UNL A   1      42.175  34.328  31.132  1.00  0.00     0.031 C 
ATOM     62  C   UNL A   1      44.359  33.327  30.523  1.00  0.00     0.037 A 
BRANCH  49  63
ATOM     63  C   UNL A   1      47.003  28.324  28.018  1.00  0.00     0.058 A 
ATOM     64  C   UNL A   1      47.696  27.454  28.876  1.00  0.00     0.135 A 
ATOM     65  C   UNL A   1      47.499  28.491  26.715  1.00  0.00     0.135 A 
ATOM     66  F   UNL A   1      47.277  27.277  30.140  1.00  0.00    -0.206 F 
ATOM     67  C   UNL A   1      48.839  26.780  28.461  1.00  0.00     0.059 A 
ATOM     68  C   UNL A   1      48.630  27.809  26.271  1.00  0.00     0.059 A 
ATOM     69  F   UNL A   1      46.882  29.318  25.858  1.00  0.00    -0.206 F 
ATOM     70  C   UNL A   1      49.296  26.960  27.154  1.00  0.00     0.060 A 
BRANCH  70  71
ATOM     71  S   UNL A   1      50.761  26.050  26.619  1.00  0.00     0.124 S 
ATOM     72  O   UNL A   1      51.834  26.916  27.095  1.00  0.00    -0.237 OA
ATOM     73  O   UNL A   1      50.613  24.781  27.324  1.00  0.00    -0.237 OA
ATOM     74  O   UNL A   1      50.609  25.979  25.169  1.00  0.00    -0.744 OA
ENDBRANCH  70  71
ENDBRANCH  49  63
BRANCH  50  75
ATOM     75  C   UNL A   1      38.335  32.618  30.685  1.00  0.00     0.058 A 
ATOM     76  C   UNL A   1      37.841  32.434  31.984  1.00  0.00     0.135 A 
ATOM     77  C   UNL A   1      37.569  33.394  29.801  1.00  0.00     0.135 A 
ATOM     78  F   UNL A   1      38.531  31.693  32.866  1.00  0.00    -0.206 F 
ATOM     79  C   UNL A   1      36.620  32.969  32.383  1.00  0.00     0.059 A 
ATOM     80  C   UNL A   1      36.360  33.965  30.185  1.00  0.00     0.059 A 
ATOM     81  F   UNL A   1      38.001  33.611  28.548  1.00  0.00    -0.206 F 
ATOM     82  C   UNL A   1      35.884  33.730  31.474  1.00  0.00     0.060 A 
BRANCH  82  83
ATOM     83  S   UNL A   1      34.303  34.428  31.999  1.00  0.00     0.124 S 
ATOM     84  O   UNL A   1      33.784  33.365  32.853  1.00  0.00    -0.237 OA
ATOM     85  O   UNL A   1      34.715  35.649  32.682  1.00  0.00    -0.237 OA
ATOM     86  O   UNL A   1      33.591  34.631  30.741  1.00  0.00    -0.744 OA
ENDBRANCH  82  83
ENDBRANCH  50  75
BRANCH  62  87
ATOM     87  C   UNL A   1      45.016  34.581  31.028  1.00  0.00     0.058 A 
ATOM     88  C   UNL A   1      45.436  34.706  32.363  1.00  0.00     0.135 A 
ATOM     89  C   UNL A   1      45.244  35.664  30.164  1.00  0.00     0.135 A 
ATOM     90  F   UNL A   1      45.239  33.701  33.230  1.00  0.00    -0.206 F 
ATOM     91  C   UNL A   1      46.019  35.877  32.833  1.00  0.00     0.059 A 
ATOM     92  C   UNL A   1      45.854  36.833  30.607  1.00  0.00     0.059 A 
ATOM     93  F   UNL A   1      44.877  35.590  28.875  1.00  0.00    -0.206 F 
ATOM     94  C   UNL A   1      46.220  36.938  31.948  1.00  0.00     0.060 A 
BRANCH  94  95
ATOM     95  S   UNL A   1      46.976  38.454  32.569  1.00  0.00     0.124 S 
ATOM     96  O   UNL A   1      47.813  38.848  31.441  1.00  0.00    -0.237 OA
ATOM     97  O   UNL A   1      45.815  39.303  32.824  1.00  0.00    -0.237 OA
ATOM     98  O   UNL A   1      47.694  38.013  33.761  1.00  0.00    -0.744 OA
ENDBRANCH  94  95
ENDBRANCH  62  87
ENDBRANCH  36  37
ENDBRANCH  29  31
ENDBRANCH  28  29
ENDBRANCH  27  28
ENDBRANCH  26  27
ENDBRANCH  25  26
ENDBRANCH   1  25
TORSDOF 21
ENDMDL
