MODEL 1
REMARK VINA RESULT:     -10.5      0.000      0.000
REMARK SMILES O=C(OCCOCCOCCOC(=O)[C@]1(C2CCCC2)CCOc2ccccc21)c1ccc(-c2c3nc(c(-c4c(F)cc(S(=O)(=O)[O-])cc4F)c4ccc([nH]4)c(-c4c(F)cc(S(=O)(=O)[O-])cc4F)c4nc(c(-c5c(F)cc(S(=O)(=O)[O-])cc5F)c5ccc2[nH]5)C=C4)C=C3)cc1
REMARK SMILES IDX 7 1 6 2 5 3 4 4 3 5 2 6 1 7 30 8 31 9 95 10 32 11 94 12
REMARK SMILES IDX 33 13 34 14 35 15 88 16 36 17 93 18 87 19 89 20 37 21 92 22
REMARK SMILES IDX 86 23 85 24 38 26 72 27 51 28 71 29 52 30 55 31 70 32 90 33
REMARK SMILES IDX 53 34 54 35 69 37 91 38 56 39 39 40 40 41 49 42 41 43 42 44
REMARK SMILES IDX 48 45 50 46 43 47 44 48 45 49 46 50 47 51 73 52 74 53 83 54
REMARK SMILES IDX 75 55 76 56 82 57 84 58 77 59 78 60 79 61 80 62 81 63 57 64
REMARK SMILES IDX 58 65 67 66 59 67 60 68 66 69 68 70 61 71 62 72 63 73 64 74
REMARK SMILES IDX 65 75 8 76 9 77 10 78 11 79 12 80 13 81 14 82 15 83 21 84
REMARK SMILES IDX 29 85 22 86 24 87 28 88 23 89 25 90 27 91 26 92 16 93 17 94
REMARK SMILES IDX 20 95 18 96 19 97
REMARK H PARENT 89 25 55 36
REMARK Flexibility Score: inf
ROOT
ATOM      1  C   UNL A   1      35.650  21.458  25.714  1.00  0.00     0.188 C 
ENDROOT
BRANCH   1   2
ATOM      2  O   UNL A   1      37.048  21.661  25.616  1.00  0.00    -0.376 OA
BRANCH   2   3
ATOM      3  C   UNL A   1      37.559  22.895  25.140  1.00  0.00     0.202 C 
BRANCH   3   4
ATOM      4  C   UNL A   1      38.032  23.941  26.169  1.00  0.00     0.261 C 
BRANCH   4   5
ATOM      5  O   UNL A   1      39.452  24.137  26.196  1.00  0.00    -0.460 OA
BRANCH   5   6
ATOM      6  C   UNL A   1      40.127  25.302  26.384  1.00  0.00     0.338 C 
ATOM      7  O   UNL A   1      40.865  25.692  25.480  1.00  0.00    -0.246 OA
BRANCH   6   8
ATOM      8  C   UNL A   1      40.116  26.080  27.671  1.00  0.00     0.060 A 
ATOM      9  C   UNL A   1      39.293  25.835  28.773  1.00  0.00     0.016 A 
ATOM     10  C   UNL A   1      41.071  27.102  27.801  1.00  0.00     0.016 A 
ATOM     11  C   UNL A   1      39.348  26.607  29.929  1.00  0.00     0.010 A 
ATOM     12  C   UNL A   1      41.159  27.865  28.972  1.00  0.00     0.010 A 
ATOM     13  C   UNL A   1      40.259  27.650  30.027  1.00  0.00    -0.014 A 
BRANCH  13  14
ATOM     14  C   UNL A   1      40.077  28.638  31.115  1.00  0.00     0.031 A 
ATOM     15  C   UNL A   1      41.031  28.555  32.269  1.00  0.00     0.074 A 
ATOM     16  C   UNL A   1      39.192  29.649  31.016  1.00  0.00     0.049 A 
ATOM     17  N   UNL A   1      41.110  29.301  33.336  1.00  0.00    -0.248 NA
ATOM     18  C   UNL A   1      42.039  27.479  32.215  1.00  0.00     0.031 C 
ATOM     19  C   UNL A   1      38.286  29.867  29.890  1.00  0.00     0.029 A 
ATOM     20  N   UNL A   1      38.919  30.698  31.857  1.00  0.00    -0.354 N 
ATOM     21  C   UNL A   1      42.149  28.764  34.084  1.00  0.00     0.074 A 
ATOM     22  C   UNL A   1      42.631  27.597  33.388  1.00  0.00     0.031 C 
ATOM     23  C   UNL A   1      37.559  30.975  30.107  1.00  0.00     0.029 A 
ATOM     24  C   UNL A   1      37.941  31.549  31.388  1.00  0.00     0.049 A 
ATOM     25  H   UNL A   1      39.379  30.831  32.717  1.00  0.00     0.167 HD
ATOM     26  C   UNL A   1      42.679  29.226  35.237  1.00  0.00     0.037 A 
ATOM     27  C   UNL A   1      37.423  32.668  31.931  1.00  0.00     0.037 A 
ATOM     28  C   UNL A   1      42.210  30.411  35.892  1.00  0.00     0.049 A 
ATOM     29  C   UNL A   1      37.990  33.130  33.249  1.00  0.00     0.074 A 
ATOM     30  C   UNL A   1      42.649  30.974  37.073  1.00  0.00     0.029 A 
ATOM     31  N   UNL A   1      41.190  31.222  35.407  1.00  0.00    -0.354 N 
ATOM     32  N   UNL A   1      38.964  32.602  33.954  1.00  0.00    -0.248 NA
ATOM     33  C   UNL A   1      37.401  34.336  33.842  1.00  0.00     0.031 C 
ATOM     34  C   UNL A   1      41.858  32.098  37.331  1.00  0.00     0.029 A 
ATOM     35  C   UNL A   1      40.971  32.271  36.277  1.00  0.00     0.049 A 
ATOM     36  H   UNL A   1      40.697  31.070  34.569  1.00  0.00     0.167 HD
ATOM     37  C   UNL A   1      39.132  33.433  35.055  1.00  0.00     0.074 A 
ATOM     38  C   UNL A   1      38.163  34.502  34.914  1.00  0.00     0.031 C 
ATOM     39  C   UNL A   1      40.005  33.326  36.087  1.00  0.00     0.037 A 
BRANCH  26  40
ATOM     40  C   UNL A   1      43.775  28.405  35.854  1.00  0.00     0.058 A 
ATOM     41  C   UNL A   1      45.130  28.605  35.537  1.00  0.00     0.135 A 
ATOM     42  C   UNL A   1      43.452  27.347  36.718  1.00  0.00     0.135 A 
ATOM     43  F   UNL A   1      45.489  29.575  34.680  1.00  0.00    -0.206 F 
ATOM     44  C   UNL A   1      46.120  27.756  36.018  1.00  0.00     0.059 A 
ATOM     45  C   UNL A   1      44.431  26.507  37.238  1.00  0.00     0.059 A 
ATOM     46  F   UNL A   1      42.173  27.101  37.038  1.00  0.00    -0.206 F 
ATOM     47  C   UNL A   1      45.760  26.707  36.866  1.00  0.00     0.060 A 
BRANCH  47  48
ATOM     48  S   UNL A   1      47.050  25.598  37.465  1.00  0.00     0.124 S 
ATOM     49  O   UNL A   1      46.373  24.305  37.406  1.00  0.00    -0.237 OA
ATOM     50  O   UNL A   1      48.112  25.799  36.480  1.00  0.00    -0.237 OA
ATOM     51  O   UNL A   1      47.337  26.098  38.801  1.00  0.00    -0.744 OA
ENDBRANCH  47  48
ENDBRANCH  26  40
BRANCH  27  52
ATOM     52  C   UNL A   1      36.346  33.435  31.239  1.00  0.00     0.058 A 
ATOM     53  C   UNL A   1      35.024  33.429  31.713  1.00  0.00     0.135 A 
ATOM     54  C   UNL A   1      36.607  34.176  30.074  1.00  0.00     0.135 A 
ATOM     55  F   UNL A   1      34.712  32.738  32.821  1.00  0.00    -0.206 F 
ATOM     56  C   UNL A   1      34.001  34.103  31.050  1.00  0.00     0.059 A 
ATOM     57  C   UNL A   1      35.607  34.883  29.409  1.00  0.00     0.059 A 
ATOM     58  F   UNL A   1      37.853  34.227  29.576  1.00  0.00    -0.206 F 
ATOM     59  C   UNL A   1      34.304  34.828  29.897  1.00  0.00     0.060 A 
BRANCH  59  60
ATOM     60  S   UNL A   1      32.972  35.722  29.062  1.00  0.00     0.124 S 
ATOM     61  O   UNL A   1      32.402  34.678  28.216  1.00  0.00    -0.237 OA
ATOM     62  O   UNL A   1      32.149  36.153  30.188  1.00  0.00    -0.237 OA
ATOM     63  O   UNL A   1      33.672  36.791  28.361  1.00  0.00    -0.744 OA
ENDBRANCH  59  60
ENDBRANCH  27  52
BRANCH  39  64
ATOM     64  C   UNL A   1      39.988  34.422  37.112  1.00  0.00     0.058 A 
ATOM     65  C   UNL A   1      39.124  34.389  38.216  1.00  0.00     0.135 A 
ATOM     66  C   UNL A   1      40.901  35.484  37.017  1.00  0.00     0.135 A 
ATOM     67  F   UNL A   1      38.232  33.396  38.349  1.00  0.00    -0.206 F 
ATOM     68  C   UNL A   1      39.147  35.390  39.179  1.00  0.00     0.059 A 
ATOM     69  C   UNL A   1      40.966  36.476  37.986  1.00  0.00     0.059 A 
ATOM     70  F   UNL A   1      41.759  35.549  35.985  1.00  0.00    -0.206 F 
ATOM     71  C   UNL A   1      40.076  36.427  39.057  1.00  0.00     0.060 A 
BRANCH  71  72
ATOM     72  S   UNL A   1      40.120  37.700  40.333  1.00  0.00     0.124 S 
ATOM     73  O   UNL A   1      40.984  38.702  39.716  1.00  0.00    -0.237 OA
ATOM     74  O   UNL A   1      38.713  38.064  40.459  1.00  0.00    -0.237 OA
ATOM     75  O   UNL A   1      40.688  37.005  41.485  1.00  0.00    -0.744 OA
ENDBRANCH  71  72
ENDBRANCH  39  64
ENDBRANCH  13  14
ENDBRANCH   6   8
ENDBRANCH   5   6
ENDBRANCH   4   5
ENDBRANCH   3   4
ENDBRANCH   2   3
ENDBRANCH   1   2
BRANCH   1  76
ATOM     76  C   UNL A   1      34.702  21.817  24.564  1.00  0.00     0.188 C 
BRANCH  76  77
ATOM     77  O   UNL A   1      33.627  22.725  24.710  1.00  0.00    -0.376 OA
BRANCH  77  78
ATOM     78  C   UNL A   1      33.695  23.711  25.717  1.00  0.00     0.202 C 
BRANCH  78  79
ATOM     79  C   UNL A   1      32.391  24.445  26.064  1.00  0.00     0.261 C 
BRANCH  79  80
ATOM     80  O   UNL A   1      31.488  24.778  24.988  1.00  0.00    -0.463 OA
BRANCH  80  81
ATOM     81  C   UNL A   1      30.650  25.832  25.231  1.00  0.00     0.317 C 
ATOM     82  O   UNL A   1      29.595  25.692  25.842  1.00  0.00    -0.251 OA
BRANCH  81  83
ATOM     83  C   UNL A   1      31.102  27.182  24.547  1.00  0.00     0.102 C 
ATOM     84  C   UNL A   1      31.829  26.759  23.228  1.00  0.00     0.065 C 
ATOM     85  C   UNL A   1      32.125  27.842  25.502  1.00  0.00     0.012 A 
ATOM     86  C   UNL A   1      33.045  27.596  22.891  1.00  0.00     0.231 C 
ATOM     87  C   UNL A   1      33.473  27.979  25.145  1.00  0.00     0.123 A 
ATOM     88  C   UNL A   1      31.752  28.274  26.794  1.00  0.00     0.009 A 
ATOM     89  O   UNL A   1      33.991  27.574  23.946  1.00  0.00    -0.493 OA
ATOM     90  C   UNL A   1      34.408  28.505  26.040  1.00  0.00     0.047 A 
ATOM     91  C   UNL A   1      32.693  28.778  27.697  1.00  0.00     0.001 A 
ATOM     92  C   UNL A   1      34.024  28.901  27.317  1.00  0.00     0.004 A 
BRANCH  83  93
ATOM     93  C   UNL A   1      29.927  28.202  24.225  1.00  0.00     0.011 C 
ATOM     94  C   UNL A   1      30.416  29.626  23.881  1.00  0.00     0.005 C 
ATOM     95  C   UNL A   1      28.977  27.903  23.036  1.00  0.00     0.005 C 
ATOM     96  C   UNL A   1      29.223  30.321  23.261  1.00  0.00     0.000 C 
ATOM     97  C   UNL A   1      28.624  29.245  22.378  1.00  0.00     0.000 C 
ENDBRANCH  83  93
ENDBRANCH  81  83
ENDBRANCH  80  81
ENDBRANCH  79  80
ENDBRANCH  78  79
ENDBRANCH  77  78
ENDBRANCH  76  77
ENDBRANCH   1  76
TORSDOF 21
ENDMDL
MODEL 2
REMARK VINA RESULT:     -10.3      5.095      6.575
REMARK SMILES O=C(OCCOCCOCCOC(=O)[C@]1(C2CCCC2)CCOc2ccccc21)c1ccc(-c2c3nc(c(-c4c(F)cc(S(=O)(=O)[O-])cc4F)c4ccc([nH]4)c(-c4c(F)cc(S(=O)(=O)[O-])cc4F)c4nc(c(-c5c(F)cc(S(=O)(=O)[O-])cc5F)c5ccc2[nH]5)C=C4)C=C3)cc1
REMARK SMILES IDX 7 1 6 2 5 3 4 4 3 5 2 6 1 7 30 8 31 9 95 10 32 11 94 12
REMARK SMILES IDX 33 13 34 14 35 15 88 16 36 17 93 18 87 19 89 20 37 21 92 22
REMARK SMILES IDX 86 23 85 24 38 26 72 27 51 28 71 29 52 30 55 31 70 32 90 33
REMARK SMILES IDX 53 34 54 35 69 37 91 38 56 39 39 40 40 41 49 42 41 43 42 44
REMARK SMILES IDX 48 45 50 46 43 47 44 48 45 49 46 50 47 51 73 52 74 53 83 54
REMARK SMILES IDX 75 55 76 56 82 57 84 58 77 59 78 60 79 61 80 62 81 63 57 64
REMARK SMILES IDX 58 65 67 66 59 67 60 68 66 69 68 70 61 71 62 72 63 73 64 74
REMARK SMILES IDX 65 75 8 76 9 77 10 78 11 79 12 80 13 81 14 82 15 83 21 84
REMARK SMILES IDX 29 85 22 86 24 87 28 88 23 89 25 90 27 91 26 92 16 93 17 94
REMARK SMILES IDX 20 95 18 96 19 97
REMARK H PARENT 89 25 55 36
REMARK Flexibility Score: inf
ROOT
ATOM      1  C   UNL A   1      34.402  21.136  25.726  1.00  0.00     0.188 C 
ENDROOT
BRANCH   1   2
ATOM      2  O   UNL A   1      35.280  20.326  24.965  1.00  0.00    -0.376 OA
BRANCH   2   3
ATOM      3  C   UNL A   1      36.679  20.559  25.002  1.00  0.00     0.202 C 
BRANCH   3   4
ATOM      4  C   UNL A   1      37.191  21.855  25.662  1.00  0.00     0.261 C 
BRANCH   4   5
ATOM      5  O   UNL A   1      38.603  22.062  25.527  1.00  0.00    -0.460 OA
BRANCH   5   6
ATOM      6  C   UNL A   1      39.511  22.264  26.518  1.00  0.00     0.338 C 
ATOM      7  O   UNL A   1      40.037  21.276  27.029  1.00  0.00    -0.246 OA
BRANCH   6   8
ATOM      8  C   UNL A   1      39.825  23.613  27.108  1.00  0.00     0.060 A 
ATOM      9  C   UNL A   1      39.159  24.808  26.826  1.00  0.00     0.016 A 
ATOM     10  C   UNL A   1      40.835  23.658  28.082  1.00  0.00     0.016 A 
ATOM     11  C   UNL A   1      39.516  26.016  27.417  1.00  0.00     0.010 A 
ATOM     12  C   UNL A   1      41.181  24.861  28.709  1.00  0.00     0.010 A 
ATOM     13  C   UNL A   1      40.551  26.059  28.340  1.00  0.00    -0.014 A 
BRANCH  13  14
ATOM     14  C   UNL A   1      41.112  27.382  28.701  1.00  0.00     0.031 A 
ATOM     15  C   UNL A   1      42.559  27.612  28.380  1.00  0.00     0.074 A 
ATOM     16  C   UNL A   1      40.336  28.381  29.166  1.00  0.00     0.049 A 
ATOM     17  N   UNL A   1      43.292  28.674  28.568  1.00  0.00    -0.248 NA
ATOM     18  C   UNL A   1      43.283  26.486  27.761  1.00  0.00     0.031 C 
ATOM     19  C   UNL A   1      38.901  28.280  29.422  1.00  0.00     0.029 A 
ATOM     20  N   UNL A   1      40.630  29.681  29.486  1.00  0.00    -0.354 N 
ATOM     21  C   UNL A   1      44.560  28.330  28.120  1.00  0.00     0.074 A 
ATOM     22  C   UNL A   1      44.519  26.948  27.710  1.00  0.00     0.031 C 
ATOM     23  C   UNL A   1      38.439  29.464  29.858  1.00  0.00     0.029 A 
ATOM     24  C   UNL A   1      39.542  30.410  29.917  1.00  0.00     0.049 A 
ATOM     25  H   UNL A   1      41.536  30.060  29.414  1.00  0.00     0.167 HD
ATOM     26  C   UNL A   1      45.658  29.111  28.025  1.00  0.00     0.037 A 
ATOM     27  C   UNL A   1      39.452  31.697  30.306  1.00  0.00     0.037 A 
ATOM     28  C   UNL A   1      45.666  30.493  28.401  1.00  0.00     0.049 A 
ATOM     29  C   UNL A   1      40.704  32.532  30.249  1.00  0.00     0.074 A 
ATOM     30  C   UNL A   1      46.717  31.388  28.372  1.00  0.00     0.029 A 
ATOM     31  N   UNL A   1      44.556  31.183  28.873  1.00  0.00    -0.354 N 
ATOM     32  N   UNL A   1      41.904  32.188  29.837  1.00  0.00    -0.248 NA
ATOM     33  C   UNL A   1      40.598  33.925  30.698  1.00  0.00     0.031 C 
ATOM     34  C   UNL A   1      46.255  32.607  28.877  1.00  0.00     0.029 A 
ATOM     35  C   UNL A   1      44.900  32.489  29.159  1.00  0.00     0.049 A 
ATOM     36  H   UNL A   1      43.657  30.797  28.987  1.00  0.00     0.167 HD
ATOM     37  C   UNL A   1      42.686  33.331  29.940  1.00  0.00     0.074 A 
ATOM     38  C   UNL A   1      41.819  34.378  30.444  1.00  0.00     0.031 C 
ATOM     39  C   UNL A   1      43.997  33.505  29.644  1.00  0.00     0.037 A 
BRANCH  26  40
ATOM     40  C   UNL A   1      46.918  28.450  27.546  1.00  0.00     0.058 A 
ATOM     41  C   UNL A   1      47.245  28.359  26.182  1.00  0.00     0.135 A 
ATOM     42  C   UNL A   1      47.774  27.827  28.468  1.00  0.00     0.135 A 
ATOM     43  F   UNL A   1      46.437  28.900  25.255  1.00  0.00    -0.206 F 
ATOM     44  C   UNL A   1      48.350  27.635  25.747  1.00  0.00     0.059 A 
ATOM     45  C   UNL A   1      48.903  27.126  28.056  1.00  0.00     0.059 A 
ATOM     46  F   UNL A   1      47.498  27.866  29.781  1.00  0.00    -0.206 F 
ATOM     47  C   UNL A   1      49.170  27.019  26.693  1.00  0.00     0.060 A 
BRANCH  47  48
ATOM     48  S   UNL A   1      50.586  26.063  26.116  1.00  0.00     0.124 S 
ATOM     49  O   UNL A   1      50.434  24.827  26.879  1.00  0.00    -0.237 OA
ATOM     50  O   UNL A   1      50.323  25.955  24.681  1.00  0.00    -0.237 OA
ATOM     51  O   UNL A   1      51.728  26.890  26.479  1.00  0.00    -0.744 OA
ENDBRANCH  47  48
ENDBRANCH  26  40
BRANCH  27  52
ATOM     52  C   UNL A   1      38.151  32.279  30.751  1.00  0.00     0.058 A 
ATOM     53  C   UNL A   1      37.234  32.808  29.829  1.00  0.00     0.135 A 
ATOM     54  C   UNL A   1      37.802  32.338  32.111  1.00  0.00     0.135 A 
ATOM     55  F   UNL A   1      37.512  32.782  28.516  1.00  0.00    -0.206 F 
ATOM     56  C   UNL A   1      36.038  33.395  30.235  1.00  0.00     0.059 A 
ATOM     57  C   UNL A   1      36.598  32.894  32.540  1.00  0.00     0.059 A 
ATOM     58  F   UNL A   1      38.633  31.841  33.040  1.00  0.00    -0.206 F 
ATOM     59  C   UNL A   1      35.729  33.433  31.595  1.00  0.00     0.060 A 
BRANCH  59  60
ATOM     60  S   UNL A   1      34.161  34.172  32.106  1.00  0.00     0.124 S 
ATOM     61  O   UNL A   1      33.551  34.489  30.818  1.00  0.00    -0.237 OA
ATOM     62  O   UNL A   1      33.544  33.081  32.854  1.00  0.00    -0.237 OA
ATOM     63  O   UNL A   1      34.572  35.318  32.907  1.00  0.00    -0.744 OA
ENDBRANCH  59  60
ENDBRANCH  27  52
BRANCH  39  64
ATOM     64  C   UNL A   1      44.557  34.888  29.807  1.00  0.00     0.058 A 
ATOM     65  C   UNL A   1      45.174  35.301  30.997  1.00  0.00     0.135 A 
ATOM     66  C   UNL A   1      44.534  35.784  28.727  1.00  0.00     0.135 A 
ATOM     67  F   UNL A   1      45.218  34.480  32.057  1.00  0.00    -0.206 F 
ATOM     68  C   UNL A   1      45.724  36.570  31.119  1.00  0.00     0.059 A 
ATOM     69  C   UNL A   1      45.109  37.045  28.816  1.00  0.00     0.059 A 
ATOM     70  F   UNL A   1      43.968  35.427  27.562  1.00  0.00    -0.206 F 
ATOM     71  C   UNL A   1      45.690  37.434  30.021  1.00  0.00     0.060 A 
BRANCH  71  72
ATOM     72  S   UNL A   1      46.441  39.065  30.182  1.00  0.00     0.124 S 
ATOM     73  O   UNL A   1      47.627  38.925  29.343  1.00  0.00    -0.237 OA
ATOM     74  O   UNL A   1      45.396  39.942  29.663  1.00  0.00    -0.237 OA
ATOM     75  O   UNL A   1      46.695  39.181  31.615  1.00  0.00    -0.744 OA
ENDBRANCH  71  72
ENDBRANCH  39  64
ENDBRANCH  13  14
ENDBRANCH   6   8
ENDBRANCH   5   6
ENDBRANCH   4   5
ENDBRANCH   3   4
ENDBRANCH   2   3
ENDBRANCH   1   2
BRANCH   1  76
ATOM     76  C   UNL A   1      32.907  21.229  25.398  1.00  0.00     0.188 C 
BRANCH  76  77
ATOM     77  O   UNL A   1      32.027  22.111  26.071  1.00  0.00    -0.376 OA
BRANCH  77  78
ATOM     78  C   UNL A   1      31.413  23.152  25.343  1.00  0.00     0.202 C 
BRANCH  78  79
ATOM     79  C   UNL A   1      31.012  24.410  26.129  1.00  0.00     0.261 C 
BRANCH  79  80
ATOM     80  O   UNL A   1      30.661  25.596  25.385  1.00  0.00    -0.463 OA
BRANCH  80  81
ATOM     81  C   UNL A   1      31.152  26.769  25.886  1.00  0.00     0.317 C 
ATOM     82  O   UNL A   1      31.028  27.070  27.070  1.00  0.00    -0.251 OA
BRANCH  81  83
ATOM     83  C   UNL A   1      31.758  27.732  24.791  1.00  0.00     0.102 C 
ATOM     84  C   UNL A   1      30.549  28.566  24.253  1.00  0.00     0.065 C 
ATOM     85  C   UNL A   1      32.297  26.828  23.656  1.00  0.00     0.012 A 
ATOM     86  C   UNL A   1      30.587  28.829  22.762  1.00  0.00     0.231 C 
ATOM     87  C   UNL A   1      31.711  26.828  22.384  1.00  0.00     0.123 A 
ATOM     88  C   UNL A   1      33.361  25.925  23.878  1.00  0.00     0.009 A 
ATOM     89  O   UNL A   1      30.653  27.618  22.029  1.00  0.00    -0.493 OA
ATOM     90  C   UNL A   1      32.151  25.955  21.385  1.00  0.00     0.047 A 
ATOM     91  C   UNL A   1      33.784  25.036  22.885  1.00  0.00     0.001 A 
ATOM     92  C   UNL A   1      33.184  25.056  21.633  1.00  0.00     0.004 A 
BRANCH  83  93
ATOM     93  C   UNL A   1      32.909  28.700  25.304  1.00  0.00     0.011 C 
ATOM     94  C   UNL A   1      32.395  29.877  26.164  1.00  0.00     0.005 C 
ATOM     95  C   UNL A   1      34.030  28.121  26.207  1.00  0.00     0.005 C 
ATOM     96  C   UNL A   1      33.622  30.442  26.843  1.00  0.00     0.000 C 
ATOM     97  C   UNL A   1      34.397  29.200  27.237  1.00  0.00     0.000 C 
ENDBRANCH  83  93
ENDBRANCH  81  83
ENDBRANCH  80  81
ENDBRANCH  79  80
ENDBRANCH  78  79
ENDBRANCH  77  78
ENDBRANCH  76  77
ENDBRANCH   1  76
TORSDOF 21
ENDMDL
MODEL 3
REMARK VINA RESULT:     -10.2      5.090      6.477
REMARK SMILES O=C(OCCOCCOCCOC(=O)[C@]1(C2CCCC2)CCOc2ccccc21)c1ccc(-c2c3nc(c(-c4c(F)cc(S(=O)(=O)[O-])cc4F)c4ccc([nH]4)c(-c4c(F)cc(S(=O)(=O)[O-])cc4F)c4nc(c(-c5c(F)cc(S(=O)(=O)[O-])cc5F)c5ccc2[nH]5)C=C4)C=C3)cc1
REMARK SMILES IDX 7 1 6 2 5 3 4 4 3 5 2 6 1 7 30 8 31 9 95 10 32 11 94 12
REMARK SMILES IDX 33 13 34 14 35 15 88 16 36 17 93 18 87 19 89 20 37 21 92 22
REMARK SMILES IDX 86 23 85 24 38 26 72 27 51 28 71 29 52 30 55 31 70 32 90 33
REMARK SMILES IDX 53 34 54 35 69 37 91 38 56 39 39 40 40 41 49 42 41 43 42 44
REMARK SMILES IDX 48 45 50 46 43 47 44 48 45 49 46 50 47 51 73 52 74 53 83 54
REMARK SMILES IDX 75 55 76 56 82 57 84 58 77 59 78 60 79 61 80 62 81 63 57 64
REMARK SMILES IDX 58 65 67 66 59 67 60 68 66 69 68 70 61 71 62 72 63 73 64 74
REMARK SMILES IDX 65 75 8 76 9 77 10 78 11 79 12 80 13 81 14 82 15 83 21 84
REMARK SMILES IDX 29 85 22 86 24 87 28 88 23 89 25 90 27 91 26 92 16 93 17 94
REMARK SMILES IDX 20 95 18 96 19 97
REMARK H PARENT 89 25 55 36
REMARK Flexibility Score: inf
ROOT
ATOM      1  C   UNL A   1      34.331  21.746  26.238  1.00  0.00     0.188 C 
ENDROOT
BRANCH   1   2
ATOM      2  O   UNL A   1      34.894  20.793  25.355  1.00  0.00    -0.376 OA
BRANCH   2   3
ATOM      3  C   UNL A   1      36.291  20.784  25.109  1.00  0.00     0.202 C 
BRANCH   3   4
ATOM      4  C   UNL A   1      37.125  21.996  25.568  1.00  0.00     0.261 C 
BRANCH   4   5
ATOM      5  O   UNL A   1      38.542  21.818  25.430  1.00  0.00    -0.460 OA
BRANCH   5   6
ATOM      6  C   UNL A   1      39.500  22.023  26.371  1.00  0.00     0.338 C 
ATOM      7  O   UNL A   1      40.063  21.036  26.845  1.00  0.00    -0.246 OA
BRANCH   6   8
ATOM      8  C   UNL A   1      39.833  23.370  26.953  1.00  0.00     0.060 A 
ATOM      9  C   UNL A   1      39.240  24.586  26.601  1.00  0.00     0.016 A 
ATOM     10  C   UNL A   1      40.775  23.396  27.993  1.00  0.00     0.016 A 
ATOM     11  C   UNL A   1      39.609  25.791  27.190  1.00  0.00     0.010 A 
ATOM     12  C   UNL A   1      41.131  24.597  28.617  1.00  0.00     0.010 A 
ATOM     13  C   UNL A   1      40.580  25.812  28.181  1.00  0.00    -0.014 A 
BRANCH  13  14
ATOM     14  C   UNL A   1      41.173  27.118  28.552  1.00  0.00     0.031 A 
ATOM     15  C   UNL A   1      42.629  27.310  28.245  1.00  0.00     0.074 A 
ATOM     16  C   UNL A   1      40.420  28.136  29.014  1.00  0.00     0.049 A 
ATOM     17  N   UNL A   1      43.388  28.352  28.443  1.00  0.00    -0.248 NA
ATOM     18  C   UNL A   1      43.328  26.168  27.628  1.00  0.00     0.031 C 
ATOM     19  C   UNL A   1      38.980  28.073  29.257  1.00  0.00     0.029 A 
ATOM     20  N   UNL A   1      40.746  29.427  29.341  1.00  0.00    -0.354 N 
ATOM     21  C   UNL A   1      44.651  27.976  28.005  1.00  0.00     0.074 A 
ATOM     22  C   UNL A   1      44.576  26.597  27.590  1.00  0.00     0.031 C 
ATOM     23  C   UNL A   1      38.546  29.267  29.694  1.00  0.00     0.029 A 
ATOM     24  C   UNL A   1      39.674  30.182  29.767  1.00  0.00     0.049 A 
ATOM     25  H   UNL A   1      41.662  29.781  29.279  1.00  0.00     0.167 HD
ATOM     26  C   UNL A   1      45.769  28.727  27.923  1.00  0.00     0.037 A 
ATOM     27  C   UNL A   1      39.615  31.470  30.160  1.00  0.00     0.037 A 
ATOM     28  C   UNL A   1      45.811  30.107  28.305  1.00  0.00     0.049 A 
ATOM     29  C   UNL A   1      40.890  32.271  30.117  1.00  0.00     0.074 A 
ATOM     30  C   UNL A   1      46.886  30.973  28.289  1.00  0.00     0.029 A 
ATOM     31  N   UNL A   1      44.716  30.825  28.770  1.00  0.00    -0.354 N 
ATOM     32  N   UNL A   1      42.083  31.897  29.714  1.00  0.00    -0.248 NA
ATOM     33  C   UNL A   1      40.817  33.665  30.570  1.00  0.00     0.031 C 
ATOM     34  C   UNL A   1      46.452  32.203  28.795  1.00  0.00     0.029 A 
ATOM     35  C   UNL A   1      45.092  32.120  29.063  1.00  0.00     0.049 A 
ATOM     36  H   UNL A   1      43.806  30.463  28.875  1.00  0.00     0.167 HD
ATOM     37  C   UNL A   1      42.894  33.018  29.828  1.00  0.00     0.074 A 
ATOM     38  C   UNL A   1      42.051  34.086  30.329  1.00  0.00     0.031 C 
ATOM     39  C   UNL A   1      44.213  33.158  29.545  1.00  0.00     0.037 A 
BRANCH  26  40
ATOM     40  C   UNL A   1      47.016  28.034  27.453  1.00  0.00     0.058 A 
ATOM     41  C   UNL A   1      47.914  27.422  28.344  1.00  0.00     0.135 A 
ATOM     42  C   UNL A   1      47.354  28.054  26.091  1.00  0.00     0.135 A 
ATOM     43  F   UNL A   1      47.660  27.414  29.663  1.00  0.00    -0.206 F 
ATOM     44  C   UNL A   1      49.125  26.896  27.906  1.00  0.00     0.059 A 
ATOM     45  C   UNL A   1      48.544  27.503  25.628  1.00  0.00     0.059 A 
ATOM     46  F   UNL A   1      46.540  28.643  25.201  1.00  0.00    -0.206 F 
ATOM     47  C   UNL A   1      49.432  26.945  26.546  1.00  0.00     0.060 A 
BRANCH  47  48
ATOM     48  S   UNL A   1      51.015  26.281  25.993  1.00  0.00     0.124 S 
ATOM     49  O   UNL A   1      50.859  26.327  24.542  1.00  0.00    -0.237 OA
ATOM     50  O   UNL A   1      51.966  27.240  26.556  1.00  0.00    -0.237 OA
ATOM     51  O   UNL A   1      51.051  24.950  26.581  1.00  0.00    -0.744 OA
ENDBRANCH  47  48
ENDBRANCH  26  40
BRANCH  27  52
ATOM     52  C   UNL A   1      38.326  32.085  30.595  1.00  0.00     0.058 A 
ATOM     53  C   UNL A   1      37.471  32.717  29.678  1.00  0.00     0.135 A 
ATOM     54  C   UNL A   1      37.928  32.073  31.942  1.00  0.00     0.135 A 
ATOM     55  F   UNL A   1      37.799  32.762  28.377  1.00  0.00    -0.206 F 
ATOM     56  C   UNL A   1      36.289  33.334  30.079  1.00  0.00     0.059 A 
ATOM     57  C   UNL A   1      36.735  32.658  32.364  1.00  0.00     0.059 A 
ATOM     58  F   UNL A   1      38.698  31.477  32.866  1.00  0.00    -0.206 F 
ATOM     59  C   UNL A   1      35.929  33.300  31.427  1.00  0.00     0.060 A 
BRANCH  59  60
ATOM     60  S   UNL A   1      34.378  34.080  31.928  1.00  0.00     0.124 S 
ATOM     61  O   UNL A   1      33.808  33.064  32.807  1.00  0.00    -0.237 OA
ATOM     62  O   UNL A   1      34.852  35.297  32.581  1.00  0.00    -0.237 OA
ATOM     63  O   UNL A   1      33.680  34.286  30.666  1.00  0.00    -0.744 OA
ENDBRANCH  59  60
ENDBRANCH  27  52
BRANCH  39  64
ATOM     64  C   UNL A   1      44.808  34.525  29.718  1.00  0.00     0.058 A 
ATOM     65  C   UNL A   1      44.834  35.458  28.672  1.00  0.00     0.135 A 
ATOM     66  C   UNL A   1      45.297  34.922  30.973  1.00  0.00     0.135 A 
ATOM     67  F   UNL A   1      44.381  35.124  27.454  1.00  0.00    -0.206 F 
ATOM     68  C   UNL A   1      45.352  36.733  28.857  1.00  0.00     0.059 A 
ATOM     69  C   UNL A   1      45.786  36.203  31.190  1.00  0.00     0.059 A 
ATOM     70  F   UNL A   1      45.277  34.067  32.008  1.00  0.00    -0.206 F 
ATOM     71  C   UNL A   1      45.821  37.098  30.122  1.00  0.00     0.060 A 
BRANCH  71  72
ATOM     72  S   UNL A   1      46.457  38.768  30.359  1.00  0.00     0.124 S 
ATOM     73  O   UNL A   1      46.901  38.718  31.748  1.00  0.00    -0.237 OA
ATOM     74  O   UNL A   1      47.514  38.845  29.356  1.00  0.00    -0.237 OA
ATOM     75  O   UNL A   1      45.294  39.613  30.102  1.00  0.00    -0.744 OA
ENDBRANCH  71  72
ENDBRANCH  39  64
ENDBRANCH  13  14
ENDBRANCH   6   8
ENDBRANCH   5   6
ENDBRANCH   4   5
ENDBRANCH   3   4
ENDBRANCH   2   3
ENDBRANCH   1   2
BRANCH   1  76
ATOM     76  C   UNL A   1      32.851  22.138  26.162  1.00  0.00     0.188 C 
BRANCH  76  77
ATOM     77  O   UNL A   1      32.269  23.109  27.012  1.00  0.00    -0.376 OA
BRANCH  77  78
ATOM     78  C   UNL A   1      31.934  24.371  26.481  1.00  0.00     0.202 C 
BRANCH  78  79
ATOM     79  C   UNL A   1      32.384  24.664  25.041  1.00  0.00     0.261 C 
BRANCH  79  80
ATOM     80  O   UNL A   1      31.393  25.120  24.095  1.00  0.00    -0.463 OA
BRANCH  80  81
ATOM     81  C   UNL A   1      30.549  26.093  24.553  1.00  0.00     0.317 C 
ATOM     82  O   UNL A   1      29.501  25.821  25.132  1.00  0.00    -0.251 OA
BRANCH  81  83
ATOM     83  C   UNL A   1      30.982  27.558  24.154  1.00  0.00     0.102 C 
ATOM     84  C   UNL A   1      31.753  27.412  22.802  1.00  0.00     0.065 C 
ATOM     85  C   UNL A   1      31.963  28.044  25.249  1.00  0.00     0.012 A 
ATOM     86  C   UNL A   1      32.955  28.323  22.667  1.00  0.00     0.231 C 
ATOM     87  C   UNL A   1      33.315  28.275  24.964  1.00  0.00     0.123 A 
ATOM     88  C   UNL A   1      31.545  28.212  26.588  1.00  0.00     0.009 A 
ATOM     89  O   UNL A   1      33.874  28.119  23.726  1.00  0.00    -0.493 OA
ATOM     90  C   UNL A   1      34.213  28.639  25.971  1.00  0.00     0.047 A 
ATOM     91  C   UNL A   1      32.450  28.553  27.598  1.00  0.00     0.001 A 
ATOM     92  C   UNL A   1      33.786  28.775  27.289  1.00  0.00     0.004 A 
BRANCH  83  93
ATOM     93  C   UNL A   1      29.789  28.596  23.999  1.00  0.00     0.011 C 
ATOM     94  C   UNL A   1      30.253  30.066  23.890  1.00  0.00     0.005 C 
ATOM     95  C   UNL A   1      28.844  28.476  22.775  1.00  0.00     0.005 C 
ATOM     96  C   UNL A   1      29.048  30.830  23.387  1.00  0.00     0.000 C 
ATOM     97  C   UNL A   1      28.467  29.901  22.340  1.00  0.00     0.000 C 
ENDBRANCH  83  93
ENDBRANCH  81  83
ENDBRANCH  80  81
ENDBRANCH  79  80
ENDBRANCH  78  79
ENDBRANCH  77  78
ENDBRANCH  76  77
ENDBRANCH   1  76
TORSDOF 21
ENDMDL
