MODEL 1
REMARK VINA RESULT:      -7.3      0.000      0.000
REMARK SMILES C[C@H](c1cccc(-c2cc(C(=O)OCCOCCOCCOC(=O)c3ccc(-c4c5nc(c(-c6c(F)cc(S(=O)(=O)[O-])cc6F)c6ccc([nH]6)c(-c6c(F)cc(S(=O)(=O)[O-])cc6F)c6nc(c(-c7c(F)cc(S(=O)(=O)[O-])cc7F)c7ccc4[nH]7)C=C6)C=C5)cc3)cc(S(=O)(=O)N3CCOCC3)c2)c1)[NH+](C)C
REMARK SMILES IDX 17 1 16 2 15 3 14 4 13 5 11 6 12 7 10 8 8 9 9 10 102 11
REMARK SMILES IDX 92 12 91 13 7 14 3 15 4 16 103 17 5 18 6 19 2 20 1 21 104 22
REMARK SMILES IDX 105 23 106 24 93 26 94 27 95 28 96 29 97 30 101 31 98 32
REMARK SMILES IDX 100 33 99 34 18 35 19 36 20 37 21 38 22 39 23 40 24 41 25 42
REMARK SMILES IDX 26 43 90 44 27 45 89 46 28 47 29 48 30 49 83 50 31 51 88 52
REMARK SMILES IDX 82 53 84 54 32 55 87 56 81 57 80 58 33 60 67 61 46 62 66 63
REMARK SMILES IDX 47 64 50 65 65 66 85 67 48 68 49 69 64 71 86 72 51 73 34 74
REMARK SMILES IDX 35 75 44 76 36 77 37 78 43 79 45 80 38 81 39 82 40 83 41 84
REMARK SMILES IDX 42 85 68 86 69 87 78 88 70 89 71 90 77 91 79 92 72 93 73 94
REMARK SMILES IDX 74 95 75 96 76 97 52 98 53 99 62 100 54 101 55 102 61 103
REMARK SMILES IDX 63 104 56 105 57 106 58 107 59 108 60 109
REMARK H PARENT 104 25 84 59 50 70
REMARK Flexibility Score: inf
ROOT
ATOM      1  C   UNL A   1      51.261  43.032  33.694  1.00  0.00     0.188 C 
ENDROOT
BRANCH   1   2
ATOM      2  O   UNL A   1      51.178  43.101  32.282  1.00  0.00    -0.376 OA
BRANCH   2   3
ATOM      3  C   UNL A   1      49.890  43.224  31.708  1.00  0.00     0.202 C 
BRANCH   3   4
ATOM      4  C   UNL A   1      49.445  42.155  30.697  1.00  0.00     0.261 C 
BRANCH   4   5
ATOM      5  O   UNL A   1      48.056  42.171  30.337  1.00  0.00    -0.460 OA
BRANCH   5   6
ATOM      6  C   UNL A   1      47.475  41.003  29.982  1.00  0.00     0.338 C 
ATOM      7  O   UNL A   1      47.992  39.900  29.984  1.00  0.00    -0.246 OA
BRANCH   6   8
ATOM      8  C   UNL A   1      46.033  41.271  29.754  1.00  0.00     0.062 A 
ATOM      9  C   UNL A   1      44.194  41.436  28.179  1.00  0.00    -0.016 A 
ATOM     10  C   UNL A   1      45.565  41.338  28.424  1.00  0.00     0.024 A 
ATOM     11  C   UNL A   1      43.332  41.511  29.277  1.00  0.00     0.030 A 
ATOM     12  C   UNL A   1      43.774  41.447  30.587  1.00  0.00     0.084 A 
ATOM     13  C   UNL A   1      45.137  41.324  30.842  1.00  0.00     0.037 A 
BRANCH   9  14
ATOM     14  C   UNL A   1      43.541  41.289  26.872  1.00  0.00    -0.018 A 
ATOM     15  C   UNL A   1      43.191  42.095  24.572  1.00  0.00     0.010 A 
ATOM     16  C   UNL A   1      41.923  41.490  24.589  1.00  0.00     0.010 A 
ATOM     17  C   UNL A   1      43.987  41.983  25.734  1.00  0.00     0.018 A 
ATOM     18  C   UNL A   1      41.473  40.785  25.698  1.00  0.00     0.001 A 
ATOM     19  C   UNL A   1      42.274  40.694  26.831  1.00  0.00     0.009 A 
BRANCH  15  20
ATOM     20  C   UNL A   1      43.623  42.977  23.384  1.00  0.00     0.211 C 
ATOM     21  C   UNL A   1      42.894  44.330  23.348  1.00  0.00     0.081 C 
BRANCH  20  22
ATOM     22  N   UNL A   1      45.095  43.100  23.256  1.00  0.00    -0.334 N 
ATOM     23  C   UNL A   1      45.617  42.481  22.042  1.00  0.00     0.333 C 
ATOM     24  C   UNL A   1      45.598  44.469  23.394  1.00  0.00     0.333 C 
ATOM     25  H   UNL A   1      45.453  42.575  24.056  1.00  0.00     0.348 HD
ENDBRANCH  20  22
ENDBRANCH  15  20
ENDBRANCH   9  14
BRANCH  12  26
ATOM     26  S   UNL A   1      42.590  41.429  31.914  1.00  0.00     0.243 S 
ATOM     27  O   UNL A   1      41.305  41.716  31.316  1.00  0.00    -0.207 OA
ATOM     28  O   UNL A   1      42.831  40.205  32.648  1.00  0.00    -0.207 OA
BRANCH  26  29
ATOM     29  N   UNL A   1      43.001  42.720  32.909  1.00  0.00    -0.193 NA
ATOM     30  C   UNL A   1      42.275  43.020  34.166  1.00  0.00     0.131 C 
ATOM     31  C   UNL A   1      44.050  43.694  32.539  1.00  0.00     0.131 C 
ATOM     32  C   UNL A   1      41.889  44.505  34.260  1.00  0.00     0.177 C 
ATOM     33  C   UNL A   1      43.562  45.139  32.704  1.00  0.00     0.177 C 
ATOM     34  O   UNL A   1      43.008  45.365  34.005  1.00  0.00    -0.379 OA
ENDBRANCH  26  29
ENDBRANCH  12  26
ENDBRANCH   6   8
ENDBRANCH   5   6
ENDBRANCH   4   5
ENDBRANCH   3   4
ENDBRANCH   2   3
ENDBRANCH   1   2
BRANCH   1  35
ATOM     35  C   UNL A   1      50.761  44.323  34.378  1.00  0.00     0.188 C 
BRANCH  35  36
ATOM     36  O   UNL A   1      49.868  44.220  35.482  1.00  0.00    -0.376 OA
BRANCH  36  37
ATOM     37  C   UNL A   1      48.939  45.278  35.704  1.00  0.00     0.202 C 
BRANCH  37  38
ATOM     38  C   UNL A   1      48.099  45.242  36.987  1.00  0.00     0.261 C 
BRANCH  38  39
ATOM     39  O   UNL A   1      47.132  44.176  37.022  1.00  0.00    -0.460 OA
BRANCH  39  40
ATOM     40  C   UNL A   1      47.476  43.101  37.774  1.00  0.00     0.338 C 
ATOM     41  O   UNL A   1      48.287  43.059  38.682  1.00  0.00    -0.246 OA
BRANCH  40  42
ATOM     42  C   UNL A   1      46.612  41.959  37.426  1.00  0.00     0.060 A 
ATOM     43  C   UNL A   1      47.144  40.671  37.511  1.00  0.00     0.016 A 
ATOM     44  C   UNL A   1      45.323  42.156  36.928  1.00  0.00     0.016 A 
ATOM     45  C   UNL A   1      46.376  39.575  37.122  1.00  0.00     0.010 A 
ATOM     46  C   UNL A   1      44.569  41.050  36.509  1.00  0.00     0.010 A 
ATOM     47  C   UNL A   1      45.096  39.752  36.594  1.00  0.00    -0.014 A 
BRANCH  47  48
ATOM     48  C   UNL A   1      44.384  38.578  36.028  1.00  0.00     0.031 A 
ATOM     49  C   UNL A   1      44.659  38.170  34.609  1.00  0.00     0.074 A 
ATOM     50  C   UNL A   1      43.564  37.832  36.791  1.00  0.00     0.049 A 
ATOM     51  N   UNL A   1      44.066  37.261  33.879  1.00  0.00    -0.248 NA
ATOM     52  C   UNL A   1      45.762  38.867  33.927  1.00  0.00     0.031 C 
ATOM     53  C   UNL A   1      43.316  38.038  38.218  1.00  0.00     0.029 A 
ATOM     54  N   UNL A   1      42.786  36.748  36.468  1.00  0.00    -0.354 N 
ATOM     55  C   UNL A   1      44.702  37.296  32.643  1.00  0.00     0.074 A 
ATOM     56  C   UNL A   1      45.732  38.310  32.725  1.00  0.00     0.031 C 
ATOM     57  C   UNL A   1      42.427  37.122  38.643  1.00  0.00     0.029 A 
ATOM     58  C   UNL A   1      42.000  36.307  37.506  1.00  0.00     0.049 A 
ATOM     59  H   UNL A   1      42.790  36.326  35.578  1.00  0.00     0.167 HD
ATOM     60  C   UNL A   1      44.442  36.554  31.541  1.00  0.00     0.037 A 
ATOM     61  C   UNL A   1      41.011  35.390  37.526  1.00  0.00     0.037 A 
ATOM     62  C   UNL A   1      43.423  35.540  31.470  1.00  0.00     0.049 A 
ATOM     63  C   UNL A   1      40.644  34.673  36.252  1.00  0.00     0.074 A 
ATOM     64  C   UNL A   1      43.076  34.740  30.395  1.00  0.00     0.029 A 
ATOM     65  N   UNL A   1      42.581  35.191  32.516  1.00  0.00    -0.354 N 
ATOM     66  N   UNL A   1      41.213  34.746  35.073  1.00  0.00    -0.248 NA
ATOM     67  C   UNL A   1      39.486  33.770  36.305  1.00  0.00     0.031 C 
ATOM     68  C   UNL A   1      41.992  33.943  30.775  1.00  0.00     0.029 A 
ATOM     69  C   UNL A   1      41.692  34.212  32.102  1.00  0.00     0.049 A 
ATOM     70  H   UNL A   1      42.612  35.579  33.420  1.00  0.00     0.167 HD
ATOM     71  C   UNL A   1      40.486  33.897  34.244  1.00  0.00     0.074 A 
ATOM     72  C   UNL A   1      39.449  33.304  35.063  1.00  0.00     0.031 C 
ATOM     73  C   UNL A   1      40.659  33.636  32.926  1.00  0.00     0.037 A 
BRANCH  60  74
ATOM     74  C   UNL A   1      45.235  36.854  30.301  1.00  0.00     0.058 A 
ATOM     75  C   UNL A   1      46.501  36.297  30.073  1.00  0.00     0.135 A 
ATOM     76  C   UNL A   1      44.700  37.697  29.313  1.00  0.00     0.135 A 
ATOM     77  F   UNL A   1      47.065  35.501  30.996  1.00  0.00    -0.206 F 
ATOM     78  C   UNL A   1      47.221  36.580  28.917  1.00  0.00     0.059 A 
ATOM     79  C   UNL A   1      45.391  37.977  28.139  1.00  0.00     0.059 A 
ATOM     80  F   UNL A   1      43.494  38.260  29.486  1.00  0.00    -0.206 F 
ATOM     81  C   UNL A   1      46.657  37.424  27.956  1.00  0.00     0.060 A 
BRANCH  81  82
ATOM     82  S   UNL A   1      47.602  37.785  26.461  1.00  0.00     0.124 S 
ATOM     83  O   UNL A   1      47.881  36.442  25.961  1.00  0.00    -0.237 OA
ATOM     84  O   UNL A   1      46.656  38.570  25.675  1.00  0.00    -0.237 OA
ATOM     85  O   UNL A   1      48.759  38.521  26.959  1.00  0.00    -0.744 OA
ENDBRANCH  81  82
ENDBRANCH  60  74
BRANCH  61  86
ATOM     86  C   UNL A   1      40.238  35.156  38.776  1.00  0.00     0.058 A 
ATOM     87  C   UNL A   1      40.445  34.010  39.557  1.00  0.00     0.135 A 
ATOM     88  C   UNL A   1      39.266  36.073  39.207  1.00  0.00     0.135 A 
ATOM     89  F   UNL A   1      41.349  33.093  39.177  1.00  0.00    -0.206 F 
ATOM     90  C   UNL A   1      39.713  33.779  40.718  1.00  0.00     0.059 A 
ATOM     91  C   UNL A   1      38.540  35.877  40.376  1.00  0.00     0.059 A 
ATOM     92  F   UNL A   1      39.028  37.186  38.495  1.00  0.00    -0.206 F 
ATOM     93  C   UNL A   1      38.765  34.721  41.122  1.00  0.00     0.060 A 
BRANCH  93  94
ATOM     94  S   UNL A   1      37.856  34.440  42.657  1.00  0.00     0.124 S 
ATOM     95  O   UNL A   1      38.528  33.257  43.182  1.00  0.00    -0.237 OA
ATOM     96  O   UNL A   1      38.090  35.683  43.385  1.00  0.00    -0.237 OA
ATOM     97  O   UNL A   1      36.484  34.238  42.201  1.00  0.00    -0.744 OA
ENDBRANCH  93  94
ENDBRANCH  61  86
BRANCH  73  98
ATOM     98  C   UNL A   1      39.711  32.666  32.276  1.00  0.00     0.058 A 
ATOM     99  C   UNL A   1      38.623  33.110  31.510  1.00  0.00     0.135 A 
ATOM    100  C   UNL A   1      39.932  31.282  32.363  1.00  0.00     0.135 A 
ATOM    101  F   UNL A   1      38.364  34.423  31.403  1.00  0.00    -0.206 F 
ATOM    102  C   UNL A   1      37.781  32.215  30.857  1.00  0.00     0.059 A 
ATOM    103  C   UNL A   1      39.116  30.369  31.700  1.00  0.00     0.059 A 
ATOM    104  F   UNL A   1      40.964  30.805  33.078  1.00  0.00    -0.206 F 
ATOM    105  C   UNL A   1      38.039  30.846  30.954  1.00  0.00     0.060 A 
BRANCH 105 106
ATOM    106  S   UNL A   1      36.969  29.698  30.061  1.00  0.00     0.124 S 
ATOM    107  O   UNL A   1      36.494  30.532  28.963  1.00  0.00    -0.237 OA
ATOM    108  O   UNL A   1      37.895  28.631  29.691  1.00  0.00    -0.237 OA
ATOM    109  O   UNL A   1      35.963  29.330  31.051  1.00  0.00    -0.744 OA
ENDBRANCH 105 106
ENDBRANCH  73  98
ENDBRANCH  47  48
ENDBRANCH  40  42
ENDBRANCH  39  40
ENDBRANCH  38  39
ENDBRANCH  37  38
ENDBRANCH  36  37
ENDBRANCH  35  36
ENDBRANCH   1  35
TORSDOF 25
ENDMDL
MODEL 2
REMARK VINA RESULT:      -6.8      4.120      9.282
REMARK SMILES C[C@H](c1cccc(-c2cc(C(=O)OCCOCCOCCOC(=O)c3ccc(-c4c5nc(c(-c6c(F)cc(S(=O)(=O)[O-])cc6F)c6ccc([nH]6)c(-c6c(F)cc(S(=O)(=O)[O-])cc6F)c6nc(c(-c7c(F)cc(S(=O)(=O)[O-])cc7F)c7ccc4[nH]7)C=C6)C=C5)cc3)cc(S(=O)(=O)N3CCOCC3)c2)c1)[NH+](C)C
REMARK SMILES IDX 17 1 16 2 15 3 14 4 13 5 11 6 12 7 10 8 8 9 9 10 102 11
REMARK SMILES IDX 92 12 91 13 7 14 3 15 4 16 103 17 5 18 6 19 2 20 1 21 104 22
REMARK SMILES IDX 105 23 106 24 93 26 94 27 95 28 96 29 97 30 101 31 98 32
REMARK SMILES IDX 100 33 99 34 18 35 19 36 20 37 21 38 22 39 23 40 24 41 25 42
REMARK SMILES IDX 26 43 90 44 27 45 89 46 28 47 29 48 30 49 83 50 31 51 88 52
REMARK SMILES IDX 82 53 84 54 32 55 87 56 81 57 80 58 33 60 67 61 46 62 66 63
REMARK SMILES IDX 47 64 50 65 65 66 85 67 48 68 49 69 64 71 86 72 51 73 34 74
REMARK SMILES IDX 35 75 44 76 36 77 37 78 43 79 45 80 38 81 39 82 40 83 41 84
REMARK SMILES IDX 42 85 68 86 69 87 78 88 70 89 71 90 77 91 79 92 72 93 73 94
REMARK SMILES IDX 74 95 75 96 76 97 52 98 53 99 62 100 54 101 55 102 61 103
REMARK SMILES IDX 63 104 56 105 57 106 58 107 59 108 60 109
REMARK H PARENT 104 25 84 59 50 70
REMARK Flexibility Score: inf
ROOT
ATOM      1  C   UNL A   1      43.917  41.504  25.863  1.00  0.00     0.188 C 
ENDROOT
BRANCH   1   2
ATOM      2  O   UNL A   1      43.291  42.273  24.853  1.00  0.00    -0.376 OA
BRANCH   2   3
ATOM      3  C   UNL A   1      42.134  41.733  24.241  1.00  0.00     0.202 C 
BRANCH   3   4
ATOM      4  C   UNL A   1      41.540  42.477  23.035  1.00  0.00     0.261 C 
BRANCH   4   5
ATOM      5  O   UNL A   1      42.424  42.674  21.921  1.00  0.00    -0.460 OA
BRANCH   5   6
ATOM      6  C   UNL A   1      41.895  43.120  20.759  1.00  0.00     0.338 C 
ATOM      7  O   UNL A   1      40.713  43.201  20.477  1.00  0.00    -0.246 OA
BRANCH   6   8
ATOM      8  C   UNL A   1      43.009  43.664  19.941  1.00  0.00     0.062 A 
ATOM      9  C   UNL A   1      43.751  45.283  18.293  1.00  0.00    -0.016 A 
ATOM     10  C   UNL A   1      42.711  44.644  18.969  1.00  0.00     0.024 A 
ATOM     11  C   UNL A   1      45.062  44.889  18.577  1.00  0.00     0.030 A 
ATOM     12  C   UNL A   1      45.371  43.931  19.526  1.00  0.00     0.084 A 
ATOM     13  C   UNL A   1      44.342  43.305  20.224  1.00  0.00     0.037 A 
BRANCH   9  14
ATOM     14  C   UNL A   1      43.619  46.464  17.431  1.00  0.00    -0.018 A 
ATOM     15  C   UNL A   1      44.395  48.705  16.769  1.00  0.00     0.010 A 
ATOM     16  C   UNL A   1      43.097  48.982  16.308  1.00  0.00     0.010 A 
ATOM     17  C   UNL A   1      44.634  47.432  17.334  1.00  0.00     0.018 A 
ATOM     18  C   UNL A   1      42.086  48.031  16.381  1.00  0.00     0.001 A 
ATOM     19  C   UNL A   1      42.347  46.788  16.945  1.00  0.00     0.009 A 
BRANCH  15  20
ATOM     20  C   UNL A   1      45.469  49.811  16.797  1.00  0.00     0.211 C 
ATOM     21  C   UNL A   1      44.970  51.113  17.445  1.00  0.00     0.081 C 
BRANCH  20  22
ATOM     22  N   UNL A   1      46.769  49.345  17.337  1.00  0.00    -0.334 N 
ATOM     23  C   UNL A   1      47.784  49.159  16.306  1.00  0.00     0.333 C 
ATOM     24  C   UNL A   1      47.292  50.166  18.432  1.00  0.00     0.333 C 
ATOM     25  H   UNL A   1      46.552  48.431  17.736  1.00  0.00     0.348 HD
ENDBRANCH  20  22
ENDBRANCH  15  20
ENDBRANCH   9  14
BRANCH  12  26
ATOM     26  S   UNL A   1      47.075  43.584  19.903  1.00  0.00     0.243 S 
ATOM     27  O   UNL A   1      47.170  42.151  20.069  1.00  0.00    -0.207 OA
ATOM     28  O   UNL A   1      47.855  44.289  18.908  1.00  0.00    -0.207 OA
BRANCH  26  29
ATOM     29  N   UNL A   1      47.367  44.301  21.395  1.00  0.00    -0.193 NA
ATOM     30  C   UNL A   1      48.229  43.675  22.425  1.00  0.00     0.131 C 
ATOM     31  C   UNL A   1      46.701  45.555  21.808  1.00  0.00     0.131 C 
ATOM     32  C   UNL A   1      47.551  43.664  23.805  1.00  0.00     0.177 C 
ATOM     33  C   UNL A   1      46.092  45.435  23.210  1.00  0.00     0.177 C 
ATOM     34  O   UNL A   1      47.048  44.958  24.163  1.00  0.00    -0.379 OA
ENDBRANCH  26  29
ENDBRANCH  12  26
ENDBRANCH   6   8
ENDBRANCH   5   6
ENDBRANCH   4   5
ENDBRANCH   3   4
ENDBRANCH   2   3
ENDBRANCH   1   2
BRANCH   1  35
ATOM     35  C   UNL A   1      45.440  41.748  25.933  1.00  0.00     0.188 C 
BRANCH  35  36
ATOM     36  O   UNL A   1      45.962  42.570  26.972  1.00  0.00    -0.376 OA
BRANCH  36  37
ATOM     37  C   UNL A   1      47.155  42.155  27.631  1.00  0.00     0.202 C 
BRANCH  37  38
ATOM     38  C   UNL A   1      47.087  40.912  28.528  1.00  0.00     0.261 C 
BRANCH  38  39
ATOM     39  O   UNL A   1      45.822  40.740  29.193  1.00  0.00    -0.460 OA
BRANCH  39  40
ATOM     40  C   UNL A   1      45.744  41.264  30.442  1.00  0.00     0.338 C 
ATOM     41  O   UNL A   1      45.996  42.405  30.787  1.00  0.00    -0.246 OA
BRANCH  40  42
ATOM     42  C   UNL A   1      45.165  40.266  31.360  1.00  0.00     0.060 A 
ATOM     43  C   UNL A   1      43.897  40.506  31.892  1.00  0.00     0.016 A 
ATOM     44  C   UNL A   1      45.900  39.152  31.770  1.00  0.00     0.016 A 
ATOM     45  C   UNL A   1      43.352  39.617  32.816  1.00  0.00     0.010 A 
ATOM     46  C   UNL A   1      45.357  38.280  32.725  1.00  0.00     0.010 A 
ATOM     47  C   UNL A   1      44.081  38.514  33.261  1.00  0.00    -0.014 A 
BRANCH  47  48
ATOM     48  C   UNL A   1      43.537  37.695  34.374  1.00  0.00     0.031 A 
ATOM     49  C   UNL A   1      42.750  36.456  34.055  1.00  0.00     0.074 A 
ATOM     50  C   UNL A   1      43.809  38.002  35.656  1.00  0.00     0.049 A 
ATOM     51  N   UNL A   1      42.084  35.668  34.858  1.00  0.00    -0.248 NA
ATOM     52  C   UNL A   1      42.723  36.041  32.643  1.00  0.00     0.031 C 
ATOM     53  C   UNL A   1      44.672  39.097  36.100  1.00  0.00     0.029 A 
ATOM     54  N   UNL A   1      43.382  37.418  36.823  1.00  0.00    -0.354 N 
ATOM     55  C   UNL A   1      41.536  34.680  34.049  1.00  0.00     0.074 A 
ATOM     56  C   UNL A   1      41.952  34.964  32.692  1.00  0.00     0.031 C 
ATOM     57  C   UNL A   1      44.693  39.118  37.444  1.00  0.00     0.029 A 
ATOM     58  C   UNL A   1      43.800  38.079  37.954  1.00  0.00     0.049 A 
ATOM     59  H   UNL A   1      42.830  36.602  36.849  1.00  0.00     0.167 HD
ATOM     60  C   UNL A   1      40.750  33.638  34.408  1.00  0.00     0.037 A 
ATOM     61  C   UNL A   1      43.458  37.903  39.247  1.00  0.00     0.037 A 
ATOM     62  C   UNL A   1      40.347  33.355  35.760  1.00  0.00     0.049 A 
ATOM     63  C   UNL A   1      42.472  36.823  39.608  1.00  0.00     0.074 A 
ATOM     64  C   UNL A   1      39.544  32.328  36.224  1.00  0.00     0.029 A 
ATOM     65  N   UNL A   1      40.712  34.108  36.867  1.00  0.00    -0.354 N 
ATOM     66  N   UNL A   1      41.915  35.923  38.833  1.00  0.00    -0.248 NA
ATOM     67  C   UNL A   1      42.048  36.749  41.014  1.00  0.00     0.031 C 
ATOM     68  C   UNL A   1      39.382  32.488  37.604  1.00  0.00     0.029 A 
ATOM     69  C   UNL A   1      40.122  33.589  38.008  1.00  0.00     0.049 A 
ATOM     70  H   UNL A   1      41.304  34.893  36.846  1.00  0.00     0.167 HD
ATOM     71  C   UNL A   1      41.078  35.175  39.656  1.00  0.00     0.074 A 
ATOM     72  C   UNL A   1      41.219  35.713  40.993  1.00  0.00     0.031 C 
ATOM     73  C   UNL A   1      40.265  34.140  39.333  1.00  0.00     0.037 A 
BRANCH  60  74
ATOM     74  C   UNL A   1      40.222  32.758  33.310  1.00  0.00     0.058 A 
ATOM     75  C   UNL A   1      39.074  33.089  32.577  1.00  0.00     0.135 A 
ATOM     76  C   UNL A   1      40.898  31.573  32.974  1.00  0.00     0.135 A 
ATOM     77  F   UNL A   1      38.380  34.200  32.873  1.00  0.00    -0.206 F 
ATOM     78  C   UNL A   1      38.600  32.267  31.560  1.00  0.00     0.059 A 
ATOM     79  C   UNL A   1      40.456  30.747  31.947  1.00  0.00     0.059 A 
ATOM     80  F   UNL A   1      41.999  31.209  33.650  1.00  0.00    -0.206 F 
ATOM     81  C   UNL A   1      39.298  31.096  31.253  1.00  0.00     0.060 A 
BRANCH  81  82
ATOM     82  S   UNL A   1      38.673  30.035  29.933  1.00  0.00     0.124 S 
ATOM     83  O   UNL A   1      37.790  29.139  30.673  1.00  0.00    -0.237 OA
ATOM     84  O   UNL A   1      38.010  30.991  29.051  1.00  0.00    -0.237 OA
ATOM     85  O   UNL A   1      39.879  29.420  29.390  1.00  0.00    -0.744 OA
ENDBRANCH  81  82
ENDBRANCH  60  74
BRANCH  61  86
ATOM     86  C   UNL A   1      43.987  38.825  40.288  1.00  0.00     0.058 A 
ATOM     87  C   UNL A   1      45.168  38.534  40.986  1.00  0.00     0.135 A 
ATOM     88  C   UNL A   1      43.311  40.011  40.614  1.00  0.00     0.135 A 
ATOM     89  F   UNL A   1      45.841  37.402  40.726  1.00  0.00    -0.206 F 
ATOM     90  C   UNL A   1      45.658  39.385  41.972  1.00  0.00     0.059 A 
ATOM     91  C   UNL A   1      43.794  40.890  41.578  1.00  0.00     0.059 A 
ATOM     92  F   UNL A   1      42.175  40.336  39.977  1.00  0.00    -0.206 F 
ATOM     93  C   UNL A   1      44.965  40.564  42.259  1.00  0.00     0.060 A 
BRANCH  93  94
ATOM     94  S   UNL A   1      45.635  41.688  43.503  1.00  0.00     0.124 S 
ATOM     95  O   UNL A   1      47.061  41.396  43.424  1.00  0.00    -0.237 OA
ATOM     96  O   UNL A   1      45.222  42.992  42.994  1.00  0.00    -0.237 OA
ATOM     97  O   UNL A   1      44.969  41.263  44.731  1.00  0.00    -0.744 OA
ENDBRANCH  93  94
ENDBRANCH  61  86
BRANCH  73  98
ATOM     98  C   UNL A   1      39.461  33.513  40.438  1.00  0.00     0.058 A 
ATOM     99  C   UNL A   1      39.957  32.428  41.177  1.00  0.00     0.135 A 
ATOM    100  C   UNL A   1      38.215  34.045  40.807  1.00  0.00     0.135 A 
ATOM    101  F   UNL A   1      41.139  31.878  40.858  1.00  0.00    -0.206 F 
ATOM    102  C   UNL A   1      39.242  31.887  42.240  1.00  0.00     0.059 A 
ATOM    103  C   UNL A   1      37.493  33.534  41.882  1.00  0.00     0.059 A 
ATOM    104  F   UNL A   1      37.700  35.088  40.138  1.00  0.00    -0.206 F 
ATOM    105  C   UNL A   1      38.013  32.450  42.589  1.00  0.00     0.060 A 
BRANCH 105 106
ATOM    106  S   UNL A   1      37.118  31.770  44.003  1.00  0.00     0.124 S 
ATOM    107  O   UNL A   1      36.968  32.948  44.850  1.00  0.00    -0.237 OA
ATOM    108  O   UNL A   1      35.892  31.271  43.387  1.00  0.00    -0.237 OA
ATOM    109  O   UNL A   1      38.020  30.741  44.512  1.00  0.00    -0.744 OA
ENDBRANCH 105 106
ENDBRANCH  73  98
ENDBRANCH  47  48
ENDBRANCH  40  42
ENDBRANCH  39  40
ENDBRANCH  38  39
ENDBRANCH  37  38
ENDBRANCH  36  37
ENDBRANCH  35  36
ENDBRANCH   1  35
TORSDOF 25
ENDMDL
MODEL 3
REMARK VINA RESULT:      -6.7      7.999     14.125
REMARK SMILES C[C@H](c1cccc(-c2cc(C(=O)OCCOCCOCCOC(=O)c3ccc(-c4c5nc(c(-c6c(F)cc(S(=O)(=O)[O-])cc6F)c6ccc([nH]6)c(-c6c(F)cc(S(=O)(=O)[O-])cc6F)c6nc(c(-c7c(F)cc(S(=O)(=O)[O-])cc7F)c7ccc4[nH]7)C=C6)C=C5)cc3)cc(S(=O)(=O)N3CCOCC3)c2)c1)[NH+](C)C
REMARK SMILES IDX 17 1 16 2 15 3 14 4 13 5 11 6 12 7 10 8 8 9 9 10 102 11
REMARK SMILES IDX 92 12 91 13 7 14 3 15 4 16 103 17 5 18 6 19 2 20 1 21 104 22
REMARK SMILES IDX 105 23 106 24 93 26 94 27 95 28 96 29 97 30 101 31 98 32
REMARK SMILES IDX 100 33 99 34 18 35 19 36 20 37 21 38 22 39 23 40 24 41 25 42
REMARK SMILES IDX 26 43 90 44 27 45 89 46 28 47 29 48 30 49 83 50 31 51 88 52
REMARK SMILES IDX 82 53 84 54 32 55 87 56 81 57 80 58 33 60 67 61 46 62 66 63
REMARK SMILES IDX 47 64 50 65 65 66 85 67 48 68 49 69 64 71 86 72 51 73 34 74
REMARK SMILES IDX 35 75 44 76 36 77 37 78 43 79 45 80 38 81 39 82 40 83 41 84
REMARK SMILES IDX 42 85 68 86 69 87 78 88 70 89 71 90 77 91 79 92 72 93 73 94
REMARK SMILES IDX 74 95 75 96 76 97 52 98 53 99 62 100 54 101 55 102 61 103
REMARK SMILES IDX 63 104 56 105 57 106 58 107 59 108 60 109
REMARK H PARENT 104 25 84 59 50 70
REMARK Flexibility Score: inf
ROOT
ATOM      1  C   UNL A   1      48.964  28.704  28.078  1.00  0.00     0.188 C 
ENDROOT
BRANCH   1   2
ATOM      2  O   UNL A   1      50.242  28.244  27.678  1.00  0.00    -0.376 OA
BRANCH   2   3
ATOM      3  C   UNL A   1      50.376  27.755  26.356  1.00  0.00     0.202 C 
BRANCH   3   4
ATOM      4  C   UNL A   1      49.162  27.067  25.713  1.00  0.00     0.261 C 
BRANCH   4   5
ATOM      5  O   UNL A   1      49.231  25.636  25.612  1.00  0.00    -0.460 OA
BRANCH   5   6
ATOM      6  C   UNL A   1      48.974  24.905  26.720  1.00  0.00     0.338 C 
ATOM      7  O   UNL A   1      49.780  24.536  27.555  1.00  0.00    -0.246 OA
BRANCH   6   8
ATOM      8  C   UNL A   1      47.500  24.776  26.838  1.00  0.00     0.062 A 
ATOM      9  C   UNL A   1      45.434  25.594  27.815  1.00  0.00    -0.016 A 
ATOM     10  C   UNL A   1      46.829  25.581  27.785  1.00  0.00     0.024 A 
ATOM     11  C   UNL A   1      44.748  24.765  26.923  1.00  0.00     0.030 A 
ATOM     12  C   UNL A   1      45.389  23.972  25.987  1.00  0.00     0.084 A 
ATOM     13  C   UNL A   1      46.780  23.970  25.933  1.00  0.00     0.037 A 
BRANCH   9  14
ATOM     14  C   UNL A   1      44.599  26.532  28.575  1.00  0.00    -0.018 A 
ATOM     15  C   UNL A   1      42.365  27.353  29.207  1.00  0.00     0.010 A 
ATOM     16  C   UNL A   1      42.936  28.613  29.457  1.00  0.00     0.010 A 
ATOM     17  C   UNL A   1      43.221  26.321  28.761  1.00  0.00     0.018 A 
ATOM     18  C   UNL A   1      44.297  28.834  29.296  1.00  0.00     0.001 A 
ATOM     19  C   UNL A   1      45.117  27.803  28.852  1.00  0.00     0.009 A 
BRANCH  15  20
ATOM     20  C   UNL A   1      40.837  27.158  29.270  1.00  0.00     0.211 C 
ATOM     21  C   UNL A   1      40.161  28.062  30.314  1.00  0.00     0.081 C 
BRANCH  20  22
ATOM     22  N   UNL A   1      40.189  27.213  27.938  1.00  0.00    -0.334 N 
ATOM     23  C   UNL A   1      39.353  26.049  27.660  1.00  0.00     0.333 C 
ATOM     24  C   UNL A   1      39.450  28.451  27.680  1.00  0.00     0.333 C 
ATOM     25  H   UNL A   1      40.974  27.200  27.285  1.00  0.00     0.348 HD
ENDBRANCH  20  22
ENDBRANCH  15  20
ENDBRANCH   9  14
BRANCH  12  26
ATOM     26  S   UNL A   1      44.426  23.044  24.814  1.00  0.00     0.243 S 
ATOM     27  O   UNL A   1      43.060  23.495  24.963  1.00  0.00    -0.207 OA
ATOM     28  O   UNL A   1      45.128  23.144  23.552  1.00  0.00    -0.207 OA
BRANCH  26  29
ATOM     29  N   UNL A   1      44.504  21.444  25.325  1.00  0.00    -0.193 NA
ATOM     30  C   UNL A   1      45.653  20.562  25.012  1.00  0.00     0.131 C 
ATOM     31  C   UNL A   1      43.384  20.791  26.035  1.00  0.00     0.131 C 
ATOM     32  C   UNL A   1      45.194  19.205  24.456  1.00  0.00     0.177 C 
ATOM     33  C   UNL A   1      43.037  19.432  25.413  1.00  0.00     0.177 C 
ATOM     34  O   UNL A   1      44.195  18.598  25.286  1.00  0.00    -0.379 OA
ENDBRANCH  26  29
ENDBRANCH  12  26
ENDBRANCH   6   8
ENDBRANCH   5   6
ENDBRANCH   4   5
ENDBRANCH   3   4
ENDBRANCH   2   3
ENDBRANCH   1   2
BRANCH   1  35
ATOM     35  C   UNL A   1      48.709  28.502  29.586  1.00  0.00     0.188 C 
BRANCH  35  36
ATOM     36  O   UNL A   1      49.158  27.304  30.210  1.00  0.00    -0.376 OA
BRANCH  36  37
ATOM     37  C   UNL A   1      48.475  26.848  31.375  1.00  0.00     0.202 C 
BRANCH  37  38
ATOM     38  C   UNL A   1      47.624  25.577  31.259  1.00  0.00     0.261 C 
BRANCH  38  39
ATOM     39  O   UNL A   1      46.727  25.372  32.366  1.00  0.00    -0.460 OA
BRANCH  39  40
ATOM     40  C   UNL A   1      45.406  25.391  32.057  1.00  0.00     0.338 C 
ATOM     41  O   UNL A   1      44.795  24.604  31.356  1.00  0.00    -0.246 OA
BRANCH  40  42
ATOM     42  C   UNL A   1      44.738  26.464  32.815  1.00  0.00     0.060 A 
ATOM     43  C   UNL A   1      45.144  27.783  32.602  1.00  0.00     0.016 A 
ATOM     44  C   UNL A   1      43.790  26.171  33.797  1.00  0.00     0.016 A 
ATOM     45  C   UNL A   1      44.582  28.813  33.353  1.00  0.00     0.010 A 
ATOM     46  C   UNL A   1      43.252  27.210  34.571  1.00  0.00     0.010 A 
ATOM     47  C   UNL A   1      43.653  28.539  34.359  1.00  0.00    -0.014 A 
BRANCH  47  48
ATOM     48  C   UNL A   1      43.215  29.642  35.251  1.00  0.00     0.031 A 
ATOM     49  C   UNL A   1      42.016  30.461  34.868  1.00  0.00     0.074 A 
ATOM     50  C   UNL A   1      43.824  29.861  36.431  1.00  0.00     0.049 A 
ATOM     51  N   UNL A   1      41.535  31.540  35.429  1.00  0.00    -0.248 NA
ATOM     52  C   UNL A   1      41.245  29.992  33.704  1.00  0.00     0.031 C 
ATOM     53  C   UNL A   1      44.911  29.053  36.986  1.00  0.00     0.029 A 
ATOM     54  N   UNL A   1      43.613  30.834  37.377  1.00  0.00    -0.354 N 
ATOM     55  C   UNL A   1      40.424  31.896  34.675  1.00  0.00     0.074 A 
ATOM     56  C   UNL A   1      40.298  30.915  33.617  1.00  0.00     0.031 C 
ATOM     57  C   UNL A   1      45.286  29.578  38.165  1.00  0.00     0.029 A 
ATOM     58  C   UNL A   1      44.508  30.790  38.419  1.00  0.00     0.049 A 
ATOM     59  H   UNL A   1      42.890  31.499  37.316  1.00  0.00     0.167 HD
ATOM     60  C   UNL A   1      39.594  32.952  34.844  1.00  0.00     0.037 A 
ATOM     61  C   UNL A   1      44.715  31.657  39.432  1.00  0.00     0.037 A 
ATOM     62  C   UNL A   1      39.720  33.918  35.903  1.00  0.00     0.049 A 
ATOM     63  C   UNL A   1      43.867  32.899  39.523  1.00  0.00     0.074 A 
ATOM     64  C   UNL A   1      38.933  35.029  36.155  1.00  0.00     0.029 A 
ATOM     65  N   UNL A   1      40.701  33.894  36.883  1.00  0.00    -0.354 N 
ATOM     66  N   UNL A   1      42.851  33.260  38.776  1.00  0.00    -0.248 NA
ATOM     67  C   UNL A   1      44.210  33.865  40.577  1.00  0.00     0.031 C 
ATOM     68  C   UNL A   1      39.469  35.704  37.257  1.00  0.00     0.029 A 
ATOM     69  C   UNL A   1      40.562  34.989  37.721  1.00  0.00     0.049 A 
ATOM     70  H   UNL A   1      41.393  33.200  36.972  1.00  0.00     0.167 HD
ATOM     71  C   UNL A   1      42.431  34.491  39.272  1.00  0.00     0.074 A 
ATOM     72  C   UNL A   1      43.288  34.803  40.396  1.00  0.00     0.031 C 
ATOM     73  C   UNL A   1      41.429  35.291  38.832  1.00  0.00     0.037 A 
BRANCH  60  74
ATOM     74  C   UNL A   1      38.508  33.151  33.825  1.00  0.00     0.058 A 
ATOM     75  C   UNL A   1      37.283  32.473  33.900  1.00  0.00     0.135 A 
ATOM     76  C   UNL A   1      38.695  34.057  32.769  1.00  0.00     0.135 A 
ATOM     77  F   UNL A   1      37.063  31.580  34.879  1.00  0.00    -0.206 F 
ATOM     78  C   UNL A   1      36.285  32.672  32.951  1.00  0.00     0.059 A 
ATOM     79  C   UNL A   1      37.703  34.289  31.821  1.00  0.00     0.059 A 
ATOM     80  F   UNL A   1      39.853  34.727  32.649  1.00  0.00    -0.206 F 
ATOM     81  C   UNL A   1      36.506  33.581  31.914  1.00  0.00     0.060 A 
BRANCH  81  82
ATOM     82  S   UNL A   1      35.204  33.829  30.688  1.00  0.00     0.124 S 
ATOM     83  O   UNL A   1      34.655  35.116  31.103  1.00  0.00    -0.237 OA
ATOM     84  O   UNL A   1      35.952  33.833  29.434  1.00  0.00    -0.237 OA
ATOM     85  O   UNL A   1      34.327  32.680  30.886  1.00  0.00    -0.744 OA
ENDBRANCH  81  82
ENDBRANCH  60  74
BRANCH  61  86
ATOM     86  C   UNL A   1      45.825  31.426  40.395  1.00  0.00     0.058 A 
ATOM     87  C   UNL A   1      47.121  31.898  40.140  1.00  0.00     0.135 A 
ATOM     88  C   UNL A   1      45.612  30.714  41.587  1.00  0.00     0.135 A 
ATOM     89  F   UNL A   1      47.381  32.566  39.005  1.00  0.00    -0.206 F 
ATOM     90  C   UNL A   1      48.166  31.670  41.030  1.00  0.00     0.059 A 
ATOM     91  C   UNL A   1      46.635  30.496  42.503  1.00  0.00     0.059 A 
ATOM     92  F   UNL A   1      44.391  30.240  41.878  1.00  0.00    -0.206 F 
ATOM     93  C   UNL A   1      47.912  30.970  42.212  1.00  0.00     0.060 A 
BRANCH  93  94
ATOM     94  S   UNL A   1      49.262  30.723  43.386  1.00  0.00     0.124 S 
ATOM     95  O   UNL A   1      50.399  30.540  42.491  1.00  0.00    -0.237 OA
ATOM     96  O   UNL A   1      49.242  31.970  44.144  1.00  0.00    -0.237 OA
ATOM     97  O   UNL A   1      48.845  29.539  44.130  1.00  0.00    -0.744 OA
ENDBRANCH  93  94
ENDBRANCH  61  86
BRANCH  73  98
ATOM     98  C   UNL A   1      41.196  36.584  39.565  1.00  0.00     0.058 A 
ATOM     99  C   UNL A   1      40.253  36.677  40.599  1.00  0.00     0.135 A 
ATOM    100  C   UNL A   1      41.972  37.718  39.277  1.00  0.00     0.135 A 
ATOM    101  F   UNL A   1      39.481  35.624  40.906  1.00  0.00    -0.206 F 
ATOM    102  C   UNL A   1      40.081  37.855  41.320  1.00  0.00     0.059 A 
ATOM    103  C   UNL A   1      41.832  38.900  40.000  1.00  0.00     0.059 A 
ATOM    104  F   UNL A   1      42.893  37.679  38.302  1.00  0.00    -0.206 F 
ATOM    105  C   UNL A   1      40.879  38.960  41.016  1.00  0.00     0.060 A 
BRANCH 105 106
ATOM    106  S   UNL A   1      40.681  40.466  41.992  1.00  0.00     0.124 S 
ATOM    107  O   UNL A   1      39.410  40.977  41.491  1.00  0.00    -0.237 OA
ATOM    108  O   UNL A   1      40.662  39.953  43.359  1.00  0.00    -0.237 OA
ATOM    109  O   UNL A   1      41.857  41.256  41.642  1.00  0.00    -0.744 OA
ENDBRANCH 105 106
ENDBRANCH  73  98
ENDBRANCH  47  48
ENDBRANCH  40  42
ENDBRANCH  39  40
ENDBRANCH  38  39
ENDBRANCH  37  38
ENDBRANCH  36  37
ENDBRANCH  35  36
ENDBRANCH   1  35
TORSDOF 25
ENDMDL
