MODEL 1
REMARK VINA RESULT:     -11.6      0.000      0.000
REMARK SMILES Cc1c(CC(=O)OCCOCCOCCOC(=O)c2ccc(-c3c4nc(c(-c5c(F)cc(S(=O)(=O)[O-])cc5F)c5ccc([nH]5)c(-c5c(F)cc(S(=O)(=O)[O-])cc5F)c5nc(c(-c6c(F)cc(S(=O)(=O)[O-])cc6F)c6ccc3[nH]6)C=C5)C=C4)cc2)c2cc(O)ccc2n1C(=O)c1ccc(Cl)cc1
REMARK SMILES IDX 11 1 10 2 9 3 8 4 7 5 5 6 6 7 4 8 3 9 1 10 2 11 92 12 85 13
REMARK SMILES IDX 91 14 86 15 90 16 87 17 89 18 93 19 94 20 95 21 96 22 101 23
REMARK SMILES IDX 97 24 100 25 98 26 99 27 88 28 12 30 13 31 14 32 15 33 16 34
REMARK SMILES IDX 17 35 18 36 19 37 20 38 84 39 21 40 83 41 22 42 23 43 24 44
REMARK SMILES IDX 77 45 25 46 82 47 76 48 78 49 26 50 81 51 75 52 74 53 27 55
REMARK SMILES IDX 61 56 40 57 60 58 41 59 44 60 59 61 79 62 42 63 43 64 58 66
REMARK SMILES IDX 80 67 45 68 28 69 29 70 38 71 30 72 31 73 37 74 39 75 32 76
REMARK SMILES IDX 33 77 34 78 35 79 36 80 62 81 63 82 72 83 64 84 65 85 71 86
REMARK SMILES IDX 73 87 66 88 67 89 68 90 69 91 70 92 46 93 47 94 56 95 48 96
REMARK SMILES IDX 49 97 55 98 57 99 50 100 51 101 52 102 53 103 54 104
REMARK H PARENT 88 29 78 54 44 65
REMARK Flexibility Score: inf
ROOT
ATOM      1  C   UNL A   1      41.422  20.402  27.439  1.00  0.00     0.188 C 
ENDROOT
BRANCH   1   2
ATOM      2  O   UNL A   1      41.104  21.780  27.432  1.00  0.00    -0.376 OA
BRANCH   2   3
ATOM      3  C   UNL A   1      39.797  22.151  27.008  1.00  0.00     0.202 C 
BRANCH   3   4
ATOM      4  C   UNL A   1      39.692  23.384  26.096  1.00  0.00     0.261 C 
BRANCH   4   5
ATOM      5  O   UNL A   1      38.383  23.983  26.243  1.00  0.00    -0.463 OA
BRANCH   5   6
ATOM      6  C   UNL A   1      37.392  23.454  25.480  1.00  0.00     0.310 C 
ATOM      7  O   UNL A   1      37.499  22.380  24.900  1.00  0.00    -0.252 OA
BRANCH   6   8
ATOM      8  C   UNL A   1      36.068  24.192  25.637  1.00  0.00     0.160 C 
BRANCH   8   9
ATOM      9  C   UNL A   1      34.780  23.645  25.112  1.00  0.00    -0.008 A 
ATOM     10  C   UNL A   1      34.203  22.197  27.194  1.00  0.00     0.065 C 
ATOM     11  C   UNL A   1      33.958  22.796  25.846  1.00  0.00     0.028 A 
ATOM     12  N   UNL A   1      32.788  22.610  25.128  1.00  0.00    -0.280 N 
ATOM     13  C   UNL A   1      33.980  24.152  24.024  1.00  0.00     0.008 A 
ATOM     14  C   UNL A   1      32.687  23.673  24.225  1.00  0.00     0.057 A 
ATOM     15  C   UNL A   1      34.158  25.072  22.961  1.00  0.00     0.056 A 
ATOM     16  C   UNL A   1      31.584  24.236  23.544  1.00  0.00     0.031 A 
ATOM     17  C   UNL A   1      33.078  25.543  22.209  1.00  0.00     0.116 A 
ATOM     18  C   UNL A   1      31.795  25.166  22.530  1.00  0.00     0.048 A 
BRANCH  12  19
ATOM     19  C   UNL A   1      31.875  21.534  25.233  1.00  0.00     0.262 C 
ATOM     20  O   UNL A   1      30.813  21.683  25.833  1.00  0.00    -0.268 OA
BRANCH  19  21
ATOM     21  C   UNL A   1      32.205  20.193  24.724  1.00  0.00     0.040 A 
ATOM     22  C   UNL A   1      32.735  19.248  25.612  1.00  0.00     0.015 A 
ATOM     23  C   UNL A   1      32.199  19.976  23.344  1.00  0.00     0.015 A 
ATOM     24  C   UNL A   1      33.326  18.094  25.103  1.00  0.00     0.021 A 
ATOM     25  C   UNL A   1      32.801  18.822  22.843  1.00  0.00     0.021 A 
ATOM     26  C   UNL A   1      33.373  17.895  23.721  1.00  0.00     0.041 A 
ATOM     27  Cl  UNL A   1      34.192  16.519  23.092  1.00  0.00    -0.084 Cl
ENDBRANCH  19  21
ENDBRANCH  12  19
BRANCH  17  28
ATOM     28  O   UNL A   1      33.218  26.421  21.172  1.00  0.00    -0.508 OA
ATOM     29  H   UNL A   1      33.185  27.343  21.332  1.00  0.00     0.293 HD
ENDBRANCH  17  28
ENDBRANCH   8   9
ENDBRANCH   6   8
ENDBRANCH   5   6
ENDBRANCH   4   5
ENDBRANCH   3   4
ENDBRANCH   2   3
ENDBRANCH   1   2
BRANCH   1  30
ATOM     30  C   UNL A   1      41.148  19.599  26.165  1.00  0.00     0.188 C 
BRANCH  30  31
ATOM     31  O   UNL A   1      42.213  19.120  25.374  1.00  0.00    -0.376 OA
BRANCH  31  32
ATOM     32  C   UNL A   1      43.350  18.652  26.079  1.00  0.00     0.202 C 
BRANCH  32  33
ATOM     33  C   UNL A   1      44.643  18.560  25.251  1.00  0.00     0.261 C 
BRANCH  33  34
ATOM     34  O   UNL A   1      45.423  19.784  25.310  1.00  0.00    -0.460 OA
BRANCH  34  35
ATOM     35  C   UNL A   1      45.039  20.750  24.427  1.00  0.00     0.338 C 
ATOM     36  O   UNL A   1      44.501  20.540  23.349  1.00  0.00    -0.246 OA
BRANCH  35  37
ATOM     37  C   UNL A   1      44.930  22.071  25.119  1.00  0.00     0.060 A 
ATOM     38  C   UNL A   1      45.688  22.479  26.219  1.00  0.00     0.016 A 
ATOM     39  C   UNL A   1      43.837  22.851  24.724  1.00  0.00     0.016 A 
ATOM     40  C   UNL A   1      45.292  23.618  26.948  1.00  0.00     0.010 A 
ATOM     41  C   UNL A   1      43.385  23.909  25.500  1.00  0.00     0.010 A 
ATOM     42  C   UNL A   1      44.109  24.305  26.621  1.00  0.00    -0.014 A 
BRANCH  42  43
ATOM     43  C   UNL A   1      43.776  25.621  27.175  1.00  0.00     0.031 A 
ATOM     44  C   UNL A   1      44.728  26.668  26.786  1.00  0.00     0.074 A 
ATOM     45  C   UNL A   1      42.681  26.031  27.845  1.00  0.00     0.049 A 
ATOM     46  N   UNL A   1      45.709  27.049  27.528  1.00  0.00    -0.248 NA
ATOM     47  C   UNL A   1      44.694  27.271  25.452  1.00  0.00     0.031 C 
ATOM     48  C   UNL A   1      41.579  25.222  28.318  1.00  0.00     0.029 A 
ATOM     49  N   UNL A   1      42.296  27.294  28.211  1.00  0.00    -0.354 N 
ATOM     50  C   UNL A   1      46.246  28.141  26.885  1.00  0.00     0.074 A 
ATOM     51  C   UNL A   1      45.746  28.093  25.530  1.00  0.00     0.031 C 
ATOM     52  C   UNL A   1      40.531  26.002  28.670  1.00  0.00     0.029 A 
ATOM     53  C   UNL A   1      40.978  27.384  28.649  1.00  0.00     0.049 A 
ATOM     54  H   UNL A   1      42.899  28.071  28.168  1.00  0.00     0.167 HD
ATOM     55  C   UNL A   1      46.832  29.138  27.599  1.00  0.00     0.037 A 
ATOM     56  C   UNL A   1      40.331  28.434  29.215  1.00  0.00     0.037 A 
ATOM     57  C   UNL A   1      46.979  28.791  28.998  1.00  0.00     0.049 A 
ATOM     58  C   UNL A   1      41.364  29.203  29.946  1.00  0.00     0.074 A 
ATOM     59  C   UNL A   1      47.544  27.727  29.678  1.00  0.00     0.029 A 
ATOM     60  N   UNL A   1      46.138  29.402  29.902  1.00  0.00    -0.354 N 
ATOM     61  N   UNL A   1      41.978  28.753  31.008  1.00  0.00    -0.248 NA
ATOM     62  C   UNL A   1      42.030  30.303  29.266  1.00  0.00     0.031 C 
ATOM     63  C   UNL A   1      46.677  27.478  30.784  1.00  0.00     0.029 A 
ATOM     64  C   UNL A   1      45.663  28.438  30.760  1.00  0.00     0.049 A 
ATOM     65  H   UNL A   1      45.918  30.361  29.930  1.00  0.00     0.167 HD
ATOM     66  C   UNL A   1      43.291  29.170  30.852  1.00  0.00     0.074 A 
ATOM     67  C   UNL A   1      43.232  30.222  29.843  1.00  0.00     0.031 C 
ATOM     68  C   UNL A   1      44.335  28.440  31.348  1.00  0.00     0.037 A 
BRANCH  55  69
ATOM     69  C   UNL A   1      46.962  30.542  27.099  1.00  0.00     0.058 A 
ATOM     70  C   UNL A   1      48.222  31.162  27.104  1.00  0.00     0.135 A 
ATOM     71  C   UNL A   1      45.857  31.370  26.809  1.00  0.00     0.135 A 
ATOM     72  F   UNL A   1      49.325  30.462  27.411  1.00  0.00    -0.206 F 
ATOM     73  C   UNL A   1      48.375  32.523  26.853  1.00  0.00     0.059 A 
ATOM     74  C   UNL A   1      45.991  32.715  26.492  1.00  0.00     0.059 A 
ATOM     75  F   UNL A   1      44.596  30.929  26.915  1.00  0.00    -0.206 F 
ATOM     76  C   UNL A   1      47.251  33.290  26.552  1.00  0.00     0.060 A 
BRANCH  76  77
ATOM     77  S   UNL A   1      47.439  35.062  26.306  1.00  0.00     0.124 S 
ATOM     78  O   UNL A   1      46.363  35.335  25.361  1.00  0.00    -0.237 OA
ATOM     79  O   UNL A   1      47.253  35.579  27.658  1.00  0.00    -0.237 OA
ATOM     80  O   UNL A   1      48.794  35.184  25.775  1.00  0.00    -0.744 OA
ENDBRANCH  76  77
ENDBRANCH  55  69
BRANCH  56  81
ATOM     81  C   UNL A   1      38.945  28.909  28.948  1.00  0.00     0.058 A 
ATOM     82  C   UNL A   1      37.997  29.031  29.982  1.00  0.00     0.135 A 
ATOM     83  C   UNL A   1      38.591  29.498  27.717  1.00  0.00     0.135 A 
ATOM     84  F   UNL A   1      38.246  28.509  31.193  1.00  0.00    -0.206 F 
ATOM     85  C   UNL A   1      36.804  29.748  29.827  1.00  0.00     0.059 A 
ATOM     86  C   UNL A   1      37.405  30.216  27.537  1.00  0.00     0.059 A 
ATOM     87  F   UNL A   1      39.430  29.466  26.670  1.00  0.00    -0.206 F 
ATOM     88  C   UNL A   1      36.529  30.363  28.606  1.00  0.00     0.060 A 
BRANCH  88  89
ATOM     89  S   UNL A   1      35.089  31.451  28.465  1.00  0.00     0.124 S 
ATOM     90  O   UNL A   1      35.573  32.481  27.553  1.00  0.00    -0.237 OA
ATOM     91  O   UNL A   1      34.074  30.551  27.928  1.00  0.00    -0.237 OA
ATOM     92  O   UNL A   1      34.860  31.891  29.839  1.00  0.00    -0.744 OA
ENDBRANCH  88  89
ENDBRANCH  56  81
BRANCH  68  93
ATOM     93  C   UNL A   1      44.055  27.388  32.400  1.00  0.00     0.058 A 
ATOM     94  C   UNL A   1      43.937  26.010  32.144  1.00  0.00     0.135 A 
ATOM     95  C   UNL A   1      44.071  27.778  33.750  1.00  0.00     0.135 A 
ATOM     96  F   UNL A   1      44.003  25.533  30.896  1.00  0.00    -0.206 F 
ATOM     97  C   UNL A   1      43.822  25.071  33.174  1.00  0.00     0.059 A 
ATOM     98  C   UNL A   1      43.990  26.857  34.794  1.00  0.00     0.059 A 
ATOM     99  F   UNL A   1      44.226  29.073  34.072  1.00  0.00    -0.206 F 
ATOM    100  C   UNL A   1      43.862  25.503  34.498  1.00  0.00     0.060 A 
BRANCH 100 101
ATOM    101  S   UNL A   1      43.842  24.274  35.824  1.00  0.00     0.124 S 
ATOM    102  O   UNL A   1      42.883  24.847  36.764  1.00  0.00    -0.237 OA
ATOM    103  O   UNL A   1      43.403  23.067  35.130  1.00  0.00    -0.237 OA
ATOM    104  O   UNL A   1      45.227  24.246  36.287  1.00  0.00    -0.744 OA
ENDBRANCH 100 101
ENDBRANCH  68  93
ENDBRANCH  42  43
ENDBRANCH  35  37
ENDBRANCH  34  35
ENDBRANCH  33  34
ENDBRANCH  32  33
ENDBRANCH  31  32
ENDBRANCH  30  31
ENDBRANCH   1  30
TORSDOF 24
ENDMDL
MODEL 2
REMARK VINA RESULT:     -11.5      1.679      3.144
REMARK SMILES Cc1c(CC(=O)OCCOCCOCCOC(=O)c2ccc(-c3c4nc(c(-c5c(F)cc(S(=O)(=O)[O-])cc5F)c5ccc([nH]5)c(-c5c(F)cc(S(=O)(=O)[O-])cc5F)c5nc(c(-c6c(F)cc(S(=O)(=O)[O-])cc6F)c6ccc3[nH]6)C=C5)C=C4)cc2)c2cc(O)ccc2n1C(=O)c1ccc(Cl)cc1
REMARK SMILES IDX 11 1 10 2 9 3 8 4 7 5 5 6 6 7 4 8 3 9 1 10 2 11 92 12 85 13
REMARK SMILES IDX 91 14 86 15 90 16 87 17 89 18 93 19 94 20 95 21 96 22 101 23
REMARK SMILES IDX 97 24 100 25 98 26 99 27 88 28 12 30 13 31 14 32 15 33 16 34
REMARK SMILES IDX 17 35 18 36 19 37 20 38 84 39 21 40 83 41 22 42 23 43 24 44
REMARK SMILES IDX 77 45 25 46 82 47 76 48 78 49 26 50 81 51 75 52 74 53 27 55
REMARK SMILES IDX 61 56 40 57 60 58 41 59 44 60 59 61 79 62 42 63 43 64 58 66
REMARK SMILES IDX 80 67 45 68 28 69 29 70 38 71 30 72 31 73 37 74 39 75 32 76
REMARK SMILES IDX 33 77 34 78 35 79 36 80 62 81 63 82 72 83 64 84 65 85 71 86
REMARK SMILES IDX 73 87 66 88 67 89 68 90 69 91 70 92 46 93 47 94 56 95 48 96
REMARK SMILES IDX 49 97 55 98 57 99 50 100 51 101 52 102 53 103 54 104
REMARK H PARENT 88 29 78 54 44 65
REMARK Flexibility Score: inf
ROOT
ATOM      1  C   UNL A   1      42.309  19.631  27.296  1.00  0.00     0.188 C 
ENDROOT
BRANCH   1   2
ATOM      2  O   UNL A   1      42.445  21.007  26.999  1.00  0.00    -0.376 OA
BRANCH   2   3
ATOM      3  C   UNL A   1      41.499  21.901  27.575  1.00  0.00     0.202 C 
BRANCH   3   4
ATOM      4  C   UNL A   1      40.531  22.599  26.605  1.00  0.00     0.261 C 
BRANCH   4   5
ATOM      5  O   UNL A   1      39.491  21.673  26.211  1.00  0.00    -0.463 OA
BRANCH   5   6
ATOM      6  C   UNL A   1      38.265  22.209  25.983  1.00  0.00     0.310 C 
ATOM      7  O   UNL A   1      37.995  23.381  26.221  1.00  0.00    -0.252 OA
BRANCH   6   8
ATOM      8  C   UNL A   1      37.361  21.291  25.169  1.00  0.00     0.160 C 
BRANCH   8   9
ATOM      9  C   UNL A   1      36.005  21.713  24.702  1.00  0.00    -0.008 A 
ATOM     10  C   UNL A   1      36.823  23.330  22.837  1.00  0.00     0.065 C 
ATOM     11  C   UNL A   1      35.804  22.586  23.638  1.00  0.00     0.028 A 
ATOM     12  N   UNL A   1      34.443  22.636  23.379  1.00  0.00    -0.280 N 
ATOM     13  C   UNL A   1      34.742  21.056  24.940  1.00  0.00     0.008 A 
ATOM     14  C   UNL A   1      33.878  21.483  23.933  1.00  0.00     0.057 A 
ATOM     15  C   UNL A   1      34.259  20.044  25.806  1.00  0.00     0.056 A 
ATOM     16  C   UNL A   1      32.672  20.795  23.665  1.00  0.00     0.031 A 
ATOM     17  C   UNL A   1      33.013  19.443  25.608  1.00  0.00     0.116 A 
ATOM     18  C   UNL A   1      32.247  19.781  24.517  1.00  0.00     0.048 A 
BRANCH  12  19
ATOM     19  C   UNL A   1      33.728  23.666  22.724  1.00  0.00     0.262 C 
ATOM     20  O   UNL A   1      33.387  23.530  21.551  1.00  0.00    -0.268 OA
BRANCH  19  21
ATOM     21  C   UNL A   1      33.463  24.955  23.382  1.00  0.00     0.040 A 
ATOM     22  C   UNL A   1      33.280  26.093  22.585  1.00  0.00     0.015 A 
ATOM     23  C   UNL A   1      33.628  25.053  24.766  1.00  0.00     0.015 A 
ATOM     24  C   UNL A   1      33.327  27.353  23.176  1.00  0.00     0.021 A 
ATOM     25  C   UNL A   1      33.683  26.319  25.348  1.00  0.00     0.021 A 
ATOM     26  C   UNL A   1      33.547  27.460  24.551  1.00  0.00     0.041 A 
ATOM     27  Cl  UNL A   1      33.705  29.019  25.262  1.00  0.00    -0.084 Cl
ENDBRANCH  19  21
ENDBRANCH  12  19
BRANCH  17  28
ATOM     28  O   UNL A   1      32.515  18.473  26.431  1.00  0.00    -0.508 OA
ATOM     29  H   UNL A   1      32.657  18.526  27.355  1.00  0.00     0.293 HD
ENDBRANCH  17  28
ENDBRANCH   8   9
ENDBRANCH   6   8
ENDBRANCH   5   6
ENDBRANCH   4   5
ENDBRANCH   3   4
ENDBRANCH   2   3
ENDBRANCH   1   2
BRANCH   1  30
ATOM     30  C   UNL A   1      42.110  18.665  26.124  1.00  0.00     0.188 C 
BRANCH  30  31
ATOM     31  O   UNL A   1      43.165  18.396  25.228  1.00  0.00    -0.376 OA
BRANCH  31  32
ATOM     32  C   UNL A   1      44.448  18.235  25.807  1.00  0.00     0.202 C 
BRANCH  32  33
ATOM     33  C   UNL A   1      45.616  18.802  24.982  1.00  0.00     0.261 C 
BRANCH  33  34
ATOM     34  O   UNL A   1      45.901  20.188  25.311  1.00  0.00    -0.460 OA
BRANCH  34  35
ATOM     35  C   UNL A   1      45.279  21.105  24.516  1.00  0.00     0.338 C 
ATOM     36  O   UNL A   1      44.601  20.835  23.534  1.00  0.00    -0.246 OA
BRANCH  35  37
ATOM     37  C   UNL A   1      45.142  22.407  25.237  1.00  0.00     0.060 A 
ATOM     38  C   UNL A   1      45.780  22.749  26.431  1.00  0.00     0.016 A 
ATOM     39  C   UNL A   1      44.135  23.246  24.745  1.00  0.00     0.016 A 
ATOM     40  C   UNL A   1      45.346  23.881  27.149  1.00  0.00     0.010 A 
ATOM     41  C   UNL A   1      43.637  24.298  25.500  1.00  0.00     0.010 A 
ATOM     42  C   UNL A   1      44.238  24.628  26.711  1.00  0.00    -0.014 A 
BRANCH  42  43
ATOM     43  C   UNL A   1      43.895  25.940  27.268  1.00  0.00     0.031 A 
ATOM     44  C   UNL A   1      44.823  27.001  26.860  1.00  0.00     0.074 A 
ATOM     45  C   UNL A   1      42.806  26.334  27.958  1.00  0.00     0.049 A 
ATOM     46  N   UNL A   1      45.811  27.398  27.584  1.00  0.00    -0.248 NA
ATOM     47  C   UNL A   1      44.756  27.601  25.527  1.00  0.00     0.031 C 
ATOM     48  C   UNL A   1      41.726  25.509  28.451  1.00  0.00     0.029 A 
ATOM     49  N   UNL A   1      42.408  27.592  28.328  1.00  0.00    -0.354 N 
ATOM     50  C   UNL A   1      46.319  28.498  26.931  1.00  0.00     0.074 A 
ATOM     51  C   UNL A   1      45.797  28.440  25.584  1.00  0.00     0.031 C 
ATOM     52  C   UNL A   1      40.671  26.273  28.821  1.00  0.00     0.029 A 
ATOM     53  C   UNL A   1      41.097  27.662  28.790  1.00  0.00     0.049 A 
ATOM     54  H   UNL A   1      42.997  28.378  28.273  1.00  0.00     0.167 HD
ATOM     55  C   UNL A   1      46.903  29.505  27.632  1.00  0.00     0.037 A 
ATOM     56  C   UNL A   1      40.443  28.703  29.365  1.00  0.00     0.037 A 
ATOM     57  C   UNL A   1      47.079  29.163  29.029  1.00  0.00     0.049 A 
ATOM     58  C   UNL A   1      41.477  29.489  30.076  1.00  0.00     0.074 A 
ATOM     59  C   UNL A   1      47.673  28.109  29.700  1.00  0.00     0.029 A 
ATOM     60  N   UNL A   1      46.246  29.762  29.947  1.00  0.00    -0.354 N 
ATOM     61  N   UNL A   1      42.117  29.051  31.128  1.00  0.00    -0.248 NA
ATOM     62  C   UNL A   1      42.113  30.598  29.383  1.00  0.00     0.031 C 
ATOM     63  C   UNL A   1      46.830  27.850  30.822  1.00  0.00     0.029 A 
ATOM     64  C   UNL A   1      45.801  28.793  30.814  1.00  0.00     0.049 A 
ATOM     65  H   UNL A   1      46.011  30.718  29.977  1.00  0.00     0.167 HD
ATOM     66  C   UNL A   1      43.420  29.488  30.948  1.00  0.00     0.074 A 
ATOM     67  C   UNL A   1      43.326  30.537  29.938  1.00  0.00     0.031 C 
ATOM     68  C   UNL A   1      44.484  28.775  31.426  1.00  0.00     0.037 A 
BRANCH  55  69
ATOM     69  C   UNL A   1      47.001  30.910  27.127  1.00  0.00     0.058 A 
ATOM     70  C   UNL A   1      48.250  31.554  27.119  1.00  0.00     0.135 A 
ATOM     71  C   UNL A   1      45.878  31.717  26.847  1.00  0.00     0.135 A 
ATOM     72  F   UNL A   1      49.369  30.874  27.417  1.00  0.00    -0.206 F 
ATOM     73  C   UNL A   1      48.375  32.916  26.863  1.00  0.00     0.059 A 
ATOM     74  C   UNL A   1      45.984  33.063  26.525  1.00  0.00     0.059 A 
ATOM     75  F   UNL A   1      44.627  31.253  26.965  1.00  0.00    -0.206 F 
ATOM     76  C   UNL A   1      47.234  33.662  26.571  1.00  0.00     0.060 A 
BRANCH  76  77
ATOM     77  S   UNL A   1      47.387  35.437  26.319  1.00  0.00     0.124 S 
ATOM     78  O   UNL A   1      48.087  35.838  27.532  1.00  0.00    -0.237 OA
ATOM     79  O   UNL A   1      48.156  35.504  25.081  1.00  0.00    -0.237 OA
ATOM     80  O   UNL A   1      45.999  35.879  26.212  1.00  0.00    -0.744 OA
ENDBRANCH  76  77
ENDBRANCH  55  69
BRANCH  56  81
ATOM     81  C   UNL A   1      39.045  29.155  29.122  1.00  0.00     0.058 A 
ATOM     82  C   UNL A   1      38.166  29.435  30.186  1.00  0.00     0.135 A 
ATOM     83  C   UNL A   1      38.615  29.571  27.845  1.00  0.00     0.135 A 
ATOM     84  F   UNL A   1      38.491  29.085  31.441  1.00  0.00    -0.206 F 
ATOM     85  C   UNL A   1      36.970  30.140  30.008  1.00  0.00     0.059 A 
ATOM     86  C   UNL A   1      37.424  30.273  27.641  1.00  0.00     0.059 A 
ATOM     87  F   UNL A   1      39.385  29.380  26.763  1.00  0.00    -0.206 F 
ATOM     88  C   UNL A   1      36.620  30.581  28.732  1.00  0.00     0.060 A 
BRANCH  88  89
ATOM     89  S   UNL A   1      35.180  31.660  28.531  1.00  0.00     0.124 S 
ATOM     90  O   UNL A   1      35.688  32.682  27.623  1.00  0.00    -0.237 OA
ATOM     91  O   UNL A   1      34.187  30.748  27.972  1.00  0.00    -0.237 OA
ATOM     92  O   UNL A   1      34.903  32.115  29.891  1.00  0.00    -0.744 OA
ENDBRANCH  88  89
ENDBRANCH  56  81
BRANCH  68  93
ATOM     93  C   UNL A   1      44.240  27.721  32.485  1.00  0.00     0.058 A 
ATOM     94  C   UNL A   1      44.049  27.986  33.852  1.00  0.00     0.135 A 
ATOM     95  C   UNL A   1      44.028  26.396  32.065  1.00  0.00     0.135 A 
ATOM     96  F   UNL A   1      44.139  29.232  34.331  1.00  0.00    -0.206 F 
ATOM     97  C   UNL A   1      43.684  26.986  34.759  1.00  0.00     0.059 A 
ATOM     98  C   UNL A   1      43.633  25.389  32.945  1.00  0.00     0.059 A 
ATOM     99  F   UNL A   1      44.148  26.077  30.765  1.00  0.00    -0.206 F 
ATOM    100  C   UNL A   1      43.466  25.690  34.293  1.00  0.00     0.060 A 
BRANCH 100 101
ATOM    101  S   UNL A   1      42.872  24.431  35.446  1.00  0.00     0.124 S 
ATOM    102  O   UNL A   1      43.684  24.686  36.631  1.00  0.00    -0.237 OA
ATOM    103  O   UNL A   1      41.453  24.758  35.568  1.00  0.00    -0.237 OA
ATOM    104  O   UNL A   1      43.153  23.174  34.756  1.00  0.00    -0.744 OA
ENDBRANCH 100 101
ENDBRANCH  68  93
ENDBRANCH  42  43
ENDBRANCH  35  37
ENDBRANCH  34  35
ENDBRANCH  33  34
ENDBRANCH  32  33
ENDBRANCH  31  32
ENDBRANCH  30  31
ENDBRANCH   1  30
TORSDOF 24
ENDMDL
MODEL 3
REMARK VINA RESULT:     -10.7      3.181      5.267
REMARK SMILES Cc1c(CC(=O)OCCOCCOCCOC(=O)c2ccc(-c3c4nc(c(-c5c(F)cc(S(=O)(=O)[O-])cc5F)c5ccc([nH]5)c(-c5c(F)cc(S(=O)(=O)[O-])cc5F)c5nc(c(-c6c(F)cc(S(=O)(=O)[O-])cc6F)c6ccc3[nH]6)C=C5)C=C4)cc2)c2cc(O)ccc2n1C(=O)c1ccc(Cl)cc1
REMARK SMILES IDX 11 1 10 2 9 3 8 4 7 5 5 6 6 7 4 8 3 9 1 10 2 11 92 12 85 13
REMARK SMILES IDX 91 14 86 15 90 16 87 17 89 18 93 19 94 20 95 21 96 22 101 23
REMARK SMILES IDX 97 24 100 25 98 26 99 27 88 28 12 30 13 31 14 32 15 33 16 34
REMARK SMILES IDX 17 35 18 36 19 37 20 38 84 39 21 40 83 41 22 42 23 43 24 44
REMARK SMILES IDX 77 45 25 46 82 47 76 48 78 49 26 50 81 51 75 52 74 53 27 55
REMARK SMILES IDX 61 56 40 57 60 58 41 59 44 60 59 61 79 62 42 63 43 64 58 66
REMARK SMILES IDX 80 67 45 68 28 69 29 70 38 71 30 72 31 73 37 74 39 75 32 76
REMARK SMILES IDX 33 77 34 78 35 79 36 80 62 81 63 82 72 83 64 84 65 85 71 86
REMARK SMILES IDX 73 87 66 88 67 89 68 90 69 91 70 92 46 93 47 94 56 95 48 96
REMARK SMILES IDX 49 97 55 98 57 99 50 100 51 101 52 102 53 103 54 104
REMARK H PARENT 88 29 78 54 44 65
REMARK Flexibility Score: inf
ROOT
ATOM      1  C   UNL A   1      35.774  20.913  25.164  1.00  0.00     0.188 C 
ENDROOT
BRANCH   1   2
ATOM      2  O   UNL A   1      35.431  21.612  26.344  1.00  0.00    -0.376 OA
BRANCH   2   3
ATOM      3  C   UNL A   1      34.502  22.684  26.227  1.00  0.00     0.202 C 
BRANCH   3   4
ATOM      4  C   UNL A   1      33.059  22.399  26.675  1.00  0.00     0.261 C 
BRANCH   4   5
ATOM      5  O   UNL A   1      32.292  23.626  26.644  1.00  0.00    -0.463 OA
BRANCH   5   6
ATOM      6  C   UNL A   1      30.941  23.491  26.683  1.00  0.00     0.310 C 
ATOM      7  O   UNL A   1      30.347  23.011  27.641  1.00  0.00    -0.252 OA
BRANCH   6   8
ATOM      8  C   UNL A   1      30.242  24.227  25.547  1.00  0.00     0.160 C 
BRANCH   8   9
ATOM      9  C   UNL A   1      30.821  25.450  24.911  1.00  0.00    -0.008 A 
ATOM     10  C   UNL A   1      30.816  26.928  27.050  1.00  0.00     0.065 C 
ATOM     11  C   UNL A   1      31.101  26.615  25.616  1.00  0.00     0.028 A 
ATOM     12  N   UNL A   1      31.765  27.481  24.762  1.00  0.00    -0.280 N 
ATOM     13  C   UNL A   1      31.535  25.544  23.661  1.00  0.00     0.008 A 
ATOM     14  C   UNL A   1      32.300  26.707  23.728  1.00  0.00     0.057 A 
ATOM     15  C   UNL A   1      31.736  24.716  22.529  1.00  0.00     0.056 A 
ATOM     16  C   UNL A   1      33.363  26.937  22.825  1.00  0.00     0.031 A 
ATOM     17  C   UNL A   1      32.713  25.006  21.571  1.00  0.00     0.116 A 
ATOM     18  C   UNL A   1      33.553  26.081  21.744  1.00  0.00     0.048 A 
BRANCH  12  19
ATOM     19  C   UNL A   1      31.859  28.889  24.866  1.00  0.00     0.262 C 
ATOM     20  O   UNL A   1      31.135  29.607  24.180  1.00  0.00    -0.268 OA
BRANCH  19  21
ATOM     21  C   UNL A   1      32.881  29.532  25.708  1.00  0.00     0.040 A 
ATOM     22  C   UNL A   1      34.128  28.910  25.847  1.00  0.00     0.015 A 
ATOM     23  C   UNL A   1      32.506  30.606  26.519  1.00  0.00     0.015 A 
ATOM     24  C   UNL A   1      34.989  29.331  26.857  1.00  0.00     0.021 A 
ATOM     25  C   UNL A   1      33.371  31.015  27.534  1.00  0.00     0.021 A 
ATOM     26  C   UNL A   1      34.599  30.369  27.707  1.00  0.00     0.041 A 
ATOM     27  Cl  UNL A   1      35.621  30.818  29.016  1.00  0.00    -0.084 Cl
ENDBRANCH  19  21
ENDBRANCH  12  19
BRANCH  17  28
ATOM     28  O   UNL A   1      32.923  24.234  20.465  1.00  0.00    -0.508 OA
ATOM     29  H   UNL A   1      33.289  24.614  19.691  1.00  0.00     0.293 HD
ENDBRANCH  17  28
ENDBRANCH   8   9
ENDBRANCH   6   8
ENDBRANCH   5   6
ENDBRANCH   4   5
ENDBRANCH   3   4
ENDBRANCH   2   3
ENDBRANCH   1   2
BRANCH   1  30
ATOM     30  C   UNL A   1      37.256  20.616  24.915  1.00  0.00     0.188 C 
BRANCH  30  31
ATOM     31  O   UNL A   1      38.234  21.606  25.144  1.00  0.00    -0.376 OA
BRANCH  31  32
ATOM     32  C   UNL A   1      39.352  21.210  25.919  1.00  0.00     0.202 C 
BRANCH  32  33
ATOM     33  C   UNL A   1      39.905  22.286  26.869  1.00  0.00     0.261 C 
BRANCH  33  34
ATOM     34  O   UNL A   1      41.348  22.200  27.018  1.00  0.00    -0.460 OA
BRANCH  34  35
ATOM     35  C   UNL A   1      42.051  23.150  26.338  1.00  0.00     0.338 C 
ATOM     36  O   UNL A   1      42.524  23.005  25.219  1.00  0.00    -0.246 OA
BRANCH  35  37
ATOM     37  C   UNL A   1      41.779  24.504  26.910  1.00  0.00     0.060 A 
ATOM     38  C   UNL A   1      41.159  25.562  26.241  1.00  0.00     0.016 A 
ATOM     39  C   UNL A   1      42.385  24.750  28.148  1.00  0.00     0.016 A 
ATOM     40  C   UNL A   1      41.224  26.859  26.788  1.00  0.00     0.010 A 
ATOM     41  C   UNL A   1      42.541  26.040  28.634  1.00  0.00     0.010 A 
ATOM     42  C   UNL A   1      41.960  27.109  27.959  1.00  0.00    -0.014 A 
BRANCH  42  43
ATOM     43  C   UNL A   1      41.864  28.370  28.703  1.00  0.00     0.031 A 
ATOM     44  C   UNL A   1      42.894  29.344  28.324  1.00  0.00     0.074 A 
ATOM     45  C   UNL A   1      40.914  28.808  29.552  1.00  0.00     0.049 A 
ATOM     46  N   UNL A   1      43.992  29.507  28.975  1.00  0.00    -0.248 NA
ATOM     47  C   UNL A   1      42.790  30.120  27.087  1.00  0.00     0.031 C 
ATOM     48  C   UNL A   1      39.776  28.074  30.061  1.00  0.00     0.029 A 
ATOM     49  N   UNL A   1      40.738  30.047  30.111  1.00  0.00    -0.354 N 
ATOM     50  C   UNL A   1      44.591  30.608  28.404  1.00  0.00     0.074 A 
ATOM     51  C   UNL A   1      43.942  30.799  27.127  1.00  0.00     0.031 C 
ATOM     52  C   UNL A   1      38.883  28.914  30.634  1.00  0.00     0.029 A 
ATOM     53  C   UNL A   1      39.500  30.226  30.721  1.00  0.00     0.049 A 
ATOM     54  H   UNL A   1      41.428  30.748  30.085  1.00  0.00     0.167 HD
ATOM     55  C   UNL A   1      45.378  31.426  29.151  1.00  0.00     0.037 A 
ATOM     56  C   UNL A   1      39.061  31.258  31.485  1.00  0.00     0.037 A 
ATOM     57  C   UNL A   1      45.633  30.881  30.469  1.00  0.00     0.049 A 
ATOM     58  C   UNL A   1      40.260  31.800  32.165  1.00  0.00     0.074 A 
ATOM     59  C   UNL A   1      46.128  29.678  30.940  1.00  0.00     0.029 A 
ATOM     60  N   UNL A   1      44.985  31.457  31.539  1.00  0.00    -0.354 N 
ATOM     61  N   UNL A   1      40.926  31.145  33.080  1.00  0.00    -0.248 NA
ATOM     62  C   UNL A   1      40.982  32.897  31.543  1.00  0.00     0.031 C 
ATOM     63  C   UNL A   1      45.365  29.384  32.109  1.00  0.00     0.029 A 
ATOM     64  C   UNL A   1      44.488  30.447  32.329  1.00  0.00     0.049 A 
ATOM     65  H   UNL A   1      44.895  32.422  31.709  1.00  0.00     0.167 HD
ATOM     66  C   UNL A   1      42.255  31.426  32.809  1.00  0.00     0.074 A 
ATOM     67  C   UNL A   1      42.220  32.603  31.948  1.00  0.00     0.031 C 
ATOM     68  C   UNL A   1      43.245  30.522  33.078  1.00  0.00     0.037 A 
BRANCH  55  69
ATOM     69  C   UNL A   1      45.631  32.860  28.809  1.00  0.00     0.058 A 
ATOM     70  C   UNL A   1      44.558  33.768  28.803  1.00  0.00     0.135 A 
ATOM     71  C   UNL A   1      46.853  33.332  28.285  1.00  0.00     0.135 A 
ATOM     72  F   UNL A   1      43.346  33.392  29.242  1.00  0.00    -0.206 F 
ATOM     73  C   UNL A   1      44.686  35.057  28.294  1.00  0.00     0.059 A 
ATOM     74  C   UNL A   1      47.022  34.633  27.832  1.00  0.00     0.059 A 
ATOM     75  F   UNL A   1      47.905  32.521  28.105  1.00  0.00    -0.206 F 
ATOM     76  C   UNL A   1      45.922  35.478  27.808  1.00  0.00     0.060 A 
BRANCH  76  77
ATOM     77  S   UNL A   1      46.067  37.115  27.077  1.00  0.00     0.124 S 
ATOM     78  O   UNL A   1      44.679  37.398  26.733  1.00  0.00    -0.237 OA
ATOM     79  O   UNL A   1      46.626  37.892  28.179  1.00  0.00    -0.237 OA
ATOM     80  O   UNL A   1      46.968  36.899  25.950  1.00  0.00    -0.744 OA
ENDBRANCH  76  77
ENDBRANCH  55  69
BRANCH  56  81
ATOM     81  C   UNL A   1      37.727  31.919  31.455  1.00  0.00     0.058 A 
ATOM     82  C   UNL A   1      36.728  31.604  32.396  1.00  0.00     0.135 A 
ATOM     83  C   UNL A   1      37.486  33.060  30.663  1.00  0.00     0.135 A 
ATOM     84  F   UNL A   1      36.870  30.541  33.203  1.00  0.00    -0.206 F 
ATOM     85  C   UNL A   1      35.595  32.405  32.587  1.00  0.00     0.059 A 
ATOM     86  C   UNL A   1      36.362  33.873  30.831  1.00  0.00     0.059 A 
ATOM     87  F   UNL A   1      38.384  33.469  29.752  1.00  0.00    -0.206 F 
ATOM     88  C   UNL A   1      35.434  33.556  31.817  1.00  0.00     0.060 A 
BRANCH  88  89
ATOM     89  S   UNL A   1      34.079  34.695  32.196  1.00  0.00     0.124 S 
ATOM     90  O   UNL A   1      33.266  33.908  33.116  1.00  0.00    -0.237 OA
ATOM     91  O   UNL A   1      34.785  35.830  32.782  1.00  0.00    -0.237 OA
ATOM     92  O   UNL A   1      33.475  34.951  30.891  1.00  0.00    -0.744 OA
ENDBRANCH  88  89
ENDBRANCH  56  81
BRANCH  68  93
ATOM     93  C   UNL A   1      42.951  29.377  34.023  1.00  0.00     0.058 A 
ATOM     94  C   UNL A   1      42.964  29.472  35.426  1.00  0.00     0.135 A 
ATOM     95  C   UNL A   1      42.477  28.172  33.478  1.00  0.00     0.135 A 
ATOM     96  F   UNL A   1      43.314  30.610  36.036  1.00  0.00    -0.206 F 
ATOM     97  C   UNL A   1      42.544  28.420  36.246  1.00  0.00     0.059 A 
ATOM     98  C   UNL A   1      42.022  27.121  34.275  1.00  0.00     0.059 A 
ATOM     99  F   UNL A   1      42.393  28.025  32.145  1.00  0.00    -0.206 F 
ATOM    100  C   UNL A   1      42.062  27.250  35.660  1.00  0.00     0.060 A 
BRANCH 100 101
ATOM    101  S   UNL A   1      41.402  25.944  36.721  1.00  0.00     0.124 S 
ATOM    102  O   UNL A   1      40.642  25.132  35.777  1.00  0.00    -0.237 OA
ATOM    103  O   UNL A   1      42.614  25.328  37.255  1.00  0.00    -0.237 OA
ATOM    104  O   UNL A   1      40.601  26.672  37.703  1.00  0.00    -0.744 OA
ENDBRANCH 100 101
ENDBRANCH  68  93
ENDBRANCH  42  43
ENDBRANCH  35  37
ENDBRANCH  34  35
ENDBRANCH  33  34
ENDBRANCH  32  33
ENDBRANCH  31  32
ENDBRANCH  30  31
ENDBRANCH   1  30
TORSDOF 24
ENDMDL
