MODEL 1
REMARK VINA RESULT:     -10.4      0.000      0.000
REMARK SMILES O=C(OCCOCCOCCOC(=O)[C@@H]1C=C[C@H](NS(=O)(=O)c2ccc(Cl)cc2)C1)c1ccc(-c2c3nc(c(-c4c(F)cc(S(=O)(=O)[O-])cc4F)c4ccc([nH]4)c(-c4c(F)cc(S(=O)(=O)[O-])cc4F)c4nc(c(-c5c(F)cc(S(=O)(=O)[O-])cc5F)c5ccc2[nH]5)C=C4)C=C3)cc1
REMARK SMILES IDX 7 1 6 2 5 3 4 4 3 5 2 6 1 7 31 8 32 9 96 10 33 11 95 12
REMARK SMILES IDX 34 13 35 14 36 15 89 16 37 17 94 18 88 19 90 20 38 21 93 22
REMARK SMILES IDX 87 23 86 24 39 26 73 27 52 28 72 29 53 30 56 31 71 32 91 33
REMARK SMILES IDX 54 34 55 35 70 37 92 38 57 39 40 40 41 41 50 42 42 43 43 44
REMARK SMILES IDX 49 45 51 46 44 47 45 48 46 49 47 50 48 51 74 52 75 53 84 54
REMARK SMILES IDX 76 55 77 56 83 57 85 58 78 59 79 60 80 61 81 62 82 63 58 64
REMARK SMILES IDX 59 65 68 66 60 67 61 68 67 69 69 70 62 71 63 72 64 73 65 74
REMARK SMILES IDX 66 75 8 76 9 77 10 78 11 79 12 80 13 81 14 82 15 83 16 84
REMARK SMILES IDX 30 85 17 86 18 87 19 88 20 90 21 91 22 92 23 93 24 94 29 95
REMARK SMILES IDX 25 96 28 97 26 98 27 99
REMARK H PARENT 90 25 56 36 19 89
REMARK Flexibility Score: inf
ROOT
ATOM      1  C   UNL A   1      32.906  36.270  30.253  1.00  0.00     0.188 C 
ENDROOT
BRANCH   1   2
ATOM      2  O   UNL A   1      32.749  34.920  29.796  1.00  0.00    -0.376 OA
BRANCH   2   3
ATOM      3  C   UNL A   1      33.754  34.505  28.876  1.00  0.00     0.202 C 
BRANCH   3   4
ATOM      4  C   UNL A   1      34.402  33.149  29.170  1.00  0.00     0.261 C 
BRANCH   4   5
ATOM      5  O   UNL A   1      34.578  32.295  28.024  1.00  0.00    -0.460 OA
BRANCH   5   6
ATOM      6  C   UNL A   1      34.758  30.951  27.958  1.00  0.00     0.338 C 
ATOM      7  O   UNL A   1      33.786  30.252  27.670  1.00  0.00    -0.246 OA
BRANCH   6   8
ATOM      8  C   UNL A   1      36.030  30.244  28.315  1.00  0.00     0.060 A 
ATOM      9  C   UNL A   1      36.282  29.647  29.535  1.00  0.00     0.016 A 
ATOM     10  C   UNL A   1      37.078  30.230  27.359  1.00  0.00     0.016 A 
ATOM     11  C   UNL A   1      37.516  29.067  29.790  1.00  0.00     0.010 A 
ATOM     12  C   UNL A   1      38.339  29.655  27.624  1.00  0.00     0.010 A 
ATOM     13  C   UNL A   1      38.573  29.070  28.860  1.00  0.00    -0.014 A 
BRANCH  13  14
ATOM     14  C   UNL A   1      39.926  28.745  29.414  1.00  0.00     0.031 A 
ATOM     15  C   UNL A   1      40.520  27.497  28.351  1.00  0.00     0.074 A 
ATOM     16  C   UNL A   1      40.537  29.444  30.500  1.00  0.00     0.049 A 
ATOM     17  N   UNL A   1      41.722  27.311  27.849  1.00  0.00    -0.248 NA
ATOM     18  C   UNL A   1      39.647  26.370  27.949  1.00  0.00     0.031 C 
ATOM     19  C   UNL A   1      40.137  30.716  31.156  1.00  0.00     0.029 A 
ATOM     20  N   UNL A   1      41.806  29.330  31.141  1.00  0.00    -0.354 N 
ATOM     21  C   UNL A   1      41.901  26.002  27.459  1.00  0.00     0.074 A 
ATOM     22  C   UNL A   1      40.510  25.538  27.340  1.00  0.00     0.031 C 
ATOM     23  C   UNL A   1      41.224  31.316  31.744  1.00  0.00     0.029 A 
ATOM     24  C   UNL A   1      42.436  30.469  31.651  1.00  0.00     0.049 A 
ATOM     25  H   UNL A   1      42.239  28.450  31.225  1.00  0.00     0.167 HD
ATOM     26  C   UNL A   1      43.040  25.210  27.470  1.00  0.00     0.037 A 
ATOM     27  C   UNL A   1      43.789  30.752  31.899  1.00  0.00     0.037 A 
ATOM     28  C   UNL A   1      44.445  25.437  28.025  1.00  0.00     0.049 A 
ATOM     29  C   UNL A   1      45.163  29.896  31.557  1.00  0.00     0.074 A 
ATOM     30  C   UNL A   1      45.306  24.432  28.470  1.00  0.00     0.029 A 
ATOM     31  N   UNL A   1      45.241  26.615  28.242  1.00  0.00    -0.354 N 
ATOM     32  N   UNL A   1      45.635  29.381  30.429  1.00  0.00    -0.248 NA
ATOM     33  C   UNL A   1      46.190  29.754  32.614  1.00  0.00     0.031 C 
ATOM     34  C   UNL A   1      46.419  24.987  29.147  1.00  0.00     0.029 A 
ATOM     35  C   UNL A   1      46.328  26.380  29.168  1.00  0.00     0.049 A 
ATOM     36  H   UNL A   1      45.066  27.481  27.809  1.00  0.00     0.167 HD
ATOM     37  C   UNL A   1      46.739  28.545  30.704  1.00  0.00     0.074 A 
ATOM     38  C   UNL A   1      47.165  29.046  32.013  1.00  0.00     0.031 C 
ATOM     39  C   UNL A   1      47.118  27.312  30.144  1.00  0.00     0.037 A 
BRANCH  26  40
ATOM     40  C   UNL A   1      42.705  23.769  27.117  1.00  0.00     0.058 A 
ATOM     41  C   UNL A   1      42.341  22.840  28.102  1.00  0.00     0.135 A 
ATOM     42  C   UNL A   1      42.820  23.302  25.793  1.00  0.00     0.135 A 
ATOM     43  F   UNL A   1      42.255  23.218  29.387  1.00  0.00    -0.206 F 
ATOM     44  C   UNL A   1      42.116  21.499  27.792  1.00  0.00     0.059 A 
ATOM     45  C   UNL A   1      42.587  21.969  25.457  1.00  0.00     0.059 A 
ATOM     46  F   UNL A   1      43.200  24.138  24.814  1.00  0.00    -0.206 F 
ATOM     47  C   UNL A   1      42.255  21.070  26.468  1.00  0.00     0.060 A 
BRANCH  47  48
ATOM     48  S   UNL A   1      42.020  19.318  26.086  1.00  0.00     0.124 S 
ATOM     49  O   UNL A   1      42.405  18.694  27.347  1.00  0.00    -0.237 OA
ATOM     50  O   UNL A   1      40.600  19.251  25.756  1.00  0.00    -0.237 OA
ATOM     51  O   UNL A   1      42.931  19.091  24.969  1.00  0.00    -0.744 OA
ENDBRANCH  47  48
ENDBRANCH  26  40
BRANCH  27  52
ATOM     52  C   UNL A   1      44.150  32.119  32.403  1.00  0.00     0.058 A 
ATOM     53  C   UNL A   1      44.049  32.431  33.773  1.00  0.00     0.135 A 
ATOM     54  C   UNL A   1      44.542  33.149  31.539  1.00  0.00     0.135 A 
ATOM     55  F   UNL A   1      43.625  31.514  34.655  1.00  0.00    -0.206 F 
ATOM     56  C   UNL A   1      44.382  33.687  34.270  1.00  0.00     0.059 A 
ATOM     57  C   UNL A   1      44.900  34.408  32.016  1.00  0.00     0.059 A 
ATOM     58  F   UNL A   1      44.591  32.934  30.215  1.00  0.00    -0.206 F 
ATOM     59  C   UNL A   1      44.827  34.664  33.385  1.00  0.00     0.060 A 
BRANCH  59  60
ATOM     60  S   UNL A   1      45.415  36.243  34.038  1.00  0.00     0.124 S 
ATOM     61  O   UNL A   1      45.601  35.931  35.450  1.00  0.00    -0.237 OA
ATOM     62  O   UNL A   1      46.635  36.474  33.269  1.00  0.00    -0.237 OA
ATOM     63  O   UNL A   1      44.313  37.150  33.730  1.00  0.00    -0.744 OA
ENDBRANCH  59  60
ENDBRANCH  27  52
BRANCH  39  64
ATOM     64  C   UNL A   1      48.295  26.589  30.842  1.00  0.00     0.058 A 
ATOM     65  C   UNL A   1      48.163  25.860  32.046  1.00  0.00     0.135 A 
ATOM     66  C   UNL A   1      49.547  26.501  30.210  1.00  0.00     0.135 A 
ATOM     67  F   UNL A   1      47.001  25.840  32.715  1.00  0.00    -0.206 F 
ATOM     68  C   UNL A   1      49.216  25.144  32.620  1.00  0.00     0.059 A 
ATOM     69  C   UNL A   1      50.616  25.776  30.757  1.00  0.00     0.059 A 
ATOM     70  F   UNL A   1      49.745  27.106  29.028  1.00  0.00    -0.206 F 
ATOM     71  C   UNL A   1      50.448  25.120  31.976  1.00  0.00     0.060 A 
BRANCH  71  72
ATOM     72  S   UNL A   1      51.814  24.214  32.745  1.00  0.00     0.124 S 
ATOM     73  O   UNL A   1      52.970  24.804  32.078  1.00  0.00    -0.237 OA
ATOM     74  O   UNL A   1      51.664  24.546  34.159  1.00  0.00    -0.237 OA
ATOM     75  O   UNL A   1      51.533  22.824  32.402  1.00  0.00    -0.744 OA
ENDBRANCH  71  72
ENDBRANCH  39  64
ENDBRANCH  13  14
ENDBRANCH   6   8
ENDBRANCH   5   6
ENDBRANCH   4   5
ENDBRANCH   3   4
ENDBRANCH   2   3
ENDBRANCH   1   2
BRANCH   1  76
ATOM     76  C   UNL A   1      32.867  36.313  31.782  1.00  0.00     0.188 C 
BRANCH  76  77
ATOM     77  O   UNL A   1      34.168  36.346  32.374  1.00  0.00    -0.376 OA
BRANCH  77  78
ATOM     78  C   UNL A   1      34.525  35.212  33.166  1.00  0.00     0.202 C 
BRANCH  78  79
ATOM     79  C   UNL A   1      35.914  34.638  32.868  1.00  0.00     0.261 C 
BRANCH  79  80
ATOM     80  O   UNL A   1      36.918  35.009  33.850  1.00  0.00    -0.463 OA
BRANCH  80  81
ATOM     81  C   UNL A   1      38.134  34.417  33.662  1.00  0.00     0.312 C 
ATOM     82  O   UNL A   1      38.914  34.760  32.774  1.00  0.00    -0.252 OA
BRANCH  81  83
ATOM     83  C   UNL A   1      38.520  33.351  34.700  1.00  0.00     0.123 C 
ATOM     84  C   UNL A   1      38.468  31.946  34.150  1.00  0.00    -0.015 C 
ATOM     85  C   UNL A   1      37.704  33.119  35.984  1.00  0.00     0.043 C 
ATOM     86  C   UNL A   1      38.185  31.038  35.109  1.00  0.00    -0.011 C 
ATOM     87  C   UNL A   1      38.156  31.690  36.452  1.00  0.00     0.093 C 
BRANCH  87  88
ATOM     88  N   UNL A   1      37.426  31.064  37.627  1.00  0.00    -0.204 NA
ATOM     89  H   UNL A   1      37.963  30.237  37.887  1.00  0.00     0.142 HD
BRANCH  88  90
ATOM     90  S   UNL A   1      37.107  31.980  39.189  1.00  0.00     0.241 S 
ATOM     91  O   UNL A   1      35.722  32.386  39.010  1.00  0.00    -0.207 OA
ATOM     92  O   UNL A   1      37.345  30.926  40.156  1.00  0.00    -0.207 OA
BRANCH  90  93
ATOM     93  C   UNL A   1      38.141  33.838  39.761  1.00  0.00     0.082 A 
ATOM     94  C   UNL A   1      38.865  34.363  38.746  1.00  0.00     0.023 A 
ATOM     95  C   UNL A   1      38.179  34.781  40.843  1.00  0.00     0.023 A 
ATOM     96  C   UNL A   1      39.504  35.608  38.634  1.00  0.00     0.022 A 
ATOM     97  C   UNL A   1      38.870  36.028  40.832  1.00  0.00     0.022 A 
ATOM     98  C   UNL A   1      39.514  36.454  39.700  1.00  0.00     0.041 A 
ATOM     99  Cl  UNL A   1      40.291  37.974  39.615  1.00  0.00    -0.084 Cl
ENDBRANCH  90  93
ENDBRANCH  88  90
ENDBRANCH  87  88
ENDBRANCH  81  83
ENDBRANCH  80  81
ENDBRANCH  79  80
ENDBRANCH  78  79
ENDBRANCH  77  78
ENDBRANCH  76  77
ENDBRANCH   1  76
TORSDOF 23
ENDMDL
MODEL 2
REMARK VINA RESULT:     -10.3      4.149     12.214
REMARK SMILES O=C(OCCOCCOCCOC(=O)[C@@H]1C=C[C@H](NS(=O)(=O)c2ccc(Cl)cc2)C1)c1ccc(-c2c3nc(c(-c4c(F)cc(S(=O)(=O)[O-])cc4F)c4ccc([nH]4)c(-c4c(F)cc(S(=O)(=O)[O-])cc4F)c4nc(c(-c5c(F)cc(S(=O)(=O)[O-])cc5F)c5ccc2[nH]5)C=C4)C=C3)cc1
REMARK SMILES IDX 7 1 6 2 5 3 4 4 3 5 2 6 1 7 31 8 32 9 96 10 33 11 95 12
REMARK SMILES IDX 34 13 35 14 36 15 89 16 37 17 94 18 88 19 90 20 38 21 93 22
REMARK SMILES IDX 87 23 86 24 39 26 73 27 52 28 72 29 53 30 56 31 71 32 91 33
REMARK SMILES IDX 54 34 55 35 70 37 92 38 57 39 40 40 41 41 50 42 42 43 43 44
REMARK SMILES IDX 49 45 51 46 44 47 45 48 46 49 47 50 48 51 74 52 75 53 84 54
REMARK SMILES IDX 76 55 77 56 83 57 85 58 78 59 79 60 80 61 81 62 82 63 58 64
REMARK SMILES IDX 59 65 68 66 60 67 61 68 67 69 69 70 62 71 63 72 64 73 65 74
REMARK SMILES IDX 66 75 8 76 9 77 10 78 11 79 12 80 13 81 14 82 15 83 16 84
REMARK SMILES IDX 30 85 17 86 18 87 19 88 20 90 21 91 22 92 23 93 24 94 29 95
REMARK SMILES IDX 25 96 28 97 26 98 27 99
REMARK H PARENT 90 25 56 36 19 89
REMARK Flexibility Score: inf
ROOT
ATOM      1  C   UNL A   1      43.904  19.481  25.327  1.00  0.00     0.188 C 
ENDROOT
BRANCH   1   2
ATOM      2  O   UNL A   1      42.701  20.262  25.359  1.00  0.00    -0.376 OA
BRANCH   2   3
ATOM      3  C   UNL A   1      42.016  20.208  26.607  1.00  0.00     0.202 C 
BRANCH   3   4
ATOM      4  C   UNL A   1      40.573  20.722  26.592  1.00  0.00     0.261 C 
BRANCH   4   5
ATOM      5  O   UNL A   1      40.412  22.074  26.123  1.00  0.00    -0.460 OA
BRANCH   5   6
ATOM      6  C   UNL A   1      39.419  22.968  26.366  1.00  0.00     0.338 C 
ATOM      7  O   UNL A   1      38.275  22.665  26.029  1.00  0.00    -0.246 OA
BRANCH   6   8
ATOM      8  C   UNL A   1      39.630  24.345  26.917  1.00  0.00     0.060 A 
ATOM      9  C   UNL A   1      40.263  25.373  26.245  1.00  0.00     0.016 A 
ATOM     10  C   UNL A   1      39.203  24.606  28.244  1.00  0.00     0.016 A 
ATOM     11  C   UNL A   1      40.461  26.598  26.865  1.00  0.00     0.010 A 
ATOM     12  C   UNL A   1      39.419  25.847  28.881  1.00  0.00     0.010 A 
ATOM     13  C   UNL A   1      40.067  26.862  28.190  1.00  0.00    -0.014 A 
BRANCH  13  14
ATOM     14  C   UNL A   1      40.676  28.076  28.821  1.00  0.00     0.031 A 
ATOM     15  C   UNL A   1      39.302  28.960  29.431  1.00  0.00     0.074 A 
ATOM     16  C   UNL A   1      42.082  28.299  28.938  1.00  0.00     0.049 A 
ATOM     17  N   UNL A   1      39.147  29.610  30.564  1.00  0.00    -0.248 NA
ATOM     18  C   UNL A   1      38.093  29.145  28.595  1.00  0.00     0.031 C 
ATOM     19  C   UNL A   1      43.214  27.364  28.706  1.00  0.00     0.029 A 
ATOM     20  N   UNL A   1      42.858  29.341  29.528  1.00  0.00    -0.354 N 
ATOM     21  C   UNL A   1      38.133  30.538  30.469  1.00  0.00     0.074 A 
ATOM     22  C   UNL A   1      37.383  30.038  29.307  1.00  0.00     0.031 C 
ATOM     23  C   UNL A   1      44.317  27.757  29.426  1.00  0.00     0.029 A 
ATOM     24  C   UNL A   1      44.088  29.044  30.121  1.00  0.00     0.049 A 
ATOM     25  H   UNL A   1      42.527  30.267  29.516  1.00  0.00     0.167 HD
ATOM     26  C   UNL A   1      37.996  31.781  31.070  1.00  0.00     0.037 A 
ATOM     27  C   UNL A   1      44.821  29.703  31.123  1.00  0.00     0.037 A 
ATOM     28  C   UNL A   1      38.944  32.619  31.927  1.00  0.00     0.049 A 
ATOM     29  C   UNL A   1      44.443  31.002  32.075  1.00  0.00     0.074 A 
ATOM     30  C   UNL A   1      38.935  34.013  32.007  1.00  0.00     0.029 A 
ATOM     31  N   UNL A   1      40.020  32.286  32.820  1.00  0.00    -0.354 N 
ATOM     32  N   UNL A   1      43.415  31.252  32.875  1.00  0.00    -0.248 NA
ATOM     33  C   UNL A   1      45.451  32.073  32.243  1.00  0.00     0.031 C 
ATOM     34  C   UNL A   1      40.085  34.485  32.684  1.00  0.00     0.029 A 
ATOM     35  C   UNL A   1      40.891  33.414  33.074  1.00  0.00     0.049 A 
ATOM     36  H   UNL A   1      40.149  31.394  33.214  1.00  0.00     0.167 HD
ATOM     37  C   UNL A   1      43.442  32.602  33.291  1.00  0.00     0.074 A 
ATOM     38  C   UNL A   1      44.851  32.943  33.078  1.00  0.00     0.031 C 
ATOM     39  C   UNL A   1      42.400  33.529  33.469  1.00  0.00     0.037 A 
BRANCH  26  40
ATOM     40  C   UNL A   1      36.791  32.525  30.516  1.00  0.00     0.058 A 
ATOM     41  C   UNL A   1      36.889  33.323  29.368  1.00  0.00     0.135 A 
ATOM     42  C   UNL A   1      35.550  32.491  31.182  1.00  0.00     0.135 A 
ATOM     43  F   UNL A   1      38.056  33.426  28.715  1.00  0.00    -0.206 F 
ATOM     44  C   UNL A   1      35.806  34.073  28.907  1.00  0.00     0.059 A 
ATOM     45  C   UNL A   1      34.451  33.221  30.733  1.00  0.00     0.059 A 
ATOM     46  F   UNL A   1      35.407  31.772  32.307  1.00  0.00    -0.206 F 
ATOM     47  C   UNL A   1      34.595  34.026  29.604  1.00  0.00     0.060 A 
BRANCH  47  48
ATOM     48  S   UNL A   1      33.215  35.046  29.033  1.00  0.00     0.124 S 
ATOM     49  O   UNL A   1      32.451  35.212  30.266  1.00  0.00    -0.237 OA
ATOM     50  O   UNL A   1      33.886  36.244  28.541  1.00  0.00    -0.237 OA
ATOM     51  O   UNL A   1      32.584  34.219  28.010  1.00  0.00    -0.744 OA
ENDBRANCH  47  48
ENDBRANCH  26  40
BRANCH  27  52
ATOM     52  C   UNL A   1      46.105  29.082  31.590  1.00  0.00     0.058 A 
ATOM     53  C   UNL A   1      46.114  28.171  32.664  1.00  0.00     0.135 A 
ATOM     54  C   UNL A   1      47.341  29.419  31.025  1.00  0.00     0.135 A 
ATOM     55  F   UNL A   1      44.977  27.842  33.294  1.00  0.00    -0.206 F 
ATOM     56  C   UNL A   1      47.288  27.575  33.116  1.00  0.00     0.059 A 
ATOM     57  C   UNL A   1      48.526  28.820  31.446  1.00  0.00     0.059 A 
ATOM     58  F   UNL A   1      47.406  30.334  30.044  1.00  0.00    -0.206 F 
ATOM     59  C   UNL A   1      48.488  27.891  32.485  1.00  0.00     0.060 A 
BRANCH  59  60
ATOM     60  S   UNL A   1      49.990  27.003  32.955  1.00  0.00     0.124 S 
ATOM     61  O   UNL A   1      50.755  28.045  33.627  1.00  0.00    -0.237 OA
ATOM     62  O   UNL A   1      49.477  25.936  33.809  1.00  0.00    -0.237 OA
ATOM     63  O   UNL A   1      50.519  26.559  31.668  1.00  0.00    -0.744 OA
ENDBRANCH  59  60
ENDBRANCH  27  52
BRANCH  39  64
ATOM     64  C   UNL A   1      42.837  34.987  33.750  1.00  0.00     0.058 A 
ATOM     65  C   UNL A   1      43.057  35.502  35.048  1.00  0.00     0.135 A 
ATOM     66  C   UNL A   1      43.187  35.838  32.688  1.00  0.00     0.135 A 
ATOM     67  F   UNL A   1      42.795  34.763  36.136  1.00  0.00    -0.206 F 
ATOM     68  C   UNL A   1      43.531  36.795  35.282  1.00  0.00     0.059 A 
ATOM     69  C   UNL A   1      43.681  37.135  32.896  1.00  0.00     0.059 A 
ATOM     70  F   UNL A   1      43.075  35.410  31.421  1.00  0.00    -0.206 F 
ATOM     71  C   UNL A   1      43.827  37.613  34.197  1.00  0.00     0.060 A 
BRANCH  71  72
ATOM     72  S   UNL A   1      44.412  39.297  34.512  1.00  0.00     0.124 S 
ATOM     73  O   UNL A   1      44.300  39.380  35.965  1.00  0.00    -0.237 OA
ATOM     74  O   UNL A   1      45.773  39.269  33.985  1.00  0.00    -0.237 OA
ATOM     75  O   UNL A   1      43.474  40.127  33.762  1.00  0.00    -0.744 OA
ENDBRANCH  71  72
ENDBRANCH  39  64
ENDBRANCH  13  14
ENDBRANCH   6   8
ENDBRANCH   5   6
ENDBRANCH   4   5
ENDBRANCH   3   4
ENDBRANCH   2   3
ENDBRANCH   1   2
BRANCH   1  76
ATOM     76  C   UNL A   1      45.020  20.264  24.633  1.00  0.00     0.188 C 
BRANCH  76  77
ATOM     77  O   UNL A   1      44.528  21.225  23.694  1.00  0.00    -0.376 OA
BRANCH  77  78
ATOM     78  C   UNL A   1      44.859  22.589  23.963  1.00  0.00     0.202 C 
BRANCH  78  79
ATOM     79  C   UNL A   1      46.264  22.802  24.534  1.00  0.00     0.261 C 
BRANCH  79  80
ATOM     80  O   UNL A   1      46.268  23.218  25.926  1.00  0.00    -0.463 OA
BRANCH  80  81
ATOM     81  C   UNL A   1      47.029  24.322  26.182  1.00  0.00     0.312 C 
ATOM     82  O   UNL A   1      47.913  24.342  27.037  1.00  0.00    -0.252 OA
BRANCH  81  83
ATOM     83  C   UNL A   1      46.781  25.526  25.258  1.00  0.00     0.123 C 
ATOM     84  C   UNL A   1      48.037  26.023  24.585  1.00  0.00    -0.015 C 
ATOM     85  C   UNL A   1      46.260  26.875  25.785  1.00  0.00     0.043 C 
ATOM     86  C   UNL A   1      47.977  27.345  24.316  1.00  0.00    -0.011 C 
ATOM     87  C   UNL A   1      46.620  27.881  24.634  1.00  0.00     0.093 C 
BRANCH  87  88
ATOM     88  N   UNL A   1      46.385  29.359  24.885  1.00  0.00    -0.204 NA
ATOM     89  H   UNL A   1      45.399  29.528  24.687  1.00  0.00     0.142 HD
BRANCH  88  90
ATOM     90  S   UNL A   1      46.723  30.148  26.511  1.00  0.00     0.241 S 
ATOM     91  O   UNL A   1      46.457  29.051  27.428  1.00  0.00    -0.207 OA
ATOM     92  O   UNL A   1      48.116  30.510  26.334  1.00  0.00    -0.207 OA
BRANCH  90  93
ATOM     93  C   UNL A   1      45.559  31.827  27.330  1.00  0.00     0.082 A 
ATOM     94  C   UNL A   1      45.172  32.706  26.377  1.00  0.00     0.023 A 
ATOM     95  C   UNL A   1      44.931  32.228  28.559  1.00  0.00     0.023 A 
ATOM     96  C   UNL A   1      44.277  33.785  26.444  1.00  0.00     0.022 A 
ATOM     97  C   UNL A   1      44.072  33.355  28.722  1.00  0.00     0.022 A 
ATOM     98  C   UNL A   1      43.722  34.122  27.641  1.00  0.00     0.041 A 
ATOM     99  Cl  UNL A   1      42.636  35.435  27.774  1.00  0.00    -0.084 Cl
ENDBRANCH  90  93
ENDBRANCH  88  90
ENDBRANCH  87  88
ENDBRANCH  81  83
ENDBRANCH  80  81
ENDBRANCH  79  80
ENDBRANCH  78  79
ENDBRANCH  77  78
ENDBRANCH  76  77
ENDBRANCH   1  76
TORSDOF 23
ENDMDL
MODEL 3
REMARK VINA RESULT:     -10.1      5.618     13.842
REMARK SMILES O=C(OCCOCCOCCOC(=O)[C@@H]1C=C[C@H](NS(=O)(=O)c2ccc(Cl)cc2)C1)c1ccc(-c2c3nc(c(-c4c(F)cc(S(=O)(=O)[O-])cc4F)c4ccc([nH]4)c(-c4c(F)cc(S(=O)(=O)[O-])cc4F)c4nc(c(-c5c(F)cc(S(=O)(=O)[O-])cc5F)c5ccc2[nH]5)C=C4)C=C3)cc1
REMARK SMILES IDX 7 1 6 2 5 3 4 4 3 5 2 6 1 7 31 8 32 9 96 10 33 11 95 12
REMARK SMILES IDX 34 13 35 14 36 15 89 16 37 17 94 18 88 19 90 20 38 21 93 22
REMARK SMILES IDX 87 23 86 24 39 26 73 27 52 28 72 29 53 30 56 31 71 32 91 33
REMARK SMILES IDX 54 34 55 35 70 37 92 38 57 39 40 40 41 41 50 42 42 43 43 44
REMARK SMILES IDX 49 45 51 46 44 47 45 48 46 49 47 50 48 51 74 52 75 53 84 54
REMARK SMILES IDX 76 55 77 56 83 57 85 58 78 59 79 60 80 61 81 62 82 63 58 64
REMARK SMILES IDX 59 65 68 66 60 67 61 68 67 69 69 70 62 71 63 72 64 73 65 74
REMARK SMILES IDX 66 75 8 76 9 77 10 78 11 79 12 80 13 81 14 82 15 83 16 84
REMARK SMILES IDX 30 85 17 86 18 87 19 88 20 90 21 91 22 92 23 93 24 94 29 95
REMARK SMILES IDX 25 96 28 97 26 98 27 99
REMARK H PARENT 90 25 56 36 19 89
REMARK Flexibility Score: inf
ROOT
ATOM      1  C   UNL A   1      43.950  22.580  24.455  1.00  0.00     0.188 C 
ENDROOT
BRANCH   1   2
ATOM      2  O   UNL A   1      45.112  23.373  24.176  1.00  0.00    -0.376 OA
BRANCH   2   3
ATOM      3  C   UNL A   1      45.729  23.916  25.339  1.00  0.00     0.202 C 
BRANCH   3   4
ATOM      4  C   UNL A   1      45.581  25.430  25.523  1.00  0.00     0.261 C 
BRANCH   4   5
ATOM      5  O   UNL A   1      44.339  25.983  25.049  1.00  0.00    -0.460 OA
BRANCH   5   6
ATOM      6  C   UNL A   1      43.120  26.027  25.646  1.00  0.00     0.338 C 
ATOM      7  O   UNL A   1      42.151  25.611  25.011  1.00  0.00    -0.246 OA
BRANCH   6   8
ATOM      8  C   UNL A   1      42.849  26.646  26.984  1.00  0.00     0.060 A 
ATOM      9  C   UNL A   1      42.177  26.021  28.017  1.00  0.00     0.016 A 
ATOM     10  C   UNL A   1      43.257  27.987  27.194  1.00  0.00     0.016 A 
ATOM     11  C   UNL A   1      41.923  26.702  29.200  1.00  0.00     0.010 A 
ATOM     12  C   UNL A   1      42.986  28.684  28.391  1.00  0.00     0.010 A 
ATOM     13  C   UNL A   1      42.299  28.041  29.412  1.00  0.00    -0.014 A 
BRANCH  13  14
ATOM     14  C   UNL A   1      41.637  28.728  30.566  1.00  0.00     0.031 A 
ATOM     15  C   UNL A   1      42.940  28.999  31.691  1.00  0.00     0.074 A 
ATOM     16  C   UNL A   1      40.264  29.123  30.583  1.00  0.00     0.049 A 
ATOM     17  N   UNL A   1      43.208  30.045  32.444  1.00  0.00    -0.248 NA
ATOM     18  C   UNL A   1      43.914  27.925  31.991  1.00  0.00     0.031 C 
ATOM     19  C   UNL A   1      39.276  29.172  29.473  1.00  0.00     0.029 A 
ATOM     20  N   UNL A   1      39.460  29.812  31.539  1.00  0.00    -0.354 N 
ATOM     21  C   UNL A   1      44.018  29.701  33.504  1.00  0.00     0.074 A 
ATOM     22  C   UNL A   1      44.595  28.433  33.033  1.00  0.00     0.031 C 
ATOM     23  C   UNL A   1      38.288  30.087  29.750  1.00  0.00     0.029 A 
ATOM     24  C   UNL A   1      38.435  30.660  31.107  1.00  0.00     0.049 A 
ATOM     25  H   UNL A   1      39.626  29.690  32.501  1.00  0.00     0.167 HD
ATOM     26  C   UNL A   1      44.065  30.203  34.796  1.00  0.00     0.037 A 
ATOM     27  C   UNL A   1      37.817  31.761  31.724  1.00  0.00     0.037 A 
ATOM     28  C   UNL A   1      43.181  31.198  35.546  1.00  0.00     0.049 A 
ATOM     29  C   UNL A   1      38.158  32.554  33.136  1.00  0.00     0.074 A 
ATOM     30  C   UNL A   1      42.978  31.211  36.927  1.00  0.00     0.029 A 
ATOM     31  N   UNL A   1      42.371  32.309  35.126  1.00  0.00    -0.354 N 
ATOM     32  N   UNL A   1      39.268  33.111  33.599  1.00  0.00    -0.248 NA
ATOM     33  C   UNL A   1      37.041  32.877  34.053  1.00  0.00     0.031 C 
ATOM     34  C   UNL A   1      41.922  32.088  37.272  1.00  0.00     0.029 A 
ATOM     35  C   UNL A   1      41.394  32.686  36.125  1.00  0.00     0.049 A 
ATOM     36  H   UNL A   1      42.469  32.762  34.257  1.00  0.00     0.167 HD
ATOM     37  C   UNL A   1      39.103  33.462  34.957  1.00  0.00     0.074 A 
ATOM     38  C   UNL A   1      37.644  33.530  35.065  1.00  0.00     0.031 C 
ATOM     39  C   UNL A   1      39.995  33.378  36.042  1.00  0.00     0.037 A 
BRANCH  26  40
ATOM     40  C   UNL A   1      45.000  29.379  35.668  1.00  0.00     0.058 A 
ATOM     41  C   UNL A   1      46.333  29.758  35.872  1.00  0.00     0.135 A 
ATOM     42  C   UNL A   1      44.572  28.165  36.243  1.00  0.00     0.135 A 
ATOM     43  F   UNL A   1      46.808  30.883  35.315  1.00  0.00    -0.206 F 
ATOM     44  C   UNL A   1      47.215  28.959  36.601  1.00  0.00     0.059 A 
ATOM     45  C   UNL A   1      45.431  27.358  36.987  1.00  0.00     0.059 A 
ATOM     46  F   UNL A   1      43.315  27.734  36.051  1.00  0.00    -0.206 F 
ATOM     47  C   UNL A   1      46.757  27.754  37.143  1.00  0.00     0.060 A 
BRANCH  47  48
ATOM     48  S   UNL A   1      47.922  26.698  38.037  1.00  0.00     0.124 S 
ATOM     49  O   UNL A   1      47.602  27.026  39.423  1.00  0.00    -0.237 OA
ATOM     50  O   UNL A   1      47.539  25.360  37.601  1.00  0.00    -0.237 OA
ATOM     51  O   UNL A   1      49.224  27.159  37.568  1.00  0.00    -0.744 OA
ENDBRANCH  47  48
ENDBRANCH  26  40
BRANCH  27  52
ATOM     52  C   UNL A   1      36.769  32.511  30.955  1.00  0.00     0.058 A 
ATOM     53  C   UNL A   1      35.400  32.274  31.186  1.00  0.00     0.135 A 
ATOM     54  C   UNL A   1      37.100  33.426  29.949  1.00  0.00     0.135 A 
ATOM     55  F   UNL A   1      35.005  31.370  32.094  1.00  0.00    -0.206 F 
ATOM     56  C   UNL A   1      34.406  32.958  30.493  1.00  0.00     0.059 A 
ATOM     57  C   UNL A   1      36.123  34.139  29.257  1.00  0.00     0.059 A 
ATOM     58  F   UNL A   1      38.387  33.645  29.635  1.00  0.00    -0.206 F 
ATOM     59  C   UNL A   1      34.778  33.906  29.544  1.00  0.00     0.060 A 
BRANCH  59  60
ATOM     60  S   UNL A   1      33.502  34.913  28.757  1.00  0.00     0.124 S 
ATOM     61  O   UNL A   1      33.070  34.049  27.666  1.00  0.00    -0.237 OA
ATOM     62  O   UNL A   1      32.537  35.108  29.837  1.00  0.00    -0.237 OA
ATOM     63  O   UNL A   1      34.234  36.113  28.364  1.00  0.00    -0.744 OA
ENDBRANCH  59  60
ENDBRANCH  27  52
BRANCH  39  64
ATOM     64  C   UNL A   1      39.389  33.677  37.435  1.00  0.00     0.058 A 
ATOM     65  C   UNL A   1      38.568  32.769  38.143  1.00  0.00     0.135 A 
ATOM     66  C   UNL A   1      39.766  34.835  38.137  1.00  0.00     0.135 A 
ATOM     67  F   UNL A   1      38.179  31.614  37.586  1.00  0.00    -0.206 F 
ATOM     68  C   UNL A   1      38.097  33.019  39.434  1.00  0.00     0.059 A 
ATOM     69  C   UNL A   1      39.320  35.102  39.440  1.00  0.00     0.059 A 
ATOM     70  F   UNL A   1      40.598  35.722  37.569  1.00  0.00    -0.206 F 
ATOM     71  C   UNL A   1      38.465  34.199  40.072  1.00  0.00     0.060 A 
BRANCH  71  72
ATOM     72  S   UNL A   1      37.825  34.526  41.733  1.00  0.00     0.124 S 
ATOM     73  O   UNL A   1      38.073  35.958  41.867  1.00  0.00    -0.237 OA
ATOM     74  O   UNL A   1      36.422  34.138  41.619  1.00  0.00    -0.237 OA
ATOM     75  O   UNL A   1      38.639  33.665  42.585  1.00  0.00    -0.744 OA
ENDBRANCH  71  72
ENDBRANCH  39  64
ENDBRANCH  13  14
ENDBRANCH   6   8
ENDBRANCH   5   6
ENDBRANCH   4   5
ENDBRANCH   3   4
ENDBRANCH   2   3
ENDBRANCH   1   2
BRANCH   1  76
ATOM     76  C   UNL A   1      43.985  22.091  25.905  1.00  0.00     0.188 C 
BRANCH  76  77
ATOM     77  O   UNL A   1      42.824  22.467  26.650  1.00  0.00    -0.376 OA
BRANCH  77  78
ATOM     78  C   UNL A   1      41.573  22.318  25.976  1.00  0.00     0.202 C 
BRANCH  78  79
ATOM     79  C   UNL A   1      40.426  21.824  26.863  1.00  0.00     0.261 C 
BRANCH  79  80
ATOM     80  O   UNL A   1      39.160  22.487  26.599  1.00  0.00    -0.463 OA
BRANCH  80  81
ATOM     81  C   UNL A   1      38.381  21.862  25.668  1.00  0.00     0.312 C 
ATOM     82  O   UNL A   1      38.540  20.685  25.345  1.00  0.00    -0.252 OA
BRANCH  81  83
ATOM     83  C   UNL A   1      37.215  22.696  25.113  1.00  0.00     0.123 C 
ATOM     84  C   UNL A   1      36.011  22.708  26.024  1.00  0.00    -0.015 C 
ATOM     85  C   UNL A   1      36.498  22.338  23.800  1.00  0.00     0.043 C 
ATOM     86  C   UNL A   1      34.859  22.863  25.337  1.00  0.00    -0.011 C 
ATOM     87  C   UNL A   1      35.144  23.126  23.895  1.00  0.00     0.093 C 
BRANCH  87  88
ATOM     88  N   UNL A   1      34.102  22.879  22.819  1.00  0.00    -0.204 NA
ATOM     89  H   UNL A   1      34.589  22.416  22.052  1.00  0.00     0.142 HD
BRANCH  88  90
ATOM     90  S   UNL A   1      32.581  21.893  23.128  1.00  0.00     0.241 S 
ATOM     91  O   UNL A   1      31.853  22.759  24.042  1.00  0.00    -0.207 OA
ATOM     92  O   UNL A   1      32.058  21.802  21.779  1.00  0.00    -0.207 OA
BRANCH  90  93
ATOM     93  C   UNL A   1      32.567  19.930  24.124  1.00  0.00     0.082 A 
ATOM     94  C   UNL A   1      32.840  18.914  23.274  1.00  0.00     0.023 A 
ATOM     95  C   UNL A   1      32.510  19.373  25.448  1.00  0.00     0.023 A 
ATOM     96  C   UNL A   1      33.110  17.560  23.531  1.00  0.00     0.022 A 
ATOM     97  C   UNL A   1      32.696  17.999  25.778  1.00  0.00     0.022 A 
ATOM     98  C   UNL A   1      33.029  17.091  24.807  1.00  0.00     0.041 A 
ATOM     99  Cl  UNL A   1      33.336  15.449  25.166  1.00  0.00    -0.084 Cl
ENDBRANCH  90  93
ENDBRANCH  88  90
ENDBRANCH  87  88
ENDBRANCH  81  83
ENDBRANCH  80  81
ENDBRANCH  79  80
ENDBRANCH  78  79
ENDBRANCH  77  78
ENDBRANCH  76  77
ENDBRANCH   1  76
TORSDOF 23
ENDMDL
