MODEL 1
REMARK VINA RESULT:      -9.8      0.000      0.000
REMARK SMILES COc1cc(N[C@H]2C=C[C@@H](C(=O)OCCOCCOCCOC(=O)c3ccc(-c4c5nc(c(-c6c(F)cc(S(=O)(=O)[O-])cc6F)c6ccc([nH]6)c(-c6c(F)cc(S(=O)(=O)[O-])cc6F)c6nc(c(-c7c(F)cc(S(=O)(=O)[O-])cc7F)c7ccc4[nH]7)C=C6)C=C5)cc3)C2)c([N+](=O)[O-])cc1F
REMARK SMILES IDX 17 1 16 2 15 3 14 4 13 5 11 6 12 7 10 8 7 9 8 10 91 11 9 12
REMARK SMILES IDX 6 13 5 15 3 16 4 17 97 18 96 19 98 20 92 21 2 22 1 23 93 24
REMARK SMILES IDX 94 25 95 26 18 27 19 28 20 29 21 30 22 31 23 32 24 33 25 34
REMARK SMILES IDX 26 35 90 36 27 37 89 38 28 39 29 40 30 41 83 42 31 43 88 44
REMARK SMILES IDX 82 45 84 46 32 47 87 48 81 49 80 50 33 52 67 53 46 54 66 55
REMARK SMILES IDX 47 56 50 57 65 58 85 59 48 60 49 61 64 63 86 64 51 65 34 66
REMARK SMILES IDX 35 67 44 68 36 69 37 70 43 71 45 72 38 73 39 74 40 75 41 76
REMARK SMILES IDX 42 77 68 78 69 79 78 80 70 81 71 82 77 83 79 84 72 85 73 86
REMARK SMILES IDX 74 87 75 88 76 89 52 90 53 91 62 92 54 93 55 94 61 95 63 96
REMARK SMILES IDX 56 97 57 98 58 99 59 100 60 101
REMARK H PARENT 6 14 84 51 50 62
REMARK Flexibility Score: inf
ROOT
ATOM      1  C   UNL A   1      35.913  21.425  25.860  1.00  0.00     0.188 C 
ENDROOT
BRANCH   1   2
ATOM      2  O   UNL A   1      34.539  21.638  26.158  1.00  0.00    -0.376 OA
BRANCH   2   3
ATOM      3  C   UNL A   1      33.585  20.720  25.626  1.00  0.00     0.202 C 
BRANCH   3   4
ATOM      4  C   UNL A   1      32.696  21.179  24.457  1.00  0.00     0.261 C 
BRANCH   4   5
ATOM      5  O   UNL A   1      33.428  21.729  23.338  1.00  0.00    -0.463 OA
BRANCH   5   6
ATOM      6  C   UNL A   1      33.467  23.085  23.267  1.00  0.00     0.312 C 
ATOM      7  O   UNL A   1      34.425  23.754  23.644  1.00  0.00    -0.252 OA
BRANCH   6   8
ATOM      8  C   UNL A   1      32.244  23.724  22.585  1.00  0.00     0.124 C 
ATOM      9  C   UNL A   1      30.614  25.492  23.165  1.00  0.00     0.103 C 
ATOM     10  C   UNL A   1      31.785  26.044  22.443  1.00  0.00    -0.006 C 
ATOM     11  C   UNL A   1      30.963  24.021  23.389  1.00  0.00     0.048 C 
ATOM     12  C   UNL A   1      32.644  25.085  22.086  1.00  0.00    -0.014 C 
BRANCH   9  13
ATOM     13  N   UNL A   1      30.304  26.242  24.372  1.00  0.00    -0.373 N 
ATOM     14  H   UNL A   1      29.361  26.193  24.649  1.00  0.00     0.161 HD
BRANCH  13  15
ATOM     15  C   UNL A   1      31.104  27.012  25.198  1.00  0.00     0.117 A 
ATOM     16  C   UNL A   1      32.085  29.195  25.781  1.00  0.00     0.157 A 
ATOM     17  C   UNL A   1      31.212  28.404  25.029  1.00  0.00     0.082 A 
ATOM     18  C   UNL A   1      32.803  28.616  26.818  1.00  0.00     0.172 A 
ATOM     19  C   UNL A   1      32.693  27.259  27.073  1.00  0.00     0.131 A 
ATOM     20  F   UNL A   1      33.593  29.353  27.610  1.00  0.00    -0.203 F 
ATOM     21  C   UNL A   1      31.861  26.459  26.264  1.00  0.00     0.295 A 
BRANCH  16  22
ATOM     22  O   UNL A   1      32.126  30.525  25.459  1.00  0.00    -0.494 OA
ATOM     23  C   UNL A   1      31.262  31.323  26.268  1.00  0.00     0.278 C 
ENDBRANCH  16  22
BRANCH  21  24
ATOM     24  N   UNL A   1      31.819  25.019  26.584  1.00  0.00     0.065 N 
ATOM     25  O   UNL A   1      30.732  24.510  26.899  1.00  0.00    -0.258 OA
ATOM     26  O   UNL A   1      32.883  24.385  26.516  1.00  0.00    -0.258 OA
ENDBRANCH  21  24
ENDBRANCH  13  15
ENDBRANCH   9  13
ENDBRANCH   6   8
ENDBRANCH   5   6
ENDBRANCH   4   5
ENDBRANCH   3   4
ENDBRANCH   2   3
ENDBRANCH   1   2
BRANCH   1  27
ATOM     27  C   UNL A   1      36.847  22.645  25.879  1.00  0.00     0.188 C 
BRANCH  27  28
ATOM     28  O   UNL A   1      38.124  22.428  25.324  1.00  0.00    -0.376 OA
BRANCH  28  29
ATOM     29  C   UNL A   1      39.128  21.876  26.157  1.00  0.00     0.202 C 
BRANCH  29  30
ATOM     30  C   UNL A   1      40.347  22.701  26.621  1.00  0.00     0.261 C 
BRANCH  30  31
ATOM     31  O   UNL A   1      40.245  24.133  26.584  1.00  0.00    -0.460 OA
BRANCH  31  32
ATOM     32  C   UNL A   1      41.383  24.846  26.752  1.00  0.00     0.338 C 
ATOM     33  O   UNL A   1      42.373  24.818  26.035  1.00  0.00    -0.246 OA
BRANCH  32  34
ATOM     34  C   UNL A   1      41.125  25.864  27.799  1.00  0.00     0.060 A 
ATOM     35  C   UNL A   1      42.061  26.892  28.001  1.00  0.00     0.016 A 
ATOM     36  C   UNL A   1      39.949  25.829  28.550  1.00  0.00     0.016 A 
ATOM     37  C   UNL A   1      41.828  27.877  28.963  1.00  0.00     0.010 A 
ATOM     38  C   UNL A   1      39.734  26.796  29.535  1.00  0.00     0.010 A 
ATOM     39  C   UNL A   1      40.682  27.810  29.766  1.00  0.00    -0.014 A 
BRANCH  39  40
ATOM     40  C   UNL A   1      40.563  28.667  30.972  1.00  0.00     0.031 A 
ATOM     41  C   UNL A   1      39.546  29.775  30.955  1.00  0.00     0.074 A 
ATOM     42  C   UNL A   1      41.334  28.475  32.058  1.00  0.00     0.049 A 
ATOM     43  N   UNL A   1      39.321  30.711  31.839  1.00  0.00    -0.248 NA
ATOM     44  C   UNL A   1      38.667  29.836  29.775  1.00  0.00     0.031 C 
ATOM     45  C   UNL A   1      42.315  27.405  32.220  1.00  0.00     0.029 A 
ATOM     46  N   UNL A   1      41.416  29.189  33.228  1.00  0.00    -0.354 N 
ATOM     47  C   UNL A   1      38.282  31.476  31.321  1.00  0.00     0.074 A 
ATOM     48  C   UNL A   1      37.944  30.916  30.032  1.00  0.00     0.031 C 
ATOM     49  C   UNL A   1      42.910  27.540  33.419  1.00  0.00     0.029 A 
ATOM     50  C   UNL A   1      42.383  28.729  34.089  1.00  0.00     0.049 A 
ATOM     51  H   UNL A   1      40.837  29.960  33.431  1.00  0.00     0.167 HD
ATOM     52  C   UNL A   1      37.661  32.542  31.875  1.00  0.00     0.037 A 
ATOM     53  C   UNL A   1      42.811  29.223  35.271  1.00  0.00     0.037 A 
ATOM     54  C   UNL A   1      38.007  33.100  33.156  1.00  0.00     0.049 A 
ATOM     55  C   UNL A   1      42.169  30.469  35.829  1.00  0.00     0.074 A 
ATOM     56  C   UNL A   1      37.434  34.178  33.805  1.00  0.00     0.029 A 
ATOM     57  N   UNL A   1      39.023  32.631  33.978  1.00  0.00    -0.354 N 
ATOM     58  N   UNL A   1      41.187  31.184  35.333  1.00  0.00    -0.248 NA
ATOM     59  C   UNL A   1      42.694  30.979  37.104  1.00  0.00     0.031 C 
ATOM     60  C   UNL A   1      38.140  34.399  34.992  1.00  0.00     0.029 A 
ATOM     61  C   UNL A   1      39.110  33.416  35.116  1.00  0.00     0.049 A 
ATOM     62  H   UNL A   1      39.595  31.855  33.782  1.00  0.00     0.167 HD
ATOM     63  C   UNL A   1      40.959  32.210  36.246  1.00  0.00     0.074 A 
ATOM     64  C   UNL A   1      41.902  32.019  37.329  1.00  0.00     0.031 C 
ATOM     65  C   UNL A   1      40.051  33.216  36.192  1.00  0.00     0.037 A 
BRANCH  52  66
ATOM     66  C   UNL A   1      36.556  33.194  31.088  1.00  0.00     0.058 A 
ATOM     67  C   UNL A   1      36.854  34.015  29.989  1.00  0.00     0.135 A 
ATOM     68  C   UNL A   1      35.206  33.039  31.442  1.00  0.00     0.135 A 
ATOM     69  F   UNL A   1      38.127  34.192  29.600  1.00  0.00    -0.206 F 
ATOM     70  C   UNL A   1      35.855  34.670  29.277  1.00  0.00     0.059 A 
ATOM     71  C   UNL A   1      34.187  33.661  30.724  1.00  0.00     0.059 A 
ATOM     72  F   UNL A   1      34.862  32.244  32.468  1.00  0.00    -0.206 F 
ATOM     73  C   UNL A   1      34.523  34.485  29.652  1.00  0.00     0.060 A 
BRANCH  73  74
ATOM     74  S   UNL A   1      33.237  35.306  28.687  1.00  0.00     0.124 S 
ATOM     75  O   UNL A   1      32.488  36.009  29.721  1.00  0.00    -0.237 OA
ATOM     76  O   UNL A   1      34.022  36.144  27.786  1.00  0.00    -0.237 OA
ATOM     77  O   UNL A   1      32.537  34.197  28.045  1.00  0.00    -0.744 OA
ENDBRANCH  73  74
ENDBRANCH  52  66
BRANCH  53  78
ATOM     78  C   UNL A   1      43.904  28.530  36.005  1.00  0.00     0.058 A 
ATOM     79  C   UNL A   1      43.632  27.500  36.920  1.00  0.00     0.135 A 
ATOM     80  C   UNL A   1      45.243  28.913  35.835  1.00  0.00     0.135 A 
ATOM     81  F   UNL A   1      42.369  27.093  37.119  1.00  0.00    -0.206 F 
ATOM     82  C   UNL A   1      44.640  26.906  37.671  1.00  0.00     0.059 A 
ATOM     83  C   UNL A   1      46.274  28.314  36.555  1.00  0.00     0.059 A 
ATOM     84  F   UNL A   1      45.557  29.875  34.955  1.00  0.00    -0.206 F 
ATOM     85  C   UNL A   1      45.958  27.327  37.488  1.00  0.00     0.060 A 
BRANCH  85  86
ATOM     86  S   UNL A   1      47.246  26.578  38.509  1.00  0.00     0.124 S 
ATOM     87  O   UNL A   1      47.980  25.793  37.522  1.00  0.00    -0.237 OA
ATOM     88  O   UNL A   1      47.939  27.750  39.032  1.00  0.00    -0.237 OA
ATOM     89  O   UNL A   1      46.494  25.805  39.491  1.00  0.00    -0.744 OA
ENDBRANCH  85  86
ENDBRANCH  53  78
BRANCH  65  90
ATOM     90  C   UNL A   1      39.997  34.187  37.342  1.00  0.00     0.058 A 
ATOM     91  C   UNL A   1      39.136  33.955  38.430  1.00  0.00     0.135 A 
ATOM     92  C   UNL A   1      40.715  35.394  37.326  1.00  0.00     0.135 A 
ATOM     93  F   UNL A   1      38.418  32.822  38.494  1.00  0.00    -0.206 F 
ATOM     94  C   UNL A   1      38.971  34.892  39.443  1.00  0.00     0.059 A 
ATOM     95  C   UNL A   1      40.588  36.333  38.347  1.00  0.00     0.059 A 
ATOM     96  F   UNL A   1      41.557  35.664  36.317  1.00  0.00    -0.206 F 
ATOM     97  C   UNL A   1      39.698  36.081  39.392  1.00  0.00     0.060 A 
BRANCH  97  98
ATOM     98  S   UNL A   1      39.470  37.285  40.718  1.00  0.00     0.124 S 
ATOM     99  O   UNL A   1      40.786  37.913  40.783  1.00  0.00    -0.237 OA
ATOM    100  O   UNL A   1      38.394  38.118  40.193  1.00  0.00    -0.237 OA
ATOM    101  O   UNL A   1      39.112  36.461  41.868  1.00  0.00    -0.744 OA
ENDBRANCH  97  98
ENDBRANCH  65  90
ENDBRANCH  39  40
ENDBRANCH  32  34
ENDBRANCH  31  32
ENDBRANCH  30  31
ENDBRANCH  29  30
ENDBRANCH  28  29
ENDBRANCH  27  28
ENDBRANCH   1  27
TORSDOF 24
ENDMDL
MODEL 2
REMARK VINA RESULT:      -9.4      6.428     12.094
REMARK SMILES COc1cc(N[C@H]2C=C[C@@H](C(=O)OCCOCCOCCOC(=O)c3ccc(-c4c5nc(c(-c6c(F)cc(S(=O)(=O)[O-])cc6F)c6ccc([nH]6)c(-c6c(F)cc(S(=O)(=O)[O-])cc6F)c6nc(c(-c7c(F)cc(S(=O)(=O)[O-])cc7F)c7ccc4[nH]7)C=C6)C=C5)cc3)C2)c([N+](=O)[O-])cc1F
REMARK SMILES IDX 17 1 16 2 15 3 14 4 13 5 11 6 12 7 10 8 7 9 8 10 91 11 9 12
REMARK SMILES IDX 6 13 5 15 3 16 4 17 97 18 96 19 98 20 92 21 2 22 1 23 93 24
REMARK SMILES IDX 94 25 95 26 18 27 19 28 20 29 21 30 22 31 23 32 24 33 25 34
REMARK SMILES IDX 26 35 90 36 27 37 89 38 28 39 29 40 30 41 83 42 31 43 88 44
REMARK SMILES IDX 82 45 84 46 32 47 87 48 81 49 80 50 33 52 67 53 46 54 66 55
REMARK SMILES IDX 47 56 50 57 65 58 85 59 48 60 49 61 64 63 86 64 51 65 34 66
REMARK SMILES IDX 35 67 44 68 36 69 37 70 43 71 45 72 38 73 39 74 40 75 41 76
REMARK SMILES IDX 42 77 68 78 69 79 78 80 70 81 71 82 77 83 79 84 72 85 73 86
REMARK SMILES IDX 74 87 75 88 76 89 52 90 53 91 62 92 54 93 55 94 61 95 63 96
REMARK SMILES IDX 56 97 57 98 58 99 59 100 60 101
REMARK H PARENT 6 14 84 51 50 62
REMARK Flexibility Score: inf
ROOT
ATOM      1  C   UNL A   1      33.264  33.638  28.003  1.00  0.00     0.188 C 
ENDROOT
BRANCH   1   2
ATOM      2  O   UNL A   1      33.688  32.323  27.666  1.00  0.00    -0.376 OA
BRANCH   2   3
ATOM      3  C   UNL A   1      32.716  31.411  27.156  1.00  0.00     0.202 C 
BRANCH   3   4
ATOM      4  C   UNL A   1      33.176  30.002  26.743  1.00  0.00     0.261 C 
BRANCH   4   5
ATOM      5  O   UNL A   1      32.767  29.613  25.412  1.00  0.00    -0.463 OA
BRANCH   5   6
ATOM      6  C   UNL A   1      32.856  28.287  25.131  1.00  0.00     0.312 C 
ATOM      7  O   UNL A   1      33.411  27.476  25.868  1.00  0.00    -0.252 OA
BRANCH   6   8
ATOM      8  C   UNL A   1      32.120  27.855  23.850  1.00  0.00     0.124 C 
ATOM      9  C   UNL A   1      30.650  25.974  23.200  1.00  0.00     0.103 C 
ATOM     10  C   UNL A   1      29.870  27.124  23.718  1.00  0.00    -0.006 C 
ATOM     11  C   UNL A   1      32.109  26.376  23.414  1.00  0.00     0.048 C 
ATOM     12  C   UNL A   1      30.658  28.159  24.025  1.00  0.00    -0.014 C 
BRANCH   9  13
ATOM     13  N   UNL A   1      30.261  24.718  23.821  1.00  0.00    -0.373 N 
ATOM     14  H   UNL A   1      29.300  24.645  24.024  1.00  0.00     0.161 HD
BRANCH  13  15
ATOM     15  C   UNL A   1      31.006  23.608  24.178  1.00  0.00     0.117 A 
ATOM     16  C   UNL A   1      32.139  21.512  23.550  1.00  0.00     0.157 A 
ATOM     17  C   UNL A   1      31.471  22.693  23.215  1.00  0.00     0.082 A 
ATOM     18  C   UNL A   1      32.462  21.268  24.877  1.00  0.00     0.172 A 
ATOM     19  C   UNL A   1      32.084  22.162  25.866  1.00  0.00     0.131 A 
ATOM     20  F   UNL A   1      33.167  20.186  25.231  1.00  0.00    -0.203 F 
ATOM     21  C   UNL A   1      31.352  23.316  25.524  1.00  0.00     0.295 A 
BRANCH  16  22
ATOM     22  O   UNL A   1      32.474  20.690  22.507  1.00  0.00    -0.494 OA
ATOM     23  C   UNL A   1      32.115  19.327  22.732  1.00  0.00     0.278 C 
ENDBRANCH  16  22
BRANCH  21  24
ATOM     24  N   UNL A   1      30.965  24.204  26.636  1.00  0.00     0.065 N 
ATOM     25  O   UNL A   1      31.751  24.350  27.585  1.00  0.00    -0.258 OA
ATOM     26  O   UNL A   1      29.863  24.770  26.561  1.00  0.00    -0.258 OA
ENDBRANCH  21  24
ENDBRANCH  13  15
ENDBRANCH   9  13
ENDBRANCH   6   8
ENDBRANCH   5   6
ENDBRANCH   4   5
ENDBRANCH   3   4
ENDBRANCH   2   3
ENDBRANCH   1   2
BRANCH   1  27
ATOM     27  C   UNL A   1      34.211  34.500  28.851  1.00  0.00     0.188 C 
BRANCH  27  28
ATOM     28  O   UNL A   1      33.927  34.519  30.232  1.00  0.00    -0.376 OA
BRANCH  28  29
ATOM     29  C   UNL A   1      34.785  33.798  31.099  1.00  0.00     0.202 C 
BRANCH  29  30
ATOM     30  C   UNL A   1      36.201  33.360  30.666  1.00  0.00     0.261 C 
BRANCH  30  31
ATOM     31  O   UNL A   1      36.379  32.008  30.213  1.00  0.00    -0.460 OA
BRANCH  31  32
ATOM     32  C   UNL A   1      36.893  31.117  31.092  1.00  0.00     0.338 C 
ATOM     33  O   UNL A   1      36.331  30.655  32.075  1.00  0.00    -0.246 OA
BRANCH  32  34
ATOM     34  C   UNL A   1      38.154  30.593  30.514  1.00  0.00     0.060 A 
ATOM     35  C   UNL A   1      39.159  30.122  31.375  1.00  0.00     0.016 A 
ATOM     36  C   UNL A   1      38.328  30.527  29.131  1.00  0.00     0.016 A 
ATOM     37  C   UNL A   1      40.346  29.600  30.854  1.00  0.00     0.010 A 
ATOM     38  C   UNL A   1      39.529  30.034  28.612  1.00  0.00     0.010 A 
ATOM     39  C   UNL A   1      40.554  29.593  29.469  1.00  0.00    -0.014 A 
BRANCH  39  40
ATOM     40  C   UNL A   1      41.904  29.317  28.918  1.00  0.00     0.031 A 
ATOM     41  C   UNL A   1      42.204  27.921  28.444  1.00  0.00     0.074 A 
ATOM     42  C   UNL A   1      42.848  30.273  28.838  1.00  0.00     0.049 A 
ATOM     43  N   UNL A   1      43.329  27.411  28.017  1.00  0.00    -0.248 NA
ATOM     44  C   UNL A   1      41.078  26.972  28.458  1.00  0.00     0.031 C 
ATOM     45  C   UNL A   1      42.665  31.674  29.212  1.00  0.00     0.029 A 
ATOM     46  N   UNL A   1      44.156  30.202  28.425  1.00  0.00    -0.354 N 
ATOM     47  C   UNL A   1      43.051  26.082  27.720  1.00  0.00     0.074 A 
ATOM     48  C   UNL A   1      41.660  25.856  28.046  1.00  0.00     0.031 C 
ATOM     49  C   UNL A   1      43.825  32.328  29.021  1.00  0.00     0.029 A 
ATOM     50  C   UNL A   1      44.841  31.386  28.552  1.00  0.00     0.049 A 
ATOM     51  H   UNL A   1      44.564  29.378  28.070  1.00  0.00     0.167 HD
ATOM     52  C   UNL A   1      43.877  25.139  27.212  1.00  0.00     0.037 A 
ATOM     53  C   UNL A   1      46.143  31.671  28.339  1.00  0.00     0.037 A 
ATOM     54  C   UNL A   1      45.262  25.368  26.896  1.00  0.00     0.049 A 
ATOM     55  C   UNL A   1      47.072  30.582  27.862  1.00  0.00     0.074 A 
ATOM     56  C   UNL A   1      46.182  24.477  26.374  1.00  0.00     0.029 A 
ATOM     57  N   UNL A   1      45.931  26.571  27.081  1.00  0.00    -0.354 N 
ATOM     58  N   UNL A   1      46.799  29.329  27.583  1.00  0.00    -0.248 NA
ATOM     59  C   UNL A   1      48.485  30.942  27.674  1.00  0.00     0.031 C 
ATOM     60  C   UNL A   1      47.420  25.122  26.299  1.00  0.00     0.029 A 
ATOM     61  C   UNL A   1      47.259  26.436  26.710  1.00  0.00     0.049 A 
ATOM     62  H   UNL A   1      45.521  27.397  27.425  1.00  0.00     0.167 HD
ATOM     63  C   UNL A   1      47.999  28.759  27.162  1.00  0.00     0.074 A 
ATOM     64  C   UNL A   1      48.997  29.807  27.216  1.00  0.00     0.031 C 
ATOM     65  C   UNL A   1      48.246  27.487  26.764  1.00  0.00     0.037 A 
BRANCH  52  66
ATOM     66  C   UNL A   1      43.312  23.762  26.987  1.00  0.00     0.058 A 
ATOM     67  C   UNL A   1      43.194  22.859  28.055  1.00  0.00     0.135 A 
ATOM     68  C   UNL A   1      42.924  23.322  25.712  1.00  0.00     0.135 A 
ATOM     69  F   UNL A   1      43.541  23.229  29.298  1.00  0.00    -0.206 F 
ATOM     70  C   UNL A   1      42.723  21.564  27.865  1.00  0.00     0.059 A 
ATOM     71  C   UNL A   1      42.422  22.040  25.504  1.00  0.00     0.059 A 
ATOM     72  F   UNL A   1      42.992  24.153  24.659  1.00  0.00    -0.206 F 
ATOM     73  C   UNL A   1      42.338  21.164  26.585  1.00  0.00     0.060 A 
BRANCH  73  74
ATOM     74  S   UNL A   1      41.686  19.494  26.366  1.00  0.00     0.124 S 
ATOM     75  O   UNL A   1      42.480  19.007  25.245  1.00  0.00    -0.237 OA
ATOM     76  O   UNL A   1      41.969  18.886  27.662  1.00  0.00    -0.237 OA
ATOM     77  O   UNL A   1      40.271  19.719  26.085  1.00  0.00    -0.744 OA
ENDBRANCH  73  74
ENDBRANCH  52  66
BRANCH  53  78
ATOM     78  C   UNL A   1      46.641  33.053  28.574  1.00  0.00     0.058 A 
ATOM     79  C   UNL A   1      47.129  33.452  29.829  1.00  0.00     0.135 A 
ATOM     80  C   UNL A   1      46.598  34.018  27.556  1.00  0.00     0.135 A 
ATOM     81  F   UNL A   1      47.194  32.569  30.837  1.00  0.00    -0.206 F 
ATOM     82  C   UNL A   1      47.516  34.764  30.078  1.00  0.00     0.059 A 
ATOM     83  C   UNL A   1      47.005  35.332  27.773  1.00  0.00     0.059 A 
ATOM     84  F   UNL A   1      46.162  33.680  26.333  1.00  0.00    -0.206 F 
ATOM     85  C   UNL A   1      47.441  35.699  29.045  1.00  0.00     0.060 A 
BRANCH  85  86
ATOM     86  S   UNL A   1      47.901  37.409  29.404  1.00  0.00     0.124 S 
ATOM     87  O   UNL A   1      48.376  37.301  30.779  1.00  0.00    -0.237 OA
ATOM     88  O   UNL A   1      48.925  37.666  28.397  1.00  0.00    -0.237 OA
ATOM     89  O   UNL A   1      46.652  38.141  29.227  1.00  0.00    -0.744 OA
ENDBRANCH  85  86
ENDBRANCH  53  78
BRANCH  65  90
ATOM     90  C   UNL A   1      49.645  27.138  26.327  1.00  0.00     0.058 A 
ATOM     91  C   UNL A   1      49.956  27.027  24.960  1.00  0.00     0.135 A 
ATOM     92  C   UNL A   1      50.651  26.817  27.252  1.00  0.00     0.135 A 
ATOM     93  F   UNL A   1      49.030  27.314  24.030  1.00  0.00    -0.206 F 
ATOM     94  C   UNL A   1      51.202  26.585  24.528  1.00  0.00     0.059 A 
ATOM     95  C   UNL A   1      51.916  26.402  26.841  1.00  0.00     0.059 A 
ATOM     96  F   UNL A   1      50.412  26.913  28.569  1.00  0.00    -0.206 F 
ATOM     97  C   UNL A   1      52.176  26.271  25.476  1.00  0.00     0.060 A 
BRANCH  97  98
ATOM     98  S   UNL A   1      53.786  25.701  24.895  1.00  0.00     0.124 S 
ATOM     99  O   UNL A   1      53.706  24.266  25.148  1.00  0.00    -0.237 OA
ATOM    100  O   UNL A   1      53.765  26.100  23.492  1.00  0.00    -0.237 OA
ATOM    101  O   UNL A   1      54.730  26.434  25.734  1.00  0.00    -0.744 OA
ENDBRANCH  97  98
ENDBRANCH  65  90
ENDBRANCH  39  40
ENDBRANCH  32  34
ENDBRANCH  31  32
ENDBRANCH  30  31
ENDBRANCH  29  30
ENDBRANCH  28  29
ENDBRANCH  27  28
ENDBRANCH   1  27
TORSDOF 24
ENDMDL
MODEL 3
REMARK VINA RESULT:      -9.2      1.306      2.012
REMARK SMILES COc1cc(N[C@H]2C=C[C@@H](C(=O)OCCOCCOCCOC(=O)c3ccc(-c4c5nc(c(-c6c(F)cc(S(=O)(=O)[O-])cc6F)c6ccc([nH]6)c(-c6c(F)cc(S(=O)(=O)[O-])cc6F)c6nc(c(-c7c(F)cc(S(=O)(=O)[O-])cc7F)c7ccc4[nH]7)C=C6)C=C5)cc3)C2)c([N+](=O)[O-])cc1F
REMARK SMILES IDX 17 1 16 2 15 3 14 4 13 5 11 6 12 7 10 8 7 9 8 10 91 11 9 12
REMARK SMILES IDX 6 13 5 15 3 16 4 17 97 18 96 19 98 20 92 21 2 22 1 23 93 24
REMARK SMILES IDX 94 25 95 26 18 27 19 28 20 29 21 30 22 31 23 32 24 33 25 34
REMARK SMILES IDX 26 35 90 36 27 37 89 38 28 39 29 40 30 41 83 42 31 43 88 44
REMARK SMILES IDX 82 45 84 46 32 47 87 48 81 49 80 50 33 52 67 53 46 54 66 55
REMARK SMILES IDX 47 56 50 57 65 58 85 59 48 60 49 61 64 63 86 64 51 65 34 66
REMARK SMILES IDX 35 67 44 68 36 69 37 70 43 71 45 72 38 73 39 74 40 75 41 76
REMARK SMILES IDX 42 77 68 78 69 79 78 80 70 81 71 82 77 83 79 84 72 85 73 86
REMARK SMILES IDX 74 87 75 88 76 89 52 90 53 91 62 92 54 93 55 94 61 95 63 96
REMARK SMILES IDX 56 97 57 98 58 99 59 100 60 101
REMARK H PARENT 6 14 84 51 50 62
REMARK Flexibility Score: inf
ROOT
ATOM      1  C   UNL A   1      36.066  21.281  25.741  1.00  0.00     0.188 C 
ENDROOT
BRANCH   1   2
ATOM      2  O   UNL A   1      34.663  21.052  25.674  1.00  0.00    -0.376 OA
BRANCH   2   3
ATOM      3  C   UNL A   1      34.157  20.286  24.582  1.00  0.00     0.202 C 
BRANCH   3   4
ATOM      4  C   UNL A   1      32.980  20.854  23.769  1.00  0.00     0.261 C 
BRANCH   4   5
ATOM      5  O   UNL A   1      33.151  22.232  23.366  1.00  0.00    -0.463 OA
BRANCH   5   6
ATOM      6  C   UNL A   1      32.165  23.084  23.747  1.00  0.00     0.312 C 
ATOM      7  O   UNL A   1      31.371  23.593  22.960  1.00  0.00    -0.252 OA
BRANCH   6   8
ATOM      8  C   UNL A   1      32.057  23.297  25.267  1.00  0.00     0.124 C 
ATOM      9  C   UNL A   1      31.521  25.199  26.757  1.00  0.00     0.103 C 
ATOM     10  C   UNL A   1      30.307  24.432  26.393  1.00  0.00    -0.006 C 
ATOM     11  C   UNL A   1      32.637  24.566  25.925  1.00  0.00     0.048 C 
ATOM     12  C   UNL A   1      30.599  23.375  25.627  1.00  0.00    -0.014 C 
BRANCH   9  13
ATOM     13  N   UNL A   1      31.349  26.630  26.567  1.00  0.00    -0.373 N 
ATOM     14  H   UNL A   1      31.094  27.120  27.382  1.00  0.00     0.161 HD
BRANCH  13  15
ATOM     15  C   UNL A   1      31.481  27.423  25.441  1.00  0.00     0.117 A 
ATOM     16  C   UNL A   1      30.656  28.140  23.232  1.00  0.00     0.157 A 
ATOM     17  C   UNL A   1      30.507  27.427  24.426  1.00  0.00     0.082 A 
ATOM     18  C   UNL A   1      31.755  28.971  23.072  1.00  0.00     0.172 A 
ATOM     19  C   UNL A   1      32.720  29.056  24.063  1.00  0.00     0.131 A 
ATOM     20  F   UNL A   1      31.898  29.728  21.976  1.00  0.00    -0.203 F 
ATOM     21  C   UNL A   1      32.592  28.281  25.233  1.00  0.00     0.295 A 
BRANCH  16  22
ATOM     22  O   UNL A   1      29.653  27.996  22.312  1.00  0.00    -0.494 OA
ATOM     23  C   UNL A   1      28.633  28.987  22.437  1.00  0.00     0.278 C 
ENDBRANCH  16  22
BRANCH  21  24
ATOM     24  N   UNL A   1      33.674  28.409  26.228  1.00  0.00     0.065 N 
ATOM     25  O   UNL A   1      34.261  27.383  26.606  1.00  0.00    -0.258 OA
ATOM     26  O   UNL A   1      33.945  29.548  26.637  1.00  0.00    -0.258 OA
ENDBRANCH  21  24
ENDBRANCH  13  15
ENDBRANCH   9  13
ENDBRANCH   6   8
ENDBRANCH   5   6
ENDBRANCH   4   5
ENDBRANCH   3   4
ENDBRANCH   2   3
ENDBRANCH   1   2
BRANCH   1  27
ATOM     27  C   UNL A   1      36.554  22.737  25.735  1.00  0.00     0.188 C 
BRANCH  27  28
ATOM     28  O   UNL A   1      37.901  22.914  25.359  1.00  0.00    -0.376 OA
BRANCH  28  29
ATOM     29  C   UNL A   1      38.890  22.179  26.057  1.00  0.00     0.202 C 
BRANCH  29  30
ATOM     30  C   UNL A   1      40.218  22.824  26.510  1.00  0.00     0.261 C 
BRANCH  30  31
ATOM     31  O   UNL A   1      40.243  24.246  26.708  1.00  0.00    -0.460 OA
BRANCH  31  32
ATOM     32  C   UNL A   1      41.443  24.823  26.953  1.00  0.00     0.338 C 
ATOM     33  O   UNL A   1      42.467  24.677  26.302  1.00  0.00    -0.246 OA
BRANCH  32  34
ATOM     34  C   UNL A   1      41.236  25.868  27.983  1.00  0.00     0.060 A 
ATOM     35  C   UNL A   1      42.274  26.774  28.259  1.00  0.00     0.016 A 
ATOM     36  C   UNL A   1      40.012  25.982  28.645  1.00  0.00     0.016 A 
ATOM     37  C   UNL A   1      42.095  27.784  29.207  1.00  0.00     0.010 A 
ATOM     38  C   UNL A   1      39.847  26.973  29.617  1.00  0.00     0.010 A 
ATOM     39  C   UNL A   1      40.894  27.862  29.923  1.00  0.00    -0.014 A 
BRANCH  39  40
ATOM     40  C   UNL A   1      40.793  28.731  31.121  1.00  0.00     0.031 A 
ATOM     41  C   UNL A   1      39.764  29.829  31.115  1.00  0.00     0.074 A 
ATOM     42  C   UNL A   1      41.590  28.561  32.191  1.00  0.00     0.049 A 
ATOM     43  N   UNL A   1      39.550  30.773  31.994  1.00  0.00    -0.248 NA
ATOM     44  C   UNL A   1      38.857  29.867  29.955  1.00  0.00     0.031 C 
ATOM     45  C   UNL A   1      42.587  27.503  32.343  1.00  0.00     0.029 A 
ATOM     46  N   UNL A   1      41.692  29.289  33.352  1.00  0.00    -0.354 N 
ATOM     47  C   UNL A   1      38.491  31.521  31.491  1.00  0.00     0.074 A 
ATOM     48  C   UNL A   1      38.129  30.942  30.216  1.00  0.00     0.031 C 
ATOM     49  C   UNL A   1      43.208  27.658  33.526  1.00  0.00     0.029 A 
ATOM     50  C   UNL A   1      42.684  28.849  34.195  1.00  0.00     0.049 A 
ATOM     51  H   UNL A   1      41.109  30.056  33.559  1.00  0.00     0.167 HD
ATOM     52  C   UNL A   1      37.871  32.587  32.048  1.00  0.00     0.037 A 
ATOM     53  C   UNL A   1      43.133  29.361  35.361  1.00  0.00     0.037 A 
ATOM     54  C   UNL A   1      38.241  33.163  33.313  1.00  0.00     0.049 A 
ATOM     55  C   UNL A   1      42.491  30.607  35.919  1.00  0.00     0.074 A 
ATOM     56  C   UNL A   1      37.671  34.243  33.963  1.00  0.00     0.029 A 
ATOM     57  N   UNL A   1      39.280  32.714  34.117  1.00  0.00    -0.354 N 
ATOM     58  N   UNL A   1      41.490  31.306  35.438  1.00  0.00    -0.248 NA
ATOM     59  C   UNL A   1      43.039  31.137  37.176  1.00  0.00     0.031 C 
ATOM     60  C   UNL A   1      38.402  34.484  35.131  1.00  0.00     0.029 A 
ATOM     61  C   UNL A   1      39.385  33.514  35.244  1.00  0.00     0.049 A 
ATOM     62  H   UNL A   1      39.856  31.942  33.916  1.00  0.00     0.167 HD
ATOM     63  C   UNL A   1      41.273  32.340  36.345  1.00  0.00     0.074 A 
ATOM     64  C   UNL A   1      42.241  32.171  37.408  1.00  0.00     0.031 C 
ATOM     65  C   UNL A   1      40.352  33.335  36.300  1.00  0.00     0.037 A 
BRANCH  52  66
ATOM     66  C   UNL A   1      36.742  33.218  31.279  1.00  0.00     0.058 A 
ATOM     67  C   UNL A   1      35.413  33.040  31.693  1.00  0.00     0.135 A 
ATOM     68  C   UNL A   1      36.969  33.966  30.112  1.00  0.00     0.135 A 
ATOM     69  F   UNL A   1      35.136  32.343  32.805  1.00  0.00    -0.206 F 
ATOM     70  C   UNL A   1      34.348  33.570  30.970  1.00  0.00     0.059 A 
ATOM     71  C   UNL A   1      35.921  34.531  29.391  1.00  0.00     0.059 A 
ATOM     72  F   UNL A   1      38.223  34.189  29.685  1.00  0.00    -0.206 F 
ATOM     73  C   UNL A   1      34.613  34.315  29.821  1.00  0.00     0.060 A 
BRANCH  73  74
ATOM     74  S   UNL A   1      33.221  35.033  28.923  1.00  0.00     0.124 S 
ATOM     75  O   UNL A   1      32.842  33.942  28.034  1.00  0.00    -0.237 OA
ATOM     76  O   UNL A   1      32.284  35.332  30.002  1.00  0.00    -0.237 OA
ATOM     77  O   UNL A   1      33.806  36.202  28.272  1.00  0.00    -0.744 OA
ENDBRANCH  73  74
ENDBRANCH  52  66
BRANCH  53  78
ATOM     78  C   UNL A   1      44.250  28.688  36.077  1.00  0.00     0.058 A 
ATOM     79  C   UNL A   1      44.017  27.611  36.948  1.00  0.00     0.135 A 
ATOM     80  C   UNL A   1      45.572  29.136  35.935  1.00  0.00     0.135 A 
ATOM     81  F   UNL A   1      42.772  27.141  37.118  1.00  0.00    -0.206 F 
ATOM     82  C   UNL A   1      45.044  27.033  37.685  1.00  0.00     0.059 A 
ATOM     83  C   UNL A   1      46.623  28.555  36.641  1.00  0.00     0.059 A 
ATOM     84  F   UNL A   1      45.850  30.146  35.097  1.00  0.00    -0.206 F 
ATOM     85  C   UNL A   1      46.344  27.519  37.531  1.00  0.00     0.060 A 
BRANCH  85  86
ATOM     86  S   UNL A   1      47.656  26.786  38.534  1.00  0.00     0.124 S 
ATOM     87  O   UNL A   1      48.140  25.729  37.653  1.00  0.00    -0.237 OA
ATOM     88  O   UNL A   1      48.558  27.917  38.726  1.00  0.00    -0.237 OA
ATOM     89  O   UNL A   1      46.955  26.334  39.731  1.00  0.00    -0.744 OA
ENDBRANCH  85  86
ENDBRANCH  53  78
BRANCH  65  90
ATOM     90  C   UNL A   1      40.314  34.320  37.440  1.00  0.00     0.058 A 
ATOM     91  C   UNL A   1      39.593  34.024  38.611  1.00  0.00     0.135 A 
ATOM     92  C   UNL A   1      40.902  35.591  37.340  1.00  0.00     0.135 A 
ATOM     93  F   UNL A   1      39.003  32.827  38.758  1.00  0.00    -0.206 F 
ATOM     94  C   UNL A   1      39.435  34.961  39.626  1.00  0.00     0.059 A 
ATOM     95  C   UNL A   1      40.782  36.533  38.358  1.00  0.00     0.059 A 
ATOM     96  F   UNL A   1      41.608  35.924  36.248  1.00  0.00    -0.206 F 
ATOM     97  C   UNL A   1      40.030  36.215  39.490  1.00  0.00     0.060 A 
BRANCH  97  98
ATOM     98  S   UNL A   1      39.814  37.417  40.820  1.00  0.00     0.124 S 
ATOM     99  O   UNL A   1      39.215  38.544  40.112  1.00  0.00    -0.237 OA
ATOM    100  O   UNL A   1      38.932  36.703  41.737  1.00  0.00    -0.237 OA
ATOM    101  O   UNL A   1      41.173  37.633  41.308  1.00  0.00    -0.744 OA
ENDBRANCH  97  98
ENDBRANCH  65  90
ENDBRANCH  39  40
ENDBRANCH  32  34
ENDBRANCH  31  32
ENDBRANCH  30  31
ENDBRANCH  29  30
ENDBRANCH  28  29
ENDBRANCH  27  28
ENDBRANCH   1  27
TORSDOF 24
ENDMDL
