MODEL 1
REMARK VINA RESULT:      -9.6      0.000      0.000
REMARK SMILES CCC[N@H+](CC(=O)OCCOCCOCCOC(=O)c1ccc(-c2c3nc(c(-c4c(F)cc(S(=O)(=O)[O-])cc4F)c4ccc([nH]4)c(-c4c(F)cc(S(=O)(=O)[O-])cc4F)c4nc(c(-c5c(F)cc(S(=O)(=O)[O-])cc5F)c5ccc2[nH]5)C=C4)C=C3)cc1)[C@H]1CCOC2(CCCCC2)C1
REMARK SMILES IDX 12 1 11 2 10 3 9 4 8 5 6 6 7 7 5 8 4 9 3 11 2 12 1 13 86 14
REMARK SMILES IDX 87 15 96 16 88 17 90 18 89 19 91 20 95 21 92 22 94 23 93 24
REMARK SMILES IDX 13 25 14 26 15 27 16 28 17 29 18 30 19 31 20 32 21 33 85 34
REMARK SMILES IDX 22 35 84 36 23 37 24 38 25 39 78 40 26 41 83 42 77 43 79 44
REMARK SMILES IDX 27 45 82 46 76 47 75 48 28 50 62 51 41 52 61 53 42 54 45 55
REMARK SMILES IDX 60 56 80 57 43 58 44 59 59 61 81 62 46 63 29 64 30 65 39 66
REMARK SMILES IDX 31 67 32 68 38 69 40 70 33 71 34 72 35 73 36 74 37 75 63 76
REMARK SMILES IDX 64 77 73 78 65 79 66 80 72 81 74 82 67 83 68 84 69 85 70 86
REMARK SMILES IDX 71 87 47 88 48 89 57 90 49 91 50 92 56 93 58 94 51 95 52 96
REMARK SMILES IDX 53 97 54 98 55 99
REMARK H PARENT 4 10 79 49 45 60
REMARK Flexibility Score: inf
ROOT
ATOM      1  C   UNL A   1      35.830  33.397  28.166  1.00  0.00     0.188 C 
ENDROOT
BRANCH   1   2
ATOM      2  O   UNL A   1      35.507  32.088  27.702  1.00  0.00    -0.376 OA
BRANCH   2   3
ATOM      3  C   UNL A   1      34.302  31.477  28.155  1.00  0.00     0.202 C 
BRANCH   3   4
ATOM      4  C   UNL A   1      33.344  30.891  27.106  1.00  0.00     0.261 C 
BRANCH   4   5
ATOM      5  O   UNL A   1      33.165  29.464  27.210  1.00  0.00    -0.459 OA
BRANCH   5   6
ATOM      6  C   UNL A   1      33.633  28.697  26.198  1.00  0.00     0.361 C 
ATOM      7  O   UNL A   1      34.542  27.880  26.341  1.00  0.00    -0.245 OA
BRANCH   6   8
ATOM      8  C   UNL A   1      32.953  28.867  24.825  1.00  0.00     0.386 C 
BRANCH   8   9
ATOM      9  N   UNL A   1      32.317  27.701  24.110  1.00  0.00    -0.323 N 
ATOM     10  H   UNL A   1      32.895  27.442  23.311  1.00  0.00     0.348 HD
BRANCH   9  11
ATOM     11  C   UNL A   1      32.237  26.527  25.035  1.00  0.00     0.262 C 
BRANCH  11  12
ATOM     12  C   UNL A   1      32.777  25.146  24.608  1.00  0.00     0.058 C 
ATOM     13  C   UNL A   1      34.284  25.049  24.396  1.00  0.00     0.010 C 
ENDBRANCH  11  12
ENDBRANCH   9  11
BRANCH   9  14
ATOM     14  C   UNL A   1      30.962  28.079  23.582  1.00  0.00     0.189 C 
ATOM     15  C   UNL A   1      29.745  27.170  23.887  1.00  0.00     0.093 C 
ATOM     16  C   UNL A   1      30.504  29.455  24.104  1.00  0.00     0.100 C 
ATOM     17  C   UNL A   1      28.470  27.726  23.228  1.00  0.00     0.167 C 
ATOM     18  C   UNL A   1      29.315  29.994  23.292  1.00  0.00     0.074 C 
ATOM     19  O   UNL A   1      28.209  29.108  23.497  1.00  0.00    -0.375 OA
ATOM     20  C   UNL A   1      29.660  30.139  21.786  1.00  0.00     0.036 C 
ATOM     21  C   UNL A   1      28.949  31.385  23.869  1.00  0.00     0.036 C 
ATOM     22  C   UNL A   1      28.603  30.888  20.986  1.00  0.00     0.003 C 
ATOM     23  C   UNL A   1      27.949  32.177  23.026  1.00  0.00     0.003 C 
ATOM     24  C   UNL A   1      28.378  32.273  21.568  1.00  0.00     0.000 C 
ENDBRANCH   9  14
ENDBRANCH   8   9
ENDBRANCH   6   8
ENDBRANCH   5   6
ENDBRANCH   4   5
ENDBRANCH   3   4
ENDBRANCH   2   3
ENDBRANCH   1   2
BRANCH   1  25
ATOM     25  C   UNL A   1      34.983  34.006  29.296  1.00  0.00     0.188 C 
BRANCH  25  26
ATOM     26  O   UNL A   1      35.660  34.120  30.527  1.00  0.00    -0.376 OA
BRANCH  26  27
ATOM     27  C   UNL A   1      35.223  33.353  31.627  1.00  0.00     0.202 C 
BRANCH  27  28
ATOM     28  C   UNL A   1      35.469  31.840  31.688  1.00  0.00     0.261 C 
BRANCH  28  29
ATOM     29  O   UNL A   1      36.545  31.314  30.900  1.00  0.00    -0.460 OA
BRANCH  29  30
ATOM     30  C   UNL A   1      37.112  30.160  31.320  1.00  0.00     0.338 C 
ATOM     31  O   UNL A   1      36.551  29.236  31.896  1.00  0.00    -0.246 OA
BRANCH  30  32
ATOM     32  C   UNL A   1      38.485  30.108  30.772  1.00  0.00     0.060 A 
ATOM     33  C   UNL A   1      38.681  30.237  29.390  1.00  0.00     0.016 A 
ATOM     34  C   UNL A   1      39.575  29.946  31.628  1.00  0.00     0.016 A 
ATOM     35  C   UNL A   1      39.972  30.167  28.858  1.00  0.00     0.010 A 
ATOM     36  C   UNL A   1      40.863  29.859  31.092  1.00  0.00     0.010 A 
ATOM     37  C   UNL A   1      41.066  29.935  29.702  1.00  0.00    -0.014 A 
BRANCH  37  38
ATOM     38  C   UNL A   1      42.392  29.589  29.129  1.00  0.00     0.031 A 
ATOM     39  C   UNL A   1      42.629  28.170  28.680  1.00  0.00     0.074 A 
ATOM     40  C   UNL A   1      43.365  30.510  28.999  1.00  0.00     0.049 A 
ATOM     41  N   UNL A   1      43.719  27.616  28.215  1.00  0.00    -0.248 NA
ATOM     42  C   UNL A   1      41.482  27.253  28.776  1.00  0.00     0.031 C 
ATOM     43  C   UNL A   1      43.252  31.919  29.368  1.00  0.00     0.029 A 
ATOM     44  N   UNL A   1      44.650  30.388  28.531  1.00  0.00    -0.354 N 
ATOM     45  C   UNL A   1      43.389  26.290  27.960  1.00  0.00     0.074 A 
ATOM     46  C   UNL A   1      42.011  26.110  28.367  1.00  0.00     0.031 C 
ATOM     47  C   UNL A   1      44.426  32.528  29.128  1.00  0.00     0.029 A 
ATOM     48  C   UNL A   1      45.384  31.548  28.620  1.00  0.00     0.049 A 
ATOM     49  H   UNL A   1      45.013  29.548  28.165  1.00  0.00     0.167 HD
ATOM     50  C   UNL A   1      44.155  25.313  27.419  1.00  0.00     0.037 A 
ATOM     51  C   UNL A   1      46.684  31.781  28.347  1.00  0.00     0.037 A 
ATOM     52  C   UNL A   1      45.528  25.492  27.025  1.00  0.00     0.049 A 
ATOM     53  C   UNL A   1      47.542  30.657  27.818  1.00  0.00     0.074 A 
ATOM     54  C   UNL A   1      46.393  24.562  26.473  1.00  0.00     0.029 A 
ATOM     55  N   UNL A   1      46.240  26.677  27.144  1.00  0.00    -0.354 N 
ATOM     56  N   UNL A   1      47.213  29.412  27.565  1.00  0.00    -0.248 NA
ATOM     57  C   UNL A   1      48.950  30.972  27.531  1.00  0.00     0.031 C 
ATOM     58  C   UNL A   1      47.641  25.172  26.304  1.00  0.00     0.029 A 
ATOM     59  C   UNL A   1      47.538  26.498  26.691  1.00  0.00     0.049 A 
ATOM     60  H   UNL A   1      45.877  27.520  27.497  1.00  0.00     0.167 HD
ATOM     61  C   UNL A   1      48.360  28.808  27.056  1.00  0.00     0.074 A 
ATOM     62  C   UNL A   1      49.387  29.827  27.024  1.00  0.00     0.031 C 
ATOM     63  C   UNL A   1      48.549  27.526  26.653  1.00  0.00     0.037 A 
BRANCH  50  64
ATOM     64  C   UNL A   1      43.527  23.958  27.233  1.00  0.00     0.058 A 
ATOM     65  C   UNL A   1      43.407  23.048  28.297  1.00  0.00     0.135 A 
ATOM     66  C   UNL A   1      43.002  23.577  25.987  1.00  0.00     0.135 A 
ATOM     67  F   UNL A   1      43.908  23.351  29.504  1.00  0.00    -0.206 F 
ATOM     68  C   UNL A   1      42.812  21.803  28.127  1.00  0.00     0.059 A 
ATOM     69  C   UNL A   1      42.375  22.347  25.802  1.00  0.00     0.059 A 
ATOM     70  F   UNL A   1      43.091  24.405  24.933  1.00  0.00    -0.206 F 
ATOM     71  C   UNL A   1      42.296  21.463  26.876  1.00  0.00     0.060 A 
BRANCH  71  72
ATOM     72  S   UNL A   1      41.514  19.848  26.679  1.00  0.00     0.124 S 
ATOM     73  O   UNL A   1      40.100  20.189  26.813  1.00  0.00    -0.237 OA
ATOM     74  O   UNL A   1      41.946  19.455  25.342  1.00  0.00    -0.237 OA
ATOM     75  O   UNL A   1      42.075  19.061  27.773  1.00  0.00    -0.744 OA
ENDBRANCH  71  72
ENDBRANCH  50  64
BRANCH  51  76
ATOM     76  C   UNL A   1      47.272  33.130  28.582  1.00  0.00     0.058 A 
ATOM     77  C   UNL A   1      47.402  34.062  27.542  1.00  0.00     0.135 A 
ATOM     78  C   UNL A   1      47.747  33.502  29.851  1.00  0.00     0.135 A 
ATOM     79  F   UNL A   1      46.975  33.753  26.308  1.00  0.00    -0.206 F 
ATOM     80  C   UNL A   1      48.009  35.299  27.739  1.00  0.00     0.059 A 
ATOM     81  C   UNL A   1      48.328  34.745  30.081  1.00  0.00     0.059 A 
ATOM     82  F   UNL A   1      47.640  32.654  30.885  1.00  0.00    -0.206 F 
ATOM     83  C   UNL A   1      48.469  35.631  29.014  1.00  0.00     0.060 A 
BRANCH  83  84
ATOM     84  S   UNL A   1      49.236  37.247  29.265  1.00  0.00     0.124 S 
ATOM     85  O   UNL A   1      48.634  38.028  28.190  1.00  0.00    -0.237 OA
ATOM     86  O   UNL A   1      48.803  37.583  30.618  1.00  0.00    -0.237 OA
ATOM     87  O   UNL A   1      50.662  36.970  29.120  1.00  0.00    -0.744 OA
ENDBRANCH  83  84
ENDBRANCH  51  76
BRANCH  63  88
ATOM     88  C   UNL A   1      49.899  27.162  26.091  1.00  0.00     0.058 A 
ATOM     89  C   UNL A   1      50.963  26.758  26.911  1.00  0.00     0.135 A 
ATOM     90  C   UNL A   1      50.118  27.185  24.702  1.00  0.00     0.135 A 
ATOM     91  F   UNL A   1      50.812  26.719  28.244  1.00  0.00    -0.206 F 
ATOM     92  C   UNL A   1      52.207  26.424  26.380  1.00  0.00     0.059 A 
ATOM     93  C   UNL A   1      51.342  26.824  24.147  1.00  0.00     0.059 A 
ATOM     94  F   UNL A   1      49.133  27.550  23.867  1.00  0.00    -0.206 F 
ATOM     95  C   UNL A   1      52.386  26.461  24.996  1.00  0.00     0.060 A 
BRANCH  95  96
ATOM     96  S   UNL A   1      54.000  26.013  24.321  1.00  0.00     0.124 S 
ATOM     97  O   UNL A   1      54.103  24.611  24.712  1.00  0.00    -0.237 OA
ATOM     98  O   UNL A   1      53.822  26.262  22.894  1.00  0.00    -0.237 OA
ATOM     99  O   UNL A   1      54.918  26.923  25.000  1.00  0.00    -0.744 OA
ENDBRANCH  95  96
ENDBRANCH  63  88
ENDBRANCH  37  38
ENDBRANCH  30  32
ENDBRANCH  29  30
ENDBRANCH  28  29
ENDBRANCH  27  28
ENDBRANCH  26  27
ENDBRANCH  25  26
ENDBRANCH   1  25
TORSDOF 24
ENDMDL
MODEL 2
REMARK VINA RESULT:      -9.5      3.286      9.656
REMARK SMILES CCC[N@H+](CC(=O)OCCOCCOCCOC(=O)c1ccc(-c2c3nc(c(-c4c(F)cc(S(=O)(=O)[O-])cc4F)c4ccc([nH]4)c(-c4c(F)cc(S(=O)(=O)[O-])cc4F)c4nc(c(-c5c(F)cc(S(=O)(=O)[O-])cc5F)c5ccc2[nH]5)C=C4)C=C3)cc1)[C@H]1CCOC2(CCCCC2)C1
REMARK SMILES IDX 12 1 11 2 10 3 9 4 8 5 6 6 7 7 5 8 4 9 3 11 2 12 1 13 86 14
REMARK SMILES IDX 87 15 96 16 88 17 90 18 89 19 91 20 95 21 92 22 94 23 93 24
REMARK SMILES IDX 13 25 14 26 15 27 16 28 17 29 18 30 19 31 20 32 21 33 85 34
REMARK SMILES IDX 22 35 84 36 23 37 24 38 25 39 78 40 26 41 83 42 77 43 79 44
REMARK SMILES IDX 27 45 82 46 76 47 75 48 28 50 62 51 41 52 61 53 42 54 45 55
REMARK SMILES IDX 60 56 80 57 43 58 44 59 59 61 81 62 46 63 29 64 30 65 39 66
REMARK SMILES IDX 31 67 32 68 38 69 40 70 33 71 34 72 35 73 36 74 37 75 63 76
REMARK SMILES IDX 64 77 73 78 65 79 66 80 72 81 74 82 67 83 68 84 69 85 70 86
REMARK SMILES IDX 71 87 47 88 48 89 57 90 49 91 50 92 56 93 58 94 51 95 52 96
REMARK SMILES IDX 53 97 54 98 55 99
REMARK H PARENT 4 10 79 49 45 60
REMARK Flexibility Score: inf
ROOT
ATOM      1  C   UNL A   1      31.457  28.960  23.183  1.00  0.00     0.188 C 
ENDROOT
BRANCH   1   2
ATOM      2  O   UNL A   1      32.579  28.628  22.369  1.00  0.00    -0.376 OA
BRANCH   2   3
ATOM      3  C   UNL A   1      33.114  27.309  22.442  1.00  0.00     0.202 C 
BRANCH   3   4
ATOM      4  C   UNL A   1      32.549  26.240  21.492  1.00  0.00     0.261 C 
BRANCH   4   5
ATOM      5  O   UNL A   1      32.243  24.987  22.137  1.00  0.00    -0.459 OA
BRANCH   5   6
ATOM      6  C   UNL A   1      33.269  24.139  22.379  1.00  0.00     0.361 C 
ATOM      7  O   UNL A   1      34.446  24.500  22.403  1.00  0.00    -0.245 OA
BRANCH   6   8
ATOM      8  C   UNL A   1      32.904  22.668  22.659  1.00  0.00     0.386 C 
BRANCH   8   9
ATOM      9  N   UNL A   1      32.310  22.240  23.978  1.00  0.00    -0.323 N 
ATOM     10  H   UNL A   1      31.563  22.886  24.235  1.00  0.00     0.348 HD
BRANCH   9  11
ATOM     11  C   UNL A   1      31.723  20.870  23.844  1.00  0.00     0.262 C 
BRANCH  11  12
ATOM     12  C   UNL A   1      32.524  19.727  23.187  1.00  0.00     0.058 C 
ATOM     13  C   UNL A   1      32.667  18.448  24.006  1.00  0.00     0.010 C 
ENDBRANCH  11  12
ENDBRANCH   9  11
BRANCH   9  14
ATOM     14  C   UNL A   1      33.344  22.293  25.067  1.00  0.00     0.189 C 
ATOM     15  C   UNL A   1      33.052  21.612  26.428  1.00  0.00     0.093 C 
ATOM     16  C   UNL A   1      34.670  21.639  24.632  1.00  0.00     0.100 C 
ATOM     17  C   UNL A   1      34.227  21.812  27.401  1.00  0.00     0.167 C 
ATOM     18  C   UNL A   1      35.818  22.013  25.586  1.00  0.00     0.074 C 
ATOM     19  O   UNL A   1      35.511  21.463  26.873  1.00  0.00    -0.375 OA
ATOM     20  C   UNL A   1      36.035  23.548  25.657  1.00  0.00     0.036 C 
ATOM     21  C   UNL A   1      37.106  21.337  25.052  1.00  0.00     0.036 C 
ATOM     22  C   UNL A   1      37.303  23.951  26.397  1.00  0.00     0.003 C 
ATOM     23  C   UNL A   1      38.393  21.800  25.737  1.00  0.00     0.003 C 
ATOM     24  C   UNL A   1      38.522  23.318  25.748  1.00  0.00     0.000 C 
ENDBRANCH   9  14
ENDBRANCH   8   9
ENDBRANCH   6   8
ENDBRANCH   5   6
ENDBRANCH   4   5
ENDBRANCH   3   4
ENDBRANCH   2   3
ENDBRANCH   1   2
BRANCH   1  25
ATOM     25  C   UNL A   1      31.063  28.000  24.319  1.00  0.00     0.188 C 
BRANCH  25  26
ATOM     26  O   UNL A   1      31.242  28.532  25.611  1.00  0.00    -0.376 OA
BRANCH  26  27
ATOM     27  C   UNL A   1      32.549  28.762  26.088  1.00  0.00     0.202 C 
BRANCH  27  28
ATOM     28  C   UNL A   1      32.910  30.062  26.819  1.00  0.00     0.261 C 
BRANCH  28  29
ATOM     29  O   UNL A   1      33.659  29.949  28.036  1.00  0.00    -0.460 OA
BRANCH  29  30
ATOM     30  C   UNL A   1      34.544  30.934  28.310  1.00  0.00     0.338 C 
ATOM     31  O   UNL A   1      34.282  32.102  28.571  1.00  0.00    -0.246 OA
BRANCH  30  32
ATOM     32  C   UNL A   1      35.878  30.312  28.457  1.00  0.00     0.060 A 
ATOM     33  C   UNL A   1      36.313  29.903  29.726  1.00  0.00     0.016 A 
ATOM     34  C   UNL A   1      36.689  30.121  27.338  1.00  0.00     0.016 A 
ATOM     35  C   UNL A   1      37.580  29.334  29.880  1.00  0.00     0.010 A 
ATOM     36  C   UNL A   1      37.962  29.567  27.497  1.00  0.00     0.010 A 
ATOM     37  C   UNL A   1      38.429  29.203  28.773  1.00  0.00    -0.014 A 
BRANCH  37  38
ATOM     38  C   UNL A   1      39.862  28.858  28.966  1.00  0.00     0.031 A 
ATOM     39  C   UNL A   1      40.787  29.920  29.501  1.00  0.00     0.074 A 
ATOM     40  C   UNL A   1      40.335  27.630  28.682  1.00  0.00     0.049 A 
ATOM     41  N   UNL A   1      42.080  29.879  29.688  1.00  0.00    -0.248 NA
ATOM     42  C   UNL A   1      40.167  31.204  29.867  1.00  0.00     0.031 C 
ATOM     43  C   UNL A   1      39.538  26.509  28.187  1.00  0.00     0.029 A 
ATOM     44  N   UNL A   1      41.610  27.128  28.760  1.00  0.00    -0.354 N 
ATOM     45  C   UNL A   1      42.428  31.126  30.196  1.00  0.00     0.074 A 
ATOM     46  C   UNL A   1      41.217  31.917  30.243  1.00  0.00     0.031 C 
ATOM     47  C   UNL A   1      40.348  25.455  27.988  1.00  0.00     0.029 A 
ATOM     48  C   UNL A   1      41.723  25.833  28.310  1.00  0.00     0.049 A 
ATOM     49  H   UNL A   1      42.373  27.647  29.104  1.00  0.00     0.167 HD
ATOM     50  C   UNL A   1      43.642  31.568  30.605  1.00  0.00     0.037 A 
ATOM     51  C   UNL A   1      42.814  25.056  28.153  1.00  0.00     0.037 A 
ATOM     52  C   UNL A   1      44.846  30.781  30.547  1.00  0.00     0.049 A 
ATOM     53  C   UNL A   1      44.169  25.597  28.541  1.00  0.00     0.074 A 
ATOM     54  C   UNL A   1      46.127  31.140  30.931  1.00  0.00     0.029 A 
ATOM     55  N   UNL A   1      44.922  29.479  30.072  1.00  0.00    -0.354 N 
ATOM     56  N   UNL A   1      44.482  26.770  29.037  1.00  0.00    -0.248 NA
ATOM     57  C   UNL A   1      45.322  24.702  28.354  1.00  0.00     0.031 C 
ATOM     58  C   UNL A   1      46.985  30.073  30.643  1.00  0.00     0.029 A 
ATOM     59  C   UNL A   1      46.231  29.027  30.138  1.00  0.00     0.049 A 
ATOM     60  H   UNL A   1      44.160  28.955  29.738  1.00  0.00     0.167 HD
ATOM     61  C   UNL A   1      45.858  26.741  29.254  1.00  0.00     0.074 A 
ATOM     62  C   UNL A   1      46.314  25.428  28.850  1.00  0.00     0.031 C 
ATOM     63  C   UNL A   1      46.671  27.711  29.744  1.00  0.00     0.037 A 
BRANCH  50  64
ATOM     64  C   UNL A   1      43.727  32.971  31.140  1.00  0.00     0.058 A 
ATOM     65  C   UNL A   1      43.513  33.256  32.499  1.00  0.00     0.135 A 
ATOM     66  C   UNL A   1      44.068  34.041  30.296  1.00  0.00     0.135 A 
ATOM     67  F   UNL A   1      43.165  32.276  33.348  1.00  0.00    -0.206 F 
ATOM     68  C   UNL A   1      43.608  34.551  32.996  1.00  0.00     0.059 A 
ATOM     69  C   UNL A   1      44.200  35.341  30.778  1.00  0.00     0.059 A 
ATOM     70  F   UNL A   1      44.282  33.828  28.987  1.00  0.00    -0.206 F 
ATOM     71  C   UNL A   1      43.956  35.587  32.127  1.00  0.00     0.060 A 
BRANCH  71  72
ATOM     72  S   UNL A   1      44.090  37.259  32.794  1.00  0.00     0.124 S 
ATOM     73  O   UNL A   1      43.764  38.068  31.622  1.00  0.00    -0.237 OA
ATOM     74  O   UNL A   1      43.089  37.251  33.855  1.00  0.00    -0.237 OA
ATOM     75  O   UNL A   1      45.476  37.337  33.243  1.00  0.00    -0.744 OA
ENDBRANCH  71  72
ENDBRANCH  50  64
BRANCH  51  76
ATOM     76  C   UNL A   1      42.685  23.685  27.583  1.00  0.00     0.058 A 
ATOM     77  C   UNL A   1      42.327  22.592  28.386  1.00  0.00     0.135 A 
ATOM     78  C   UNL A   1      42.952  23.436  26.227  1.00  0.00     0.135 A 
ATOM     79  F   UNL A   1      42.073  22.773  29.691  1.00  0.00    -0.206 F 
ATOM     80  C   UNL A   1      42.268  21.298  27.876  1.00  0.00     0.059 A 
ATOM     81  C   UNL A   1      42.869  22.156  25.686  1.00  0.00     0.059 A 
ATOM     82  F   UNL A   1      43.291  24.445  25.410  1.00  0.00    -0.206 F 
ATOM     83  C   UNL A   1      42.541  21.091  26.523  1.00  0.00     0.060 A 
BRANCH  83  84
ATOM     84  S   UNL A   1      42.440  19.411  25.866  1.00  0.00     0.124 S 
ATOM     85  O   UNL A   1      43.063  18.640  26.936  1.00  0.00    -0.237 OA
ATOM     86  O   UNL A   1      41.001  19.232  25.705  1.00  0.00    -0.237 OA
ATOM     87  O   UNL A   1      43.199  19.490  24.622  1.00  0.00    -0.744 OA
ENDBRANCH  83  84
ENDBRANCH  51  76
BRANCH  63  88
ATOM     88  C   UNL A   1      48.130  27.376  29.921  1.00  0.00     0.058 A 
ATOM     89  C   UNL A   1      48.616  26.758  31.082  1.00  0.00     0.135 A 
ATOM     90  C   UNL A   1      49.049  27.645  28.892  1.00  0.00     0.135 A 
ATOM     91  F   UNL A   1      47.785  26.477  32.099  1.00  0.00    -0.206 F 
ATOM     92  C   UNL A   1      49.966  26.452  31.234  1.00  0.00     0.059 A 
ATOM     93  C   UNL A   1      50.396  27.318  29.008  1.00  0.00     0.059 A 
ATOM     94  F   UNL A   1      48.639  28.223  27.751  1.00  0.00    -0.206 F 
ATOM     95  C   UNL A   1      50.849  26.737  30.191  1.00  0.00     0.060 A 
BRANCH  95  96
ATOM     96  S   UNL A   1      52.594  26.323  30.397  1.00  0.00     0.124 S 
ATOM     97  O   UNL A   1      53.119  27.545  30.997  1.00  0.00    -0.237 OA
ATOM     98  O   UNL A   1      52.538  25.158  31.274  1.00  0.00    -0.237 OA
ATOM     99  O   UNL A   1      53.043  26.051  29.033  1.00  0.00    -0.744 OA
ENDBRANCH  95  96
ENDBRANCH  63  88
ENDBRANCH  37  38
ENDBRANCH  30  32
ENDBRANCH  29  30
ENDBRANCH  28  29
ENDBRANCH  27  28
ENDBRANCH  26  27
ENDBRANCH  25  26
ENDBRANCH   1  25
TORSDOF 24
ENDMDL
MODEL 3
REMARK VINA RESULT:      -9.5      6.596     11.389
REMARK SMILES CCC[N@H+](CC(=O)OCCOCCOCCOC(=O)c1ccc(-c2c3nc(c(-c4c(F)cc(S(=O)(=O)[O-])cc4F)c4ccc([nH]4)c(-c4c(F)cc(S(=O)(=O)[O-])cc4F)c4nc(c(-c5c(F)cc(S(=O)(=O)[O-])cc5F)c5ccc2[nH]5)C=C4)C=C3)cc1)[C@H]1CCOC2(CCCCC2)C1
REMARK SMILES IDX 12 1 11 2 10 3 9 4 8 5 6 6 7 7 5 8 4 9 3 11 2 12 1 13 86 14
REMARK SMILES IDX 87 15 96 16 88 17 90 18 89 19 91 20 95 21 92 22 94 23 93 24
REMARK SMILES IDX 13 25 14 26 15 27 16 28 17 29 18 30 19 31 20 32 21 33 85 34
REMARK SMILES IDX 22 35 84 36 23 37 24 38 25 39 78 40 26 41 83 42 77 43 79 44
REMARK SMILES IDX 27 45 82 46 76 47 75 48 28 50 62 51 41 52 61 53 42 54 45 55
REMARK SMILES IDX 60 56 80 57 43 58 44 59 59 61 81 62 46 63 29 64 30 65 39 66
REMARK SMILES IDX 31 67 32 68 38 69 40 70 33 71 34 72 35 73 36 74 37 75 63 76
REMARK SMILES IDX 64 77 73 78 65 79 66 80 72 81 74 82 67 83 68 84 69 85 70 86
REMARK SMILES IDX 71 87 47 88 48 89 57 90 49 91 50 92 56 93 58 94 51 95 52 96
REMARK SMILES IDX 53 97 54 98 55 99
REMARK H PARENT 4 10 79 49 45 60
REMARK Flexibility Score: inf
ROOT
ATOM      1  C   UNL A   1      35.615  31.922  28.190  1.00  0.00     0.188 C 
ENDROOT
BRANCH   1   2
ATOM      2  O   UNL A   1      34.696  31.028  27.566  1.00  0.00    -0.376 OA
BRANCH   2   3
ATOM      3  C   UNL A   1      33.338  31.435  27.416  1.00  0.00     0.202 C 
BRANCH   3   4
ATOM      4  C   UNL A   1      32.321  30.403  26.902  1.00  0.00     0.261 C 
BRANCH   4   5
ATOM      5  O   UNL A   1      32.790  29.631  25.778  1.00  0.00    -0.459 OA
BRANCH   5   6
ATOM      6  C   UNL A   1      32.887  28.290  25.934  1.00  0.00     0.361 C 
ATOM      7  O   UNL A   1      33.395  27.766  26.925  1.00  0.00    -0.245 OA
BRANCH   6   8
ATOM      8  C   UNL A   1      32.300  27.414  24.810  1.00  0.00     0.386 C 
BRANCH   8   9
ATOM      9  N   UNL A   1      31.328  26.299  25.105  1.00  0.00    -0.323 N 
ATOM     10  H   UNL A   1      30.905  26.456  26.019  1.00  0.00     0.348 HD
BRANCH   9  11
ATOM     11  C   UNL A   1      30.241  26.295  24.076  1.00  0.00     0.262 C 
BRANCH  11  12
ATOM     12  C   UNL A   1      30.204  27.358  22.959  1.00  0.00     0.058 C 
ATOM     13  C   UNL A   1      29.144  28.446  23.099  1.00  0.00     0.010 C 
ENDBRANCH  11  12
ENDBRANCH   9  11
BRANCH   9  14
ATOM     14  C   UNL A   1      32.040  24.977  25.160  1.00  0.00     0.189 C 
ATOM     15  C   UNL A   1      31.233  23.668  24.962  1.00  0.00     0.093 C 
ATOM     16  C   UNL A   1      33.138  24.870  24.084  1.00  0.00     0.100 C 
ATOM     17  C   UNL A   1      32.150  22.438  25.086  1.00  0.00     0.167 C 
ATOM     18  C   UNL A   1      34.091  23.697  24.371  1.00  0.00     0.074 C 
ATOM     19  O   UNL A   1      33.331  22.486  24.279  1.00  0.00    -0.375 OA
ATOM     20  C   UNL A   1      34.780  23.836  25.754  1.00  0.00     0.036 C 
ATOM     21  C   UNL A   1      35.170  23.691  23.259  1.00  0.00     0.036 C 
ATOM     22  C   UNL A   1      35.903  22.833  25.980  1.00  0.00     0.003 C 
ATOM     23  C   UNL A   1      36.342  22.744  23.521  1.00  0.00     0.003 C 
ATOM     24  C   UNL A   1      36.959  22.963  24.896  1.00  0.00     0.000 C 
ENDBRANCH   9  14
ENDBRANCH   8   9
ENDBRANCH   6   8
ENDBRANCH   5   6
ENDBRANCH   4   5
ENDBRANCH   3   4
ENDBRANCH   2   3
ENDBRANCH   1   2
BRANCH   1  25
ATOM     25  C   UNL A   1      35.093  32.865  29.288  1.00  0.00     0.188 C 
BRANCH  25  26
ATOM     26  O   UNL A   1      35.288  34.233  29.013  1.00  0.00    -0.376 OA
BRANCH  26  27
ATOM     27  C   UNL A   1      34.228  34.984  28.462  1.00  0.00     0.202 C 
BRANCH  27  28
ATOM     28  C   UNL A   1      33.144  35.599  29.357  1.00  0.00     0.261 C 
BRANCH  28  29
ATOM     29  O   UNL A   1      32.799  34.894  30.557  1.00  0.00    -0.460 OA
BRANCH  29  30
ATOM     30  C   UNL A   1      33.043  35.520  31.731  1.00  0.00     0.338 C 
ATOM     31  O   UNL A   1      32.331  36.352  32.279  1.00  0.00    -0.246 OA
BRANCH  30  32
ATOM     32  C   UNL A   1      34.215  34.866  32.354  1.00  0.00     0.060 A 
ATOM     33  C   UNL A   1      35.488  35.428  32.189  1.00  0.00     0.016 A 
ATOM     34  C   UNL A   1      34.049  33.705  33.111  1.00  0.00     0.016 A 
ATOM     35  C   UNL A   1      36.605  34.807  32.753  1.00  0.00     0.010 A 
ATOM     36  C   UNL A   1      35.170  33.076  33.660  1.00  0.00     0.010 A 
ATOM     37  C   UNL A   1      36.458  33.604  33.456  1.00  0.00    -0.014 A 
BRANCH  37  38
ATOM     38  C   UNL A   1      37.653  32.799  33.821  1.00  0.00     0.031 A 
ATOM     39  C   UNL A   1      38.399  33.158  35.079  1.00  0.00     0.074 A 
ATOM     40  C   UNL A   1      38.066  31.768  33.061  1.00  0.00     0.049 A 
ATOM     41  N   UNL A   1      39.502  32.651  35.565  1.00  0.00    -0.248 NA
ATOM     42  C   UNL A   1      37.826  34.242  35.894  1.00  0.00     0.031 C 
ATOM     43  C   UNL A   1      37.415  31.303  31.837  1.00  0.00     0.029 A 
ATOM     44  N   UNL A   1      39.147  30.933  33.205  1.00  0.00    -0.354 N 
ATOM     45  C   UNL A   1      39.752  33.348  36.742  1.00  0.00     0.074 A 
ATOM     46  C   UNL A   1      38.712  34.346  36.872  1.00  0.00     0.031 C 
ATOM     47  C   UNL A   1      38.121  30.276  31.332  1.00  0.00     0.029 A 
ATOM     48  C   UNL A   1      39.289  30.031  32.176  1.00  0.00     0.049 A 
ATOM     49  H   UNL A   1      39.762  30.976  33.972  1.00  0.00     0.167 HD
ATOM     50  C   UNL A   1      40.745  33.163  37.644  1.00  0.00     0.037 A 
ATOM     51  C   UNL A   1      40.264  29.132  31.934  1.00  0.00     0.037 A 
ATOM     52  C   UNL A   1      41.784  32.175  37.507  1.00  0.00     0.049 A 
ATOM     53  C   UNL A   1      41.406  28.996  32.913  1.00  0.00     0.074 A 
ATOM     54  C   UNL A   1      42.840  31.912  38.363  1.00  0.00     0.029 A 
ATOM     55  N   UNL A   1      41.902  31.290  36.445  1.00  0.00    -0.354 N 
ATOM     56  N   UNL A   1      41.621  29.649  34.030  1.00  0.00    -0.248 NA
ATOM     57  C   UNL A   1      42.436  27.994  32.600  1.00  0.00     0.031 C 
ATOM     58  C   UNL A   1      43.623  30.903  37.795  1.00  0.00     0.029 A 
ATOM     59  C   UNL A   1      43.023  30.492  36.616  1.00  0.00     0.049 A 
ATOM     60  H   UNL A   1      41.282  31.237  35.683  1.00  0.00     0.167 HD
ATOM     61  C   UNL A   1      42.787  29.112  34.570  1.00  0.00     0.074 A 
ATOM     62  C   UNL A   1      43.224  28.071  33.663  1.00  0.00     0.031 C 
ATOM     63  C   UNL A   1      43.440  29.449  35.712  1.00  0.00     0.037 A 
BRANCH  50  64
ATOM     64  C   UNL A   1      40.761  34.056  38.855  1.00  0.00     0.058 A 
ATOM     65  C   UNL A   1      41.459  35.276  38.861  1.00  0.00     0.135 A 
ATOM     66  C   UNL A   1      40.040  33.711  40.010  1.00  0.00     0.135 A 
ATOM     67  F   UNL A   1      42.181  35.647  37.793  1.00  0.00    -0.206 F 
ATOM     68  C   UNL A   1      41.460  36.109  39.975  1.00  0.00     0.059 A 
ATOM     69  C   UNL A   1      40.002  34.544  41.126  1.00  0.00     0.059 A 
ATOM     70  F   UNL A   1      39.358  32.556  40.061  1.00  0.00    -0.206 F 
ATOM     71  C   UNL A   1      40.725  35.735  41.102  1.00  0.00     0.060 A 
BRANCH  71  72
ATOM     72  S   UNL A   1      40.727  36.836  42.533  1.00  0.00     0.124 S 
ATOM     73  O   UNL A   1      41.171  35.936  43.593  1.00  0.00    -0.237 OA
ATOM     74  O   UNL A   1      41.682  37.864  42.132  1.00  0.00    -0.237 OA
ATOM     75  O   UNL A   1      39.338  37.276  42.625  1.00  0.00    -0.744 OA
ENDBRANCH  71  72
ENDBRANCH  50  64
BRANCH  51  76
ATOM     76  C   UNL A   1      40.225  28.294  30.701  1.00  0.00     0.058 A 
ATOM     77  C   UNL A   1      39.344  27.210  30.584  1.00  0.00     0.135 A 
ATOM     78  C   UNL A   1      41.097  28.543  29.628  1.00  0.00     0.135 A 
ATOM     79  F   UNL A   1      38.498  26.921  31.585  1.00  0.00    -0.206 F 
ATOM     80  C   UNL A   1      39.346  26.383  29.464  1.00  0.00     0.059 A 
ATOM     81  C   UNL A   1      41.097  27.750  28.485  1.00  0.00     0.059 A 
ATOM     82  F   UNL A   1      41.956  29.571  29.683  1.00  0.00    -0.206 F 
ATOM     83  C   UNL A   1      40.228  26.662  28.419  1.00  0.00     0.060 A 
BRANCH  83  84
ATOM     84  S   UNL A   1      40.208  25.596  26.960  1.00  0.00     0.124 S 
ATOM     85  O   UNL A   1      40.672  26.510  25.923  1.00  0.00    -0.237 OA
ATOM     86  O   UNL A   1      41.139  24.539  27.343  1.00  0.00    -0.237 OA
ATOM     87  O   UNL A   1      38.811  25.186  26.861  1.00  0.00    -0.744 OA
ENDBRANCH  83  84
ENDBRANCH  51  76
BRANCH  63  88
ATOM     88  C   UNL A   1      44.666  28.652  36.076  1.00  0.00     0.058 A 
ATOM     89  C   UNL A   1      45.953  29.038  35.673  1.00  0.00     0.135 A 
ATOM     90  C   UNL A   1      44.551  27.500  36.874  1.00  0.00     0.135 A 
ATOM     91  F   UNL A   1      46.124  30.129  34.908  1.00  0.00    -0.206 F 
ATOM     92  C   UNL A   1      47.078  28.293  36.016  1.00  0.00     0.059 A 
ATOM     93  C   UNL A   1      45.664  26.759  37.257  1.00  0.00     0.059 A 
ATOM     94  F   UNL A   1      43.346  27.090  37.301  1.00  0.00    -0.206 F 
ATOM     95  C   UNL A   1      46.923  27.154  36.808  1.00  0.00     0.060 A 
BRANCH  95  96
ATOM     96  S   UNL A   1      48.393  26.206  37.257  1.00  0.00     0.124 S 
ATOM     97  O   UNL A   1      47.955  24.840  36.992  1.00  0.00    -0.237 OA
ATOM     98  O   UNL A   1      49.399  26.738  36.345  1.00  0.00    -0.237 OA
ATOM     99  O   UNL A   1      48.595  26.538  38.665  1.00  0.00    -0.744 OA
ENDBRANCH  95  96
ENDBRANCH  63  88
ENDBRANCH  37  38
ENDBRANCH  30  32
ENDBRANCH  29  30
ENDBRANCH  28  29
ENDBRANCH  27  28
ENDBRANCH  26  27
ENDBRANCH  25  26
ENDBRANCH   1  25
TORSDOF 24
ENDMDL
