MODEL 1
REMARK VINA RESULT:     -10.1      0.000      0.000
REMARK SMILES CC[NH+]1CCN(c2ccc(NC(=O)C3CCCC3)c(C(=O)OCCOCCOCCOC(=O)c3ccc(-c4c5nc(c(-c6c(F)cc(S(=O)(=O)[O-])cc6F)c6ccc([nH]6)c(-c6c(F)cc(S(=O)(=O)[O-])cc6F)c6nc(c(-c7c(F)cc(S(=O)(=O)[O-])cc7F)c7ccc4[nH]7)C=C6)C=C5)cc3)c2)CC1
REMARK SMILES IDX 27 1 26 2 25 3 24 4 23 5 22 6 20 7 21 8 19 9 7 10 8 11
REMARK SMILES IDX 100 12 9 13 10 14 6 15 3 16 4 17 102 18 5 20 101 21 2 22
REMARK SMILES IDX 1 23 11 24 12 25 13 27 14 28 15 29 18 30 16 31 17 32 28 33
REMARK SMILES IDX 29 34 30 35 31 36 32 37 33 38 34 39 35 40 99 41 36 42 98 43
REMARK SMILES IDX 37 44 38 45 39 46 92 47 40 48 97 49 91 50 93 51 41 52 96 53
REMARK SMILES IDX 90 54 89 55 42 57 76 58 55 59 75 60 56 61 59 62 74 63 94 64
REMARK SMILES IDX 57 65 58 66 73 68 95 69 60 70 43 71 44 72 53 73 45 74 46 75
REMARK SMILES IDX 52 76 54 77 47 78 48 79 49 80 50 81 51 82 77 83 78 84 87 85
REMARK SMILES IDX 79 86 80 87 86 88 88 89 81 90 82 91 83 92 84 93 85 94 61 95
REMARK SMILES IDX 62 96 71 97 63 98 64 99 70 100 72 101 65 102 66 103 67 104
REMARK SMILES IDX 68 105 69 106
REMARK H PARENT 3 19 11 26 93 56 59 67
REMARK Flexibility Score: inf
ROOT
ATOM      1  C   UNL A   1      34.755  30.959  28.119  1.00  0.00     0.188 C 
ENDROOT
BRANCH   1   2
ATOM      2  C   UNL A   1      33.831  30.597  26.937  1.00  0.00     0.188 C 
BRANCH   2   3
ATOM      3  O   UNL A   1      32.434  30.489  27.121  1.00  0.00    -0.376 OA
BRANCH   3   4
ATOM      4  C   UNL A   1      31.754  29.297  26.771  1.00  0.00     0.202 C 
BRANCH   4   5
ATOM      5  C   UNL A   1      32.046  27.963  27.469  1.00  0.00     0.261 C 
BRANCH   5   6
ATOM      6  O   UNL A   1      32.296  26.866  26.579  1.00  0.00    -0.460 OA
BRANCH   6   7
ATOM      7  C   UNL A   1      31.249  26.012  26.386  1.00  0.00     0.340 C 
ATOM      8  O   UNL A   1      30.141  26.097  26.864  1.00  0.00    -0.246 OA
BRANCH   7   9
ATOM      9  C   UNL A   1      31.609  25.069  25.300  1.00  0.00     0.085 A 
ATOM     10  C   UNL A   1      33.305  23.584  24.332  1.00  0.00     0.038 A 
ATOM     11  C   UNL A   1      32.513  23.548  23.184  1.00  0.00     0.028 A 
ATOM     12  C   UNL A   1      32.849  24.407  25.368  1.00  0.00     0.043 A 
ATOM     13  C   UNL A   1      31.292  24.223  23.100  1.00  0.00     0.029 A 
ATOM     14  C   UNL A   1      30.764  24.904  24.191  1.00  0.00     0.055 A 
BRANCH  10  15
ATOM     15  N   UNL A   1      34.491  22.891  24.415  1.00  0.00    -0.360 N 
ATOM     16  N   UNL A   1      37.080  21.893  25.383  1.00  0.00    -0.332 N 
ATOM     17  C   UNL A   1      36.907  23.230  24.773  1.00  0.00     0.283 C 
ATOM     18  C   UNL A   1      35.781  21.456  25.954  1.00  0.00     0.283 C 
ATOM     19  H   UNL A   1      37.771  21.956  26.132  1.00  0.00     0.348 HD
ATOM     20  C   UNL A   1      35.731  23.361  23.780  1.00  0.00     0.178 C 
ATOM     21  C   UNL A   1      34.577  21.540  24.985  1.00  0.00     0.178 C 
BRANCH  16  22
ATOM     22  C   UNL A   1      37.615  20.916  24.431  1.00  0.00     0.258 C 
ATOM     23  C   UNL A   1      37.385  19.522  24.996  1.00  0.00     0.071 C 
ENDBRANCH  16  22
ENDBRANCH  10  15
BRANCH  14  24
ATOM     24  N   UNL A   1      29.464  25.453  24.188  1.00  0.00    -0.325 N 
ATOM     25  C   UNL A   1      28.945  26.630  23.712  1.00  0.00     0.227 C 
ATOM     26  H   UNL A   1      28.791  24.873  24.613  1.00  0.00     0.169 HD
ATOM     27  O   UNL A   1      27.773  26.884  23.997  1.00  0.00    -0.274 OA
BRANCH  25  28
ATOM     28  C   UNL A   1      29.773  27.571  22.850  1.00  0.00     0.079 C 
ATOM     29  C   UNL A   1      29.074  28.899  22.550  1.00  0.00     0.013 C 
ATOM     30  C   UNL A   1      31.067  28.068  23.502  1.00  0.00     0.013 C 
ATOM     31  C   UNL A   1      30.185  29.739  21.946  1.00  0.00     0.001 C 
ATOM     32  C   UNL A   1      31.443  29.322  22.704  1.00  0.00     0.001 C 
ENDBRANCH  25  28
ENDBRANCH  14  24
ENDBRANCH   7   9
ENDBRANCH   6   7
ENDBRANCH   5   6
ENDBRANCH   4   5
ENDBRANCH   3   4
ENDBRANCH   2   3
ENDBRANCH   1   2
BRANCH   1  33
ATOM     33  O   UNL A   1      35.296  32.256  28.258  1.00  0.00    -0.376 OA
BRANCH  33  34
ATOM     34  C   UNL A   1      35.106  32.981  29.460  1.00  0.00     0.202 C 
BRANCH  34  35
ATOM     35  C   UNL A   1      35.384  32.373  30.840  1.00  0.00     0.261 C 
BRANCH  35  36
ATOM     36  O   UNL A   1      36.256  31.238  30.857  1.00  0.00    -0.460 OA
BRANCH  36  37
ATOM     37  C   UNL A   1      37.363  31.378  31.631  1.00  0.00     0.338 C 
ATOM     38  O   UNL A   1      37.422  31.834  32.758  1.00  0.00    -0.246 OA
BRANCH  37  39
ATOM     39  C   UNL A   1      38.506  30.729  30.966  1.00  0.00     0.060 A 
ATOM     40  C   UNL A   1      39.590  30.307  31.749  1.00  0.00     0.016 A 
ATOM     41  C   UNL A   1      38.534  30.597  29.578  1.00  0.00     0.016 A 
ATOM     42  C   UNL A   1      40.725  29.775  31.140  1.00  0.00     0.010 A 
ATOM     43  C   UNL A   1      39.681  30.086  28.968  1.00  0.00     0.010 A 
ATOM     44  C   UNL A   1      40.792  29.705  29.742  1.00  0.00    -0.014 A 
BRANCH  44  45
ATOM     45  C   UNL A   1      42.083  29.424  29.068  1.00  0.00     0.031 A 
ATOM     46  C   UNL A   1      42.340  28.025  28.580  1.00  0.00     0.074 A 
ATOM     47  C   UNL A   1      43.013  30.381  28.909  1.00  0.00     0.049 A 
ATOM     48  N   UNL A   1      43.429  27.506  28.078  1.00  0.00    -0.248 NA
ATOM     49  C   UNL A   1      41.212  27.083  28.677  1.00  0.00     0.031 C 
ATOM     50  C   UNL A   1      42.858  31.783  29.286  1.00  0.00     0.029 A 
ATOM     51  N   UNL A   1      44.287  30.306  28.400  1.00  0.00    -0.354 N 
ATOM     52  C   UNL A   1      43.127  26.175  27.816  1.00  0.00     0.074 A 
ATOM     53  C   UNL A   1      41.758  25.960  28.232  1.00  0.00     0.031 C 
ATOM     54  C   UNL A   1      44.003  32.435  29.018  1.00  0.00     0.029 A 
ATOM     55  C   UNL A   1      44.983  31.488  28.491  1.00  0.00     0.049 A 
ATOM     56  H   UNL A   1      44.665  29.485  28.009  1.00  0.00     0.167 HD
ATOM     57  C   UNL A   1      43.919  25.220  27.276  1.00  0.00     0.037 A 
ATOM     58  C   UNL A   1      46.274  31.762  28.209  1.00  0.00     0.037 A 
ATOM     59  C   UNL A   1      45.282  25.442  26.870  1.00  0.00     0.049 A 
ATOM     60  C   UNL A   1      47.163  30.664  27.679  1.00  0.00     0.074 A 
ATOM     61  C   UNL A   1      46.169  24.542  26.307  1.00  0.00     0.029 A 
ATOM     62  N   UNL A   1      45.958  26.647  26.992  1.00  0.00    -0.354 N 
ATOM     63  N   UNL A   1      46.866  29.410  27.427  1.00  0.00    -0.248 NA
ATOM     64  C   UNL A   1      48.561  31.015  27.393  1.00  0.00     0.031 C 
ATOM     65  C   UNL A   1      47.397  25.189  26.134  1.00  0.00     0.029 A 
ATOM     66  C   UNL A   1      47.257  26.509  26.533  1.00  0.00     0.049 A 
ATOM     67  H   UNL A   1      45.571  27.478  27.351  1.00  0.00     0.167 HD
ATOM     68  C   UNL A   1      48.028  28.837  26.919  1.00  0.00     0.074 A 
ATOM     69  C   UNL A   1      49.033  29.879  26.900  1.00  0.00     0.031 C 
ATOM     70  C   UNL A   1      48.241  27.563  26.499  1.00  0.00     0.037 A 
BRANCH  57  71
ATOM     71  C   UNL A   1      43.341  23.840  27.128  1.00  0.00     0.058 A 
ATOM     72  C   UNL A   1      42.976  23.320  25.877  1.00  0.00     0.135 A 
ATOM     73  C   UNL A   1      43.169  23.018  28.254  1.00  0.00     0.135 A 
ATOM     74  F   UNL A   1      43.099  24.069  24.770  1.00  0.00    -0.206 F 
ATOM     75  C   UNL A   1      42.435  22.043  25.750  1.00  0.00     0.059 A 
ATOM     76  C   UNL A   1      42.658  21.729  28.147  1.00  0.00     0.059 A 
ATOM     77  F   UNL A   1      43.498  23.467  29.476  1.00  0.00    -0.206 F 
ATOM     78  C   UNL A   1      42.280  21.256  26.892  1.00  0.00     0.060 A 
BRANCH  78  79
ATOM     79  S   UNL A   1      41.576  19.603  26.711  1.00  0.00     0.124 S 
ATOM     80  O   UNL A   1      40.210  19.815  27.182  1.00  0.00    -0.237 OA
ATOM     81  O   UNL A   1      41.721  19.359  25.279  1.00  0.00    -0.237 OA
ATOM     82  O   UNL A   1      42.416  18.779  27.573  1.00  0.00    -0.744 OA
ENDBRANCH  78  79
ENDBRANCH  57  71
BRANCH  58  83
ATOM     83  C   UNL A   1      46.811  33.131  28.436  1.00  0.00     0.058 A 
ATOM     84  C   UNL A   1      47.357  33.499  29.674  1.00  0.00     0.135 A 
ATOM     85  C   UNL A   1      46.784  34.102  27.422  1.00  0.00     0.135 A 
ATOM     86  F   UNL A   1      47.392  32.612  30.682  1.00  0.00    -0.206 F 
ATOM     87  C   UNL A   1      47.843  34.783  29.906  1.00  0.00     0.059 A 
ATOM     88  C   UNL A   1      47.287  35.385  27.621  1.00  0.00     0.059 A 
ATOM     89  F   UNL A   1      46.273  33.803  26.218  1.00  0.00    -0.206 F 
ATOM     90  C   UNL A   1      47.805  35.719  28.871  1.00  0.00     0.060 A 
BRANCH  90  91
ATOM     91  S   UNL A   1      48.467  37.372  29.175  1.00  0.00     0.124 S 
ATOM     92  O   UNL A   1      49.037  37.220  30.509  1.00  0.00    -0.237 OA
ATOM     93  O   UNL A   1      49.427  37.526  28.086  1.00  0.00    -0.237 OA
ATOM     94  O   UNL A   1      47.289  38.230  29.089  1.00  0.00    -0.744 OA
ENDBRANCH  90  91
ENDBRANCH  58  83
BRANCH  70  95
ATOM     95  C   UNL A   1      49.590  27.229  25.922  1.00  0.00     0.058 A 
ATOM     96  C   UNL A   1      49.875  27.381  24.557  1.00  0.00     0.135 A 
ATOM     97  C   UNL A   1      50.638  26.831  26.769  1.00  0.00     0.135 A 
ATOM     98  F   UNL A   1      48.910  27.754  23.702  1.00  0.00    -0.206 F 
ATOM     99  C   UNL A   1      51.149  27.138  24.049  1.00  0.00     0.059 A 
ATOM    100  C   UNL A   1      51.926  26.610  26.289  1.00  0.00     0.059 A 
ATOM    101  F   UNL A   1      50.424  26.682  28.087  1.00  0.00    -0.206 F 
ATOM    102  C   UNL A   1      52.170  26.758  24.924  1.00  0.00     0.060 A 
BRANCH 102 103
ATOM    103  S   UNL A   1      53.829  26.501  24.262  1.00  0.00     0.124 S 
ATOM    104  O   UNL A   1      53.538  25.992  22.927  1.00  0.00    -0.237 OA
ATOM    105  O   UNL A   1      54.401  27.843  24.320  1.00  0.00    -0.237 OA
ATOM    106  O   UNL A   1      54.418  25.536  25.186  1.00  0.00    -0.744 OA
ENDBRANCH 102 103
ENDBRANCH  70  95
ENDBRANCH  44  45
ENDBRANCH  37  39
ENDBRANCH  36  37
ENDBRANCH  35  36
ENDBRANCH  34  35
ENDBRANCH  33  34
ENDBRANCH   1  33
TORSDOF 24
ENDMDL
MODEL 2
REMARK VINA RESULT:      -9.9      5.860     11.528
REMARK SMILES CC[NH+]1CCN(c2ccc(NC(=O)C3CCCC3)c(C(=O)OCCOCCOCCOC(=O)c3ccc(-c4c5nc(c(-c6c(F)cc(S(=O)(=O)[O-])cc6F)c6ccc([nH]6)c(-c6c(F)cc(S(=O)(=O)[O-])cc6F)c6nc(c(-c7c(F)cc(S(=O)(=O)[O-])cc7F)c7ccc4[nH]7)C=C6)C=C5)cc3)c2)CC1
REMARK SMILES IDX 27 1 26 2 25 3 24 4 23 5 22 6 20 7 21 8 19 9 7 10 8 11
REMARK SMILES IDX 100 12 9 13 10 14 6 15 3 16 4 17 102 18 5 20 101 21 2 22
REMARK SMILES IDX 1 23 11 24 12 25 13 27 14 28 15 29 18 30 16 31 17 32 28 33
REMARK SMILES IDX 29 34 30 35 31 36 32 37 33 38 34 39 35 40 99 41 36 42 98 43
REMARK SMILES IDX 37 44 38 45 39 46 92 47 40 48 97 49 91 50 93 51 41 52 96 53
REMARK SMILES IDX 90 54 89 55 42 57 76 58 55 59 75 60 56 61 59 62 74 63 94 64
REMARK SMILES IDX 57 65 58 66 73 68 95 69 60 70 43 71 44 72 53 73 45 74 46 75
REMARK SMILES IDX 52 76 54 77 47 78 48 79 49 80 50 81 51 82 77 83 78 84 87 85
REMARK SMILES IDX 79 86 80 87 86 88 88 89 81 90 82 91 83 92 84 93 85 94 61 95
REMARK SMILES IDX 62 96 71 97 63 98 64 99 70 100 72 101 65 102 66 103 67 104
REMARK SMILES IDX 68 105 69 106
REMARK H PARENT 3 19 11 26 93 56 59 67
REMARK Flexibility Score: inf
ROOT
ATOM      1  C   UNL A   1      45.168  19.796  24.239  1.00  0.00     0.188 C 
ENDROOT
BRANCH   1   2
ATOM      2  C   UNL A   1      44.250  18.852  25.045  1.00  0.00     0.188 C 
BRANCH   2   3
ATOM      3  O   UNL A   1      42.863  19.101  25.139  1.00  0.00    -0.376 OA
BRANCH   3   4
ATOM      4  C   UNL A   1      42.357  19.973  26.135  1.00  0.00     0.202 C 
BRANCH   4   5
ATOM      5  C   UNL A   1      42.383  21.497  25.967  1.00  0.00     0.261 C 
BRANCH   5   6
ATOM      6  O   UNL A   1      43.136  22.194  26.969  1.00  0.00    -0.460 OA
BRANCH   6   7
ATOM      7  C   UNL A   1      42.419  22.651  28.036  1.00  0.00     0.340 C 
ATOM      8  O   UNL A   1      41.359  22.229  28.437  1.00  0.00    -0.246 OA
BRANCH   7   9
ATOM      9  C   UNL A   1      43.259  23.616  28.785  1.00  0.00     0.085 A 
ATOM     10  C   UNL A   1      44.195  24.294  30.949  1.00  0.00     0.038 A 
ATOM     11  C   UNL A   1      44.532  25.504  30.342  1.00  0.00     0.028 A 
ATOM     12  C   UNL A   1      43.501  23.378  30.151  1.00  0.00     0.043 A 
ATOM     13  C   UNL A   1      44.272  25.758  28.992  1.00  0.00     0.029 A 
ATOM     14  C   UNL A   1      43.733  24.782  28.162  1.00  0.00     0.055 A 
BRANCH  10  15
ATOM     15  N   UNL A   1      44.483  24.043  32.271  1.00  0.00    -0.360 N 
ATOM     16  N   UNL A   1      44.462  24.175  35.207  1.00  0.00    -0.332 N 
ATOM     17  C   UNL A   1      45.133  25.184  34.358  1.00  0.00     0.283 C 
ATOM     18  C   UNL A   1      43.382  23.530  34.419  1.00  0.00     0.283 C 
ATOM     19  H   UNL A   1      44.054  24.641  36.018  1.00  0.00     0.348 HD
ATOM     20  C   UNL A   1      45.604  24.684  32.974  1.00  0.00     0.178 C 
ATOM     21  C   UNL A   1      43.813  22.984  33.037  1.00  0.00     0.178 C 
BRANCH  16  22
ATOM     22  C   UNL A   1      45.407  23.193  35.747  1.00  0.00     0.258 C 
ATOM     23  C   UNL A   1      46.435  23.933  36.591  1.00  0.00     0.071 C 
ENDBRANCH  16  22
ENDBRANCH  10  15
BRANCH  14  24
ATOM     24  N   UNL A   1      43.613  24.953  26.766  1.00  0.00    -0.325 N 
ATOM     25  C   UNL A   1      42.899  25.827  25.987  1.00  0.00     0.227 C 
ATOM     26  H   UNL A   1      44.152  24.314  26.244  1.00  0.00     0.169 HD
ATOM     27  O   UNL A   1      42.895  25.622  24.772  1.00  0.00    -0.274 OA
BRANCH  25  28
ATOM     28  C   UNL A   1      42.163  27.012  26.594  1.00  0.00     0.079 C 
ATOM     29  C   UNL A   1      41.810  28.098  25.576  1.00  0.00     0.013 C 
ATOM     30  C   UNL A   1      40.778  26.686  27.160  1.00  0.00     0.013 C 
ATOM     31  C   UNL A   1      40.862  28.995  26.352  1.00  0.00     0.001 C 
ATOM     32  C   UNL A   1      40.067  28.041  27.242  1.00  0.00     0.001 C 
ENDBRANCH  25  28
ENDBRANCH  14  24
ENDBRANCH   7   9
ENDBRANCH   6   7
ENDBRANCH   5   6
ENDBRANCH   4   5
ENDBRANCH   3   4
ENDBRANCH   2   3
ENDBRANCH   1   2
BRANCH   1  33
ATOM     33  O   UNL A   1      46.076  20.665  24.883  1.00  0.00    -0.376 OA
BRANCH  33  34
ATOM     34  C   UNL A   1      46.223  22.000  24.435  1.00  0.00     0.202 C 
BRANCH  34  35
ATOM     35  C   UNL A   1      46.298  23.189  25.401  1.00  0.00     0.261 C 
BRANCH  35  36
ATOM     36  O   UNL A   1      46.155  24.484  24.807  1.00  0.00    -0.460 OA
BRANCH  36  37
ATOM     37  C   UNL A   1      47.193  25.331  25.025  1.00  0.00     0.338 C 
ATOM     38  O   UNL A   1      48.321  25.248  24.573  1.00  0.00    -0.246 OA
BRANCH  37  39
ATOM     39  C   UNL A   1      46.716  26.502  25.781  1.00  0.00     0.060 A 
ATOM     40  C   UNL A   1      45.910  27.444  25.126  1.00  0.00     0.016 A 
ATOM     41  C   UNL A   1      47.112  26.698  27.104  1.00  0.00     0.016 A 
ATOM     42  C   UNL A   1      45.520  28.607  25.787  1.00  0.00     0.010 A 
ATOM     43  C   UNL A   1      46.740  27.875  27.756  1.00  0.00     0.010 A 
ATOM     44  C   UNL A   1      45.972  28.848  27.091  1.00  0.00    -0.014 A 
BRANCH  44  45
ATOM     45  C   UNL A   1      45.820  30.191  27.700  1.00  0.00     0.031 A 
ATOM     46  C   UNL A   1      44.576  30.474  28.496  1.00  0.00     0.074 A 
ATOM     47  C   UNL A   1      46.753  31.145  27.537  1.00  0.00     0.049 A 
ATOM     48  N   UNL A   1      44.158  31.598  29.016  1.00  0.00    -0.248 NA
ATOM     49  C   UNL A   1      43.679  29.330  28.733  1.00  0.00     0.031 C 
ATOM     50  C   UNL A   1      48.024  30.974  26.839  1.00  0.00     0.029 A 
ATOM     51  N   UNL A   1      46.761  32.459  27.937  1.00  0.00    -0.354 N 
ATOM     52  C   UNL A   1      42.944  31.303  29.624  1.00  0.00     0.074 A 
ATOM     53  C   UNL A   1      42.682  29.899  29.394  1.00  0.00     0.031 C 
ATOM     54  C   UNL A   1      48.681  32.148  26.838  1.00  0.00     0.029 A 
ATOM     55  C   UNL A   1      47.858  33.160  27.497  1.00  0.00     0.049 A 
ATOM     56  H   UNL A   1      46.048  32.860  28.486  1.00  0.00     0.167 HD
ATOM     57  C   UNL A   1      42.123  32.129  30.314  1.00  0.00     0.037 A 
ATOM     58  C   UNL A   1      48.148  34.474  27.591  1.00  0.00     0.037 A 
ATOM     59  C   UNL A   1      42.389  33.526  30.533  1.00  0.00     0.049 A 
ATOM     60  C   UNL A   1      47.182  35.393  28.298  1.00  0.00     0.074 A 
ATOM     61  C   UNL A   1      41.624  34.450  31.224  1.00  0.00     0.029 A 
ATOM     62  N   UNL A   1      43.503  34.204  30.059  1.00  0.00    -0.354 N 
ATOM     63  N   UNL A   1      46.040  35.104  28.877  1.00  0.00    -0.248 NA
ATOM     64  C   UNL A   1      47.543  36.816  28.366  1.00  0.00     0.031 C 
ATOM     65  C   UNL A   1      42.250  35.696  31.125  1.00  0.00     0.029 A 
ATOM     66  C   UNL A   1      43.435  35.538  30.425  1.00  0.00     0.049 A 
ATOM     67  H   UNL A   1      44.233  33.796  29.541  1.00  0.00     0.167 HD
ATOM     68  C   UNL A   1      45.568  36.301  29.410  1.00  0.00     0.074 A 
ATOM     69  C   UNL A   1      46.547  37.317  29.084  1.00  0.00     0.031 C 
ATOM     70  C   UNL A   1      44.430  36.535  30.112  1.00  0.00     0.037 A 
BRANCH  57  71
ATOM     71  C   UNL A   1      40.843  31.549  30.848  1.00  0.00     0.058 A 
ATOM     72  C   UNL A   1      39.606  31.789  30.230  1.00  0.00     0.135 A 
ATOM     73  C   UNL A   1      40.857  30.723  31.984  1.00  0.00     0.135 A 
ATOM     74  F   UNL A   1      39.530  32.587  29.154  1.00  0.00    -0.206 F 
ATOM     75  C   UNL A   1      38.424  31.254  30.736  1.00  0.00     0.059 A 
ATOM     76  C   UNL A   1      39.693  30.154  32.490  1.00  0.00     0.059 A 
ATOM     77  F   UNL A   1      42.012  30.464  32.617  1.00  0.00    -0.206 F 
ATOM     78  C   UNL A   1      38.479  30.437  31.867  1.00  0.00     0.060 A 
BRANCH  78  79
ATOM     79  S   UNL A   1      36.938  29.751  32.510  1.00  0.00     0.124 S 
ATOM     80  O   UNL A   1      36.321  30.932  33.108  1.00  0.00    -0.237 OA
ATOM     81  O   UNL A   1      36.295  29.244  31.302  1.00  0.00    -0.237 OA
ATOM     82  O   UNL A   1      37.386  28.733  33.453  1.00  0.00    -0.744 OA
ENDBRANCH  78  79
ENDBRANCH  57  71
BRANCH  58  83
ATOM     83  C   UNL A   1      49.399  35.006  26.986  1.00  0.00     0.058 A 
ATOM     84  C   UNL A   1      49.458  35.349  25.627  1.00  0.00     0.135 A 
ATOM     85  C   UNL A   1      50.563  35.177  27.752  1.00  0.00     0.135 A 
ATOM     86  F   UNL A   1      48.378  35.189  24.847  1.00  0.00    -0.206 F 
ATOM     87  C   UNL A   1      50.629  35.827  25.045  1.00  0.00     0.059 A 
ATOM     88  C   UNL A   1      51.739  35.677  27.200  1.00  0.00     0.059 A 
ATOM     89  F   UNL A   1      50.561  34.865  29.057  1.00  0.00    -0.206 F 
ATOM     90  C   UNL A   1      51.764  35.989  25.841  1.00  0.00     0.060 A 
BRANCH  90  91
ATOM     91  S   UNL A   1      53.269  36.640  25.080  1.00  0.00     0.124 S 
ATOM     92  O   UNL A   1      52.841  36.828  23.699  1.00  0.00    -0.237 OA
ATOM     93  O   UNL A   1      53.499  37.861  25.847  1.00  0.00    -0.237 OA
ATOM     94  O   UNL A   1      54.245  35.577  25.298  1.00  0.00    -0.744 OA
ENDBRANCH  90  91
ENDBRANCH  58  83
BRANCH  70  95
ATOM     95  C   UNL A   1      44.200  37.927  30.636  1.00  0.00     0.058 A 
ATOM     96  C   UNL A   1      43.606  38.928  29.852  1.00  0.00     0.135 A 
ATOM     97  C   UNL A   1      44.501  38.234  31.973  1.00  0.00     0.135 A 
ATOM     98  F   UNL A   1      43.302  38.690  28.567  1.00  0.00    -0.206 F 
ATOM     99  C   UNL A   1      43.333  40.190  30.373  1.00  0.00     0.059 A 
ATOM    100  C   UNL A   1      44.210  39.479  32.522  1.00  0.00     0.059 A 
ATOM    101  F   UNL A   1      45.059  37.308  32.771  1.00  0.00    -0.206 F 
ATOM    102  C   UNL A   1      43.632  40.455  31.711  1.00  0.00     0.060 A 
BRANCH 102 103
ATOM    103  S   UNL A   1      43.220  42.076  32.389  1.00  0.00     0.124 S 
ATOM    104  O   UNL A   1      42.693  42.762  31.215  1.00  0.00    -0.237 OA
ATOM    105  O   UNL A   1      42.242  41.744  33.422  1.00  0.00    -0.237 OA
ATOM    106  O   UNL A   1      44.500  42.574  32.885  1.00  0.00    -0.744 OA
ENDBRANCH 102 103
ENDBRANCH  70  95
ENDBRANCH  44  45
ENDBRANCH  37  39
ENDBRANCH  36  37
ENDBRANCH  35  36
ENDBRANCH  34  35
ENDBRANCH  33  34
ENDBRANCH   1  33
TORSDOF 24
ENDMDL
MODEL 3
REMARK VINA RESULT:      -9.8      6.402     13.803
REMARK SMILES CC[NH+]1CCN(c2ccc(NC(=O)C3CCCC3)c(C(=O)OCCOCCOCCOC(=O)c3ccc(-c4c5nc(c(-c6c(F)cc(S(=O)(=O)[O-])cc6F)c6ccc([nH]6)c(-c6c(F)cc(S(=O)(=O)[O-])cc6F)c6nc(c(-c7c(F)cc(S(=O)(=O)[O-])cc7F)c7ccc4[nH]7)C=C6)C=C5)cc3)c2)CC1
REMARK SMILES IDX 27 1 26 2 25 3 24 4 23 5 22 6 20 7 21 8 19 9 7 10 8 11
REMARK SMILES IDX 100 12 9 13 10 14 6 15 3 16 4 17 102 18 5 20 101 21 2 22
REMARK SMILES IDX 1 23 11 24 12 25 13 27 14 28 15 29 18 30 16 31 17 32 28 33
REMARK SMILES IDX 29 34 30 35 31 36 32 37 33 38 34 39 35 40 99 41 36 42 98 43
REMARK SMILES IDX 37 44 38 45 39 46 92 47 40 48 97 49 91 50 93 51 41 52 96 53
REMARK SMILES IDX 90 54 89 55 42 57 76 58 55 59 75 60 56 61 59 62 74 63 94 64
REMARK SMILES IDX 57 65 58 66 73 68 95 69 60 70 43 71 44 72 53 73 45 74 46 75
REMARK SMILES IDX 52 76 54 77 47 78 48 79 49 80 50 81 51 82 77 83 78 84 87 85
REMARK SMILES IDX 79 86 80 87 86 88 88 89 81 90 82 91 83 92 84 93 85 94 61 95
REMARK SMILES IDX 62 96 71 97 63 98 64 99 70 100 72 101 65 102 66 103 67 104
REMARK SMILES IDX 68 105 69 106
REMARK H PARENT 3 19 11 26 93 56 59 67
REMARK Flexibility Score: inf
ROOT
ATOM      1  C   UNL A   1      47.450  26.662  25.388  1.00  0.00     0.188 C 
ENDROOT
BRANCH   1   2
ATOM      2  C   UNL A   1      48.771  25.882  25.563  1.00  0.00     0.188 C 
BRANCH   2   3
ATOM      3  O   UNL A   1      49.686  26.233  26.579  1.00  0.00    -0.376 OA
BRANCH   3   4
ATOM      4  C   UNL A   1      49.281  27.060  27.656  1.00  0.00     0.202 C 
BRANCH   4   5
ATOM      5  C   UNL A   1      48.651  26.482  28.929  1.00  0.00     0.261 C 
BRANCH   5   6
ATOM      6  O   UNL A   1      47.524  25.624  28.700  1.00  0.00    -0.460 OA
BRANCH   6   7
ATOM      7  C   UNL A   1      46.300  26.188  28.911  1.00  0.00     0.340 C 
ATOM      8  O   UNL A   1      45.927  27.279  28.546  1.00  0.00    -0.246 OA
BRANCH   7   9
ATOM      9  C   UNL A   1      45.398  25.152  29.469  1.00  0.00     0.085 A 
ATOM     10  C   UNL A   1      43.579  23.558  29.056  1.00  0.00     0.038 A 
ATOM     11  C   UNL A   1      43.462  23.445  30.442  1.00  0.00     0.028 A 
ATOM     12  C   UNL A   1      44.532  24.472  28.592  1.00  0.00     0.043 A 
ATOM     13  C   UNL A   1      44.302  24.136  31.319  1.00  0.00     0.029 A 
ATOM     14  C   UNL A   1      45.355  24.914  30.852  1.00  0.00     0.055 A 
BRANCH  10  15
ATOM     15  N   UNL A   1      42.767  22.850  28.201  1.00  0.00    -0.360 N 
ATOM     16  N   UNL A   1      41.128  22.113  25.875  1.00  0.00    -0.332 N 
ATOM     17  C   UNL A   1      40.665  23.044  26.927  1.00  0.00     0.283 C 
ATOM     18  C   UNL A   1      42.613  22.124  25.848  1.00  0.00     0.283 C 
ATOM     19  H   UNL A   1      40.774  22.427  24.971  1.00  0.00     0.348 HD
ATOM     20  C   UNL A   1      41.301  22.846  28.321  1.00  0.00     0.178 C 
ATOM     21  C   UNL A   1      43.296  21.897  27.217  1.00  0.00     0.178 C 
BRANCH  16  22
ATOM     22  C   UNL A   1      40.594  20.761  26.061  1.00  0.00     0.258 C 
ATOM     23  C   UNL A   1      39.083  20.815  25.886  1.00  0.00     0.071 C 
ENDBRANCH  16  22
ENDBRANCH  10  15
BRANCH  14  24
ATOM     24  N   UNL A   1      46.316  25.488  31.712  1.00  0.00    -0.325 N 
ATOM     25  C   UNL A   1      46.641  25.276  33.028  1.00  0.00     0.227 C 
ATOM     26  H   UNL A   1      46.866  26.182  31.280  1.00  0.00     0.169 HD
ATOM     27  O   UNL A   1      47.448  26.055  33.539  1.00  0.00    -0.274 OA
BRANCH  25  28
ATOM     28  C   UNL A   1      46.049  24.117  33.815  1.00  0.00     0.079 C 
ATOM     29  C   UNL A   1      47.064  23.408  34.714  1.00  0.00     0.013 C 
ATOM     30  C   UNL A   1      44.984  24.514  34.841  1.00  0.00     0.013 C 
ATOM     31  C   UNL A   1      46.189  22.515  35.575  1.00  0.00     0.001 C 
ATOM     32  C   UNL A   1      44.915  23.325  35.805  1.00  0.00     0.001 C 
ENDBRANCH  25  28
ENDBRANCH  14  24
ENDBRANCH   7   9
ENDBRANCH   6   7
ENDBRANCH   5   6
ENDBRANCH   4   5
ENDBRANCH   3   4
ENDBRANCH   2   3
ENDBRANCH   1   2
BRANCH   1  33
ATOM     33  O   UNL A   1      46.404  26.164  24.580  1.00  0.00    -0.376 OA
BRANCH  33  34
ATOM     34  C   UNL A   1      45.566  25.128  25.061  1.00  0.00     0.202 C 
BRANCH  34  35
ATOM     35  C   UNL A   1      44.037  25.205  24.986  1.00  0.00     0.261 C 
BRANCH  35  36
ATOM     36  O   UNL A   1      43.470  26.510  25.142  1.00  0.00    -0.460 OA
BRANCH  36  37
ATOM     37  C   UNL A   1      42.198  26.529  25.618  1.00  0.00     0.338 C 
ATOM     38  O   UNL A   1      41.201  26.084  25.078  1.00  0.00    -0.246 OA
BRANCH  37  39
ATOM     39  C   UNL A   1      42.204  27.033  27.002  1.00  0.00     0.060 A 
ATOM     40  C   UNL A   1      41.472  26.339  27.975  1.00  0.00     0.016 A 
ATOM     41  C   UNL A   1      42.873  28.215  27.320  1.00  0.00     0.016 A 
ATOM     42  C   UNL A   1      41.382  26.843  29.271  1.00  0.00     0.010 A 
ATOM     43  C   UNL A   1      42.763  28.730  28.613  1.00  0.00     0.010 A 
ATOM     44  C   UNL A   1      41.990  28.066  29.583  1.00  0.00    -0.014 A 
BRANCH  44  45
ATOM     45  C   UNL A   1      41.667  28.761  30.853  1.00  0.00     0.031 A 
ATOM     46  C   UNL A   1      40.496  29.704  30.869  1.00  0.00     0.074 A 
ATOM     47  C   UNL A   1      42.405  28.575  31.960  1.00  0.00     0.049 A 
ATOM     48  N   UNL A   1      40.094  30.515  31.811  1.00  0.00    -0.248 NA
ATOM     49  C   UNL A   1      39.669  29.738  29.651  1.00  0.00     0.031 C 
ATOM     50  C   UNL A   1      43.525  27.646  32.085  1.00  0.00     0.029 A 
ATOM     51  N   UNL A   1      42.330  29.180  33.191  1.00  0.00    -0.354 N 
ATOM     52  C   UNL A   1      38.981  31.169  31.296  1.00  0.00     0.074 A 
ATOM     53  C   UNL A   1      38.782  30.675  29.952  1.00  0.00     0.031 C 
ATOM     54  C   UNL A   1      44.049  27.759  33.319  1.00  0.00     0.029 A 
ATOM     55  C   UNL A   1      43.329  28.797  34.053  1.00  0.00     0.049 A 
ATOM     56  H   UNL A   1      41.626  29.827  33.432  1.00  0.00     0.167 HD
ATOM     57  C   UNL A   1      38.197  32.096  31.893  1.00  0.00     0.037 A 
ATOM     58  C   UNL A   1      43.642  29.256  35.282  1.00  0.00     0.037 A 
ATOM     59  C   UNL A   1      38.407  32.587  33.230  1.00  0.00     0.049 A 
ATOM     60  C   UNL A   1      42.800  30.346  35.900  1.00  0.00     0.074 A 
ATOM     61  C   UNL A   1      37.665  33.522  33.929  1.00  0.00     0.029 A 
ATOM     62  N   UNL A   1      39.438  32.187  34.066  1.00  0.00    -0.354 N 
ATOM     63  N   UNL A   1      41.745  30.953  35.409  1.00  0.00    -0.248 NA
ATOM     64  C   UNL A   1      43.189  30.813  37.238  1.00  0.00     0.031 C 
ATOM     65  C   UNL A   1      38.277  33.725  35.170  1.00  0.00     0.029 A 
ATOM     66  C   UNL A   1      39.365  32.872  35.268  1.00  0.00     0.049 A 
ATOM     67  H   UNL A   1      40.121  31.515  33.840  1.00  0.00     0.167 HD
ATOM     68  C   UNL A   1      41.323  31.843  36.393  1.00  0.00     0.074 A 
ATOM     69  C   UNL A   1      42.238  31.696  37.506  1.00  0.00     0.031 C 
ATOM     70  C   UNL A   1      40.270  32.699  36.378  1.00  0.00     0.037 A 
BRANCH  57  71
ATOM     71  C   UNL A   1      37.062  32.667  31.088  1.00  0.00     0.058 A 
ATOM     72  C   UNL A   1      35.772  32.115  31.131  1.00  0.00     0.135 A 
ATOM     73  C   UNL A   1      37.264  33.797  30.278  1.00  0.00     0.135 A 
ATOM     74  F   UNL A   1      35.527  31.023  31.872  1.00  0.00    -0.206 F 
ATOM     75  C   UNL A   1      34.729  32.645  30.377  1.00  0.00     0.059 A 
ATOM     76  C   UNL A   1      36.228  34.361  29.539  1.00  0.00     0.059 A 
ATOM     77  F   UNL A   1      38.478  34.362  30.197  1.00  0.00    -0.206 F 
ATOM     78  C   UNL A   1      34.968  33.768  29.584  1.00  0.00     0.060 A 
BRANCH  78  79
ATOM     79  S   UNL A   1      33.604  34.444  28.613  1.00  0.00     0.124 S 
ATOM     80  O   UNL A   1      32.666  34.835  29.661  1.00  0.00    -0.237 OA
ATOM     81  O   UNL A   1      34.246  35.541  27.896  1.00  0.00    -0.237 OA
ATOM     82  O   UNL A   1      33.185  33.318  27.785  1.00  0.00    -0.744 OA
ENDBRANCH  78  79
ENDBRANCH  57  71
BRANCH  58  83
ATOM     83  C   UNL A   1      44.817  28.701  36.007  1.00  0.00     0.058 A 
ATOM     84  C   UNL A   1      46.111  29.184  35.768  1.00  0.00     0.135 A 
ATOM     85  C   UNL A   1      44.671  27.671  36.951  1.00  0.00     0.135 A 
ATOM     86  F   UNL A   1      46.307  30.157  34.864  1.00  0.00    -0.206 F 
ATOM     87  C   UNL A   1      47.221  28.658  36.424  1.00  0.00     0.059 A 
ATOM     88  C   UNL A   1      45.761  27.146  37.639  1.00  0.00     0.059 A 
ATOM     89  F   UNL A   1      43.455  27.172  37.219  1.00  0.00    -0.206 F 
ATOM     90  C   UNL A   1      47.035  27.639  37.359  1.00  0.00     0.060 A 
BRANCH  90  91
ATOM     91  S   UNL A   1      48.479  26.986  38.227  1.00  0.00     0.124 S 
ATOM     92  O   UNL A   1      48.140  25.572  38.340  1.00  0.00    -0.237 OA
ATOM     93  O   UNL A   1      49.565  27.309  37.307  1.00  0.00    -0.237 OA
ATOM     94  O   UNL A   1      48.486  27.733  39.482  1.00  0.00    -0.744 OA
ENDBRANCH  90  91
ENDBRANCH  58  83
BRANCH  70  95
ATOM     95  C   UNL A   1      40.000  33.505  37.620  1.00  0.00     0.058 A 
ATOM     96  C   UNL A   1      40.721  34.669  37.923  1.00  0.00     0.135 A 
ATOM     97  C   UNL A   1      38.942  33.149  38.473  1.00  0.00     0.135 A 
ATOM     98  F   UNL A   1      41.745  35.053  37.144  1.00  0.00    -0.206 F 
ATOM     99  C   UNL A   1      40.412  35.445  39.037  1.00  0.00     0.059 A 
ATOM    100  C   UNL A   1      38.597  33.925  39.576  1.00  0.00     0.059 A 
ATOM    101  F   UNL A   1      38.211  32.050  38.222  1.00  0.00    -0.206 F 
ATOM    102  C   UNL A   1      39.344  35.068  39.854  1.00  0.00     0.060 A 
BRANCH 102 103
ATOM    103  S   UNL A   1      38.918  36.114  41.263  1.00  0.00     0.124 S 
ATOM    104  O   UNL A   1      40.095  35.962  42.110  1.00  0.00    -0.237 OA
ATOM    105  O   UNL A   1      38.748  37.424  40.640  1.00  0.00    -0.237 OA
ATOM    106  O   UNL A   1      37.692  35.509  41.777  1.00  0.00    -0.744 OA
ENDBRANCH 102 103
ENDBRANCH  70  95
ENDBRANCH  44  45
ENDBRANCH  37  39
ENDBRANCH  36  37
ENDBRANCH  35  36
ENDBRANCH  34  35
ENDBRANCH  33  34
ENDBRANCH   1  33
TORSDOF 24
ENDMDL
