MODEL 1
REMARK VINA RESULT:     -10.6      0.000      0.000
REMARK SMILES Cc1cccc(Cl)c1Nc1ccccc1CC(=O)OCCOCCOCCOC(=O)c1ccc(-c2c3nc(c(-c4c(F)cc(S(=O)(=O)[O-])cc4F)c4ccc([nH]4)c(-c4c(F)cc(S(=O)(=O)[O-])cc4F)c4nc(c(-c5c(F)cc(S(=O)(=O)[O-])cc5F)c5ccc2[nH]5)C=C4)C=C3)cc1
REMARK SMILES IDX 23 1 22 2 21 3 20 4 19 5 17 6 18 7 16 8 15 9 10 10 11 11
REMARK SMILES IDX 12 12 14 13 13 14 9 15 8 17 1 18 2 19 3 20 4 21 6 22 5 23
REMARK SMILES IDX 7 24 24 25 25 26 26 27 27 28 28 29 29 30 30 31 31 32 32 33
REMARK SMILES IDX 96 34 33 35 95 36 34 37 35 38 36 39 89 40 37 41 94 42 88 43
REMARK SMILES IDX 90 44 38 45 93 46 87 47 86 48 39 50 73 51 52 52 72 53 53 54
REMARK SMILES IDX 56 55 71 56 91 57 54 58 55 59 70 61 92 62 57 63 40 64 41 65
REMARK SMILES IDX 50 66 42 67 43 68 49 69 51 70 44 71 45 72 46 73 47 74 48 75
REMARK SMILES IDX 74 76 75 77 84 78 76 79 77 80 83 81 85 82 78 83 79 84 80 85
REMARK SMILES IDX 81 86 82 87 58 88 59 89 68 90 60 91 61 92 67 93 69 94 62 95
REMARK SMILES IDX 63 96 64 97 65 98 66 99
REMARK H PARENT 9 16 90 49 56 60
REMARK Flexibility Score: inf
ROOT
ATOM      1  C   UNL A   1      32.077  27.752  25.487  1.00  0.00     0.188 C 
ENDROOT
BRANCH   1   2
ATOM      2  O   UNL A   1      31.515  26.451  25.653  1.00  0.00    -0.376 OA
BRANCH   2   3
ATOM      3  C   UNL A   1      32.338  25.321  25.393  1.00  0.00     0.202 C 
BRANCH   3   4
ATOM      4  C   UNL A   1      31.844  24.391  24.279  1.00  0.00     0.261 C 
BRANCH   4   5
ATOM      5  O   UNL A   1      32.914  23.602  23.722  1.00  0.00    -0.463 OA
BRANCH   5   6
ATOM      6  C   UNL A   1      32.572  22.398  23.197  1.00  0.00     0.310 C 
ATOM      7  O   UNL A   1      32.599  22.151  21.994  1.00  0.00    -0.252 OA
BRANCH   6   8
ATOM      8  C   UNL A   1      32.369  21.326  24.250  1.00  0.00     0.160 C 
BRANCH   8   9
ATOM      9  C   UNL A   1      32.948  19.938  24.025  1.00  0.00    -0.013 A 
ATOM     10  C   UNL A   1      34.122  19.449  24.632  1.00  0.00     0.042 A 
ATOM     11  C   UNL A   1      34.611  18.176  24.268  1.00  0.00     0.026 A 
ATOM     12  C   UNL A   1      33.898  17.343  23.409  1.00  0.00     0.002 A 
ATOM     13  C   UNL A   1      32.213  19.048  23.218  1.00  0.00     0.006 A 
ATOM     14  C   UNL A   1      32.675  17.767  22.912  1.00  0.00     0.000 A 
BRANCH  10  15
ATOM     15  N   UNL A   1      34.733  20.062  25.742  1.00  0.00    -0.354 N 
ATOM     16  H   UNL A   1      34.633  19.583  26.597  1.00  0.00     0.167 HD
BRANCH  15  17
ATOM     17  C   UNL A   1      35.473  21.269  25.810  1.00  0.00     0.060 A 
ATOM     18  C   UNL A   1      37.420  20.022  24.750  1.00  0.00     0.046 C 
ATOM     19  C   UNL A   1      36.756  21.289  25.217  1.00  0.00    -0.026 A 
ATOM     20  C   UNL A   1      37.407  22.516  25.004  1.00  0.00     0.005 A 
ATOM     21  C   UNL A   1      36.823  23.716  25.404  1.00  0.00     0.002 A 
ATOM     22  C   UNL A   1      34.954  22.489  26.314  1.00  0.00     0.064 A 
ATOM     23  C   UNL A   1      35.613  23.700  26.084  1.00  0.00     0.023 A 
ATOM     24  Cl  UNL A   1      33.524  22.583  27.292  1.00  0.00    -0.082 Cl
ENDBRANCH  15  17
ENDBRANCH  10  15
ENDBRANCH   8   9
ENDBRANCH   6   8
ENDBRANCH   5   6
ENDBRANCH   4   5
ENDBRANCH   3   4
ENDBRANCH   2   3
ENDBRANCH   1   2
BRANCH   1  25
ATOM     25  C   UNL A   1      33.316  28.144  26.303  1.00  0.00     0.188 C 
BRANCH  25  26
ATOM     26  O   UNL A   1      33.029  29.185  27.228  1.00  0.00    -0.376 OA
BRANCH  26  27
ATOM     27  C   UNL A   1      33.626  30.425  26.880  1.00  0.00     0.202 C 
BRANCH  27  28
ATOM     28  C   UNL A   1      34.526  30.880  28.029  1.00  0.00     0.261 C 
BRANCH  28  29
ATOM     29  O   UNL A   1      35.565  29.943  28.380  1.00  0.00    -0.460 OA
BRANCH  29  30
ATOM     30  C   UNL A   1      36.272  30.210  29.496  1.00  0.00     0.338 C 
ATOM     31  O   UNL A   1      35.811  30.432  30.615  1.00  0.00    -0.246 OA
BRANCH  30  32
ATOM     32  C   UNL A   1      37.711  30.022  29.219  1.00  0.00     0.060 A 
ATOM     33  C   UNL A   1      38.112  29.705  27.916  1.00  0.00     0.016 A 
ATOM     34  C   UNL A   1      38.659  30.110  30.239  1.00  0.00     0.016 A 
ATOM     35  C   UNL A   1      39.457  29.458  27.626  1.00  0.00     0.010 A 
ATOM     36  C   UNL A   1      40.003  29.836  29.955  1.00  0.00     0.010 A 
ATOM     37  C   UNL A   1      40.406  29.482  28.655  1.00  0.00    -0.014 A 
BRANCH  37  38
ATOM     38  C   UNL A   1      41.781  28.967  28.421  1.00  0.00     0.031 A 
ATOM     39  C   UNL A   1      42.928  29.943  28.438  1.00  0.00     0.074 A 
ATOM     40  C   UNL A   1      42.017  27.662  28.193  1.00  0.00     0.049 A 
ATOM     41  N   UNL A   1      44.185  29.757  28.136  1.00  0.00    -0.248 NA
ATOM     42  C   UNL A   1      42.604  31.320  28.847  1.00  0.00     0.031 C 
ATOM     43  C   UNL A   1      41.008  26.605  28.204  1.00  0.00     0.029 A 
ATOM     44  N   UNL A   1      43.186  27.008  27.887  1.00  0.00    -0.354 N 
ATOM     45  C   UNL A   1      44.800  30.994  28.290  1.00  0.00     0.074 A 
ATOM     46  C   UNL A   1      43.772  31.928  28.699  1.00  0.00     0.031 C 
ATOM     47  C   UNL A   1      41.598  25.437  27.895  1.00  0.00     0.029 A 
ATOM     48  C   UNL A   1      43.016  25.671  27.620  1.00  0.00     0.049 A 
ATOM     49  H   UNL A   1      44.063  27.456  27.862  1.00  0.00     0.167 HD
ATOM     50  C   UNL A   1      46.100  31.324  28.105  1.00  0.00     0.037 A 
ATOM     51  C   UNL A   1      43.893  24.748  27.171  1.00  0.00     0.037 A 
ATOM     52  C   UNL A   1      47.122  30.390  27.708  1.00  0.00     0.049 A 
ATOM     53  C   UNL A   1      45.324  25.148  26.915  1.00  0.00     0.074 A 
ATOM     54  C   UNL A   1      48.473  30.622  27.517  1.00  0.00     0.029 A 
ATOM     55  N   UNL A   1      46.906  29.048  27.435  1.00  0.00    -0.354 N 
ATOM     56  N   UNL A   1      45.895  26.319  27.065  1.00  0.00    -0.248 NA
ATOM     57  C   UNL A   1      46.232  24.100  26.424  1.00  0.00     0.031 C 
ATOM     58  C   UNL A   1      49.063  29.433  27.078  1.00  0.00     0.029 A 
ATOM     59  C   UNL A   1      48.092  28.445  27.051  1.00  0.00     0.049 A 
ATOM     60  H   UNL A   1      46.036  28.590  27.503  1.00  0.00     0.167 HD
ATOM     61  C   UNL A   1      47.231  26.144  26.714  1.00  0.00     0.074 A 
ATOM     62  C   UNL A   1      47.385  24.750  26.352  1.00  0.00     0.031 C 
ATOM     63  C   UNL A   1      48.237  27.053  26.698  1.00  0.00     0.037 A 
BRANCH  50  64
ATOM     64  C   UNL A   1      46.484  32.768  28.287  1.00  0.00     0.058 A 
ATOM     65  C   UNL A   1      46.792  33.305  29.548  1.00  0.00     0.135 A 
ATOM     66  C   UNL A   1      46.556  33.625  27.176  1.00  0.00     0.135 A 
ATOM     67  F   UNL A   1      46.721  32.536  30.646  1.00  0.00    -0.206 F 
ATOM     68  C   UNL A   1      47.125  34.647  29.704  1.00  0.00     0.059 A 
ATOM     69  C   UNL A   1      46.916  34.962  27.305  1.00  0.00     0.059 A 
ATOM     70  F   UNL A   1      46.271  33.164  25.948  1.00  0.00    -0.206 F 
ATOM     71  C   UNL A   1      47.181  35.468  28.577  1.00  0.00     0.060 A 
BRANCH  71  72
ATOM     72  S   UNL A   1      47.600  37.210  28.797  1.00  0.00     0.124 S 
ATOM     73  O   UNL A   1      49.055  37.175  28.683  1.00  0.00    -0.237 OA
ATOM     74  O   UNL A   1      46.893  37.844  27.690  1.00  0.00    -0.237 OA
ATOM     75  O   UNL A   1      47.083  37.520  30.126  1.00  0.00    -0.744 OA
ENDBRANCH  71  72
ENDBRANCH  50  64
BRANCH  51  76
ATOM     76  C   UNL A   1      43.433  23.357  26.908  1.00  0.00     0.058 A 
ATOM     77  C   UNL A   1      43.229  22.893  25.601  1.00  0.00     0.135 A 
ATOM     78  C   UNL A   1      43.199  22.460  27.963  1.00  0.00     0.135 A 
ATOM     79  F   UNL A   1      43.421  23.716  24.559  1.00  0.00    -0.206 F 
ATOM     80  C   UNL A   1      42.806  21.591  25.347  1.00  0.00     0.059 A 
ATOM     81  C   UNL A   1      42.803  21.146  27.734  1.00  0.00     0.059 A 
ATOM     82  F   UNL A   1      43.382  22.853  29.233  1.00  0.00    -0.206 F 
ATOM     83  C   UNL A   1      42.602  20.722  26.421  1.00  0.00     0.060 A 
BRANCH  83  84
ATOM     84  S   UNL A   1      42.121  19.016  26.076  1.00  0.00     0.124 S 
ATOM     85  O   UNL A   1      40.703  19.165  25.771  1.00  0.00    -0.237 OA
ATOM     86  O   UNL A   1      42.984  18.677  24.948  1.00  0.00    -0.237 OA
ATOM     87  O   UNL A   1      42.429  18.321  27.323  1.00  0.00    -0.744 OA
ENDBRANCH  83  84
ENDBRANCH  51  76
BRANCH  63  88
ATOM     88  C   UNL A   1      49.611  26.571  26.314  1.00  0.00     0.058 A 
ATOM     89  C   UNL A   1      50.078  26.637  24.992  1.00  0.00     0.135 A 
ATOM     90  C   UNL A   1      50.496  26.095  27.296  1.00  0.00     0.135 A 
ATOM     91  F   UNL A   1      49.273  27.078  24.012  1.00  0.00    -0.206 F 
ATOM     92  C   UNL A   1      51.365  26.229  24.654  1.00  0.00     0.059 A 
ATOM     93  C   UNL A   1      51.796  25.709  26.986  1.00  0.00     0.059 A 
ATOM     94  F   UNL A   1      50.105  26.023  28.579  1.00  0.00    -0.206 F 
ATOM     95  C   UNL A   1      52.219  25.769  25.660  1.00  0.00     0.060 A 
BRANCH  95  96
ATOM     96  S   UNL A   1      53.898  25.278  25.214  1.00  0.00     0.124 S 
ATOM     97  O   UNL A   1      53.717  23.868  24.890  1.00  0.00    -0.237 OA
ATOM     98  O   UNL A   1      54.192  26.156  24.086  1.00  0.00    -0.237 OA
ATOM     99  O   UNL A   1      54.665  25.550  26.427  1.00  0.00    -0.744 OA
ENDBRANCH  95  96
ENDBRANCH  63  88
ENDBRANCH  37  38
ENDBRANCH  30  32
ENDBRANCH  29  30
ENDBRANCH  28  29
ENDBRANCH  27  28
ENDBRANCH  26  27
ENDBRANCH  25  26
ENDBRANCH   1  25
TORSDOF 23
ENDMDL
MODEL 2
REMARK VINA RESULT:     -10.4      2.413      3.676
REMARK SMILES Cc1cccc(Cl)c1Nc1ccccc1CC(=O)OCCOCCOCCOC(=O)c1ccc(-c2c3nc(c(-c4c(F)cc(S(=O)(=O)[O-])cc4F)c4ccc([nH]4)c(-c4c(F)cc(S(=O)(=O)[O-])cc4F)c4nc(c(-c5c(F)cc(S(=O)(=O)[O-])cc5F)c5ccc2[nH]5)C=C4)C=C3)cc1
REMARK SMILES IDX 23 1 22 2 21 3 20 4 19 5 17 6 18 7 16 8 15 9 10 10 11 11
REMARK SMILES IDX 12 12 14 13 13 14 9 15 8 17 1 18 2 19 3 20 4 21 6 22 5 23
REMARK SMILES IDX 7 24 24 25 25 26 26 27 27 28 28 29 29 30 30 31 31 32 32 33
REMARK SMILES IDX 96 34 33 35 95 36 34 37 35 38 36 39 89 40 37 41 94 42 88 43
REMARK SMILES IDX 90 44 38 45 93 46 87 47 86 48 39 50 73 51 52 52 72 53 53 54
REMARK SMILES IDX 56 55 71 56 91 57 54 58 55 59 70 61 92 62 57 63 40 64 41 65
REMARK SMILES IDX 50 66 42 67 43 68 49 69 51 70 44 71 45 72 46 73 47 74 48 75
REMARK SMILES IDX 74 76 75 77 84 78 76 79 77 80 83 81 85 82 78 83 79 84 80 85
REMARK SMILES IDX 81 86 82 87 58 88 59 89 68 90 60 91 61 92 67 93 69 94 62 95
REMARK SMILES IDX 63 96 64 97 65 98 66 99
REMARK H PARENT 9 16 90 49 56 60
REMARK Flexibility Score: inf
ROOT
ATOM      1  C   UNL A   1      32.121  26.428  26.513  1.00  0.00     0.188 C 
ENDROOT
BRANCH   1   2
ATOM      2  O   UNL A   1      30.918  25.664  26.591  1.00  0.00    -0.376 OA
BRANCH   2   3
ATOM      3  C   UNL A   1      30.836  24.453  25.850  1.00  0.00     0.202 C 
BRANCH   3   4
ATOM      4  C   UNL A   1      30.916  23.168  26.682  1.00  0.00     0.261 C 
BRANCH   4   5
ATOM      5  O   UNL A   1      31.902  23.266  27.729  1.00  0.00    -0.463 OA
BRANCH   5   6
ATOM      6  C   UNL A   1      32.942  22.394  27.669  1.00  0.00     0.310 C 
ATOM      7  O   UNL A   1      32.804  21.174  27.683  1.00  0.00    -0.252 OA
BRANCH   6   8
ATOM      8  C   UNL A   1      34.264  23.067  27.359  1.00  0.00     0.160 C 
BRANCH   8   9
ATOM      9  C   UNL A   1      34.757  23.120  25.920  1.00  0.00    -0.013 A 
ATOM     10  C   UNL A   1      35.177  22.002  25.174  1.00  0.00     0.042 A 
ATOM     11  C   UNL A   1      35.704  22.193  23.878  1.00  0.00     0.026 A 
ATOM     12  C   UNL A   1      35.713  23.450  23.276  1.00  0.00     0.002 A 
ATOM     13  C   UNL A   1      34.711  24.364  25.262  1.00  0.00     0.006 A 
ATOM     14  C   UNL A   1      35.178  24.532  23.957  1.00  0.00     0.000 A 
BRANCH  10  15
ATOM     15  N   UNL A   1      34.910  20.673  25.553  1.00  0.00    -0.354 N 
ATOM     16  H   UNL A   1      35.141  20.445  26.483  1.00  0.00     0.167 HD
BRANCH  15  17
ATOM     17  C   UNL A   1      34.356  19.614  24.791  1.00  0.00     0.060 A 
ATOM     18  C   UNL A   1      36.639  18.494  24.868  1.00  0.00     0.046 C 
ATOM     19  C   UNL A   1      35.168  18.483  24.549  1.00  0.00    -0.026 A 
ATOM     20  C   UNL A   1      34.590  17.301  24.054  1.00  0.00     0.005 A 
ATOM     21  C   UNL A   1      33.229  17.239  23.760  1.00  0.00     0.002 A 
ATOM     22  C   UNL A   1      33.002  19.562  24.373  1.00  0.00     0.064 A 
ATOM     23  C   UNL A   1      32.443  18.375  23.891  1.00  0.00     0.023 A 
ATOM     24  Cl  UNL A   1      31.957  20.947  24.361  1.00  0.00    -0.082 Cl
ENDBRANCH  15  17
ENDBRANCH  10  15
ENDBRANCH   8   9
ENDBRANCH   6   8
ENDBRANCH   5   6
ENDBRANCH   4   5
ENDBRANCH   3   4
ENDBRANCH   2   3
ENDBRANCH   1   2
BRANCH   1  25
ATOM     25  C   UNL A   1      32.104  27.783  25.795  1.00  0.00     0.188 C 
BRANCH  25  26
ATOM     26  O   UNL A   1      31.754  28.842  26.677  1.00  0.00    -0.376 OA
BRANCH  26  27
ATOM     27  C   UNL A   1      31.824  30.123  26.070  1.00  0.00     0.202 C 
BRANCH  27  28
ATOM     28  C   UNL A   1      32.710  31.028  26.927  1.00  0.00     0.261 C 
BRANCH  28  29
ATOM     29  O   UNL A   1      33.739  30.333  27.663  1.00  0.00    -0.460 OA
BRANCH  29  30
ATOM     30  C   UNL A   1      34.537  31.083  28.448  1.00  0.00     0.338 C 
ATOM     31  O   UNL A   1      34.199  32.075  29.093  1.00  0.00    -0.246 OA
BRANCH  30  32
ATOM     32  C   UNL A   1      35.858  30.434  28.564  1.00  0.00     0.060 A 
ATOM     33  C   UNL A   1      36.327  30.080  29.835  1.00  0.00     0.016 A 
ATOM     34  C   UNL A   1      36.655  30.213  27.440  1.00  0.00     0.016 A 
ATOM     35  C   UNL A   1      37.597  29.521  29.994  1.00  0.00     0.010 A 
ATOM     36  C   UNL A   1      37.939  29.677  27.601  1.00  0.00     0.010 A 
ATOM     37  C   UNL A   1      38.429  29.354  28.880  1.00  0.00    -0.014 A 
BRANCH  37  38
ATOM     38  C   UNL A   1      39.865  29.013  29.058  1.00  0.00     0.031 A 
ATOM     39  C   UNL A   1      40.805  30.085  29.541  1.00  0.00     0.074 A 
ATOM     40  C   UNL A   1      40.336  27.780  28.793  1.00  0.00     0.049 A 
ATOM     41  N   UNL A   1      42.107  30.065  29.648  1.00  0.00    -0.248 NA
ATOM     42  C   UNL A   1      40.186  31.355  29.954  1.00  0.00     0.031 C 
ATOM     43  C   UNL A   1      39.527  26.638  28.373  1.00  0.00     0.029 A 
ATOM     44  N   UNL A   1      41.619  27.291  28.822  1.00  0.00    -0.354 N 
ATOM     45  C   UNL A   1      42.469  31.325  30.113  1.00  0.00     0.074 A 
ATOM     46  C   UNL A   1      41.247  32.089  30.254  1.00  0.00     0.031 C 
ATOM     47  C   UNL A   1      40.337  25.585  28.160  1.00  0.00     0.029 A 
ATOM     48  C   UNL A   1      41.724  25.992  28.386  1.00  0.00     0.049 A 
ATOM     49  H   UNL A   1      42.391  27.822  29.127  1.00  0.00     0.167 HD
ATOM     50  C   UNL A   1      43.704  31.802  30.394  1.00  0.00     0.037 A 
ATOM     51  C   UNL A   1      42.815  25.229  28.160  1.00  0.00     0.037 A 
ATOM     52  C   UNL A   1      44.916  31.035  30.262  1.00  0.00     0.049 A 
ATOM     53  C   UNL A   1      44.186  25.798  28.423  1.00  0.00     0.074 A 
ATOM     54  C   UNL A   1      46.214  31.423  30.545  1.00  0.00     0.029 A 
ATOM     55  N   UNL A   1      44.980  29.728  29.805  1.00  0.00    -0.354 N 
ATOM     56  N   UNL A   1      44.516  26.989  28.864  1.00  0.00    -0.248 NA
ATOM     57  C   UNL A   1      45.335  24.921  28.155  1.00  0.00     0.031 C 
ATOM     58  C   UNL A   1      47.068  30.368  30.208  1.00  0.00     0.029 A 
ATOM     59  C   UNL A   1      46.298  29.301  29.771  1.00  0.00     0.049 A 
ATOM     60  H   UNL A   1      44.204  29.182  29.542  1.00  0.00     0.167 HD
ATOM     61  C   UNL A   1      45.906  26.994  28.951  1.00  0.00     0.074 A 
ATOM     62  C   UNL A   1      46.354  25.685  28.525  1.00  0.00     0.031 C 
ATOM     63  C   UNL A   1      46.734  27.992  29.351  1.00  0.00     0.037 A 
BRANCH  50  64
ATOM     64  C   UNL A   1      43.811  33.239  30.830  1.00  0.00     0.058 A 
ATOM     65  C   UNL A   1      43.829  34.299  29.910  1.00  0.00     0.135 A 
ATOM     66  C   UNL A   1      43.883  33.558  32.197  1.00  0.00     0.135 A 
ATOM     67  F   UNL A   1      43.780  34.051  28.591  1.00  0.00    -0.206 F 
ATOM     68  C   UNL A   1      43.949  35.621  30.327  1.00  0.00     0.059 A 
ATOM     69  C   UNL A   1      43.974  34.874  32.637  1.00  0.00     0.059 A 
ATOM     70  F   UNL A   1      43.872  32.584  33.119  1.00  0.00    -0.206 F 
ATOM     71  C   UNL A   1      44.024  35.898  31.693  1.00  0.00     0.060 A 
BRANCH  71  72
ATOM     72  S   UNL A   1      44.194  37.617  32.218  1.00  0.00     0.124 S 
ATOM     73  O   UNL A   1      43.898  38.330  30.979  1.00  0.00    -0.237 OA
ATOM     74  O   UNL A   1      43.185  37.724  33.267  1.00  0.00    -0.237 OA
ATOM     75  O   UNL A   1      45.578  37.699  32.673  1.00  0.00    -0.744 OA
ENDBRANCH  71  72
ENDBRANCH  50  64
BRANCH  51  76
ATOM     76  C   UNL A   1      42.653  23.848  27.628  1.00  0.00     0.058 A 
ATOM     77  C   UNL A   1      42.545  23.607  26.251  1.00  0.00     0.135 A 
ATOM     78  C   UNL A   1      42.616  22.740  28.490  1.00  0.00     0.135 A 
ATOM     79  F   UNL A   1      42.557  24.633  25.387  1.00  0.00    -0.206 F 
ATOM     80  C   UNL A   1      42.402  22.318  25.746  1.00  0.00     0.059 A 
ATOM     81  C   UNL A   1      42.501  21.440  28.007  1.00  0.00     0.059 A 
ATOM     82  F   UNL A   1      42.718  22.916  29.816  1.00  0.00    -0.206 F 
ATOM     83  C   UNL A   1      42.388  21.239  26.632  1.00  0.00     0.060 A 
BRANCH  83  84
ATOM     84  S   UNL A   1      42.271  19.567  25.960  1.00  0.00     0.124 S 
ATOM     85  O   UNL A   1      40.895  19.537  25.482  1.00  0.00    -0.237 OA
ATOM     86  O   UNL A   1      43.305  19.578  24.930  1.00  0.00    -0.237 OA
ATOM     87  O   UNL A   1      42.557  18.720  27.115  1.00  0.00    -0.744 OA
ENDBRANCH  83  84
ENDBRANCH  51  76
BRANCH  63  88
ATOM     88  C   UNL A   1      48.211  27.703  29.390  1.00  0.00     0.058 A 
ATOM     89  C   UNL A   1      48.792  26.946  30.420  1.00  0.00     0.135 A 
ATOM     90  C   UNL A   1      49.046  28.136  28.348  1.00  0.00     0.135 A 
ATOM     91  F   UNL A   1      48.041  26.511  31.445  1.00  0.00    -0.206 F 
ATOM     92  C   UNL A   1      50.151  26.648  30.426  1.00  0.00     0.059 A 
ATOM     93  C   UNL A   1      50.402  27.826  28.318  1.00  0.00     0.059 A 
ATOM     94  F   UNL A   1      48.541  28.852  27.330  1.00  0.00    -0.206 F 
ATOM     95  C   UNL A   1      50.949  27.089  29.367  1.00  0.00     0.060 A 
BRANCH  95  96
ATOM     96  S   UNL A   1      52.703  26.664  29.367  1.00  0.00     0.124 S 
ATOM     97  O   UNL A   1      52.822  25.901  30.604  1.00  0.00    -0.237 OA
ATOM     98  O   UNL A   1      52.840  25.897  28.133  1.00  0.00    -0.237 OA
ATOM     99  O   UNL A   1      53.369  27.964  29.364  1.00  0.00    -0.744 OA
ENDBRANCH  95  96
ENDBRANCH  63  88
ENDBRANCH  37  38
ENDBRANCH  30  32
ENDBRANCH  29  30
ENDBRANCH  28  29
ENDBRANCH  27  28
ENDBRANCH  26  27
ENDBRANCH  25  26
ENDBRANCH   1  25
TORSDOF 23
ENDMDL
MODEL 3
REMARK VINA RESULT:     -10.1      2.363      8.806
REMARK SMILES Cc1cccc(Cl)c1Nc1ccccc1CC(=O)OCCOCCOCCOC(=O)c1ccc(-c2c3nc(c(-c4c(F)cc(S(=O)(=O)[O-])cc4F)c4ccc([nH]4)c(-c4c(F)cc(S(=O)(=O)[O-])cc4F)c4nc(c(-c5c(F)cc(S(=O)(=O)[O-])cc5F)c5ccc2[nH]5)C=C4)C=C3)cc1
REMARK SMILES IDX 23 1 22 2 21 3 20 4 19 5 17 6 18 7 16 8 15 9 10 10 11 11
REMARK SMILES IDX 12 12 14 13 13 14 9 15 8 17 1 18 2 19 3 20 4 21 6 22 5 23
REMARK SMILES IDX 7 24 24 25 25 26 26 27 27 28 28 29 29 30 30 31 31 32 32 33
REMARK SMILES IDX 96 34 33 35 95 36 34 37 35 38 36 39 89 40 37 41 94 42 88 43
REMARK SMILES IDX 90 44 38 45 93 46 87 47 86 48 39 50 73 51 52 52 72 53 53 54
REMARK SMILES IDX 56 55 71 56 91 57 54 58 55 59 70 61 92 62 57 63 40 64 41 65
REMARK SMILES IDX 50 66 42 67 43 68 49 69 51 70 44 71 45 72 46 73 47 74 48 75
REMARK SMILES IDX 74 76 75 77 84 78 76 79 77 80 83 81 85 82 78 83 79 84 80 85
REMARK SMILES IDX 81 86 82 87 58 88 59 89 68 90 60 91 61 92 67 93 69 94 62 95
REMARK SMILES IDX 63 96 64 97 65 98 66 99
REMARK H PARENT 9 16 90 49 56 60
REMARK Flexibility Score: inf
ROOT
ATOM      1  C   UNL A   1      35.106  31.256  28.350  1.00  0.00     0.188 C 
ENDROOT
BRANCH   1   2
ATOM      2  O   UNL A   1      34.332  30.720  27.278  1.00  0.00    -0.376 OA
BRANCH   2   3
ATOM      3  C   UNL A   1      32.948  31.043  27.214  1.00  0.00     0.202 C 
BRANCH   3   4
ATOM      4  C   UNL A   1      32.005  29.854  27.003  1.00  0.00     0.261 C 
BRANCH   4   5
ATOM      5  O   UNL A   1      32.683  28.730  26.406  1.00  0.00    -0.463 OA
BRANCH   5   6
ATOM      6  C   UNL A   1      32.189  27.498  26.695  1.00  0.00     0.310 C 
ATOM      7  O   UNL A   1      31.089  27.313  27.208  1.00  0.00    -0.252 OA
BRANCH   6   8
ATOM      8  C   UNL A   1      33.027  26.373  26.122  1.00  0.00     0.160 C 
BRANCH   8   9
ATOM      9  C   UNL A   1      32.371  25.036  25.808  1.00  0.00    -0.013 A 
ATOM     10  C   UNL A   1      31.639  24.757  24.637  1.00  0.00     0.042 A 
ATOM     11  C   UNL A   1      30.996  23.507  24.505  1.00  0.00     0.026 A 
ATOM     12  C   UNL A   1      31.163  22.500  25.454  1.00  0.00     0.002 A 
ATOM     13  C   UNL A   1      32.581  23.979  26.714  1.00  0.00     0.006 A 
ATOM     14  C   UNL A   1      31.990  22.726  26.544  1.00  0.00     0.000 A 
BRANCH  10  15
ATOM     15  N   UNL A   1      31.679  25.566  23.486  1.00  0.00    -0.354 N 
ATOM     16  H   UNL A   1      32.114  25.162  22.701  1.00  0.00     0.167 HD
BRANCH  15  17
ATOM     17  C   UNL A   1      31.184  26.880  23.293  1.00  0.00     0.060 A 
ATOM     18  C   UNL A   1      33.571  27.603  22.793  1.00  0.00     0.046 C 
ATOM     19  C   UNL A   1      32.089  27.865  22.837  1.00  0.00    -0.026 A 
ATOM     20  C   UNL A   1      31.602  29.094  22.362  1.00  0.00     0.005 A 
ATOM     21  C   UNL A   1      30.237  29.374  22.367  1.00  0.00     0.002 A 
ATOM     22  C   UNL A   1      29.814  27.234  23.400  1.00  0.00     0.064 A 
ATOM     23  C   UNL A   1      29.348  28.458  22.913  1.00  0.00     0.023 A 
ATOM     24  Cl  UNL A   1      28.631  26.234  24.181  1.00  0.00    -0.082 Cl
ENDBRANCH  15  17
ENDBRANCH  10  15
ENDBRANCH   8   9
ENDBRANCH   6   8
ENDBRANCH   5   6
ENDBRANCH   4   5
ENDBRANCH   3   4
ENDBRANCH   2   3
ENDBRANCH   1   2
BRANCH   1  25
ATOM     25  C   UNL A   1      34.814  32.677  28.849  1.00  0.00     0.188 C 
BRANCH  25  26
ATOM     26  O   UNL A   1      34.202  32.669  30.132  1.00  0.00    -0.376 OA
BRANCH  26  27
ATOM     27  C   UNL A   1      35.072  33.088  31.172  1.00  0.00     0.202 C 
BRANCH  27  28
ATOM     28  C   UNL A   1      35.513  31.861  31.971  1.00  0.00     0.261 C 
BRANCH  28  29
ATOM     29  O   UNL A   1      36.893  31.487  31.778  1.00  0.00    -0.460 OA
BRANCH  29  30
ATOM     30  C   UNL A   1      37.124  30.261  31.268  1.00  0.00     0.338 C 
ATOM     31  O   UNL A   1      36.303  29.352  31.156  1.00  0.00    -0.246 OA
BRANCH  30  32
ATOM     32  C   UNL A   1      38.483  30.221  30.691  1.00  0.00     0.060 A 
ATOM     33  C   UNL A   1      38.624  30.173  29.299  1.00  0.00     0.016 A 
ATOM     34  C   UNL A   1      39.614  30.184  31.508  1.00  0.00     0.016 A 
ATOM     35  C   UNL A   1      39.890  30.071  28.716  1.00  0.00     0.010 A 
ATOM     36  C   UNL A   1      40.880  30.055  30.926  1.00  0.00     0.010 A 
ATOM     37  C   UNL A   1      41.025  29.970  29.528  1.00  0.00    -0.014 A 
BRANCH  37  38
ATOM     38  C   UNL A   1      42.339  29.598  28.942  1.00  0.00     0.031 A 
ATOM     39  C   UNL A   1      42.534  28.189  28.447  1.00  0.00     0.074 A 
ATOM     40  C   UNL A   1      43.348  30.484  28.850  1.00  0.00     0.049 A 
ATOM     41  N   UNL A   1      43.619  27.599  28.020  1.00  0.00    -0.248 NA
ATOM     42  C   UNL A   1      41.338  27.331  28.440  1.00  0.00     0.031 C 
ATOM     43  C   UNL A   1      43.276  31.891  29.240  1.00  0.00     0.029 A 
ATOM     44  N   UNL A   1      44.641  30.321  28.416  1.00  0.00    -0.354 N 
ATOM     45  C   UNL A   1      43.246  26.293  27.720  1.00  0.00     0.074 A 
ATOM     46  C   UNL A   1      41.837  26.175  28.028  1.00  0.00     0.031 C 
ATOM     47  C   UNL A   1      44.480  32.458  29.048  1.00  0.00     0.029 A 
ATOM     48  C   UNL A   1      45.419  31.445  28.566  1.00  0.00     0.049 A 
ATOM     49  H   UNL A   1      44.978  29.479  28.033  1.00  0.00     0.167 HD
ATOM     50  C   UNL A   1      44.008  25.284  27.235  1.00  0.00     0.037 A 
ATOM     51  C   UNL A   1      46.742  31.626  28.371  1.00  0.00     0.037 A 
ATOM     52  C   UNL A   1      45.408  25.409  26.920  1.00  0.00     0.049 A 
ATOM     53  C   UNL A   1      47.586  30.474  27.887  1.00  0.00     0.074 A 
ATOM     54  C   UNL A   1      46.262  24.450  26.402  1.00  0.00     0.029 A 
ATOM     55  N   UNL A   1      46.161  26.559  27.099  1.00  0.00    -0.354 N 
ATOM     56  N   UNL A   1      47.224  29.246  27.605  1.00  0.00    -0.248 NA
ATOM     57  C   UNL A   1      49.021  30.733  27.697  1.00  0.00     0.031 C 
ATOM     58  C   UNL A   1      47.542  25.006  26.317  1.00  0.00     0.029 A 
ATOM     59  C   UNL A   1      47.475  26.328  26.727  1.00  0.00     0.049 A 
ATOM     60  H   UNL A   1      45.814  27.415  27.440  1.00  0.00     0.167 HD
ATOM     61  C   UNL A   1      48.378  28.593  27.180  1.00  0.00     0.074 A 
ATOM     62  C   UNL A   1      49.449  29.566  27.234  1.00  0.00     0.031 C 
ATOM     63  C   UNL A   1      48.535  27.307  26.778  1.00  0.00     0.037 A 
BRANCH  50  64
ATOM     64  C   UNL A   1      43.352  23.941  27.058  1.00  0.00     0.058 A 
ATOM     65  C   UNL A   1      43.399  22.951  28.052  1.00  0.00     0.135 A 
ATOM     66  C   UNL A   1      42.653  23.648  25.875  1.00  0.00     0.135 A 
ATOM     67  F   UNL A   1      44.069  23.170  29.195  1.00  0.00    -0.206 F 
ATOM     68  C   UNL A   1      42.806  21.706  27.866  1.00  0.00     0.059 A 
ATOM     69  C   UNL A   1      42.027  22.421  25.680  1.00  0.00     0.059 A 
ATOM     70  F   UNL A   1      42.578  24.558  24.892  1.00  0.00    -0.206 F 
ATOM     71  C   UNL A   1      42.125  21.450  26.675  1.00  0.00     0.060 A 
BRANCH  71  72
ATOM     72  S   UNL A   1      41.372  19.825  26.442  1.00  0.00     0.124 S 
ATOM     73  O   UNL A   1      40.009  20.189  26.065  1.00  0.00    -0.237 OA
ATOM     74  O   UNL A   1      42.191  19.251  25.381  1.00  0.00    -0.237 OA
ATOM     75  O   UNL A   1      41.513  19.193  27.750  1.00  0.00    -0.744 OA
ENDBRANCH  71  72
ENDBRANCH  50  64
BRANCH  51  76
ATOM     76  C   UNL A   1      47.357  32.950  28.663  1.00  0.00     0.058 A 
ATOM     77  C   UNL A   1      47.473  33.934  27.671  1.00  0.00     0.135 A 
ATOM     78  C   UNL A   1      47.832  33.261  29.948  1.00  0.00     0.135 A 
ATOM     79  F   UNL A   1      47.052  33.680  26.422  1.00  0.00    -0.206 F 
ATOM     80  C   UNL A   1      48.040  35.176  27.938  1.00  0.00     0.059 A 
ATOM     81  C   UNL A   1      48.377  34.506  30.246  1.00  0.00     0.059 A 
ATOM     82  F   UNL A   1      47.741  32.356  30.935  1.00  0.00    -0.206 F 
ATOM     83  C   UNL A   1      48.483  35.456  29.232  1.00  0.00     0.060 A 
BRANCH  83  84
ATOM     84  S   UNL A   1      49.153  37.096  29.584  1.00  0.00     0.124 S 
ATOM     85  O   UNL A   1      49.906  37.374  28.367  1.00  0.00    -0.237 OA
ATOM     86  O   UNL A   1      47.941  37.886  29.779  1.00  0.00    -0.237 OA
ATOM     87  O   UNL A   1      49.953  36.881  30.786  1.00  0.00    -0.744 OA
ENDBRANCH  83  84
ENDBRANCH  51  76
BRANCH  63  88
ATOM     88  C   UNL A   1      49.903  26.877  26.323  1.00  0.00     0.058 A 
ATOM     89  C   UNL A   1      50.821  26.273  27.198  1.00  0.00     0.135 A 
ATOM     90  C   UNL A   1      50.279  27.012  24.976  1.00  0.00     0.135 A 
ATOM     91  F   UNL A   1      50.517  26.124  28.497  1.00  0.00    -0.206 F 
ATOM     92  C   UNL A   1      52.068  25.840  26.758  1.00  0.00     0.059 A 
ATOM     93  C   UNL A   1      51.508  26.560  24.508  1.00  0.00     0.059 A 
ATOM     94  F   UNL A   1      49.435  27.570  24.093  1.00  0.00    -0.206 F 
ATOM     95  C   UNL A   1      52.402  25.984  25.409  1.00  0.00     0.060 A 
BRANCH  95  96
ATOM     96  S   UNL A   1      54.008  25.383  24.844  1.00  0.00     0.124 S 
ATOM     97  O   UNL A   1      54.113  26.011  23.531  1.00  0.00    -0.237 OA
ATOM     98  O   UNL A   1      54.912  25.897  25.867  1.00  0.00    -0.237 OA
ATOM     99  O   UNL A   1      53.844  23.932  24.834  1.00  0.00    -0.744 OA
ENDBRANCH  95  96
ENDBRANCH  63  88
ENDBRANCH  37  38
ENDBRANCH  30  32
ENDBRANCH  29  30
ENDBRANCH  28  29
ENDBRANCH  27  28
ENDBRANCH  26  27
ENDBRANCH  25  26
ENDBRANCH   1  25
TORSDOF 23
ENDMDL
