MODEL 1
REMARK VINA RESULT:     -12.1      0.000      0.000
REMARK SMILES Cc1ccc(/C=C2/C[N@@H+](C)Cc3c2nc2ccccc2c3C(=O)OCCOCCOCCOC(=O)c2ccc(-c3c4nc(c(-c5c(F)cc(S(=O)(=O)[O-])cc5F)c5ccc([nH]5)c(-c5c(F)cc(S(=O)(=O)[O-])cc5F)c5nc(c(-c6c(F)cc(S(=O)(=O)[O-])cc6F)c6ccc3[nH]6)C=C5)C=C4)cc2)cc1
REMARK SMILES IDX 29 1 28 2 27 3 26 4 25 5 24 6 22 7 23 8 21 9 6 10 7 11 8 12
REMARK SMILES IDX 13 13 9 14 12 15 14 16 10 17 11 18 15 20 20 21 16 22 19 23
REMARK SMILES IDX 17 24 18 25 5 26 1 27 2 28 3 29 103 30 4 31 102 32 30 33
REMARK SMILES IDX 31 34 32 35 33 36 34 37 35 38 36 39 37 40 101 41 38 42
REMARK SMILES IDX 100 43 39 44 40 45 41 46 94 47 42 48 99 49 93 50 95 51 43 52
REMARK SMILES IDX 98 53 92 54 91 55 44 57 78 58 57 59 77 60 58 61 61 62 76 63
REMARK SMILES IDX 96 64 59 65 60 66 75 68 97 69 62 70 45 71 46 72 55 73 47 74
REMARK SMILES IDX 48 75 54 76 56 77 49 78 50 79 51 80 52 81 53 82 79 83 80 84
REMARK SMILES IDX 89 85 81 86 82 87 88 88 90 89 83 90 84 91 85 92 86 93 87 94
REMARK SMILES IDX 63 95 64 96 73 97 65 98 66 99 72 100 74 101 67 102 68 103
REMARK SMILES IDX 69 104 70 105 71 106
REMARK H PARENT 9 19 95 56 61 67
REMARK Flexibility Score: inf
ROOT
ATOM      1  C   UNL A   1      33.864  26.494  24.982  1.00  0.00     0.188 C 
ENDROOT
BRANCH   1   2
ATOM      2  C   UNL A   1      34.458  25.230  25.595  1.00  0.00     0.188 C 
BRANCH   2   3
ATOM      3  O   UNL A   1      35.156  24.195  24.857  1.00  0.00    -0.376 OA
BRANCH   3   4
ATOM      4  C   UNL A   1      36.514  23.686  24.965  1.00  0.00     0.202 C 
BRANCH   4   5
ATOM      5  C   UNL A   1      37.269  22.068  25.177  1.00  0.00     0.261 C 
BRANCH   5   6
ATOM      6  O   UNL A   1      38.875  21.521  25.338  1.00  0.00    -0.460 OA
BRANCH   6   7
ATOM      7  C   UNL A   1      39.884  21.172  26.281  1.00  0.00     0.339 C 
ATOM      8  O   UNL A   1      40.188  20.070  26.711  1.00  0.00    -0.246 OA
BRANCH   7   9
ATOM      9  C   UNL A   1      40.871  22.073  26.885  1.00  0.00     0.080 A 
ATOM     10  C   UNL A   1      44.603  23.920  25.319  1.00  0.00     0.020 C 
ATOM     11  C   UNL A   1      44.243  22.824  26.025  1.00  0.00     0.033 C 
ATOM     12  C   UNL A   1      44.799  21.437  25.756  1.00  0.00     0.301 C 
ATOM     13  C   UNL A   1      43.065  22.781  26.907  1.00  0.00     0.082 A 
ATOM     14  N   UNL A   1      43.776  20.661  25.064  1.00  0.00    -0.330 N 
ATOM     15  C   UNL A   1      42.174  21.785  26.595  1.00  0.00     0.048 A 
ATOM     16  N   UNL A   1      42.797  23.852  27.699  1.00  0.00    -0.247 NA
ATOM     17  C   UNL A   1      44.165  19.320  24.649  1.00  0.00     0.333 C 
ATOM     18  C   UNL A   1      42.570  20.545  25.866  1.00  0.00     0.302 C 
ATOM     19  H   UNL A   1      43.617  21.199  24.212  1.00  0.00     0.348 HD
ATOM     20  C   UNL A   1      41.519  24.167  27.959  1.00  0.00     0.072 A 
ATOM     21  C   UNL A   1      40.467  23.384  27.478  1.00  0.00     0.015 A 
ATOM     22  C   UNL A   1      41.255  25.379  28.617  1.00  0.00     0.029 A 
ATOM     23  C   UNL A   1      39.159  24.020  27.579  1.00  0.00     0.011 A 
ATOM     24  C   UNL A   1      39.975  25.928  28.744  1.00  0.00     0.002 A 
ATOM     25  C   UNL A   1      38.915  25.257  28.184  1.00  0.00     0.001 A 
BRANCH  10  26
ATOM     26  C   UNL A   1      43.998  25.270  25.369  1.00  0.00    -0.025 A 
ATOM     27  C   UNL A   1      42.252  29.134  26.198  1.00  0.00     0.044 C 
ATOM     28  C   UNL A   1      42.881  27.835  25.789  1.00  0.00    -0.051 A 
ATOM     29  C   UNL A   1      42.108  26.807  25.240  1.00  0.00     0.004 A 
ATOM     30  C   UNL A   1      44.233  27.591  26.052  1.00  0.00     0.004 A 
ATOM     31  C   UNL A   1      42.672  25.544  25.002  1.00  0.00     0.008 A 
ATOM     32  C   UNL A   1      44.785  26.323  25.841  1.00  0.00     0.008 A 
ENDBRANCH  10  26
ENDBRANCH   7   9
ENDBRANCH   6   7
ENDBRANCH   5   6
ENDBRANCH   4   5
ENDBRANCH   3   4
ENDBRANCH   2   3
ENDBRANCH   1   2
BRANCH   1  33
ATOM     33  O   UNL A   1      33.634  27.461  25.980  1.00  0.00    -0.376 OA
BRANCH  33  34
ATOM     34  C   UNL A   1      33.392  28.777  25.534  1.00  0.00     0.202 C 
BRANCH  34  35
ATOM     35  C   UNL A   1      33.320  29.874  26.617  1.00  0.00     0.261 C 
BRANCH  35  36
ATOM     36  O   UNL A   1      34.464  29.918  27.513  1.00  0.00    -0.460 OA
BRANCH  36  37
ATOM     37  C   UNL A   1      35.104  31.137  27.752  1.00  0.00     0.338 C 
ATOM     38  O   UNL A   1      34.506  32.156  27.907  1.00  0.00    -0.246 OA
BRANCH  37  39
ATOM     39  C   UNL A   1      36.568  30.918  28.041  1.00  0.00     0.060 A 
ATOM     40  C   UNL A   1      37.354  29.763  27.968  1.00  0.00     0.016 A 
ATOM     41  C   UNL A   1      37.195  31.985  28.553  1.00  0.00     0.016 A 
ATOM     42  C   UNL A   1      38.663  29.641  28.647  1.00  0.00     0.010 A 
ATOM     43  C   UNL A   1      38.302  31.733  29.357  1.00  0.00     0.010 A 
ATOM     44  C   UNL A   1      39.203  30.631  29.470  1.00  0.00    -0.014 A 
BRANCH  44  45
ATOM     45  C   UNL A   1      40.696  30.630  30.381  1.00  0.00     0.031 A 
ATOM     46  C   UNL A   1      42.114  29.676  30.231  1.00  0.00     0.074 A 
ATOM     47  C   UNL A   1      40.917  31.587  31.298  1.00  0.00     0.049 A 
ATOM     48  N   UNL A   1      43.286  30.092  29.784  1.00  0.00    -0.248 NA
ATOM     49  C   UNL A   1      42.230  28.196  30.491  1.00  0.00     0.031 C 
ATOM     50  C   UNL A   1      42.177  31.941  31.954  1.00  0.00     0.029 A 
ATOM     51  N   UNL A   1      39.973  32.358  31.964  1.00  0.00    -0.354 N 
ATOM     52  C   UNL A   1      44.082  28.967  29.423  1.00  0.00     0.074 A 
ATOM     53  C   UNL A   1      43.237  27.812  29.702  1.00  0.00     0.031 C 
ATOM     54  C   UNL A   1      41.884  32.501  33.140  1.00  0.00     0.029 A 
ATOM     55  C   UNL A   1      40.439  32.405  33.290  1.00  0.00     0.049 A 
ATOM     56  H   UNL A   1      39.162  32.775  31.593  1.00  0.00     0.167 HD
ATOM     57  C   UNL A   1      45.373  28.796  29.847  1.00  0.00     0.037 A 
ATOM     58  C   UNL A   1      39.788  31.608  34.186  1.00  0.00     0.037 A 
ATOM     59  C   UNL A   1      45.461  29.152  31.242  1.00  0.00     0.049 A 
ATOM     60  C   UNL A   1      40.712  30.480  34.618  1.00  0.00     0.074 A 
ATOM     61  C   UNL A   1      45.731  30.335  31.892  1.00  0.00     0.029 A 
ATOM     62  N   UNL A   1      44.806  28.337  32.156  1.00  0.00    -0.354 N 
ATOM     63  N   UNL A   1      41.629  29.899  33.875  1.00  0.00    -0.248 NA
ATOM     64  C   UNL A   1      40.789  30.088  36.019  1.00  0.00     0.031 C 
ATOM     65  C   UNL A   1      45.007  30.299  33.122  1.00  0.00     0.029 A 
ATOM     66  C   UNL A   1      44.371  29.069  33.242  1.00  0.00     0.049 A 
ATOM     67  H   UNL A   1      44.671  27.369  32.044  1.00  0.00     0.167 HD
ATOM     68  C   UNL A   1      42.428  29.117  34.680  1.00  0.00     0.074 A 
ATOM     69  C   UNL A   1      41.852  29.270  36.006  1.00  0.00     0.031 C 
ATOM     70  C   UNL A   1      43.564  28.450  34.293  1.00  0.00     0.037 A 
BRANCH  57  71
ATOM     71  C   UNL A   1      46.441  28.159  28.969  1.00  0.00     0.058 A 
ATOM     72  C   UNL A   1      47.019  28.865  27.893  1.00  0.00     0.135 A 
ATOM     73  C   UNL A   1      46.851  26.805  29.075  1.00  0.00     0.135 A 
ATOM     74  F   UNL A   1      46.727  30.159  27.692  1.00  0.00    -0.206 F 
ATOM     75  C   UNL A   1      47.878  28.265  26.955  1.00  0.00     0.059 A 
ATOM     76  C   UNL A   1      47.715  26.186  28.152  1.00  0.00     0.059 A 
ATOM     77  F   UNL A   1      46.398  26.029  30.073  1.00  0.00    -0.206 F 
ATOM     78  C   UNL A   1      48.198  26.916  27.072  1.00  0.00     0.060 A 
BRANCH  78  79
ATOM     79  S   UNL A   1      49.188  26.131  25.769  1.00  0.00     0.124 S 
ATOM     80  O   UNL A   1      49.960  25.150  26.525  1.00  0.00    -0.237 OA
ATOM     81  O   UNL A   1      48.168  25.582  24.881  1.00  0.00    -0.237 OA
ATOM     82  O   UNL A   1      49.966  27.235  25.213  1.00  0.00    -0.744 OA
ENDBRANCH  78  79
ENDBRANCH  57  71
BRANCH  58  83
ATOM     83  C   UNL A   1      38.294  31.610  33.952  1.00  0.00     0.058 A 
ATOM     84  C   UNL A   1      37.561  32.699  34.501  1.00  0.00     0.135 A 
ATOM     85  C   UNL A   1      37.628  30.864  32.973  1.00  0.00     0.135 A 
ATOM     86  F   UNL A   1      38.102  33.440  35.485  1.00  0.00    -0.206 F 
ATOM     87  C   UNL A   1      36.354  33.148  33.971  1.00  0.00     0.059 A 
ATOM     88  C   UNL A   1      36.371  31.264  32.464  1.00  0.00     0.059 A 
ATOM     89  F   UNL A   1      38.234  29.817  32.394  1.00  0.00    -0.206 F 
ATOM     90  C   UNL A   1      35.789  32.456  32.910  1.00  0.00     0.060 A 
BRANCH  90  91
ATOM     91  S   UNL A   1      34.400  33.247  32.050  1.00  0.00     0.124 S 
ATOM     92  O   UNL A   1      34.295  32.448  30.835  1.00  0.00    -0.237 OA
ATOM     93  O   UNL A   1      33.311  33.073  33.012  1.00  0.00    -0.237 OA
ATOM     94  O   UNL A   1      34.858  34.617  31.855  1.00  0.00    -0.744 OA
ENDBRANCH  90  91
ENDBRANCH  58  83
BRANCH  70  95
ATOM     95  C   UNL A   1      44.093  27.231  35.040  1.00  0.00     0.058 A 
ATOM     96  C   UNL A   1      45.302  27.235  35.761  1.00  0.00     0.135 A 
ATOM     97  C   UNL A   1      43.346  26.032  35.149  1.00  0.00     0.135 A 
ATOM     98  F   UNL A   1      46.017  28.356  35.935  1.00  0.00    -0.206 F 
ATOM     99  C   UNL A   1      45.824  26.093  36.363  1.00  0.00     0.059 A 
ATOM    100  C   UNL A   1      43.807  24.905  35.822  1.00  0.00     0.059 A 
ATOM    101  F   UNL A   1      42.121  25.900  34.620  1.00  0.00    -0.206 F 
ATOM    102  C   UNL A   1      45.080  24.923  36.363  1.00  0.00     0.060 A 
BRANCH 102 103
ATOM    103  S   UNL A   1      45.778  23.430  37.075  1.00  0.00     0.124 S 
ATOM    104  O   UNL A   1      47.207  23.685  36.921  1.00  0.00    -0.237 OA
ATOM    105  O   UNL A   1      45.274  23.462  38.445  1.00  0.00    -0.237 OA
ATOM    106  O   UNL A   1      45.230  22.369  36.235  1.00  0.00    -0.744 OA
ENDBRANCH 102 103
ENDBRANCH  70  95
ENDBRANCH  44  45
ENDBRANCH  37  39
ENDBRANCH  36  37
ENDBRANCH  35  36
ENDBRANCH  34  35
ENDBRANCH  33  34
ENDBRANCH   1  33
TORSDOF 21
ENDMDL
MODEL 2
REMARK VINA RESULT:     -11.5      3.843     10.888
REMARK SMILES Cc1ccc(/C=C2/C[N@@H+](C)Cc3c2nc2ccccc2c3C(=O)OCCOCCOCCOC(=O)c2ccc(-c3c4nc(c(-c5c(F)cc(S(=O)(=O)[O-])cc5F)c5ccc([nH]5)c(-c5c(F)cc(S(=O)(=O)[O-])cc5F)c5nc(c(-c6c(F)cc(S(=O)(=O)[O-])cc6F)c6ccc3[nH]6)C=C5)C=C4)cc2)cc1
REMARK SMILES IDX 29 1 28 2 27 3 26 4 25 5 24 6 22 7 23 8 21 9 6 10 7 11 8 12
REMARK SMILES IDX 13 13 9 14 12 15 14 16 10 17 11 18 15 20 20 21 16 22 19 23
REMARK SMILES IDX 17 24 18 25 5 26 1 27 2 28 3 29 103 30 4 31 102 32 30 33
REMARK SMILES IDX 31 34 32 35 33 36 34 37 35 38 36 39 37 40 101 41 38 42
REMARK SMILES IDX 100 43 39 44 40 45 41 46 94 47 42 48 99 49 93 50 95 51 43 52
REMARK SMILES IDX 98 53 92 54 91 55 44 57 78 58 57 59 77 60 58 61 61 62 76 63
REMARK SMILES IDX 96 64 59 65 60 66 75 68 97 69 62 70 45 71 46 72 55 73 47 74
REMARK SMILES IDX 48 75 54 76 56 77 49 78 50 79 51 80 52 81 53 82 79 83 80 84
REMARK SMILES IDX 89 85 81 86 82 87 88 88 90 89 83 90 84 91 85 92 86 93 87 94
REMARK SMILES IDX 63 95 64 96 73 97 65 98 66 99 72 100 74 101 67 102 68 103
REMARK SMILES IDX 69 104 70 105 71 106
REMARK H PARENT 9 19 95 56 61 67
REMARK Flexibility Score: inf
ROOT
ATOM      1  C   UNL A   1      34.404  25.642  25.383  1.00  0.00     0.188 C 
ENDROOT
BRANCH   1   2
ATOM      2  C   UNL A   1      32.918  25.979  25.425  1.00  0.00     0.188 C 
BRANCH   2   3
ATOM      3  O   UNL A   1      32.338  27.242  25.011  1.00  0.00    -0.376 OA
BRANCH   3   4
ATOM      4  C   UNL A   1      31.907  28.400  25.778  1.00  0.00     0.202 C 
BRANCH   4   5
ATOM      5  C   UNL A   1      32.338  29.124  27.366  1.00  0.00     0.261 C 
BRANCH   5   6
ATOM      6  O   UNL A   1      33.663  30.033  27.933  1.00  0.00    -0.460 OA
BRANCH   6   7
ATOM      7  C   UNL A   1      34.393  31.243  27.751  1.00  0.00     0.339 C 
ATOM      8  O   UNL A   1      34.102  32.226  27.088  1.00  0.00    -0.246 OA
BRANCH   7   9
ATOM      9  C   UNL A   1      35.643  31.623  28.419  1.00  0.00     0.080 A 
ATOM     10  C   UNL A   1      36.569  32.812  32.604  1.00  0.00     0.020 C 
ATOM     11  C   UNL A   1      36.280  33.415  31.429  1.00  0.00     0.033 C 
ATOM     12  C   UNL A   1      35.306  34.572  31.300  1.00  0.00     0.301 C 
ATOM     13  C   UNL A   1      36.621  32.836  30.118  1.00  0.00     0.082 A 
ATOM     14  N   UNL A   1      34.066  34.063  30.723  1.00  0.00    -0.330 N 
ATOM     15  C   UNL A   1      35.542  32.674  29.286  1.00  0.00     0.048 A 
ATOM     16  N   UNL A   1      37.831  32.241  29.957  1.00  0.00    -0.247 NA
ATOM     17  C   UNL A   1      32.979  35.025  30.601  1.00  0.00     0.333 C 
ATOM     18  C   UNL A   1      34.295  33.484  29.411  1.00  0.00     0.302 C 
ATOM     19  H   UNL A   1      33.767  33.364  31.402  1.00  0.00     0.348 HD
ATOM     20  C   UNL A   1      37.934  31.184  29.137  1.00  0.00     0.072 A 
ATOM     21  C   UNL A   1      36.835  30.723  28.407  1.00  0.00     0.015 A 
ATOM     22  C   UNL A   1      39.141  30.467  29.126  1.00  0.00     0.029 A 
ATOM     23  C   UNL A   1      37.027  29.404  27.817  1.00  0.00     0.011 A 
ATOM     24  C   UNL A   1      39.300  29.228  28.497  1.00  0.00     0.002 A 
ATOM     25  C   UNL A   1      38.216  28.671  27.864  1.00  0.00     0.001 A 
BRANCH  10  26
ATOM     26  C   UNL A   1      37.350  31.573  32.822  1.00  0.00    -0.025 A 
ATOM     27  C   UNL A   1      39.988  28.154  32.902  1.00  0.00     0.044 C 
ATOM     28  C   UNL A   1      39.039  29.311  32.997  1.00  0.00    -0.051 A 
ATOM     29  C   UNL A   1      37.696  29.166  32.634  1.00  0.00     0.004 A 
ATOM     30  C   UNL A   1      39.507  30.582  33.344  1.00  0.00     0.004 A 
ATOM     31  C   UNL A   1      36.851  30.285  32.579  1.00  0.00     0.008 A 
ATOM     32  C   UNL A   1      38.670  31.700  33.260  1.00  0.00     0.008 A 
ENDBRANCH  10  26
ENDBRANCH   7   9
ENDBRANCH   6   7
ENDBRANCH   5   6
ENDBRANCH   4   5
ENDBRANCH   3   4
ENDBRANCH   2   3
ENDBRANCH   1   2
BRANCH   1  33
ATOM     33  O   UNL A   1      34.606  24.278  25.671  1.00  0.00    -0.376 OA
BRANCH  33  34
ATOM     34  C   UNL A   1      35.650  23.637  24.971  1.00  0.00     0.202 C 
BRANCH  34  35
ATOM     35  C   UNL A   1      36.857  23.161  25.808  1.00  0.00     0.261 C 
BRANCH  35  36
ATOM     36  O   UNL A   1      37.938  24.126  25.916  1.00  0.00    -0.460 OA
BRANCH  36  37
ATOM     37  C   UNL A   1      39.121  23.762  26.563  1.00  0.00     0.338 C 
ATOM     38  O   UNL A   1      39.523  22.640  26.583  1.00  0.00    -0.246 OA
BRANCH  37  39
ATOM     39  C   UNL A   1      39.901  24.988  26.969  1.00  0.00     0.060 A 
ATOM     40  C   UNL A   1      40.651  25.891  26.209  1.00  0.00     0.016 A 
ATOM     41  C   UNL A   1      39.971  25.184  28.293  1.00  0.00     0.016 A 
ATOM     42  C   UNL A   1      41.654  26.801  26.806  1.00  0.00     0.010 A 
ATOM     43  C   UNL A   1      41.081  25.879  28.763  1.00  0.00     0.010 A 
ATOM     44  C   UNL A   1      41.990  26.800  28.160  1.00  0.00    -0.014 A 
BRANCH  44  45
ATOM     45  C   UNL A   1      43.176  27.761  29.014  1.00  0.00     0.031 A 
ATOM     46  C   UNL A   1      43.069  29.313  29.737  1.00  0.00     0.074 A 
ATOM     47  C   UNL A   1      44.373  27.229  29.316  1.00  0.00     0.049 A 
ATOM     48  N   UNL A   1      43.060  29.567  31.035  1.00  0.00    -0.248 NA
ATOM     49  C   UNL A   1      42.869  30.624  29.021  1.00  0.00     0.031 C 
ATOM     50  C   UNL A   1      45.380  27.734  30.249  1.00  0.00     0.029 A 
ATOM     51  N   UNL A   1      45.008  26.162  28.693  1.00  0.00    -0.354 N 
ATOM     52  C   UNL A   1      42.560  30.881  31.258  1.00  0.00     0.074 A 
ATOM     53  C   UNL A   1      42.257  31.392  29.926  1.00  0.00     0.031 C 
ATOM     54  C   UNL A   1      46.580  27.275  29.852  1.00  0.00     0.029 A 
ATOM     55  C   UNL A   1      46.351  26.568  28.600  1.00  0.00     0.049 A 
ATOM     56  H   UNL A   1      44.609  25.317  28.384  1.00  0.00     0.167 HD
ATOM     57  C   UNL A   1      43.198  31.801  32.048  1.00  0.00     0.037 A 
ATOM     58  C   UNL A   1      46.774  26.979  27.370  1.00  0.00     0.037 A 
ATOM     59  C   UNL A   1      44.613  31.752  31.779  1.00  0.00     0.049 A 
ATOM     60  C   UNL A   1      47.032  28.477  27.403  1.00  0.00     0.074 A 
ATOM     61  C   UNL A   1      45.647  31.025  32.326  1.00  0.00     0.029 A 
ATOM     62  N   UNL A   1      45.045  32.178  30.530  1.00  0.00    -0.354 N 
ATOM     63  N   UNL A   1      46.379  29.363  28.125  1.00  0.00    -0.248 NA
ATOM     64  C   UNL A   1      48.215  29.034  26.762  1.00  0.00     0.031 C 
ATOM     65  C   UNL A   1      46.598  30.819  31.282  1.00  0.00     0.029 A 
ATOM     66  C   UNL A   1      46.174  31.486  30.138  1.00  0.00     0.049 A 
ATOM     67  H   UNL A   1      44.606  32.879  29.996  1.00  0.00     0.167 HD
ATOM     68  C   UNL A   1      47.059  30.559  28.089  1.00  0.00     0.074 A 
ATOM     69  C   UNL A   1      48.195  30.295  27.219  1.00  0.00     0.031 C 
ATOM     70  C   UNL A   1      46.758  31.686  28.813  1.00  0.00     0.037 A 
BRANCH  57  71
ATOM     71  C   UNL A   1      42.437  32.798  32.912  1.00  0.00     0.058 A 
ATOM     72  C   UNL A   1      42.334  32.625  34.309  1.00  0.00     0.135 A 
ATOM     73  C   UNL A   1      41.690  33.887  32.395  1.00  0.00     0.135 A 
ATOM     74  F   UNL A   1      43.007  31.641  34.924  1.00  0.00    -0.206 F 
ATOM     75  C   UNL A   1      41.506  33.419  35.120  1.00  0.00     0.059 A 
ATOM     76  C   UNL A   1      40.859  34.700  33.190  1.00  0.00     0.059 A 
ATOM     77  F   UNL A   1      41.725  34.181  31.085  1.00  0.00    -0.206 F 
ATOM     78  C   UNL A   1      40.746  34.436  34.551  1.00  0.00     0.060 A 
BRANCH  78  79
ATOM     79  S   UNL A   1      39.575  35.349  35.594  1.00  0.00     0.124 S 
ATOM     80  O   UNL A   1      38.306  35.093  34.920  1.00  0.00    -0.237 OA
ATOM     81  O   UNL A   1      39.739  34.708  36.895  1.00  0.00    -0.237 OA
ATOM     82  O   UNL A   1      40.048  36.729  35.518  1.00  0.00    -0.744 OA
ENDBRANCH  78  79
ENDBRANCH  57  71
BRANCH  58  83
ATOM     83  C   UNL A   1      46.211  26.109  26.268  1.00  0.00     0.058 A 
ATOM     84  C   UNL A   1      46.826  24.841  26.075  1.00  0.00     0.135 A 
ATOM     85  C   UNL A   1      44.953  26.270  25.674  1.00  0.00     0.135 A 
ATOM     86  F   UNL A   1      48.058  24.614  26.566  1.00  0.00    -0.206 F 
ATOM     87  C   UNL A   1      46.159  23.747  25.528  1.00  0.00     0.059 A 
ATOM     88  C   UNL A   1      44.283  25.189  25.056  1.00  0.00     0.059 A 
ATOM     89  F   UNL A   1      44.292  27.429  25.798  1.00  0.00    -0.206 F 
ATOM     90  C   UNL A   1      44.861  23.915  25.070  1.00  0.00     0.060 A 
BRANCH  90  91
ATOM     91  S   UNL A   1      43.925  22.413  24.664  1.00  0.00     0.124 S 
ATOM     92  O   UNL A   1      42.560  22.801  24.998  1.00  0.00    -0.237 OA
ATOM     93  O   UNL A   1      44.203  22.261  23.235  1.00  0.00    -0.237 OA
ATOM     94  O   UNL A   1      44.514  21.402  25.533  1.00  0.00    -0.744 OA
ENDBRANCH  90  91
ENDBRANCH  58  83
BRANCH  70  95
ATOM     95  C   UNL A   1      47.186  33.082  28.373  1.00  0.00     0.058 A 
ATOM     96  C   UNL A   1      46.438  33.867  27.475  1.00  0.00     0.135 A 
ATOM     97  C   UNL A   1      48.317  33.732  28.923  1.00  0.00     0.135 A 
ATOM     98  F   UNL A   1      45.233  33.482  27.033  1.00  0.00    -0.206 F 
ATOM     99  C   UNL A   1      46.881  35.101  27.005  1.00  0.00     0.059 A 
ATOM    100  C   UNL A   1      48.731  35.003  28.536  1.00  0.00     0.059 A 
ATOM    101  F   UNL A   1      49.073  33.170  29.878  1.00  0.00    -0.206 F 
ATOM    102  C   UNL A   1      48.045  35.649  27.522  1.00  0.00     0.060 A 
BRANCH 102 103
ATOM    103  S   UNL A   1      48.658  37.205  26.870  1.00  0.00     0.124 S 
ATOM    104  O   UNL A   1      49.905  36.778  26.243  1.00  0.00    -0.237 OA
ATOM    105  O   UNL A   1      47.596  37.609  25.953  1.00  0.00    -0.237 OA
ATOM    106  O   UNL A   1      48.800  38.036  28.061  1.00  0.00    -0.744 OA
ENDBRANCH 102 103
ENDBRANCH  70  95
ENDBRANCH  44  45
ENDBRANCH  37  39
ENDBRANCH  36  37
ENDBRANCH  35  36
ENDBRANCH  34  35
ENDBRANCH  33  34
ENDBRANCH   1  33
TORSDOF 21
ENDMDL
MODEL 3
REMARK VINA RESULT:     -10.7      3.957     11.192
REMARK SMILES Cc1ccc(/C=C2/C[N@@H+](C)Cc3c2nc2ccccc2c3C(=O)OCCOCCOCCOC(=O)c2ccc(-c3c4nc(c(-c5c(F)cc(S(=O)(=O)[O-])cc5F)c5ccc([nH]5)c(-c5c(F)cc(S(=O)(=O)[O-])cc5F)c5nc(c(-c6c(F)cc(S(=O)(=O)[O-])cc6F)c6ccc3[nH]6)C=C5)C=C4)cc2)cc1
REMARK SMILES IDX 29 1 28 2 27 3 26 4 25 5 24 6 22 7 23 8 21 9 6 10 7 11 8 12
REMARK SMILES IDX 13 13 9 14 12 15 14 16 10 17 11 18 15 20 20 21 16 22 19 23
REMARK SMILES IDX 17 24 18 25 5 26 1 27 2 28 3 29 103 30 4 31 102 32 30 33
REMARK SMILES IDX 31 34 32 35 33 36 34 37 35 38 36 39 37 40 101 41 38 42
REMARK SMILES IDX 100 43 39 44 40 45 41 46 94 47 42 48 99 49 93 50 95 51 43 52
REMARK SMILES IDX 98 53 92 54 91 55 44 57 78 58 57 59 77 60 58 61 61 62 76 63
REMARK SMILES IDX 96 64 59 65 60 66 75 68 97 69 62 70 45 71 46 72 55 73 47 74
REMARK SMILES IDX 48 75 54 76 56 77 49 78 50 79 51 80 52 81 53 82 79 83 80 84
REMARK SMILES IDX 89 85 81 86 82 87 88 88 90 89 83 90 84 91 85 92 86 93 87 94
REMARK SMILES IDX 63 95 64 96 73 97 65 98 66 99 72 100 74 101 67 102 68 103
REMARK SMILES IDX 69 104 70 105 71 106
REMARK H PARENT 9 19 95 56 61 67
REMARK Flexibility Score: inf
ROOT
ATOM      1  C   UNL A   1      41.299  21.136  26.126  1.00  0.00     0.188 C 
ENDROOT
BRANCH   1   2
ATOM      2  C   UNL A   1      40.080  21.853  26.697  1.00  0.00     0.188 C 
BRANCH   2   3
ATOM      3  O   UNL A   1      39.830  23.277  26.599  1.00  0.00    -0.376 OA
BRANCH   3   4
ATOM      4  C   UNL A   1      40.737  24.410  26.504  1.00  0.00     0.202 C 
BRANCH   4   5
ATOM      5  C   UNL A   1      40.563  26.199  26.476  1.00  0.00     0.261 C 
BRANCH   5   6
ATOM      6  O   UNL A   1      41.170  27.464  27.442  1.00  0.00    -0.460 OA
BRANCH   6   7
ATOM      7  C   UNL A   1      40.800  28.524  28.319  1.00  0.00     0.339 C 
ATOM      8  O   UNL A   1      41.269  29.649  28.410  1.00  0.00    -0.246 OA
BRANCH   7   9
ATOM      9  C   UNL A   1      39.677  28.531  29.264  1.00  0.00     0.080 A 
ATOM     10  C   UNL A   1      39.198  30.236  33.344  1.00  0.00     0.020 C 
ATOM     11  C   UNL A   1      39.536  29.053  32.783  1.00  0.00     0.033 C 
ATOM     12  C   UNL A   1      40.700  28.203  33.259  1.00  0.00     0.301 C 
ATOM     13  C   UNL A   1      39.028  28.606  31.474  1.00  0.00     0.082 A 
ATOM     14  N   UNL A   1      41.793  28.351  32.304  1.00  0.00    -0.330 N 
ATOM     15  C   UNL A   1      40.016  28.309  30.568  1.00  0.00     0.048 A 
ATOM     16  N   UNL A   1      37.722  28.817  31.168  1.00  0.00    -0.247 NA
ATOM     17  C   UNL A   1      43.033  27.666  32.644  1.00  0.00     0.333 C 
ATOM     18  C   UNL A   1      41.396  27.916  30.976  1.00  0.00     0.302 C 
ATOM     19  H   UNL A   1      41.990  29.351  32.334  1.00  0.00     0.348 HD
ATOM     20  C   UNL A   1      37.383  29.074  29.895  1.00  0.00     0.072 A 
ATOM     21  C   UNL A   1      38.340  29.071  28.877  1.00  0.00     0.015 A 
ATOM     22  C   UNL A   1      36.065  29.476  29.627  1.00  0.00     0.029 A 
ATOM     23  C   UNL A   1      37.877  29.665  27.628  1.00  0.00     0.011 A 
ATOM     24  C   UNL A   1      35.647  29.987  28.394  1.00  0.00     0.002 A 
ATOM     25  C   UNL A   1      36.576  30.118  27.391  1.00  0.00     0.001 A 
BRANCH  10  26
ATOM     26  C   UNL A   1      38.213  31.226  32.854  1.00  0.00    -0.025 A 
ATOM     27  C   UNL A   1      35.753  34.586  31.705  1.00  0.00     0.044 C 
ATOM     28  C   UNL A   1      36.540  33.348  32.018  1.00  0.00    -0.051 A 
ATOM     29  C   UNL A   1      36.120  32.467  33.019  1.00  0.00     0.004 A 
ATOM     30  C   UNL A   1      37.767  33.113  31.388  1.00  0.00     0.004 A 
ATOM     31  C   UNL A   1      36.936  31.396  33.411  1.00  0.00     0.008 A 
ATOM     32  C   UNL A   1      38.592  32.060  31.801  1.00  0.00     0.008 A 
ENDBRANCH  10  26
ENDBRANCH   7   9
ENDBRANCH   6   7
ENDBRANCH   5   6
ENDBRANCH   4   5
ENDBRANCH   3   4
ENDBRANCH   2   3
ENDBRANCH   1   2
BRANCH   1  33
ATOM     33  O   UNL A   1      42.480  21.635  26.711  1.00  0.00    -0.376 OA
BRANCH  33  34
ATOM     34  C   UNL A   1      42.577  21.528  28.114  1.00  0.00     0.202 C 
BRANCH  34  35
ATOM     35  C   UNL A   1      42.972  22.808  28.881  1.00  0.00     0.261 C 
BRANCH  35  36
ATOM     36  O   UNL A   1      44.404  23.005  29.037  1.00  0.00    -0.460 OA
BRANCH  36  37
ATOM     37  C   UNL A   1      45.067  23.912  28.208  1.00  0.00     0.338 C 
ATOM     38  O   UNL A   1      45.640  23.577  27.218  1.00  0.00    -0.246 OA
BRANCH  37  39
ATOM     39  C   UNL A   1      44.726  25.330  28.595  1.00  0.00     0.060 A 
ATOM     40  C   UNL A   1      44.346  26.427  27.815  1.00  0.00     0.016 A 
ATOM     41  C   UNL A   1      44.922  25.610  29.890  1.00  0.00     0.016 A 
ATOM     42  C   UNL A   1      44.424  27.822  28.303  1.00  0.00     0.010 A 
ATOM     43  C   UNL A   1      45.198  26.936  30.208  1.00  0.00     0.010 A 
ATOM     44  C   UNL A   1      44.939  28.177  29.550  1.00  0.00    -0.014 A 
BRANCH  44  45
ATOM     45  C   UNL A   1      45.151  29.763  30.257  1.00  0.00     0.031 A 
ATOM     46  C   UNL A   1      44.035  30.825  31.012  1.00  0.00     0.074 A 
ATOM     47  C   UNL A   1      46.387  30.273  30.393  1.00  0.00     0.049 A 
ATOM     48  N   UNL A   1      43.978  31.103  32.304  1.00  0.00    -0.248 NA
ATOM     49  C   UNL A   1      42.883  31.534  30.348  1.00  0.00     0.031 C 
ATOM     50  C   UNL A   1      46.812  31.421  31.195  1.00  0.00     0.029 A 
ATOM     51  N   UNL A   1      47.527  29.933  29.676  1.00  0.00    -0.354 N 
ATOM     52  C   UNL A   1      42.712  31.678  32.610  1.00  0.00     0.074 A 
ATOM     53  C   UNL A   1      42.001  31.706  31.337  1.00  0.00     0.031 C 
ATOM     54  C   UNL A   1      47.927  31.926  30.638  1.00  0.00     0.029 A 
ATOM     55  C   UNL A   1      48.151  31.166  29.416  1.00  0.00     0.049 A 
ATOM     56  H   UNL A   1      47.830  29.035  29.409  1.00  0.00     0.167 HD
ATOM     57  C   UNL A   1      42.570  32.839  33.324  1.00  0.00     0.037 A 
ATOM     58  C   UNL A   1      48.021  31.652  28.147  1.00  0.00     0.037 A 
ATOM     59  C   UNL A   1      43.552  33.793  32.873  1.00  0.00     0.049 A 
ATOM     60  C   UNL A   1      47.125  32.880  28.170  1.00  0.00     0.074 A 
ATOM     61  C   UNL A   1      44.840  34.071  33.269  1.00  0.00     0.029 A 
ATOM     62  N   UNL A   1      43.415  34.294  31.584  1.00  0.00    -0.354 N 
ATOM     63  N   UNL A   1      46.113  33.090  28.984  1.00  0.00    -0.248 NA
ATOM     64  C   UNL A   1      47.474  34.060  27.389  1.00  0.00     0.031 C 
ATOM     65  C   UNL A   1      45.537  34.520  32.107  1.00  0.00     0.029 A 
ATOM     66  C   UNL A   1      44.650  34.587  31.039  1.00  0.00     0.049 A 
ATOM     67  H   UNL A   1      42.556  34.423  31.123  1.00  0.00     0.167 HD
ATOM     68  C   UNL A   1      45.717  34.404  28.878  1.00  0.00     0.074 A 
ATOM     69  C   UNL A   1      46.600  34.959  27.864  1.00  0.00     0.031 C 
ATOM     70  C   UNL A   1      44.774  35.033  29.652  1.00  0.00     0.037 A 
BRANCH  57  71
ATOM     71  C   UNL A   1      41.418  33.060  34.295  1.00  0.00     0.058 A 
ATOM     72  C   UNL A   1      41.268  32.259  35.447  1.00  0.00     0.135 A 
ATOM     73  C   UNL A   1      40.362  33.981  34.076  1.00  0.00     0.135 A 
ATOM     74  F   UNL A   1      42.208  31.359  35.777  1.00  0.00    -0.206 F 
ATOM     75  C   UNL A   1      40.135  32.312  36.276  1.00  0.00     0.059 A 
ATOM     76  C   UNL A   1      39.221  34.057  34.897  1.00  0.00     0.059 A 
ATOM     77  F   UNL A   1      40.395  34.824  33.031  1.00  0.00    -0.206 F 
ATOM     78  C   UNL A   1      39.099  33.192  35.979  1.00  0.00     0.060 A 
BRANCH  78  79
ATOM     79  S   UNL A   1      37.584  33.138  36.978  1.00  0.00     0.124 S 
ATOM     80  O   UNL A   1      36.612  33.764  36.087  1.00  0.00    -0.237 OA
ATOM     81  O   UNL A   1      37.403  31.708  37.205  1.00  0.00    -0.237 OA
ATOM     82  O   UNL A   1      37.927  33.917  38.165  1.00  0.00    -0.744 OA
ENDBRANCH  78  79
ENDBRANCH  57  71
BRANCH  58  83
ATOM     83  C   UNL A   1      48.147  30.554  27.114  1.00  0.00     0.058 A 
ATOM     84  C   UNL A   1      49.417  29.923  27.003  1.00  0.00     0.135 A 
ATOM     85  C   UNL A   1      47.076  29.872  26.526  1.00  0.00     0.135 A 
ATOM     86  F   UNL A   1      50.512  30.531  27.494  1.00  0.00    -0.206 F 
ATOM     87  C   UNL A   1      49.580  28.619  26.540  1.00  0.00     0.059 A 
ATOM     88  C   UNL A   1      47.231  28.571  25.991  1.00  0.00     0.059 A 
ATOM     89  F   UNL A   1      45.839  30.385  26.577  1.00  0.00    -0.206 F 
ATOM     90  C   UNL A   1      48.468  27.925  26.087  1.00  0.00     0.060 A 
BRANCH  90  91
ATOM     91  S   UNL A   1      48.665  26.144  25.797  1.00  0.00     0.124 S 
ATOM     92  O   UNL A   1      47.585  25.863  24.858  1.00  0.00    -0.237 OA
ATOM     93  O   UNL A   1      50.016  26.076  25.238  1.00  0.00    -0.237 OA
ATOM     94  O   UNL A   1      48.500  25.565  27.124  1.00  0.00    -0.744 OA
ENDBRANCH  90  91
ENDBRANCH  58  83
BRANCH  70  95
ATOM     95  C   UNL A   1      44.020  36.271  29.181  1.00  0.00     0.058 A 
ATOM     96  C   UNL A   1      42.883  36.211  28.353  1.00  0.00     0.135 A 
ATOM     97  C   UNL A   1      44.349  37.572  29.636  1.00  0.00     0.135 A 
ATOM     98  F   UNL A   1      42.317  35.045  28.013  1.00  0.00    -0.206 F 
ATOM     99  C   UNL A   1      42.256  37.349  27.851  1.00  0.00     0.059 A 
ATOM    100  C   UNL A   1      43.681  38.718  29.219  1.00  0.00     0.059 A 
ATOM    101  F   UNL A   1      45.331  37.794  30.521  1.00  0.00    -0.206 F 
ATOM    102  C   UNL A   1      42.681  38.601  28.269  1.00  0.00     0.060 A 
BRANCH 102 103
ATOM    103  S   UNL A   1      41.923  40.072  27.572  1.00  0.00     0.124 S 
ATOM    104  O   UNL A   1      41.142  40.553  28.707  1.00  0.00    -0.237 OA
ATOM    105  O   UNL A   1      43.080  40.887  27.211  1.00  0.00    -0.237 OA
ATOM    106  O   UNL A   1      41.153  39.552  26.446  1.00  0.00    -0.744 OA
ENDBRANCH 102 103
ENDBRANCH  70  95
ENDBRANCH  44  45
ENDBRANCH  37  39
ENDBRANCH  36  37
ENDBRANCH  35  36
ENDBRANCH  34  35
ENDBRANCH  33  34
ENDBRANCH   1  33
TORSDOF 21
ENDMDL
