MODEL 1
REMARK VINA RESULT:     -11.9      0.000      0.000
REMARK SMILES O=C(OCCOCCOCCOC(=O)c1ccc(-c2c3nc(c(-c4c(F)cc(S(=O)(=O)[O-])cc4F)c4ccc([nH]4)c(-c4c(F)cc(S(=O)(=O)[O-])cc4F)c4nc(c(-c5c(F)cc(S(=O)(=O)[O-])cc5F)c5ccc2[nH]5)C=C4)C=C3)cc1)C1=Cc2cc(C(F)(F)F)ccc2O[C@@H]1C(F)(F)F
REMARK SMILES IDX 8 1 7 2 6 3 5 4 4 5 3 6 2 7 1 8 81 9 82 10 94 11 83 12 93 13
REMARK SMILES IDX 84 14 92 15 85 16 91 17 90 18 95 19 96 20 97 21 98 22 86 23
REMARK SMILES IDX 87 24 88 25 89 26 9 27 10 28 11 29 12 30 13 31 14 32 15 33
REMARK SMILES IDX 16 34 80 35 17 36 79 37 18 38 19 39 20 40 73 41 21 42 78 43
REMARK SMILES IDX 72 44 74 45 22 46 77 47 71 48 70 49 23 51 57 52 36 53 56 54
REMARK SMILES IDX 37 55 40 56 55 57 75 58 38 59 39 60 54 62 76 63 41 64 24 65
REMARK SMILES IDX 25 66 34 67 26 68 27 69 33 70 35 71 28 72 29 73 30 74 31 75
REMARK SMILES IDX 32 76 58 77 59 78 68 79 60 80 61 81 67 82 69 83 62 84 63 85
REMARK SMILES IDX 64 86 65 87 66 88 42 89 43 90 52 91 44 92 45 93 51 94 53 95
REMARK SMILES IDX 46 96 47 97 48 98 49 99 50 100
REMARK H PARENT 74 50 40 61
REMARK Flexibility Score: inf
ROOT
ATOM      1  C   UNL A   1      42.386  19.541  25.801  1.00  0.00     0.188 C 
ENDROOT
BRANCH   1   2
ATOM      2  C   UNL A   1      40.888  19.768  26.063  1.00  0.00     0.188 C 
BRANCH   2   3
ATOM      3  O   UNL A   1      39.810  19.052  25.315  1.00  0.00    -0.376 OA
BRANCH   3   4
ATOM      4  C   UNL A   1      38.108  19.370  25.336  1.00  0.00     0.202 C 
BRANCH   4   5
ATOM      5  C   UNL A   1      37.211  21.263  24.760  1.00  0.00     0.261 C 
BRANCH   5   6
ATOM      6  O   UNL A   1      35.758  21.504  24.413  1.00  0.00    -0.460 OA
BRANCH   6   7
ATOM      7  C   UNL A   1      35.615  22.562  23.602  1.00  0.00     0.338 C 
ATOM      8  O   UNL A   1      36.483  23.156  23.012  1.00  0.00    -0.246 OA
BRANCH   7   9
ATOM      9  C   UNL A   1      34.323  23.013  24.104  1.00  0.00     0.087 C 
ATOM     10  C   UNL A   1      34.352  24.096  25.079  1.00  0.00     0.027 C 
ATOM     11  C   UNL A   1      33.603  23.167  22.338  1.00  0.00     0.316 C 
ATOM     12  C   UNL A   1      34.004  25.810  24.701  1.00  0.00     0.018 A 
ATOM     13  O   UNL A   1      33.394  25.044  21.829  1.00  0.00    -0.475 OA
ATOM     14  C   UNL A   1      34.106  26.738  25.694  1.00  0.00     0.025 A 
ATOM     15  C   UNL A   1      33.596  26.343  23.109  1.00  0.00     0.128 A 
ATOM     16  C   UNL A   1      33.816  28.072  25.321  1.00  0.00     0.056 A 
ATOM     17  C   UNL A   1      33.311  27.644  22.807  1.00  0.00     0.048 A 
ATOM     18  C   UNL A   1      33.430  28.485  23.953  1.00  0.00     0.017 A 
BRANCH  11  19
ATOM     19  C   UNL A   1      32.471  21.940  22.629  1.00  0.00     0.430 C 
ATOM     20  F   UNL A   1      32.751  20.906  23.420  1.00  0.00    -0.167 F 
ATOM     21  F   UNL A   1      31.345  22.511  23.130  1.00  0.00    -0.167 F 
ATOM     22  F   UNL A   1      32.066  21.342  21.465  1.00  0.00    -0.167 F 
ENDBRANCH  11  19
BRANCH  16  23
ATOM     23  C   UNL A   1      33.911  29.091  26.450  1.00  0.00     0.416 C 
ATOM     24  F   UNL A   1      33.241  30.242  26.163  1.00  0.00    -0.166 F 
ATOM     25  F   UNL A   1      33.358  28.626  27.608  1.00  0.00    -0.166 F 
ATOM     26  F   UNL A   1      35.181  29.460  26.765  1.00  0.00    -0.166 F 
ENDBRANCH  16  23
ENDBRANCH   7   9
ENDBRANCH   6   7
ENDBRANCH   5   6
ENDBRANCH   4   5
ENDBRANCH   3   4
ENDBRANCH   2   3
ENDBRANCH   1   2
BRANCH   1  27
ATOM     27  O   UNL A   1      43.212  20.655  25.578  1.00  0.00    -0.376 OA
BRANCH  27  28
ATOM     28  C   UNL A   1      42.914  21.790  26.378  1.00  0.00     0.202 C 
BRANCH  28  29
ATOM     29  C   UNL A   1      42.526  23.101  25.666  1.00  0.00     0.261 C 
BRANCH  29  30
ATOM     30  O   UNL A   1      41.944  24.106  26.530  1.00  0.00    -0.460 OA
BRANCH  30  31
ATOM     31  C   UNL A   1      41.979  25.400  26.110  1.00  0.00     0.338 C 
ATOM     32  O   UNL A   1      42.159  25.796  24.972  1.00  0.00    -0.246 OA
BRANCH  31  33
ATOM     33  C   UNL A   1      41.623  26.298  27.234  1.00  0.00     0.060 A 
ATOM     34  C   UNL A   1      42.360  27.473  27.456  1.00  0.00     0.016 A 
ATOM     35  C   UNL A   1      40.581  25.953  28.092  1.00  0.00     0.016 A 
ATOM     36  C   UNL A   1      42.015  28.337  28.504  1.00  0.00     0.010 A 
ATOM     37  C   UNL A   1      40.277  26.786  29.174  1.00  0.00     0.010 A 
ATOM     38  C   UNL A   1      40.991  27.978  29.389  1.00  0.00    -0.014 A 
BRANCH  38  39
ATOM     39  C   UNL A   1      40.819  28.705  30.674  1.00  0.00     0.031 A 
ATOM     40  C   UNL A   1      39.770  29.782  30.722  1.00  0.00     0.074 A 
ATOM     41  C   UNL A   1      41.592  28.460  31.747  1.00  0.00     0.049 A 
ATOM     42  N   UNL A   1      39.497  30.637  31.670  1.00  0.00    -0.248 NA
ATOM     43  C   UNL A   1      38.921  29.917  29.525  1.00  0.00     0.031 C 
ATOM     44  C   UNL A   1      42.615  27.422  31.833  1.00  0.00     0.029 A 
ATOM     45  N   UNL A   1      41.649  29.088  32.969  1.00  0.00    -0.354 N 
ATOM     46  C   UNL A   1      38.460  31.421  31.181  1.00  0.00     0.074 A 
ATOM     47  C   UNL A   1      38.165  30.954  29.845  1.00  0.00     0.031 C 
ATOM     48  C   UNL A   1      43.215  27.497  33.036  1.00  0.00     0.029 A 
ATOM     49  C   UNL A   1      42.648  28.615  33.791  1.00  0.00     0.049 A 
ATOM     50  H   UNL A   1      41.031  29.808  33.234  1.00  0.00     0.167 HD
ATOM     51  C   UNL A   1      37.816  32.443  31.790  1.00  0.00     0.037 A 
ATOM     52  C   UNL A   1      43.076  29.059  34.992  1.00  0.00     0.037 A 
ATOM     53  C   UNL A   1      38.133  32.912  33.113  1.00  0.00     0.049 A 
ATOM     54  C   UNL A   1      42.391  30.251  35.622  1.00  0.00     0.074 A 
ATOM     55  C   UNL A   1      37.525  33.925  33.832  1.00  0.00     0.029 A 
ATOM     56  N   UNL A   1      39.162  32.420  33.905  1.00  0.00    -0.354 N 
ATOM     57  N   UNL A   1      41.378  30.956  35.171  1.00  0.00    -0.248 NA
ATOM     58  C   UNL A   1      42.904  30.712  36.920  1.00  0.00     0.031 C 
ATOM     59  C   UNL A   1      38.233  34.098  35.023  1.00  0.00     0.029 A 
ATOM     60  C   UNL A   1      39.230  33.137  35.088  1.00  0.00     0.049 A 
ATOM     61  H   UNL A   1      39.754  31.672  33.661  1.00  0.00     0.167 HD
ATOM     62  C   UNL A   1      41.118  31.920  36.142  1.00  0.00     0.074 A 
ATOM     63  C   UNL A   1      42.068  31.699  37.212  1.00  0.00     0.031 C 
ATOM     64  C   UNL A   1      40.177  32.897  36.150  1.00  0.00     0.037 A 
BRANCH  51  65
ATOM     65  C   UNL A   1      36.739  33.153  31.017  1.00  0.00     0.058 A 
ATOM     66  C   UNL A   1      37.033  34.110  30.033  1.00  0.00     0.135 A 
ATOM     67  C   UNL A   1      35.388  32.838  31.241  1.00  0.00     0.135 A 
ATOM     68  F   UNL A   1      38.304  34.467  29.794  1.00  0.00    -0.206 F 
ATOM     69  C   UNL A   1      36.026  34.747  29.315  1.00  0.00     0.059 A 
ATOM     70  C   UNL A   1      34.367  33.436  30.509  1.00  0.00     0.059 A 
ATOM     71  F   UNL A   1      35.048  31.938  32.176  1.00  0.00    -0.206 F 
ATOM     72  C   UNL A   1      34.696  34.396  29.554  1.00  0.00     0.060 A 
BRANCH  72  73
ATOM     73  S   UNL A   1      33.406  35.211  28.592  1.00  0.00     0.124 S 
ATOM     74  O   UNL A   1      32.874  36.164  29.562  1.00  0.00    -0.237 OA
ATOM     75  O   UNL A   1      34.165  35.789  27.488  1.00  0.00    -0.237 OA
ATOM     76  O   UNL A   1      32.508  34.119  28.229  1.00  0.00    -0.744 OA
ENDBRANCH  72  73
ENDBRANCH  51  65
BRANCH  52  77
ATOM     77  C   UNL A   1      44.232  28.405  35.673  1.00  0.00     0.058 A 
ATOM     78  C   UNL A   1      45.555  28.790  35.406  1.00  0.00     0.135 A 
ATOM     79  C   UNL A   1      44.038  27.356  36.588  1.00  0.00     0.135 A 
ATOM     80  F   UNL A   1      45.803  29.771  34.524  1.00  0.00    -0.206 F 
ATOM     81  C   UNL A   1      46.641  28.156  36.006  1.00  0.00     0.059 A 
ATOM     82  C   UNL A   1      45.104  26.729  37.226  1.00  0.00     0.059 A 
ATOM     83  F   UNL A   1      42.796  26.940  36.882  1.00  0.00    -0.206 F 
ATOM     84  C   UNL A   1      46.404  27.129  36.920  1.00  0.00     0.060 A 
BRANCH  84  85
ATOM     85  S   UNL A   1      47.816  26.341  37.726  1.00  0.00     0.124 S 
ATOM     86  O   UNL A   1      47.567  26.650  39.129  1.00  0.00    -0.237 OA
ATOM     87  O   UNL A   1      47.646  24.943  37.340  1.00  0.00    -0.237 OA
ATOM     88  O   UNL A   1      48.965  27.014  37.128  1.00  0.00    -0.744 OA
ENDBRANCH  84  85
ENDBRANCH  52  77
BRANCH  64  89
ATOM     89  C   UNL A   1      40.089  33.787  37.363  1.00  0.00     0.058 A 
ATOM     90  C   UNL A   1      39.286  33.463  38.468  1.00  0.00     0.135 A 
ATOM     91  C   UNL A   1      40.895  34.935  37.457  1.00  0.00     0.135 A 
ATOM     92  F   UNL A   1      38.492  32.380  38.432  1.00  0.00    -0.206 F 
ATOM     93  C   UNL A   1      39.273  34.252  39.614  1.00  0.00     0.059 A 
ATOM     94  C   UNL A   1      40.926  35.717  38.606  1.00  0.00     0.059 A 
ATOM     95  F   UNL A   1      41.692  35.287  36.435  1.00  0.00    -0.206 F 
ATOM     96  C   UNL A   1      40.106  35.371  39.678  1.00  0.00     0.060 A 
BRANCH  96  97
ATOM     97  S   UNL A   1      40.124  36.348  41.195  1.00  0.00     0.124 S 
ATOM     98  O   UNL A   1      40.948  35.522  42.071  1.00  0.00    -0.237 OA
ATOM     99  O   UNL A   1      40.730  37.599  40.750  1.00  0.00    -0.237 OA
ATOM    100  O   UNL A   1      38.713  36.438  41.562  1.00  0.00    -0.744 OA
ENDBRANCH  96  97
ENDBRANCH  64  89
ENDBRANCH  38  39
ENDBRANCH  31  33
ENDBRANCH  30  31
ENDBRANCH  29  30
ENDBRANCH  28  29
ENDBRANCH  27  28
ENDBRANCH   1  27
TORSDOF 22
ENDMDL
MODEL 2
REMARK VINA RESULT:     -11.8      6.239     11.626
REMARK SMILES O=C(OCCOCCOCCOC(=O)c1ccc(-c2c3nc(c(-c4c(F)cc(S(=O)(=O)[O-])cc4F)c4ccc([nH]4)c(-c4c(F)cc(S(=O)(=O)[O-])cc4F)c4nc(c(-c5c(F)cc(S(=O)(=O)[O-])cc5F)c5ccc2[nH]5)C=C4)C=C3)cc1)C1=Cc2cc(C(F)(F)F)ccc2O[C@@H]1C(F)(F)F
REMARK SMILES IDX 8 1 7 2 6 3 5 4 4 5 3 6 2 7 1 8 81 9 82 10 94 11 83 12 93 13
REMARK SMILES IDX 84 14 92 15 85 16 91 17 90 18 95 19 96 20 97 21 98 22 86 23
REMARK SMILES IDX 87 24 88 25 89 26 9 27 10 28 11 29 12 30 13 31 14 32 15 33
REMARK SMILES IDX 16 34 80 35 17 36 79 37 18 38 19 39 20 40 73 41 21 42 78 43
REMARK SMILES IDX 72 44 74 45 22 46 77 47 71 48 70 49 23 51 57 52 36 53 56 54
REMARK SMILES IDX 37 55 40 56 55 57 75 58 38 59 39 60 54 62 76 63 41 64 24 65
REMARK SMILES IDX 25 66 34 67 26 68 27 69 33 70 35 71 28 72 29 73 30 74 31 75
REMARK SMILES IDX 32 76 58 77 59 78 68 79 60 80 61 81 67 82 69 83 62 84 63 85
REMARK SMILES IDX 64 86 65 87 66 88 42 89 43 90 52 91 44 92 45 93 51 94 53 95
REMARK SMILES IDX 46 96 47 97 48 98 49 99 50 100
REMARK H PARENT 74 50 40 61
REMARK Flexibility Score: inf
ROOT
ATOM      1  C   UNL A   1      34.031  32.187  27.893  1.00  0.00     0.188 C 
ENDROOT
BRANCH   1   2
ATOM      2  C   UNL A   1      33.748  30.774  27.359  1.00  0.00     0.188 C 
BRANCH   2   3
ATOM      3  O   UNL A   1      32.380  30.171  27.325  1.00  0.00    -0.376 OA
BRANCH   3   4
ATOM      4  C   UNL A   1      31.836  28.815  26.398  1.00  0.00     0.202 C 
BRANCH   4   5
ATOM      5  C   UNL A   1      32.183  26.741  26.946  1.00  0.00     0.261 C 
BRANCH   5   6
ATOM      6  O   UNL A   1      31.366  25.544  26.509  1.00  0.00    -0.460 OA
BRANCH   6   7
ATOM      7  C   UNL A   1      32.149  24.553  26.059  1.00  0.00     0.338 C 
ATOM      8  O   UNL A   1      33.211  24.196  26.506  1.00  0.00    -0.246 OA
BRANCH   7   9
ATOM      9  C   UNL A   1      31.616  24.491  24.703  1.00  0.00     0.087 C 
ATOM     10  C   UNL A   1      30.395  25.246  24.456  1.00  0.00     0.027 C 
ATOM     11  C   UNL A   1      33.318  24.903  23.932  1.00  0.00     0.316 C 
ATOM     12  C   UNL A   1      30.336  26.840  23.644  1.00  0.00     0.018 A 
ATOM     13  O   UNL A   1      33.336  26.720  23.207  1.00  0.00    -0.475 OA
ATOM     14  C   UNL A   1      29.133  27.467  23.509  1.00  0.00     0.025 A 
ATOM     15  C   UNL A   1      31.756  27.642  23.073  1.00  0.00     0.128 A 
ATOM     16  C   UNL A   1      29.164  28.723  22.858  1.00  0.00     0.056 A 
ATOM     17  C   UNL A   1      31.727  28.850  22.437  1.00  0.00     0.048 A 
ATOM     18  C   UNL A   1      30.398  29.361  22.345  1.00  0.00     0.017 A 
BRANCH  11  19
ATOM     19  C   UNL A   1      33.414  23.385  23.185  1.00  0.00     0.430 C 
ATOM     20  F   UNL A   1      33.276  22.256  23.879  1.00  0.00    -0.167 F 
ATOM     21  F   UNL A   1      32.485  23.340  22.195  1.00  0.00    -0.167 F 
ATOM     22  F   UNL A   1      34.612  23.214  22.544  1.00  0.00    -0.167 F 
ENDBRANCH  11  19
BRANCH  16  23
ATOM     23  C   UNL A   1      27.807  29.397  22.694  1.00  0.00     0.416 C 
ATOM     24  F   UNL A   1      27.632  29.904  21.441  1.00  0.00    -0.166 F 
ATOM     25  F   UNL A   1      26.775  28.523  22.880  1.00  0.00    -0.166 F 
ATOM     26  F   UNL A   1      27.586  30.425  23.554  1.00  0.00    -0.166 F 
ENDBRANCH  16  23
ENDBRANCH   7   9
ENDBRANCH   6   7
ENDBRANCH   5   6
ENDBRANCH   4   5
ENDBRANCH   3   4
ENDBRANCH   2   3
ENDBRANCH   1   2
BRANCH   1  27
ATOM     27  O   UNL A   1      35.273  32.782  27.614  1.00  0.00    -0.376 OA
BRANCH  27  28
ATOM     28  C   UNL A   1      35.648  33.825  28.502  1.00  0.00     0.202 C 
BRANCH  28  29
ATOM     29  C   UNL A   1      37.087  33.826  29.056  1.00  0.00     0.261 C 
BRANCH  29  30
ATOM     30  O   UNL A   1      37.224  33.252  30.378  1.00  0.00    -0.460 OA
BRANCH  30  31
ATOM     31  C   UNL A   1      36.965  31.924  30.522  1.00  0.00     0.338 C 
ATOM     32  O   UNL A   1      35.890  31.412  30.779  1.00  0.00    -0.246 OA
BRANCH  31  33
ATOM     33  C   UNL A   1      38.175  31.140  30.180  1.00  0.00     0.060 A 
ATOM     34  C   UNL A   1      39.143  30.874  31.162  1.00  0.00     0.016 A 
ATOM     35  C   UNL A   1      38.369  30.702  28.871  1.00  0.00     0.016 A 
ATOM     36  C   UNL A   1      40.278  30.116  30.849  1.00  0.00     0.010 A 
ATOM     37  C   UNL A   1      39.532  29.997  28.546  1.00  0.00     0.010 A 
ATOM     38  C   UNL A   1      40.494  29.702  29.529  1.00  0.00    -0.014 A 
BRANCH  38  39
ATOM     39  C   UNL A   1      41.822  29.182  29.111  1.00  0.00     0.031 A 
ATOM     40  C   UNL A   1      42.949  30.171  29.006  1.00  0.00     0.074 A 
ATOM     41  C   UNL A   1      42.017  27.891  28.787  1.00  0.00     0.049 A 
ATOM     42  N   UNL A   1      44.164  30.006  28.557  1.00  0.00    -0.248 NA
ATOM     43  C   UNL A   1      42.656  31.542  29.462  1.00  0.00     0.031 C 
ATOM     44  C   UNL A   1      41.014  26.834  28.881  1.00  0.00     0.029 A 
ATOM     45  N   UNL A   1      43.130  27.253  28.290  1.00  0.00    -0.354 N 
ATOM     46  C   UNL A   1      44.774  31.249  28.659  1.00  0.00     0.074 A 
ATOM     47  C   UNL A   1      43.792  32.165  29.194  1.00  0.00     0.031 C 
ATOM     48  C   UNL A   1      41.549  25.683  28.434  1.00  0.00     0.029 A 
ATOM     49  C   UNL A   1      42.919  25.928  27.983  1.00  0.00     0.049 A 
ATOM     50  H   UNL A   1      43.997  27.703  28.165  1.00  0.00     0.167 HD
ATOM     51  C   UNL A   1      46.040  31.597  28.329  1.00  0.00     0.037 A 
ATOM     52  C   UNL A   1      43.726  25.031  27.375  1.00  0.00     0.037 A 
ATOM     53  C   UNL A   1      47.002  30.681  27.778  1.00  0.00     0.049 A 
ATOM     54  C   UNL A   1      45.112  25.462  26.947  1.00  0.00     0.074 A 
ATOM     55  C   UNL A   1      48.319  30.926  27.432  1.00  0.00     0.029 A 
ATOM     56  N   UNL A   1      46.746  29.352  27.466  1.00  0.00    -0.354 N 
ATOM     57  N   UNL A   1      45.696  26.629  27.092  1.00  0.00    -0.248 NA
ATOM     58  C   UNL A   1      45.947  24.459  26.270  1.00  0.00     0.031 C 
ATOM     59  C   UNL A   1      48.834  29.771  26.840  1.00  0.00     0.029 A 
ATOM     60  C   UNL A   1      47.869  28.778  26.894  1.00  0.00     0.049 A 
ATOM     61  H   UNL A   1      45.893  28.888  27.628  1.00  0.00     0.167 HD
ATOM     62  C   UNL A   1      46.973  26.489  26.553  1.00  0.00     0.074 A 
ATOM     63  C   UNL A   1      47.082  25.121  26.093  1.00  0.00     0.031 C 
ATOM     64  C   UNL A   1      47.965  27.408  26.450  1.00  0.00     0.037 A 
BRANCH  51  65
ATOM     65  C   UNL A   1      46.441  33.035  28.512  1.00  0.00     0.058 A 
ATOM     66  C   UNL A   1      47.065  33.493  29.684  1.00  0.00     0.135 A 
ATOM     67  C   UNL A   1      46.230  33.962  27.478  1.00  0.00     0.135 A 
ATOM     68  F   UNL A   1      47.270  32.657  30.713  1.00  0.00    -0.206 F 
ATOM     69  C   UNL A   1      47.445  34.823  29.832  1.00  0.00     0.059 A 
ATOM     70  C   UNL A   1      46.635  35.288  27.590  1.00  0.00     0.059 A 
ATOM     71  F   UNL A   1      45.629  33.582  26.340  1.00  0.00    -0.206 F 
ATOM     72  C   UNL A   1      47.233  35.711  28.775  1.00  0.00     0.060 A 
BRANCH  72  73
ATOM     73  S   UNL A   1      47.759  37.425  28.976  1.00  0.00     0.124 S 
ATOM     74  O   UNL A   1      47.733  37.572  30.427  1.00  0.00    -0.237 OA
ATOM     75  O   UNL A   1      49.084  37.414  28.365  1.00  0.00    -0.237 OA
ATOM     76  O   UNL A   1      46.744  38.182  28.251  1.00  0.00    -0.744 OA
ENDBRANCH  72  73
ENDBRANCH  51  65
BRANCH  52  77
ATOM     77  C   UNL A   1      43.246  23.645  27.099  1.00  0.00     0.058 A 
ATOM     78  C   UNL A   1      43.232  22.661  28.099  1.00  0.00     0.135 A 
ATOM     79  C   UNL A   1      42.817  23.268  25.815  1.00  0.00     0.135 A 
ATOM     80  F   UNL A   1      43.652  22.958  29.339  1.00  0.00    -0.206 F 
ATOM     81  C   UNL A   1      42.826  21.354  27.838  1.00  0.00     0.059 A 
ATOM     82  C   UNL A   1      42.375  21.977  25.537  1.00  0.00     0.059 A 
ATOM     83  F   UNL A   1      42.810  24.164  24.816  1.00  0.00    -0.206 F 
ATOM     84  C   UNL A   1      42.393  21.023  26.553  1.00  0.00     0.060 A 
BRANCH  84  85
ATOM     85  S   UNL A   1      41.826  19.337  26.234  1.00  0.00     0.124 S 
ATOM     86  O   UNL A   1      42.591  18.989  25.043  1.00  0.00    -0.237 OA
ATOM     87  O   UNL A   1      42.210  18.650  27.463  1.00  0.00    -0.237 OA
ATOM     88  O   UNL A   1      40.389  19.496  26.035  1.00  0.00    -0.744 OA
ENDBRANCH  84  85
ENDBRANCH  52  77
BRANCH  64  89
ATOM     89  C   UNL A   1      49.278  26.969  25.854  1.00  0.00     0.058 A 
ATOM     90  C   UNL A   1      49.577  27.149  24.494  1.00  0.00     0.135 A 
ATOM     91  C   UNL A   1      50.287  26.444  26.679  1.00  0.00     0.135 A 
ATOM     92  F   UNL A   1      48.648  27.642  23.658  1.00  0.00    -0.206 F 
ATOM     93  C   UNL A   1      50.821  26.811  23.972  1.00  0.00     0.059 A 
ATOM     94  C   UNL A   1      51.551  26.134  26.186  1.00  0.00     0.059 A 
ATOM     95  F   UNL A   1      50.062  26.261  27.990  1.00  0.00    -0.206 F 
ATOM     96  C   UNL A   1      51.806  26.315  24.828  1.00  0.00     0.060 A 
BRANCH  96  97
ATOM     97  S   UNL A   1      53.434  25.941  24.146  1.00  0.00     0.124 S 
ATOM     98  O   UNL A   1      53.659  24.586  24.640  1.00  0.00    -0.237 OA
ATOM     99  O   UNL A   1      53.203  26.061  22.710  1.00  0.00    -0.237 OA
ATOM    100  O   UNL A   1      54.294  26.969  24.725  1.00  0.00    -0.744 OA
ENDBRANCH  96  97
ENDBRANCH  64  89
ENDBRANCH  38  39
ENDBRANCH  31  33
ENDBRANCH  30  31
ENDBRANCH  29  30
ENDBRANCH  28  29
ENDBRANCH  27  28
ENDBRANCH   1  27
TORSDOF 22
ENDMDL
MODEL 3
REMARK VINA RESULT:     -11.5      1.482      2.343
REMARK SMILES O=C(OCCOCCOCCOC(=O)c1ccc(-c2c3nc(c(-c4c(F)cc(S(=O)(=O)[O-])cc4F)c4ccc([nH]4)c(-c4c(F)cc(S(=O)(=O)[O-])cc4F)c4nc(c(-c5c(F)cc(S(=O)(=O)[O-])cc5F)c5ccc2[nH]5)C=C4)C=C3)cc1)C1=Cc2cc(C(F)(F)F)ccc2O[C@@H]1C(F)(F)F
REMARK SMILES IDX 8 1 7 2 6 3 5 4 4 5 3 6 2 7 1 8 81 9 82 10 94 11 83 12 93 13
REMARK SMILES IDX 84 14 92 15 85 16 91 17 90 18 95 19 96 20 97 21 98 22 86 23
REMARK SMILES IDX 87 24 88 25 89 26 9 27 10 28 11 29 12 30 13 31 14 32 15 33
REMARK SMILES IDX 16 34 80 35 17 36 79 37 18 38 19 39 20 40 73 41 21 42 78 43
REMARK SMILES IDX 72 44 74 45 22 46 77 47 71 48 70 49 23 51 57 52 36 53 56 54
REMARK SMILES IDX 37 55 40 56 55 57 75 58 38 59 39 60 54 62 76 63 41 64 24 65
REMARK SMILES IDX 25 66 34 67 26 68 27 69 33 70 35 71 28 72 29 73 30 74 31 75
REMARK SMILES IDX 32 76 58 77 59 78 68 79 60 80 61 81 67 82 69 83 62 84 63 85
REMARK SMILES IDX 64 86 65 87 66 88 42 89 43 90 52 91 44 92 45 93 51 94 53 95
REMARK SMILES IDX 46 96 47 97 48 98 49 99 50 100
REMARK H PARENT 74 50 40 61
REMARK Flexibility Score: inf
ROOT
ATOM      1  C   UNL A   1      42.558  19.559  25.882  1.00  0.00     0.188 C 
ENDROOT
BRANCH   1   2
ATOM      2  C   UNL A   1      41.347  19.927  26.754  1.00  0.00     0.188 C 
BRANCH   2   3
ATOM      3  O   UNL A   1      40.014  20.299  26.189  1.00  0.00    -0.376 OA
BRANCH   3   4
ATOM      4  C   UNL A   1      39.284  21.867  26.125  1.00  0.00     0.202 C 
BRANCH   4   5
ATOM      5  C   UNL A   1      37.578  22.371  24.878  1.00  0.00     0.261 C 
BRANCH   5   6
ATOM      6  O   UNL A   1      36.837  23.691  24.853  1.00  0.00    -0.460 OA
BRANCH   6   7
ATOM      7  C   UNL A   1      35.694  23.600  24.160  1.00  0.00     0.338 C 
ATOM      8  O   UNL A   1      35.564  23.555  22.961  1.00  0.00    -0.246 OA
BRANCH   7   9
ATOM      9  C   UNL A   1      34.802  24.105  25.197  1.00  0.00     0.087 C 
ATOM     10  C   UNL A   1      34.331  25.474  25.031  1.00  0.00     0.027 C 
ATOM     11  C   UNL A   1      33.683  22.556  25.097  1.00  0.00     0.316 C 
ATOM     12  C   UNL A   1      32.711  25.921  24.418  1.00  0.00     0.018 A 
ATOM     13  O   UNL A   1      31.972  22.983  24.250  1.00  0.00    -0.475 OA
ATOM     14  C   UNL A   1      32.403  27.241  24.268  1.00  0.00     0.025 A 
ATOM     15  C   UNL A   1      31.538  24.741  23.953  1.00  0.00     0.128 A 
ATOM     16  C   UNL A   1      31.105  27.518  23.777  1.00  0.00     0.056 A 
ATOM     17  C   UNL A   1      30.292  25.064  23.498  1.00  0.00     0.048 A 
ATOM     18  C   UNL A   1      30.111  26.477  23.428  1.00  0.00     0.017 A 
BRANCH  11  19
ATOM     19  C   UNL A   1      34.078  22.096  26.680  1.00  0.00     0.430 C 
ATOM     20  F   UNL A   1      35.208  21.446  26.955  1.00  0.00    -0.167 F 
ATOM     21  F   UNL A   1      34.079  23.209  27.458  1.00  0.00    -0.167 F 
ATOM     22  F   UNL A   1      33.114  21.292  27.226  1.00  0.00    -0.167 F 
ENDBRANCH  11  19
BRANCH  16  23
ATOM     23  C   UNL A   1      30.772  28.999  23.641  1.00  0.00     0.416 C 
ATOM     24  F   UNL A   1      31.501  29.771  24.495  1.00  0.00    -0.166 F 
ATOM     25  F   UNL A   1      31.050  29.474  22.391  1.00  0.00    -0.166 F 
ATOM     26  F   UNL A   1      29.468  29.302  23.875  1.00  0.00    -0.166 F 
ENDBRANCH  16  23
ENDBRANCH   7   9
ENDBRANCH   6   7
ENDBRANCH   5   6
ENDBRANCH   4   5
ENDBRANCH   3   4
ENDBRANCH   2   3
ENDBRANCH   1   2
BRANCH   1  27
ATOM     27  O   UNL A   1      43.300  20.589  25.280  1.00  0.00    -0.376 OA
BRANCH  27  28
ATOM     28  C   UNL A   1      43.304  21.818  25.993  1.00  0.00     0.202 C 
BRANCH  28  29
ATOM     29  C   UNL A   1      42.661  23.049  25.325  1.00  0.00     0.261 C 
BRANCH  29  30
ATOM     30  O   UNL A   1      42.208  24.068  26.248  1.00  0.00    -0.460 OA
BRANCH  30  31
ATOM     31  C   UNL A   1      42.639  25.342  26.047  1.00  0.00     0.338 C 
ATOM     32  O   UNL A   1      43.186  25.781  25.051  1.00  0.00    -0.246 OA
BRANCH  31  33
ATOM     33  C   UNL A   1      42.220  26.196  27.183  1.00  0.00     0.060 A 
ATOM     34  C   UNL A   1      42.875  27.414  27.428  1.00  0.00     0.016 A 
ATOM     35  C   UNL A   1      41.200  25.768  28.031  1.00  0.00     0.016 A 
ATOM     36  C   UNL A   1      42.470  28.235  28.488  1.00  0.00     0.010 A 
ATOM     37  C   UNL A   1      40.837  26.560  29.125  1.00  0.00     0.010 A 
ATOM     38  C   UNL A   1      41.469  27.794  29.363  1.00  0.00    -0.014 A 
BRANCH  38  39
ATOM     39  C   UNL A   1      41.244  28.487  30.658  1.00  0.00     0.031 A 
ATOM     40  C   UNL A   1      40.138  29.503  30.715  1.00  0.00     0.074 A 
ATOM     41  C   UNL A   1      42.019  28.264  31.736  1.00  0.00     0.049 A 
ATOM     42  N   UNL A   1      39.809  30.325  31.675  1.00  0.00    -0.248 NA
ATOM     43  C   UNL A   1      39.295  29.615  29.510  1.00  0.00     0.031 C 
ATOM     44  C   UNL A   1      43.096  27.281  31.814  1.00  0.00     0.029 A 
ATOM     45  N   UNL A   1      42.029  28.871  32.970  1.00  0.00    -0.354 N 
ATOM     46  C   UNL A   1      38.736  31.060  31.188  1.00  0.00     0.074 A 
ATOM     47  C   UNL A   1      38.480  30.603  29.841  1.00  0.00     0.031 C 
ATOM     48  C   UNL A   1      43.678  27.367  33.025  1.00  0.00     0.029 A 
ATOM     49  C   UNL A   1      43.044  28.438  33.793  1.00  0.00     0.049 A 
ATOM     50  H   UNL A   1      41.370  29.552  33.240  1.00  0.00     0.167 HD
ATOM     51  C   UNL A   1      38.031  32.034  31.809  1.00  0.00     0.037 A 
ATOM     52  C   UNL A   1      43.435  28.882  35.007  1.00  0.00     0.037 A 
ATOM     53  C   UNL A   1      38.309  32.495  33.143  1.00  0.00     0.049 A 
ATOM     54  C   UNL A   1      42.679  30.023  35.651  1.00  0.00     0.074 A 
ATOM     55  C   UNL A   1      37.638  33.460  33.874  1.00  0.00     0.029 A 
ATOM     56  N   UNL A   1      39.354  32.045  33.937  1.00  0.00    -0.354 N 
ATOM     57  N   UNL A   1      41.634  30.680  35.202  1.00  0.00    -0.248 NA
ATOM     58  C   UNL A   1      43.154  30.487  36.963  1.00  0.00     0.031 C 
ATOM     59  C   UNL A   1      38.324  33.648  35.076  1.00  0.00     0.029 A 
ATOM     60  C   UNL A   1      39.372  32.742  35.134  1.00  0.00     0.049 A 
ATOM     61  H   UNL A   1      39.989  31.335  33.687  1.00  0.00     0.167 HD
ATOM     62  C   UNL A   1      41.312  31.610  36.187  1.00  0.00     0.074 A 
ATOM     63  C   UNL A   1      42.262  31.421  37.263  1.00  0.00     0.031 C 
ATOM     64  C   UNL A   1      40.320  32.534  36.202  1.00  0.00     0.037 A 
BRANCH  51  65
ATOM     65  C   UNL A   1      36.924  32.698  31.037  1.00  0.00     0.058 A 
ATOM     66  C   UNL A   1      35.569  32.461  31.320  1.00  0.00     0.135 A 
ATOM     67  C   UNL A   1      37.229  33.617  30.019  1.00  0.00     0.135 A 
ATOM     68  F   UNL A   1      35.221  31.574  32.265  1.00  0.00    -0.206 F 
ATOM     69  C   UNL A   1      34.557  33.094  30.607  1.00  0.00     0.059 A 
ATOM     70  C   UNL A   1      36.233  34.289  29.319  1.00  0.00     0.059 A 
ATOM     71  F   UNL A   1      38.506  33.875  29.699  1.00  0.00    -0.206 F 
ATOM     72  C   UNL A   1      34.899  34.014  29.614  1.00  0.00     0.060 A 
BRANCH  72  73
ATOM     73  S   UNL A   1      33.571  34.847  28.721  1.00  0.00     0.124 S 
ATOM     74  O   UNL A   1      34.212  36.105  28.350  1.00  0.00    -0.237 OA
ATOM     75  O   UNL A   1      33.310  33.923  27.623  1.00  0.00    -0.237 OA
ATOM     76  O   UNL A   1      32.506  34.955  29.713  1.00  0.00    -0.744 OA
ENDBRANCH  72  73
ENDBRANCH  51  65
BRANCH  52  77
ATOM     77  C   UNL A   1      44.618  28.279  35.689  1.00  0.00     0.058 A 
ATOM     78  C   UNL A   1      44.479  27.224  36.605  1.00  0.00     0.135 A 
ATOM     79  C   UNL A   1      45.916  28.766  35.459  1.00  0.00     0.135 A 
ATOM     80  F   UNL A   1      43.260  26.733  36.881  1.00  0.00    -0.206 F 
ATOM     81  C   UNL A   1      45.573  26.685  37.277  1.00  0.00     0.059 A 
ATOM     82  C   UNL A   1      47.029  28.222  36.093  1.00  0.00     0.059 A 
ATOM     83  F   UNL A   1      46.114  29.776  34.597  1.00  0.00    -0.206 F 
ATOM     84  C   UNL A   1      46.847  27.188  37.009  1.00  0.00     0.060 A 
BRANCH  84  85
ATOM     85  S   UNL A   1      48.266  26.453  37.853  1.00  0.00     0.124 S 
ATOM     86  O   UNL A   1      47.764  26.320  39.215  1.00  0.00    -0.237 OA
ATOM     87  O   UNL A   1      48.447  25.208  37.115  1.00  0.00    -0.237 OA
ATOM     88  O   UNL A   1      49.321  27.445  37.665  1.00  0.00    -0.744 OA
ENDBRANCH  84  85
ENDBRANCH  52  77
BRANCH  64  89
ATOM     89  C   UNL A   1      40.171  33.395  37.431  1.00  0.00     0.058 A 
ATOM     90  C   UNL A   1      40.957  34.539  37.639  1.00  0.00     0.135 A 
ATOM     91  C   UNL A   1      39.161  33.118  38.368  1.00  0.00     0.135 A 
ATOM     92  F   UNL A   1      41.941  34.849  36.779  1.00  0.00    -0.206 F 
ATOM     93  C   UNL A   1      40.757  35.368  38.739  1.00  0.00     0.059 A 
ATOM     94  C   UNL A   1      38.919  33.953  39.454  1.00  0.00     0.059 A 
ATOM     95  F   UNL A   1      38.371  32.043  38.213  1.00  0.00    -0.206 F 
ATOM     96  C   UNL A   1      39.727  35.074  39.634  1.00  0.00     0.060 A 
BRANCH  96  97
ATOM     97  S   UNL A   1      39.441  36.194  41.020  1.00  0.00     0.124 S 
ATOM     98  O   UNL A   1      38.841  35.300  42.005  1.00  0.00    -0.237 OA
ATOM     99  O   UNL A   1      40.791  36.658  41.325  1.00  0.00    -0.237 OA
ATOM    100  O   UNL A   1      38.548  37.206  40.464  1.00  0.00    -0.744 OA
ENDBRANCH  96  97
ENDBRANCH  64  89
ENDBRANCH  38  39
ENDBRANCH  31  33
ENDBRANCH  30  31
ENDBRANCH  29  30
ENDBRANCH  28  29
ENDBRANCH  27  28
ENDBRANCH   1  27
TORSDOF 22
ENDMDL
