MODEL 1
REMARK VINA RESULT:     -11.0      0.000      0.000
REMARK SMILES Cc1ccc(Nc2c(F)cccc2Cl)c(CC(=O)OCCOCCOCCOC(=O)c2ccc(-c3c4nc(c(-c5c(F)cc(S(=O)(=O)[O-])cc5F)c5ccc([nH]5)c(-c5c(F)cc(S(=O)(=O)[O-])cc5F)c5nc(c(-c6c(F)cc(S(=O)(=O)[O-])cc6F)c6ccc3[nH]6)C=C5)C=C4)cc2)c1
REMARK SMILES IDX 23 1 22 2 21 3 20 4 19 5 17 6 18 7 16 8 15 9 1 10 2 11 3 12
REMARK SMILES IDX 97 13 4 14 5 15 6 16 7 18 8 19 13 20 9 21 10 22 12 23 14 24
REMARK SMILES IDX 11 25 24 26 25 27 26 28 27 29 28 30 29 31 30 32 31 33 32 34
REMARK SMILES IDX 96 35 33 36 95 37 34 38 35 39 36 40 89 41 37 42 94 43 88 44
REMARK SMILES IDX 90 45 38 46 93 47 87 48 86 49 39 51 73 52 52 53 72 54 53 55
REMARK SMILES IDX 56 56 71 57 91 58 54 59 55 60 70 62 92 63 57 64 40 65 41 66
REMARK SMILES IDX 50 67 42 68 43 69 49 70 51 71 44 72 45 73 46 74 47 75 48 76
REMARK SMILES IDX 74 77 75 78 84 79 76 80 77 81 83 82 85 83 78 84 79 85 80 86
REMARK SMILES IDX 81 87 82 88 58 89 59 90 68 91 60 92 61 93 67 94 69 95 62 96
REMARK SMILES IDX 63 97 64 98 65 99 66 100
REMARK H PARENT 6 17 90 50 56 61
REMARK Flexibility Score: inf
ROOT
ATOM      1  C   UNL A   1      33.020  35.829  29.202  1.00  0.00     0.188 C 
ENDROOT
BRANCH   1   2
ATOM      2  O   UNL A   1      34.221  35.469  28.580  1.00  0.00    -0.376 OA
BRANCH   2   3
ATOM      3  C   UNL A   1      34.370  34.203  27.987  1.00  0.00     0.202 C 
BRANCH   3   4
ATOM      4  C   UNL A   1      33.517  32.824  28.022  1.00  0.00     0.261 C 
BRANCH   4   5
ATOM      5  O   UNL A   1      33.626  31.104  27.438  1.00  0.00    -0.463 OA
BRANCH   5   6
ATOM      6  C   UNL A   1      34.595  29.797  27.205  1.00  0.00     0.310 C 
ATOM      7  O   UNL A   1      35.814  29.630  27.071  1.00  0.00    -0.252 OA
BRANCH   6   8
ATOM      8  C   UNL A   1      33.929  28.566  27.472  1.00  0.00     0.160 C 
BRANCH   8   9
ATOM      9  C   UNL A   1      33.427  28.210  26.112  1.00  0.00    -0.013 A 
ATOM     10  C   UNL A   1      33.937  24.425  26.116  1.00  0.00     0.044 C 
ATOM     11  C   UNL A   1      33.265  25.756  26.042  1.00  0.00    -0.051 A 
ATOM     12  C   UNL A   1      31.905  25.929  26.164  1.00  0.00     0.005 A 
ATOM     13  C   UNL A   1      34.025  26.899  25.945  1.00  0.00     0.009 A 
ATOM     14  C   UNL A   1      31.346  27.237  26.134  1.00  0.00     0.026 A 
ATOM     15  C   UNL A   1      32.090  28.649  25.883  1.00  0.00     0.042 A 
BRANCH  15  16
ATOM     16  N   UNL A   1      31.259  30.221  24.946  1.00  0.00    -0.352 N 
ATOM     17  H   UNL A   1      31.625  31.079  25.260  1.00  0.00     0.167 HD
BRANCH  16  18
ATOM     18  C   UNL A   1      29.984  30.444  23.648  1.00  0.00     0.094 A 
ATOM     19  C   UNL A   1      29.093  31.668  23.493  1.00  0.00     0.148 A 
ATOM     20  C   UNL A   1      29.404  29.335  22.990  1.00  0.00     0.067 A 
ATOM     21  F   UNL A   1      29.343  32.922  23.912  1.00  0.00    -0.205 F 
ATOM     22  C   UNL A   1      27.820  31.693  22.906  1.00  0.00     0.041 A 
ATOM     23  C   UNL A   1      28.075  29.402  22.428  1.00  0.00     0.023 A 
ATOM     24  Cl  UNL A   1      30.170  27.895  22.531  1.00  0.00    -0.082 Cl
ATOM     25  C   UNL A   1      27.278  30.544  22.415  1.00  0.00     0.005 A 
ENDBRANCH  16  18
ENDBRANCH  15  16
ENDBRANCH   8   9
ENDBRANCH   6   8
ENDBRANCH   5   6
ENDBRANCH   4   5
ENDBRANCH   3   4
ENDBRANCH   2   3
ENDBRANCH   1   2
BRANCH   1  26
ATOM     26  C   UNL A   1      32.947  35.885  30.720  1.00  0.00     0.188 C 
BRANCH  26  27
ATOM     27  O   UNL A   1      34.131  35.595  31.422  1.00  0.00    -0.376 OA
BRANCH  27  28
ATOM     28  C   UNL A   1      33.945  35.469  32.832  1.00  0.00     0.202 C 
BRANCH  28  29
ATOM     29  C   UNL A   1      35.099  34.866  33.764  1.00  0.00     0.261 C 
BRANCH  29  30
ATOM     30  O   UNL A   1      35.152  33.382  33.964  1.00  0.00    -0.460 OA
BRANCH  30  31
ATOM     31  C   UNL A   1      35.604  32.399  33.032  1.00  0.00     0.338 C 
ATOM     32  O   UNL A   1      35.054  32.340  31.947  1.00  0.00    -0.246 OA
BRANCH  31  33
ATOM     33  C   UNL A   1      36.978  31.551  33.550  1.00  0.00     0.060 A 
ATOM     34  C   UNL A   1      38.160  31.411  35.100  1.00  0.00     0.016 A 
ATOM     35  C   UNL A   1      37.791  32.261  32.101  1.00  0.00     0.016 A 
ATOM     36  C   UNL A   1      39.883  32.199  35.013  1.00  0.00     0.010 A 
ATOM     37  C   UNL A   1      39.347  33.043  32.193  1.00  0.00     0.010 A 
ATOM     38  C   UNL A   1      40.519  33.090  33.545  1.00  0.00    -0.014 A 
BRANCH  38  39
ATOM     39  C   UNL A   1      42.205  33.770  33.009  1.00  0.00     0.031 A 
ATOM     40  C   UNL A   1      42.946  35.515  33.336  1.00  0.00     0.074 A 
ATOM     41  C   UNL A   1      43.222  32.973  32.615  1.00  0.00     0.049 A 
ATOM     42  N   UNL A   1      43.300  36.443  32.461  1.00  0.00    -0.248 NA
ATOM     43  C   UNL A   1      42.802  36.455  34.714  1.00  0.00     0.031 C 
ATOM     44  C   UNL A   1      44.656  33.320  32.618  1.00  0.00     0.029 A 
ATOM     45  N   UNL A   1      43.234  31.633  32.250  1.00  0.00    -0.354 N 
ATOM     46  C   UNL A   1      43.478  37.682  33.179  1.00  0.00     0.074 A 
ATOM     47  C   UNL A   1      42.617  37.681  34.286  1.00  0.00     0.031 C 
ATOM     48  C   UNL A   1      45.351  32.356  31.986  1.00  0.00     0.029 A 
ATOM     49  C   UNL A   1      44.371  31.436  31.443  1.00  0.00     0.049 A 
ATOM     50  H   UNL A   1      42.572  30.950  32.506  1.00  0.00     0.167 HD
ATOM     51  C   UNL A   1      44.684  38.332  33.287  1.00  0.00     0.037 A 
ATOM     52  C   UNL A   1      44.134  31.191  30.129  1.00  0.00     0.037 A 
ATOM     53  C   UNL A   1      45.628  37.534  32.542  1.00  0.00     0.049 A 
ATOM     54  C   UNL A   1      44.487  32.451  29.349  1.00  0.00     0.074 A 
ATOM     55  C   UNL A   1      46.589  36.601  32.888  1.00  0.00     0.029 A 
ATOM     56  N   UNL A   1      45.272  37.261  31.237  1.00  0.00    -0.354 N 
ATOM     57  N   UNL A   1      44.553  33.649  29.888  1.00  0.00    -0.248 NA
ATOM     58  C   UNL A   1      45.028  32.443  27.993  1.00  0.00     0.031 C 
ATOM     59  C   UNL A   1      46.763  35.735  31.759  1.00  0.00     0.029 A 
ATOM     60  C   UNL A   1      45.887  36.128  30.758  1.00  0.00     0.049 A 
ATOM     61  H   UNL A   1      44.652  37.813  30.709  1.00  0.00     0.167 HD
ATOM     62  C   UNL A   1      45.213  34.507  29.057  1.00  0.00     0.074 A 
ATOM     63  C   UNL A   1      45.456  33.712  27.866  1.00  0.00     0.031 C 
ATOM     64  C   UNL A   1      45.610  35.777  29.374  1.00  0.00     0.037 A 
BRANCH  51  65
ATOM     65  C   UNL A   1      45.028  39.418  34.348  1.00  0.00     0.058 A 
ATOM     66  C   UNL A   1      44.653  40.761  34.137  1.00  0.00     0.135 A 
ATOM     67  C   UNL A   1      45.677  39.212  35.603  1.00  0.00     0.135 A 
ATOM     68  F   UNL A   1      44.002  41.127  33.026  1.00  0.00    -0.206 F 
ATOM     69  C   UNL A   1      44.901  41.793  35.059  1.00  0.00     0.059 A 
ATOM     70  C   UNL A   1      46.007  40.241  36.505  1.00  0.00     0.059 A 
ATOM     71  F   UNL A   1      45.971  37.984  36.057  1.00  0.00    -0.206 F 
ATOM     72  C   UNL A   1      45.578  41.530  36.241  1.00  0.00     0.060 A 
BRANCH  72  73
ATOM     73  S   UNL A   1      45.796  42.856  37.452  1.00  0.00     0.124 S 
ATOM     74  O   UNL A   1      46.037  44.019  36.603  1.00  0.00    -0.237 OA
ATOM     75  O   UNL A   1      44.516  42.836  38.153  1.00  0.00    -0.237 OA
ATOM     76  O   UNL A   1      46.946  42.419  38.241  1.00  0.00    -0.744 OA
ENDBRANCH  72  73
ENDBRANCH  51  65
BRANCH  52  77
ATOM     77  C   UNL A   1      43.041  30.154  30.043  1.00  0.00     0.058 A 
ATOM     78  C   UNL A   1      41.771  30.636  29.611  1.00  0.00     0.135 A 
ATOM     79  C   UNL A   1      43.259  28.778  29.856  1.00  0.00     0.135 A 
ATOM     80  F   UNL A   1      41.510  31.954  29.664  1.00  0.00    -0.206 F 
ATOM     81  C   UNL A   1      40.800  29.826  29.014  1.00  0.00     0.059 A 
ATOM     82  C   UNL A   1      42.286  27.940  29.269  1.00  0.00     0.059 A 
ATOM     83  F   UNL A   1      44.453  28.241  30.146  1.00  0.00    -0.206 F 
ATOM     84  C   UNL A   1      41.049  28.467  28.879  1.00  0.00     0.060 A 
BRANCH  84  85
ATOM     85  S   UNL A   1      39.729  27.398  28.235  1.00  0.00     0.124 S 
ATOM     86  O   UNL A   1      39.768  26.287  29.178  1.00  0.00    -0.237 OA
ATOM     87  O   UNL A   1      38.532  28.230  28.323  1.00  0.00    -0.237 OA
ATOM     88  O   UNL A   1      40.182  27.084  26.883  1.00  0.00    -0.744 OA
ENDBRANCH  84  85
ENDBRANCH  52  77
BRANCH  64  89
ATOM     89  C   UNL A   1      45.740  36.880  28.337  1.00  0.00     0.058 A 
ATOM     90  C   UNL A   1      44.651  37.648  27.902  1.00  0.00     0.135 A 
ATOM     91  C   UNL A   1      47.016  37.336  27.897  1.00  0.00     0.135 A 
ATOM     92  F   UNL A   1      43.408  37.440  28.358  1.00  0.00    -0.206 F 
ATOM     93  C   UNL A   1      44.796  38.686  26.993  1.00  0.00     0.059 A 
ATOM     94  C   UNL A   1      47.191  38.456  27.103  1.00  0.00     0.059 A 
ATOM     95  F   UNL A   1      48.160  36.716  28.228  1.00  0.00    -0.206 F 
ATOM     96  C   UNL A   1      46.068  39.078  26.594  1.00  0.00     0.060 A 
BRANCH  96  97
ATOM     97  S   UNL A   1      46.245  40.362  25.360  1.00  0.00     0.124 S 
ATOM     98  O   UNL A   1      46.813  39.602  24.249  1.00  0.00    -0.237 OA
ATOM     99  O   UNL A   1      44.872  40.821  25.178  1.00  0.00    -0.237 OA
ATOM    100  O   UNL A   1      47.144  41.322  25.993  1.00  0.00    -0.744 OA
ENDBRANCH  96  97
ENDBRANCH  64  89
ENDBRANCH  38  39
ENDBRANCH  31  33
ENDBRANCH  30  31
ENDBRANCH  29  30
ENDBRANCH  28  29
ENDBRANCH  27  28
ENDBRANCH  26  27
ENDBRANCH   1  26
TORSDOF 23
ENDMDL
MODEL 2
REMARK VINA RESULT:     -10.7      2.599      4.224
REMARK SMILES Cc1ccc(Nc2c(F)cccc2Cl)c(CC(=O)OCCOCCOCCOC(=O)c2ccc(-c3c4nc(c(-c5c(F)cc(S(=O)(=O)[O-])cc5F)c5ccc([nH]5)c(-c5c(F)cc(S(=O)(=O)[O-])cc5F)c5nc(c(-c6c(F)cc(S(=O)(=O)[O-])cc6F)c6ccc3[nH]6)C=C5)C=C4)cc2)c1
REMARK SMILES IDX 23 1 22 2 21 3 20 4 19 5 17 6 18 7 16 8 15 9 1 10 2 11 3 12
REMARK SMILES IDX 97 13 4 14 5 15 6 16 7 18 8 19 13 20 9 21 10 22 12 23 14 24
REMARK SMILES IDX 11 25 24 26 25 27 26 28 27 29 28 30 29 31 30 32 31 33 32 34
REMARK SMILES IDX 96 35 33 36 95 37 34 38 35 39 36 40 89 41 37 42 94 43 88 44
REMARK SMILES IDX 90 45 38 46 93 47 87 48 86 49 39 51 73 52 52 53 72 54 53 55
REMARK SMILES IDX 56 56 71 57 91 58 54 59 55 60 70 62 92 63 57 64 40 65 41 66
REMARK SMILES IDX 50 67 42 68 43 69 49 70 51 71 44 72 45 73 46 74 47 75 48 76
REMARK SMILES IDX 74 77 75 78 84 79 76 80 77 81 83 82 85 83 78 84 79 85 80 86
REMARK SMILES IDX 81 87 82 88 58 89 59 90 68 91 60 92 61 93 67 94 69 95 62 96
REMARK SMILES IDX 63 97 64 98 65 99 66 100
REMARK H PARENT 6 17 90 50 56 61
REMARK Flexibility Score: inf
ROOT
ATOM      1  C   UNL A   1      35.896  33.456  29.472  1.00  0.00     0.188 C 
ENDROOT
BRANCH   1   2
ATOM      2  O   UNL A   1      35.145  33.553  28.296  1.00  0.00    -0.376 OA
BRANCH   2   3
ATOM      3  C   UNL A   1      34.150  32.604  28.000  1.00  0.00     0.202 C 
BRANCH   3   4
ATOM      4  C   UNL A   1      34.156  31.015  27.673  1.00  0.00     0.261 C 
BRANCH   4   5
ATOM      5  O   UNL A   1      33.528  29.848  26.427  1.00  0.00    -0.463 OA
BRANCH   5   6
ATOM      6  C   UNL A   1      33.754  28.413  25.659  1.00  0.00     0.310 C 
ATOM      7  O   UNL A   1      34.080  27.274  26.019  1.00  0.00    -0.252 OA
BRANCH   6   8
ATOM      8  C   UNL A   1      33.209  28.402  24.342  1.00  0.00     0.160 C 
BRANCH   8   9
ATOM      9  C   UNL A   1      31.937  27.654  24.564  1.00  0.00    -0.013 A 
ATOM     10  C   UNL A   1      29.365  30.241  23.435  1.00  0.00     0.044 C 
ATOM     11  C   UNL A   1      30.150  28.973  23.506  1.00  0.00    -0.051 A 
ATOM     12  C   UNL A   1      30.170  28.034  22.500  1.00  0.00     0.005 A 
ATOM     13  C   UNL A   1      30.985  28.749  24.576  1.00  0.00     0.009 A 
ATOM     14  C   UNL A   1      30.986  26.876  22.623  1.00  0.00     0.026 A 
ATOM     15  C   UNL A   1      31.899  26.408  23.871  1.00  0.00     0.042 A 
BRANCH  15  16
ATOM     16  N   UNL A   1      32.226  24.493  24.386  1.00  0.00    -0.352 N 
ATOM     17  H   UNL A   1      31.412  23.944  24.316  1.00  0.00     0.167 HD
BRANCH  16  18
ATOM     18  C   UNL A   1      33.672  23.522  24.954  1.00  0.00     0.094 A 
ATOM     19  C   UNL A   1      34.929  23.258  24.138  1.00  0.00     0.148 A 
ATOM     20  C   UNL A   1      33.554  22.562  25.985  1.00  0.00     0.067 A 
ATOM     21  F   UNL A   1      35.420  24.000  23.128  1.00  0.00    -0.205 F 
ATOM     22  C   UNL A   1      35.790  22.160  24.277  1.00  0.00     0.041 A 
ATOM     23  C   UNL A   1      34.447  21.429  26.068  1.00  0.00     0.023 A 
ATOM     24  Cl  UNL A   1      32.588  22.657  27.374  1.00  0.00    -0.082 Cl
ATOM     25  C   UNL A   1      35.523  21.206  25.212  1.00  0.00     0.005 A 
ENDBRANCH  16  18
ENDBRANCH  15  16
ENDBRANCH   8   9
ENDBRANCH   6   8
ENDBRANCH   5   6
ENDBRANCH   4   5
ENDBRANCH   3   4
ENDBRANCH   2   3
ENDBRANCH   1   2
BRANCH   1  26
ATOM     26  C   UNL A   1      35.207  33.604  30.819  1.00  0.00     0.188 C 
BRANCH  26  27
ATOM     27  O   UNL A   1      34.857  32.415  31.485  1.00  0.00    -0.376 OA
BRANCH  27  28
ATOM     28  C   UNL A   1      35.935  31.831  32.216  1.00  0.00     0.202 C 
BRANCH  28  29
ATOM     29  C   UNL A   1      36.379  32.418  33.639  1.00  0.00     0.261 C 
BRANCH  29  30
ATOM     30  O   UNL A   1      37.753  32.098  34.144  1.00  0.00    -0.460 OA
BRANCH  30  31
ATOM     31  C   UNL A   1      38.127  31.763  35.481  1.00  0.00     0.338 C 
ATOM     32  O   UNL A   1      37.783  30.681  35.921  1.00  0.00    -0.246 OA
BRANCH  31  33
ATOM     33  C   UNL A   1      39.152  32.903  36.206  1.00  0.00     0.060 A 
ATOM     34  C   UNL A   1      39.223  34.812  36.618  1.00  0.00     0.016 A 
ATOM     35  C   UNL A   1      40.361  32.402  34.959  1.00  0.00     0.016 A 
ATOM     36  C   UNL A   1      40.331  35.937  35.566  1.00  0.00     0.010 A 
ATOM     37  C   UNL A   1      41.241  33.558  33.996  1.00  0.00     0.010 A 
ATOM     38  C   UNL A   1      41.356  35.336  34.173  1.00  0.00    -0.014 A 
BRANCH  38  39
ATOM     39  C   UNL A   1      42.723  36.077  33.090  1.00  0.00     0.031 A 
ATOM     40  C   UNL A   1      43.412  37.873  33.101  1.00  0.00     0.074 A 
ATOM     41  C   UNL A   1      43.606  35.316  32.407  1.00  0.00     0.049 A 
ATOM     42  N   UNL A   1      43.397  38.773  32.131  1.00  0.00    -0.248 NA
ATOM     43  C   UNL A   1      43.665  38.872  34.420  1.00  0.00     0.031 C 
ATOM     44  C   UNL A   1      44.936  35.739  31.926  1.00  0.00     0.029 A 
ATOM     45  N   UNL A   1      43.588  33.962  32.098  1.00  0.00    -0.354 N 
ATOM     46  C   UNL A   1      43.717  40.055  32.711  1.00  0.00     0.074 A 
ATOM     47  C   UNL A   1      43.268  40.064  34.040  1.00  0.00     0.031 C 
ATOM     48  C   UNL A   1      45.448  34.782  31.128  1.00  0.00     0.029 A 
ATOM     49  C   UNL A   1      44.408  33.785  30.968  1.00  0.00     0.049 A 
ATOM     50  H   UNL A   1      43.094  33.258  32.579  1.00  0.00     0.167 HD
ATOM     51  C   UNL A   1      44.845  40.773  32.396  1.00  0.00     0.037 A 
ATOM     52  C   UNL A   1      43.771  33.462  29.813  1.00  0.00     0.037 A 
ATOM     53  C   UNL A   1      45.544  39.990  31.406  1.00  0.00     0.049 A 
ATOM     54  C   UNL A   1      43.763  34.698  28.923  1.00  0.00     0.074 A 
ATOM     55  C   UNL A   1      46.625  39.128  31.442  1.00  0.00     0.029 A 
ATOM     56  N   UNL A   1      44.800  39.632  30.300  1.00  0.00    -0.354 N 
ATOM     57  N   UNL A   1      43.922  35.923  29.374  1.00  0.00    -0.248 NA
ATOM     58  C   UNL A   1      43.830  34.650  27.466  1.00  0.00     0.031 C 
ATOM     59  C   UNL A   1      46.478  38.217  30.346  1.00  0.00     0.029 A 
ATOM     60  C   UNL A   1      45.298  38.511  29.679  1.00  0.00     0.049 A 
ATOM     61  H   UNL A   1      44.005  40.123  29.990  1.00  0.00     0.167 HD
ATOM     62  C   UNL A   1      44.215  36.772  28.345  1.00  0.00     0.074 A 
ATOM     63  C   UNL A   1      44.106  35.932  27.166  1.00  0.00     0.031 C 
ATOM     64  C   UNL A   1      44.607  38.076  28.475  1.00  0.00     0.037 A 
BRANCH  51  65
ATOM     65  C   UNL A   1      45.444  41.927  33.251  1.00  0.00     0.058 A 
ATOM     66  C   UNL A   1      44.893  43.224  33.179  1.00  0.00     0.135 A 
ATOM     67  C   UNL A   1      46.518  41.831  34.187  1.00  0.00     0.135 A 
ATOM     68  F   UNL A   1      43.855  43.486  32.376  1.00  0.00    -0.206 F 
ATOM     69  C   UNL A   1      45.358  44.311  33.939  1.00  0.00     0.059 A 
ATOM     70  C   UNL A   1      47.052  42.921  34.898  1.00  0.00     0.059 A 
ATOM     71  F   UNL A   1      47.070  40.652  34.513  1.00  0.00    -0.206 F 
ATOM     72  C   UNL A   1      46.438  44.157  34.797  1.00  0.00     0.060 A 
BRANCH  72  73
ATOM     73  S   UNL A   1      46.950  45.547  35.836  1.00  0.00     0.124 S 
ATOM     74  O   UNL A   1      48.406  45.487  35.744  1.00  0.00    -0.237 OA
ATOM     75  O   UNL A   1      46.318  46.675  35.161  1.00  0.00    -0.237 OA
ATOM     76  O   UNL A   1      46.401  45.217  37.150  1.00  0.00    -0.744 OA
ENDBRANCH  72  73
ENDBRANCH  51  65
BRANCH  52  77
ATOM     77  C   UNL A   1      42.782  32.365  30.125  1.00  0.00     0.058 A 
ATOM     78  C   UNL A   1      41.424  32.780  30.246  1.00  0.00     0.135 A 
ATOM     79  C   UNL A   1      42.972  31.007  29.814  1.00  0.00     0.135 A 
ATOM     80  F   UNL A   1      41.144  34.080  30.448  1.00  0.00    -0.206 F 
ATOM     81  C   UNL A   1      40.334  31.926  30.048  1.00  0.00     0.059 A 
ATOM     82  C   UNL A   1      41.886  30.125  29.626  1.00  0.00     0.059 A 
ATOM     83  F   UNL A   1      44.208  30.536  29.590  1.00  0.00    -0.206 F 
ATOM     84  C   UNL A   1      40.573  30.586  29.773  1.00  0.00     0.060 A 
BRANCH  84  85
ATOM     85  S   UNL A   1      39.157  29.453  29.660  1.00  0.00     0.124 S 
ATOM     86  O   UNL A   1      39.787  28.170  29.945  1.00  0.00    -0.237 OA
ATOM     87  O   UNL A   1      38.247  29.928  30.699  1.00  0.00    -0.237 OA
ATOM     88  O   UNL A   1      38.696  29.630  28.287  1.00  0.00    -0.744 OA
ENDBRANCH  84  85
ENDBRANCH  52  77
BRANCH  64  89
ATOM     89  C   UNL A   1      44.316  39.131  27.421  1.00  0.00     0.058 A 
ATOM     90  C   UNL A   1      43.093  39.810  27.341  1.00  0.00     0.135 A 
ATOM     91  C   UNL A   1      45.346  39.638  26.578  1.00  0.00     0.135 A 
ATOM     92  F   UNL A   1      42.081  39.552  28.182  1.00  0.00    -0.206 F 
ATOM     93  C   UNL A   1      42.861  40.807  26.404  1.00  0.00     0.059 A 
ATOM     94  C   UNL A   1      45.174  40.725  25.737  1.00  0.00     0.059 A 
ATOM     95  F   UNL A   1      46.577  39.105  26.536  1.00  0.00    -0.206 F 
ATOM     96  C   UNL A   1      43.905  41.252  25.603  1.00  0.00     0.060 A 
BRANCH  96  97
ATOM     97  S   UNL A   1      43.582  42.480  24.341  1.00  0.00     0.124 S 
ATOM     98  O   UNL A   1      44.540  42.080  23.314  1.00  0.00    -0.237 OA
ATOM     99  O   UNL A   1      42.177  42.247  24.023  1.00  0.00    -0.237 OA
ATOM    100  O   UNL A   1      43.867  43.743  25.014  1.00  0.00    -0.744 OA
ENDBRANCH  96  97
ENDBRANCH  64  89
ENDBRANCH  38  39
ENDBRANCH  31  33
ENDBRANCH  30  31
ENDBRANCH  29  30
ENDBRANCH  28  29
ENDBRANCH  27  28
ENDBRANCH  26  27
ENDBRANCH   1  26
TORSDOF 23
ENDMDL
MODEL 3
REMARK VINA RESULT:     -10.7      6.271     11.635
REMARK SMILES Cc1ccc(Nc2c(F)cccc2Cl)c(CC(=O)OCCOCCOCCOC(=O)c2ccc(-c3c4nc(c(-c5c(F)cc(S(=O)(=O)[O-])cc5F)c5ccc([nH]5)c(-c5c(F)cc(S(=O)(=O)[O-])cc5F)c5nc(c(-c6c(F)cc(S(=O)(=O)[O-])cc6F)c6ccc3[nH]6)C=C5)C=C4)cc2)c1
REMARK SMILES IDX 23 1 22 2 21 3 20 4 19 5 17 6 18 7 16 8 15 9 1 10 2 11 3 12
REMARK SMILES IDX 97 13 4 14 5 15 6 16 7 18 8 19 13 20 9 21 10 22 12 23 14 24
REMARK SMILES IDX 11 25 24 26 25 27 26 28 27 29 28 30 29 31 30 32 31 33 32 34
REMARK SMILES IDX 96 35 33 36 95 37 34 38 35 39 36 40 89 41 37 42 94 43 88 44
REMARK SMILES IDX 90 45 38 46 93 47 87 48 86 49 39 51 73 52 52 53 72 54 53 55
REMARK SMILES IDX 56 56 71 57 91 58 54 59 55 60 70 62 92 63 57 64 40 65 41 66
REMARK SMILES IDX 50 67 42 68 43 69 49 70 51 71 44 72 45 73 46 74 47 75 48 76
REMARK SMILES IDX 74 77 75 78 84 79 76 80 77 81 83 82 85 83 78 84 79 85 80 86
REMARK SMILES IDX 81 87 82 88 58 89 59 90 68 91 60 92 61 93 67 94 69 95 62 96
REMARK SMILES IDX 63 97 64 98 65 99 66 100
REMARK H PARENT 6 17 90 50 56 61
REMARK Flexibility Score: inf
ROOT
ATOM      1  C   UNL A   1      45.990  18.707  25.428  1.00  0.00     0.188 C 
ENDROOT
BRANCH   1   2
ATOM      2  O   UNL A   1      44.805  18.035  25.112  1.00  0.00    -0.376 OA
BRANCH   2   3
ATOM      3  C   UNL A   1      43.564  18.694  25.187  1.00  0.00     0.202 C 
BRANCH   3   4
ATOM      4  C   UNL A   1      42.605  19.175  26.403  1.00  0.00     0.261 C 
BRANCH   4   5
ATOM      5  O   UNL A   1      42.257  20.658  27.398  1.00  0.00    -0.463 OA
BRANCH   5   6
ATOM      6  C   UNL A   1      42.391  22.292  27.512  1.00  0.00     0.310 C 
ATOM      7  O   UNL A   1      43.153  23.064  28.110  1.00  0.00    -0.252 OA
BRANCH   6   8
ATOM      8  C   UNL A   1      41.643  22.976  26.511  1.00  0.00     0.160 C 
BRANCH   8   9
ATOM      9  C   UNL A   1      40.281  22.979  27.122  1.00  0.00    -0.013 A 
ATOM     10  C   UNL A   1      40.394  26.219  29.139  1.00  0.00     0.044 C 
ATOM     11  C   UNL A   1      39.968  25.197  28.137  1.00  0.00    -0.051 A 
ATOM     12  C   UNL A   1      39.154  25.479  27.063  1.00  0.00     0.005 A 
ATOM     13  C   UNL A   1      40.479  23.922  28.206  1.00  0.00     0.009 A 
ATOM     14  C   UNL A   1      38.837  24.460  26.123  1.00  0.00     0.026 A 
ATOM     15  C   UNL A   1      39.239  22.895  26.151  1.00  0.00     0.042 A 
BRANCH  15  16
ATOM     16  N   UNL A   1      38.086  21.411  25.438  1.00  0.00    -0.352 N 
ATOM     17  H   UNL A   1      38.606  20.743  24.936  1.00  0.00     0.167 HD
BRANCH  16  18
ATOM     18  C   UNL A   1      36.301  21.001  25.496  1.00  0.00     0.094 A 
ATOM     19  C   UNL A   1      35.681  19.703  25.000  1.00  0.00     0.148 A 
ATOM     20  C   UNL A   1      35.316  22.014  25.565  1.00  0.00     0.067 A 
ATOM     21  F   UNL A   1      36.279  18.504  24.878  1.00  0.00    -0.205 F 
ATOM     22  C   UNL A   1      34.366  19.537  24.545  1.00  0.00     0.041 A 
ATOM     23  C   UNL A   1      33.982  21.804  25.053  1.00  0.00     0.023 A 
ATOM     24  Cl  UNL A   1      35.401  23.475  26.417  1.00  0.00    -0.082 Cl
ATOM     25  C   UNL A   1      33.519  20.604  24.518  1.00  0.00     0.005 A 
ENDBRANCH  16  18
ENDBRANCH  15  16
ENDBRANCH   8   9
ENDBRANCH   6   8
ENDBRANCH   5   6
ENDBRANCH   4   5
ENDBRANCH   3   4
ENDBRANCH   2   3
ENDBRANCH   1   2
BRANCH   1  26
ATOM     26  C   UNL A   1      46.347  19.990  24.693  1.00  0.00     0.188 C 
BRANCH  26  27
ATOM     27  O   UNL A   1      46.133  21.196  25.384  1.00  0.00    -0.376 OA
BRANCH  27  28
ATOM     28  C   UNL A   1      45.047  21.966  24.870  1.00  0.00     0.202 C 
BRANCH  28  29
ATOM     29  C   UNL A   1      45.222  23.526  24.550  1.00  0.00     0.261 C 
BRANCH  29  30
ATOM     30  O   UNL A   1      44.586  24.519  25.476  1.00  0.00    -0.460 OA
BRANCH  30  31
ATOM     31  C   UNL A   1      45.078  25.812  25.826  1.00  0.00     0.338 C 
ATOM     32  O   UNL A   1      44.835  26.742  25.079  1.00  0.00    -0.246 OA
BRANCH  31  33
ATOM     33  C   UNL A   1      45.812  25.869  27.354  1.00  0.00     0.060 A 
ATOM     34  C   UNL A   1      46.000  24.789  28.971  1.00  0.00     0.016 A 
ATOM     35  C   UNL A   1      44.838  27.369  27.612  1.00  0.00     0.016 A 
ATOM     36  C   UNL A   1      45.007  25.269  30.515  1.00  0.00     0.010 A 
ATOM     37  C   UNL A   1      43.893  27.631  29.053  1.00  0.00     0.010 A 
ATOM     38  C   UNL A   1      43.872  26.705  30.586  1.00  0.00    -0.014 A 
BRANCH  38  39
ATOM     39  C   UNL A   1      42.934  27.613  31.959  1.00  0.00     0.031 A 
ATOM     40  C   UNL A   1      41.720  29.096  31.795  1.00  0.00     0.074 A 
ATOM     41  C   UNL A   1      42.761  27.091  33.193  1.00  0.00     0.049 A 
ATOM     42  N   UNL A   1      41.827  30.315  32.297  1.00  0.00    -0.248 NA
ATOM     43  C   UNL A   1      40.591  29.376  30.590  1.00  0.00     0.031 C 
ATOM     44  C   UNL A   1      41.711  27.464  34.160  1.00  0.00     0.029 A 
ATOM     45  N   UNL A   1      43.389  26.024  33.822  1.00  0.00    -0.354 N 
ATOM     46  C   UNL A   1      40.858  31.154  31.633  1.00  0.00     0.074 A 
ATOM     47  C   UNL A   1      40.661  30.661  30.335  1.00  0.00     0.031 C 
ATOM     48  C   UNL A   1      41.965  26.876  35.345  1.00  0.00     0.029 A 
ATOM     49  C   UNL A   1      43.252  26.223  35.209  1.00  0.00     0.049 A 
ATOM     50  H   UNL A   1      43.844  25.270  33.381  1.00  0.00     0.167 HD
ATOM     51  C   UNL A   1      39.799  31.750  32.276  1.00  0.00     0.037 A 
ATOM     52  C   UNL A   1      44.389  26.534  35.882  1.00  0.00     0.037 A 
ATOM     53  C   UNL A   1      39.918  31.369  33.663  1.00  0.00     0.049 A 
ATOM     54  C   UNL A   1      44.337  28.017  36.227  1.00  0.00     0.074 A 
ATOM     55  C   UNL A   1      39.309  30.416  34.459  1.00  0.00     0.029 A 
ATOM     56  N   UNL A   1      41.137  31.645  34.250  1.00  0.00    -0.354 N 
ATOM     57  N   UNL A   1      43.578  28.887  35.597  1.00  0.00    -0.248 NA
ATOM     58  C   UNL A   1      44.921  28.591  37.435  1.00  0.00     0.031 C 
ATOM     59  C   UNL A   1      40.223  30.102  35.517  1.00  0.00     0.029 A 
ATOM     60  C   UNL A   1      41.385  30.837  35.334  1.00  0.00     0.049 A 
ATOM     61  H   UNL A   1      41.756  32.340  33.931  1.00  0.00     0.167 HD
ATOM     62  C   UNL A   1      43.473  30.037  36.324  1.00  0.00     0.074 A 
ATOM     63  C   UNL A   1      44.364  29.816  37.448  1.00  0.00     0.031 C 
ATOM     64  C   UNL A   1      42.628  31.078  36.050  1.00  0.00     0.037 A 
BRANCH  51  65
ATOM     65  C   UNL A   1      38.527  32.313  31.579  1.00  0.00     0.058 A 
ATOM     66  C   UNL A   1      37.374  31.510  31.451  1.00  0.00     0.135 A 
ATOM     67  C   UNL A   1      38.348  33.630  31.058  1.00  0.00     0.135 A 
ATOM     68  F   UNL A   1      37.354  30.256  31.919  1.00  0.00    -0.206 F 
ATOM     69  C   UNL A   1      36.177  31.954  30.863  1.00  0.00     0.059 A 
ATOM     70  C   UNL A   1      37.189  34.071  30.393  1.00  0.00     0.059 A 
ATOM     71  F   UNL A   1      39.272  34.589  31.223  1.00  0.00    -0.206 F 
ATOM     72  C   UNL A   1      36.088  33.235  30.334  1.00  0.00     0.060 A 
BRANCH  72  73
ATOM     73  S   UNL A   1      34.506  33.812  29.672  1.00  0.00     0.124 S 
ATOM     74  O   UNL A   1      34.021  32.639  28.951  1.00  0.00    -0.237 OA
ATOM     75  O   UNL A   1      33.779  34.155  30.889  1.00  0.00    -0.237 OA
ATOM     76  O   UNL A   1      34.878  34.945  28.826  1.00  0.00    -0.744 OA
ENDBRANCH  72  73
ENDBRANCH  51  65
BRANCH  52  77
ATOM     77  C   UNL A   1      45.468  25.581  35.427  1.00  0.00     0.058 A 
ATOM     78  C   UNL A   1      46.535  26.171  34.687  1.00  0.00     0.135 A 
ATOM     79  C   UNL A   1      45.773  24.361  36.055  1.00  0.00     0.135 A 
ATOM     80  F   UNL A   1      46.364  27.384  34.131  1.00  0.00    -0.206 F 
ATOM     81  C   UNL A   1      47.814  25.612  34.597  1.00  0.00     0.059 A 
ATOM     82  C   UNL A   1      47.053  23.773  35.964  1.00  0.00     0.059 A 
ATOM     83  F   UNL A   1      44.868  23.770  36.849  1.00  0.00    -0.206 F 
ATOM     84  C   UNL A   1      48.057  24.390  35.209  1.00  0.00     0.060 A 
BRANCH  84  85
ATOM     85  S   UNL A   1      49.676  23.601  34.968  1.00  0.00     0.124 S 
ATOM     86  O   UNL A   1      50.522  24.400  35.845  1.00  0.00    -0.237 OA
ATOM     87  O   UNL A   1      49.464  22.227  35.414  1.00  0.00    -0.237 OA
ATOM     88  O   UNL A   1      49.921  23.771  33.539  1.00  0.00    -0.744 OA
ENDBRANCH  84  85
ENDBRANCH  52  77
BRANCH  64  89
ATOM     89  C   UNL A   1      42.946  32.515  36.428  1.00  0.00     0.058 A 
ATOM     90  C   UNL A   1      44.106  33.175  36.000  1.00  0.00     0.135 A 
ATOM     91  C   UNL A   1      41.980  33.343  37.071  1.00  0.00     0.135 A 
ATOM     92  F   UNL A   1      45.031  32.568  35.245  1.00  0.00    -0.206 F 
ATOM     93  C   UNL A   1      44.357  34.504  36.311  1.00  0.00     0.059 A 
ATOM     94  C   UNL A   1      42.153  34.703  37.264  1.00  0.00     0.059 A 
ATOM     95  F   UNL A   1      40.815  32.868  37.536  1.00  0.00    -0.206 F 
ATOM     96  C   UNL A   1      43.378  35.257  36.949  1.00  0.00     0.060 A 
BRANCH  96  97
ATOM     97  S   UNL A   1      43.737  36.946  37.420  1.00  0.00     0.124 S 
ATOM     98  O   UNL A   1      45.187  36.978  37.250  1.00  0.00    -0.237 OA
ATOM     99  O   UNL A   1      42.967  37.718  36.450  1.00  0.00    -0.237 OA
ATOM    100  O   UNL A   1      43.261  37.024  38.797  1.00  0.00    -0.744 OA
ENDBRANCH  96  97
ENDBRANCH  64  89
ENDBRANCH  38  39
ENDBRANCH  31  33
ENDBRANCH  30  31
ENDBRANCH  29  30
ENDBRANCH  28  29
ENDBRANCH  27  28
ENDBRANCH  26  27
ENDBRANCH   1  26
TORSDOF 23
ENDMDL
