MODEL 1
REMARK VINA RESULT:     -11.8      0.000      0.000
REMARK SMILES O=C(OCCOCCOCCOC(=O)c1cc2c(C(F)(F)F)onc2c2ccccc12)c1ccc(-c2c3nc(c(-c4c(F)cc(S(=O)(=O)[O-])cc4F)c4ccc([nH]4)c(-c4c(F)cc(S(=O)(=O)[O-])cc4F)c4nc(c(-c5c(F)cc(S(=O)(=O)[O-])cc5F)c5ccc2[nH]5)C=C4)C=C3)cc1
REMARK SMILES IDX 7 1 6 2 5 3 4 4 3 5 2 6 1 7 32 8 33 9 97 10 34 11 96 12
REMARK SMILES IDX 35 13 36 14 37 15 90 16 38 17 95 18 89 19 91 20 39 21 94 22
REMARK SMILES IDX 88 23 87 24 40 26 74 27 53 28 73 29 54 30 57 31 72 32 92 33
REMARK SMILES IDX 55 34 56 35 71 37 93 38 58 39 41 40 42 41 51 42 43 43 44 44
REMARK SMILES IDX 50 45 52 46 45 47 46 48 47 49 48 50 49 51 75 52 76 53 85 54
REMARK SMILES IDX 77 55 78 56 84 57 86 58 79 59 80 60 81 61 82 62 83 63 59 64
REMARK SMILES IDX 60 65 69 66 61 67 62 68 68 69 70 70 63 71 64 72 65 73 66 74
REMARK SMILES IDX 67 75 8 76 9 77 10 78 11 79 12 80 13 81 14 82 15 83 16 84
REMARK SMILES IDX 31 85 17 86 26 87 30 88 18 89 25 90 27 91 29 92 23 93 24 94
REMARK SMILES IDX 28 95 19 96 20 97 21 98 22 99
REMARK H PARENT 91 25 57 36
REMARK Flexibility Score: inf
ROOT
ATOM      1  C   UNL A   1      41.466  20.149  26.816  1.00  0.00     0.188 C 
ENDROOT
BRANCH   1   2
ATOM      2  O   UNL A   1      41.698  18.854  26.290  1.00  0.00    -0.376 OA
BRANCH   2   3
ATOM      3  C   UNL A   1      43.014  18.357  26.478  1.00  0.00     0.202 C 
BRANCH   3   4
ATOM      4  C   UNL A   1      44.034  18.759  25.403  1.00  0.00     0.261 C 
BRANCH   4   5
ATOM      5  O   UNL A   1      44.672  20.068  25.456  1.00  0.00    -0.460 OA
BRANCH   5   6
ATOM      6  C   UNL A   1      44.607  21.125  24.607  1.00  0.00     0.338 C 
ATOM      7  O   UNL A   1      44.676  20.964  23.393  1.00  0.00    -0.246 OA
BRANCH   6   8
ATOM      8  C   UNL A   1      44.573  22.483  25.181  1.00  0.00     0.060 A 
ATOM      9  C   UNL A   1      45.086  22.668  26.465  1.00  0.00     0.016 A 
ATOM     10  C   UNL A   1      43.891  23.518  24.544  1.00  0.00     0.016 A 
ATOM     11  C   UNL A   1      44.683  23.785  27.192  1.00  0.00     0.010 A 
ATOM     12  C   UNL A   1      43.433  24.594  25.300  1.00  0.00     0.010 A 
ATOM     13  C   UNL A   1      43.739  24.682  26.662  1.00  0.00    -0.014 A 
BRANCH  13  14
ATOM     14  C   UNL A   1      43.418  25.906  27.423  1.00  0.00     0.031 A 
ATOM     15  C   UNL A   1      44.520  26.870  27.213  1.00  0.00     0.074 A 
ATOM     16  C   UNL A   1      42.297  26.264  28.101  1.00  0.00     0.049 A 
ATOM     17  N   UNL A   1      45.491  27.143  28.022  1.00  0.00    -0.248 NA
ATOM     18  C   UNL A   1      44.714  27.370  25.839  1.00  0.00     0.031 C 
ATOM     19  C   UNL A   1      41.022  25.544  28.182  1.00  0.00     0.029 A 
ATOM     20  N   UNL A   1      42.032  27.408  28.839  1.00  0.00    -0.354 N 
ATOM     21  C   UNL A   1      46.255  28.064  27.320  1.00  0.00     0.074 A 
ATOM     22  C   UNL A   1      45.937  27.894  25.927  1.00  0.00     0.031 C 
ATOM     23  C   UNL A   1      40.093  26.300  28.796  1.00  0.00     0.029 A 
ATOM     24  C   UNL A   1      40.676  27.569  29.156  1.00  0.00     0.049 A 
ATOM     25  H   UNL A   1      42.731  28.047  29.112  1.00  0.00     0.167 HD
ATOM     26  C   UNL A   1      46.739  29.182  27.922  1.00  0.00     0.037 A 
ATOM     27  C   UNL A   1      40.027  28.663  29.637  1.00  0.00     0.037 A 
ATOM     28  C   UNL A   1      46.621  29.171  29.355  1.00  0.00     0.049 A 
ATOM     29  C   UNL A   1      41.030  29.502  30.326  1.00  0.00     0.074 A 
ATOM     30  C   UNL A   1      47.448  29.147  30.451  1.00  0.00     0.029 A 
ATOM     31  N   UNL A   1      45.338  29.111  29.827  1.00  0.00    -0.354 N 
ATOM     32  N   UNL A   1      41.632  29.109  31.419  1.00  0.00    -0.248 NA
ATOM     33  C   UNL A   1      41.687  30.581  29.595  1.00  0.00     0.031 C 
ATOM     34  C   UNL A   1      46.610  29.137  31.607  1.00  0.00     0.029 A 
ATOM     35  C   UNL A   1      45.287  29.133  31.194  1.00  0.00     0.049 A 
ATOM     36  H   UNL A   1      44.543  29.057  29.250  1.00  0.00     0.167 HD
ATOM     37  C   UNL A   1      42.912  29.597  31.290  1.00  0.00     0.074 A 
ATOM     38  C   UNL A   1      42.868  30.588  30.219  1.00  0.00     0.031 C 
ATOM     39  C   UNL A   1      43.995  28.959  31.813  1.00  0.00     0.037 A 
BRANCH  26  40
ATOM     40  C   UNL A   1      46.873  30.498  27.204  1.00  0.00     0.058 A 
ATOM     41  C   UNL A   1      48.124  31.131  27.156  1.00  0.00     0.135 A 
ATOM     42  C   UNL A   1      45.761  31.285  26.823  1.00  0.00     0.135 A 
ATOM     43  F   UNL A   1      49.239  30.467  27.502  1.00  0.00    -0.206 F 
ATOM     44  C   UNL A   1      48.255  32.475  26.810  1.00  0.00     0.059 A 
ATOM     45  C   UNL A   1      45.878  32.601  26.403  1.00  0.00     0.059 A 
ATOM     46  F   UNL A   1      44.501  30.847  26.935  1.00  0.00    -0.206 F 
ATOM     47  C   UNL A   1      47.123  33.202  26.446  1.00  0.00     0.060 A 
BRANCH  47  48
ATOM     48  S   UNL A   1      47.276  34.960  26.101  1.00  0.00     0.124 S 
ATOM     49  O   UNL A   1      48.111  34.953  24.907  1.00  0.00    -0.237 OA
ATOM     50  O   UNL A   1      45.883  35.351  25.909  1.00  0.00    -0.237 OA
ATOM     51  O   UNL A   1      47.906  35.486  27.310  1.00  0.00    -0.744 OA
ENDBRANCH  47  48
ENDBRANCH  26  40
BRANCH  27  52
ATOM     52  C   UNL A   1      38.647  29.119  29.282  1.00  0.00     0.058 A 
ATOM     53  C   UNL A   1      37.658  29.371  30.253  1.00  0.00     0.135 A 
ATOM     54  C   UNL A   1      38.344  29.570  27.978  1.00  0.00     0.135 A 
ATOM     55  F   UNL A   1      37.840  28.971  31.521  1.00  0.00    -0.206 F 
ATOM     56  C   UNL A   1      36.492  30.098  29.964  1.00  0.00     0.059 A 
ATOM     57  C   UNL A   1      37.187  30.274  27.664  1.00  0.00     0.059 A 
ATOM     58  F   UNL A   1      39.213  29.430  26.967  1.00  0.00    -0.206 F 
ATOM     59  C   UNL A   1      36.287  30.580  28.671  1.00  0.00     0.060 A 
BRANCH  59  60
ATOM     60  S   UNL A   1      34.945  31.745  28.332  1.00  0.00     0.124 S 
ATOM     61  O   UNL A   1      34.519  32.123  29.675  1.00  0.00    -0.237 OA
ATOM     62  O   UNL A   1      35.630  32.778  27.562  1.00  0.00    -0.237 OA
ATOM     63  O   UNL A   1      33.984  30.945  27.575  1.00  0.00    -0.744 OA
ENDBRANCH  59  60
ENDBRANCH  27  52
BRANCH  39  64
ATOM     64  C   UNL A   1      43.811  27.941  32.903  1.00  0.00     0.058 A 
ATOM     65  C   UNL A   1      43.435  28.242  34.228  1.00  0.00     0.135 A 
ATOM     66  C   UNL A   1      43.893  26.584  32.561  1.00  0.00     0.135 A 
ATOM     67  F   UNL A   1      43.241  29.514  34.609  1.00  0.00    -0.206 F 
ATOM     68  C   UNL A   1      43.159  27.237  35.165  1.00  0.00     0.059 A 
ATOM     69  C   UNL A   1      43.599  25.570  33.466  1.00  0.00     0.059 A 
ATOM     70  F   UNL A   1      44.222  26.224  31.310  1.00  0.00    -0.206 F 
ATOM     71  C   UNL A   1      43.241  25.900  34.771  1.00  0.00     0.060 A 
BRANCH  71  72
ATOM     72  S   UNL A   1      42.851  24.585  35.951  1.00  0.00     0.124 S 
ATOM     73  O   UNL A   1      42.179  23.605  35.105  1.00  0.00    -0.237 OA
ATOM     74  O   UNL A   1      44.165  24.198  36.454  1.00  0.00    -0.237 OA
ATOM     75  O   UNL A   1      41.994  25.250  36.930  1.00  0.00    -0.744 OA
ENDBRANCH  71  72
ENDBRANCH  39  64
ENDBRANCH  13  14
ENDBRANCH   6   8
ENDBRANCH   5   6
ENDBRANCH   4   5
ENDBRANCH   3   4
ENDBRANCH   2   3
ENDBRANCH   1   2
BRANCH   1  76
ATOM     76  C   UNL A   1      41.174  21.210  25.750  1.00  0.00     0.188 C 
BRANCH  76  77
ATOM     77  O   UNL A   1      40.813  22.506  26.199  1.00  0.00    -0.376 OA
BRANCH  77  78
ATOM     78  C   UNL A   1      39.575  22.636  26.888  1.00  0.00     0.202 C 
BRANCH  78  79
ATOM     79  C   UNL A   1      38.261  22.926  26.138  1.00  0.00     0.261 C 
BRANCH  79  80
ATOM     80  O   UNL A   1      37.775  22.002  25.169  1.00  0.00    -0.460 OA
BRANCH  80  81
ATOM     81  C   UNL A   1      36.851  22.524  24.340  1.00  0.00     0.338 C 
ATOM     82  O   UNL A   1      37.046  23.354  23.461  1.00  0.00    -0.246 OA
BRANCH  81  83
ATOM     83  C   UNL A   1      35.520  22.011  24.726  1.00  0.00     0.068 A 
ATOM     84  C   UNL A   1      35.318  20.622  24.555  1.00  0.00     0.030 A 
ATOM     85  C   UNL A   1      34.509  22.948  25.184  1.00  0.00    -0.002 A 
ATOM     86  C   UNL A   1      34.004  20.272  24.837  1.00  0.00     0.056 A 
ATOM     87  C   UNL A   1      33.166  22.525  25.450  1.00  0.00     0.012 A 
ATOM     88  C   UNL A   1      34.766  24.311  25.393  1.00  0.00     0.010 A 
ATOM     89  C   UNL A   1      33.452  19.032  24.681  1.00  0.00     0.248 A 
ATOM     90  C   UNL A   1      32.935  21.136  25.264  1.00  0.00     0.122 A 
ATOM     91  C   UNL A   1      32.144  23.421  25.819  1.00  0.00     0.011 A 
ATOM     92  C   UNL A   1      33.742  25.202  25.721  1.00  0.00     0.001 A 
ATOM     93  O   UNL A   1      32.138  19.109  25.028  1.00  0.00    -0.350 OA
ATOM     94  N   UNL A   1      31.815  20.400  25.399  1.00  0.00    -0.079 NA
ATOM     95  C   UNL A   1      32.438  24.770  25.924  1.00  0.00     0.001 A 
BRANCH  89  96
ATOM     96  C   UNL A   1      33.918  17.733  24.189  1.00  0.00     0.453 C 
ATOM     97  F   UNL A   1      33.369  16.689  24.860  1.00  0.00    -0.163 F 
ATOM     98  F   UNL A   1      33.611  17.557  22.876  1.00  0.00    -0.163 F 
ATOM     99  F   UNL A   1      35.267  17.593  24.285  1.00  0.00    -0.163 F 
ENDBRANCH  89  96
ENDBRANCH  81  83
ENDBRANCH  80  81
ENDBRANCH  79  80
ENDBRANCH  78  79
ENDBRANCH  77  78
ENDBRANCH  76  77
ENDBRANCH   1  76
TORSDOF 21
ENDMDL
MODEL 2
REMARK VINA RESULT:     -11.3      3.665      5.547
REMARK SMILES O=C(OCCOCCOCCOC(=O)c1cc2c(C(F)(F)F)onc2c2ccccc12)c1ccc(-c2c3nc(c(-c4c(F)cc(S(=O)(=O)[O-])cc4F)c4ccc([nH]4)c(-c4c(F)cc(S(=O)(=O)[O-])cc4F)c4nc(c(-c5c(F)cc(S(=O)(=O)[O-])cc5F)c5ccc2[nH]5)C=C4)C=C3)cc1
REMARK SMILES IDX 7 1 6 2 5 3 4 4 3 5 2 6 1 7 32 8 33 9 97 10 34 11 96 12
REMARK SMILES IDX 35 13 36 14 37 15 90 16 38 17 95 18 89 19 91 20 39 21 94 22
REMARK SMILES IDX 88 23 87 24 40 26 74 27 53 28 73 29 54 30 57 31 72 32 92 33
REMARK SMILES IDX 55 34 56 35 71 37 93 38 58 39 41 40 42 41 51 42 43 43 44 44
REMARK SMILES IDX 50 45 52 46 45 47 46 48 47 49 48 50 49 51 75 52 76 53 85 54
REMARK SMILES IDX 77 55 78 56 84 57 86 58 79 59 80 60 81 61 82 62 83 63 59 64
REMARK SMILES IDX 60 65 69 66 61 67 62 68 68 69 70 70 63 71 64 72 65 73 66 74
REMARK SMILES IDX 67 75 8 76 9 77 10 78 11 79 12 80 13 81 14 82 15 83 16 84
REMARK SMILES IDX 31 85 17 86 26 87 30 88 18 89 25 90 27 91 29 92 23 93 24 94
REMARK SMILES IDX 28 95 19 96 20 97 21 98 22 99
REMARK H PARENT 91 25 57 36
REMARK Flexibility Score: inf
ROOT
ATOM      1  C   UNL A   1      34.800  21.843  24.959  1.00  0.00     0.188 C 
ENDROOT
BRANCH   1   2
ATOM      2  O   UNL A   1      35.448  20.586  25.053  1.00  0.00    -0.376 OA
BRANCH   2   3
ATOM      3  C   UNL A   1      36.842  20.608  24.791  1.00  0.00     0.202 C 
BRANCH   3   4
ATOM      4  C   UNL A   1      37.644  21.667  25.562  1.00  0.00     0.261 C 
BRANCH   4   5
ATOM      5  O   UNL A   1      39.101  21.631  25.550  1.00  0.00    -0.460 OA
BRANCH   5   6
ATOM      6  C   UNL A   1      40.004  21.812  26.547  1.00  0.00     0.338 C 
ATOM      7  O   UNL A   1      40.414  20.863  27.206  1.00  0.00    -0.246 OA
BRANCH   6   8
ATOM      8  C   UNL A   1      40.392  23.191  26.899  1.00  0.00     0.060 A 
ATOM      9  C   UNL A   1      41.473  23.370  27.762  1.00  0.00     0.016 A 
ATOM     10  C   UNL A   1      39.603  24.278  26.530  1.00  0.00     0.016 A 
ATOM     11  C   UNL A   1      41.587  24.576  28.449  1.00  0.00     0.010 A 
ATOM     12  C   UNL A   1      39.679  25.453  27.273  1.00  0.00     0.010 A 
ATOM     13  C   UNL A   1      40.606  25.573  28.313  1.00  0.00    -0.014 A 
BRANCH  13  14
ATOM     14  C   UNL A   1      40.819  26.874  28.979  1.00  0.00     0.031 A 
ATOM     15  C   UNL A   1      42.043  27.478  28.408  1.00  0.00     0.074 A 
ATOM     16  C   UNL A   1      40.040  27.566  29.851  1.00  0.00     0.049 A 
ATOM     17  N   UNL A   1      43.224  27.506  28.934  1.00  0.00    -0.248 NA
ATOM     18  C   UNL A   1      42.004  27.834  26.978  1.00  0.00     0.031 C 
ATOM     19  C   UNL A   1      38.686  27.239  30.307  1.00  0.00     0.029 A 
ATOM     20  N   UNL A   1      40.279  28.773  30.490  1.00  0.00    -0.354 N 
ATOM     21  C   UNL A   1      43.997  28.139  27.971  1.00  0.00     0.074 A 
ATOM     22  C   UNL A   1      43.302  27.997  26.719  1.00  0.00     0.031 C 
ATOM     23  C   UNL A   1      38.173  28.255  31.027  1.00  0.00     0.029 A 
ATOM     24  C   UNL A   1      39.139  29.324  31.091  1.00  0.00     0.049 A 
ATOM     25  H   UNL A   1      41.165  29.202  30.518  1.00  0.00     0.167 HD
ATOM     26  C   UNL A   1      44.891  29.104  28.310  1.00  0.00     0.037 A 
ATOM     27  C   UNL A   1      38.941  30.579  31.576  1.00  0.00     0.037 A 
ATOM     28  C   UNL A   1      45.143  29.197  29.722  1.00  0.00     0.049 A 
ATOM     29  C   UNL A   1      40.269  31.135  31.912  1.00  0.00     0.074 A 
ATOM     30  C   UNL A   1      46.186  28.995  30.593  1.00  0.00     0.029 A 
ATOM     31  N   UNL A   1      44.052  29.524  30.481  1.00  0.00    -0.354 N 
ATOM     32  N   UNL A   1      41.005  30.643  32.875  1.00  0.00    -0.248 NA
ATOM     33  C   UNL A   1      40.976  31.949  30.928  1.00  0.00     0.031 C 
ATOM     34  C   UNL A   1      45.697  29.278  31.904  1.00  0.00     0.029 A 
ATOM     35  C   UNL A   1      44.359  29.626  31.811  1.00  0.00     0.049 A 
ATOM     36  H   UNL A   1      43.151  29.667  30.114  1.00  0.00     0.167 HD
ATOM     37  C   UNL A   1      42.292  30.744  32.397  1.00  0.00     0.074 A 
ATOM     38  C   UNL A   1      42.236  31.654  31.257  1.00  0.00     0.031 C 
ATOM     39  C   UNL A   1      43.267  29.854  32.728  1.00  0.00     0.037 A 
BRANCH  26  40
ATOM     40  C   UNL A   1      45.177  30.292  27.431  1.00  0.00     0.058 A 
ATOM     41  C   UNL A   1      46.503  30.586  27.080  1.00  0.00     0.135 A 
ATOM     42  C   UNL A   1      44.224  31.305  27.171  1.00  0.00     0.135 A 
ATOM     43  F   UNL A   1      47.479  29.689  27.291  1.00  0.00    -0.206 F 
ATOM     44  C   UNL A   1      46.868  31.827  26.562  1.00  0.00     0.059 A 
ATOM     45  C   UNL A   1      44.554  32.518  26.586  1.00  0.00     0.059 A 
ATOM     46  F   UNL A   1      42.948  31.205  27.563  1.00  0.00    -0.206 F 
ATOM     47  C   UNL A   1      45.886  32.788  26.329  1.00  0.00     0.060 A 
BRANCH  47  48
ATOM     48  S   UNL A   1      46.369  34.424  25.760  1.00  0.00     0.124 S 
ATOM     49  O   UNL A   1      45.988  35.254  26.897  1.00  0.00    -0.237 OA
ATOM     50  O   UNL A   1      47.800  34.255  25.539  1.00  0.00    -0.237 OA
ATOM     51  O   UNL A   1      45.572  34.608  24.550  1.00  0.00    -0.744 OA
ENDBRANCH  47  48
ENDBRANCH  26  40
BRANCH  27  52
ATOM     52  C   UNL A   1      37.684  31.387  31.498  1.00  0.00     0.058 A 
ATOM     53  C   UNL A   1      36.695  31.348  32.501  1.00  0.00     0.135 A 
ATOM     54  C   UNL A   1      37.544  32.423  30.549  1.00  0.00     0.135 A 
ATOM     55  F   UNL A   1      36.727  30.396  33.445  1.00  0.00    -0.206 F 
ATOM     56  C   UNL A   1      35.690  32.326  32.601  1.00  0.00     0.059 A 
ATOM     57  C   UNL A   1      36.546  33.389  30.615  1.00  0.00     0.059 A 
ATOM     58  F   UNL A   1      38.438  32.599  29.565  1.00  0.00    -0.206 F 
ATOM     59  C   UNL A   1      35.651  33.366  31.671  1.00  0.00     0.060 A 
BRANCH  59  60
ATOM     60  S   UNL A   1      34.552  34.780  31.930  1.00  0.00     0.124 S 
ATOM     61  O   UNL A   1      35.416  35.714  32.642  1.00  0.00    -0.237 OA
ATOM     62  O   UNL A   1      34.203  35.145  30.561  1.00  0.00    -0.237 OA
ATOM     63  O   UNL A   1      33.457  34.218  32.718  1.00  0.00    -0.744 OA
ENDBRANCH  59  60
ENDBRANCH  27  52
BRANCH  39  64
ATOM     64  C   UNL A   1      43.108  28.984  33.942  1.00  0.00     0.058 A 
ATOM     65  C   UNL A   1      42.953  29.463  35.259  1.00  0.00     0.135 A 
ATOM     66  C   UNL A   1      42.976  27.601  33.753  1.00  0.00     0.135 A 
ATOM     67  F   UNL A   1      42.969  30.781  35.511  1.00  0.00    -0.206 F 
ATOM     68  C   UNL A   1      42.685  28.603  36.333  1.00  0.00     0.059 A 
ATOM     69  C   UNL A   1      42.684  26.731  34.798  1.00  0.00     0.059 A 
ATOM     70  F   UNL A   1      43.087  27.077  32.521  1.00  0.00    -0.206 F 
ATOM     71  C   UNL A   1      42.548  27.235  36.089  1.00  0.00     0.060 A 
BRANCH  71  72
ATOM     72  S   UNL A   1      42.162  26.109  37.452  1.00  0.00     0.124 S 
ATOM     73  O   UNL A   1      43.192  26.448  38.429  1.00  0.00    -0.237 OA
ATOM     74  O   UNL A   1      40.798  26.482  37.808  1.00  0.00    -0.237 OA
ATOM     75  O   UNL A   1      42.296  24.785  36.847  1.00  0.00    -0.744 OA
ENDBRANCH  71  72
ENDBRANCH  39  64
ENDBRANCH  13  14
ENDBRANCH   6   8
ENDBRANCH   5   6
ENDBRANCH   4   5
ENDBRANCH   3   4
ENDBRANCH   2   3
ENDBRANCH   1   2
BRANCH   1  76
ATOM     76  C   UNL A   1      33.419  21.782  24.299  1.00  0.00     0.188 C 
BRANCH  76  77
ATOM     77  O   UNL A   1      32.308  22.216  25.067  1.00  0.00    -0.376 OA
BRANCH  77  78
ATOM     78  C   UNL A   1      31.299  22.957  24.392  1.00  0.00     0.202 C 
BRANCH  78  79
ATOM     79  C   UNL A   1      31.628  23.854  23.183  1.00  0.00     0.261 C 
BRANCH  79  80
ATOM     80  O   UNL A   1      30.866  25.033  22.942  1.00  0.00    -0.460 OA
BRANCH  80  81
ATOM     81  C   UNL A   1      31.591  26.051  22.439  1.00  0.00     0.338 C 
ATOM     82  O   UNL A   1      32.423  25.981  21.544  1.00  0.00    -0.246 OA
BRANCH  81  83
ATOM     83  C   UNL A   1      31.299  27.273  23.216  1.00  0.00     0.068 A 
ATOM     84  C   UNL A   1      30.210  28.052  22.760  1.00  0.00     0.030 A 
ATOM     85  C   UNL A   1      32.161  27.624  24.330  1.00  0.00    -0.002 A 
ATOM     86  C   UNL A   1      30.099  29.229  23.488  1.00  0.00     0.056 A 
ATOM     87  C   UNL A   1      32.002  28.859  25.037  1.00  0.00     0.012 A 
ATOM     88  C   UNL A   1      33.198  26.797  24.786  1.00  0.00     0.010 A 
ATOM     89  C   UNL A   1      29.218  30.245  23.246  1.00  0.00     0.248 A 
ATOM     90  C   UNL A   1      30.927  29.668  24.582  1.00  0.00     0.122 A 
ATOM     91  C   UNL A   1      32.870  29.264  26.070  1.00  0.00     0.011 A 
ATOM     92  C   UNL A   1      34.080  27.218  25.784  1.00  0.00     0.001 A 
ATOM     93  O   UNL A   1      29.452  31.232  24.154  1.00  0.00    -0.350 OA
ATOM     94  N   UNL A   1      30.496  30.878  24.987  1.00  0.00    -0.079 NA
ATOM     95  C   UNL A   1      33.930  28.444  26.418  1.00  0.00     0.001 A 
BRANCH  89  96
ATOM     96  C   UNL A   1      28.186  30.517  22.243  1.00  0.00     0.453 C 
ATOM     97  F   UNL A   1      28.605  30.269  20.976  1.00  0.00    -0.163 F 
ATOM     98  F   UNL A   1      27.080  29.752  22.444  1.00  0.00    -0.163 F 
ATOM     99  F   UNL A   1      27.763  31.809  22.268  1.00  0.00    -0.163 F 
ENDBRANCH  89  96
ENDBRANCH  81  83
ENDBRANCH  80  81
ENDBRANCH  79  80
ENDBRANCH  78  79
ENDBRANCH  77  78
ENDBRANCH  76  77
ENDBRANCH   1  76
TORSDOF 21
ENDMDL
MODEL 3
REMARK VINA RESULT:     -10.9      1.764      2.577
REMARK SMILES O=C(OCCOCCOCCOC(=O)c1cc2c(C(F)(F)F)onc2c2ccccc12)c1ccc(-c2c3nc(c(-c4c(F)cc(S(=O)(=O)[O-])cc4F)c4ccc([nH]4)c(-c4c(F)cc(S(=O)(=O)[O-])cc4F)c4nc(c(-c5c(F)cc(S(=O)(=O)[O-])cc5F)c5ccc2[nH]5)C=C4)C=C3)cc1
REMARK SMILES IDX 7 1 6 2 5 3 4 4 3 5 2 6 1 7 32 8 33 9 97 10 34 11 96 12
REMARK SMILES IDX 35 13 36 14 37 15 90 16 38 17 95 18 89 19 91 20 39 21 94 22
REMARK SMILES IDX 88 23 87 24 40 26 74 27 53 28 73 29 54 30 57 31 72 32 92 33
REMARK SMILES IDX 55 34 56 35 71 37 93 38 58 39 41 40 42 41 51 42 43 43 44 44
REMARK SMILES IDX 50 45 52 46 45 47 46 48 47 49 48 50 49 51 75 52 76 53 85 54
REMARK SMILES IDX 77 55 78 56 84 57 86 58 79 59 80 60 81 61 82 62 83 63 59 64
REMARK SMILES IDX 60 65 69 66 61 67 62 68 68 69 70 70 63 71 64 72 65 73 66 74
REMARK SMILES IDX 67 75 8 76 9 77 10 78 11 79 12 80 13 81 14 82 15 83 16 84
REMARK SMILES IDX 31 85 17 86 26 87 30 88 18 89 25 90 27 91 29 92 23 93 24 94
REMARK SMILES IDX 28 95 19 96 20 97 21 98 22 99
REMARK H PARENT 91 25 57 36
REMARK Flexibility Score: inf
ROOT
ATOM      1  C   UNL A   1      40.623  19.677  25.936  1.00  0.00     0.188 C 
ENDROOT
BRANCH   1   2
ATOM      2  O   UNL A   1      41.957  19.221  25.786  1.00  0.00    -0.376 OA
BRANCH   2   3
ATOM      3  C   UNL A   1      42.953  20.116  26.255  1.00  0.00     0.202 C 
BRANCH   3   4
ATOM      4  C   UNL A   1      43.626  20.981  25.180  1.00  0.00     0.261 C 
BRANCH   4   5
ATOM      5  O   UNL A   1      43.057  22.274  24.822  1.00  0.00    -0.460 OA
BRANCH   5   6
ATOM      6  C   UNL A   1      43.587  23.523  24.869  1.00  0.00     0.338 C 
ATOM      7  O   UNL A   1      44.572  23.815  24.200  1.00  0.00    -0.246 OA
BRANCH   6   8
ATOM      8  C   UNL A   1      43.024  24.486  25.834  1.00  0.00     0.060 A 
ATOM      9  C   UNL A   1      42.225  25.519  25.343  1.00  0.00     0.016 A 
ATOM     10  C   UNL A   1      43.417  24.480  27.171  1.00  0.00     0.016 A 
ATOM     11  C   UNL A   1      42.051  26.659  26.123  1.00  0.00     0.010 A 
ATOM     12  C   UNL A   1      43.302  25.651  27.916  1.00  0.00     0.010 A 
ATOM     13  C   UNL A   1      42.709  26.788  27.358  1.00  0.00    -0.014 A 
BRANCH  13  14
ATOM     14  C   UNL A   1      42.417  27.967  28.198  1.00  0.00     0.031 A 
ATOM     15  C   UNL A   1      43.627  28.818  28.219  1.00  0.00     0.074 A 
ATOM     16  C   UNL A   1      41.259  28.385  28.774  1.00  0.00     0.049 A 
ATOM     17  N   UNL A   1      44.509  28.907  29.159  1.00  0.00    -0.248 NA
ATOM     18  C   UNL A   1      44.042  29.414  26.935  1.00  0.00     0.031 C 
ATOM     19  C   UNL A   1      39.920  27.806  28.631  1.00  0.00     0.029 A 
ATOM     20  N   UNL A   1      41.018  29.480  29.589  1.00  0.00    -0.354 N 
ATOM     21  C   UNL A   1      45.443  29.797  28.650  1.00  0.00     0.074 A 
ATOM     22  C   UNL A   1      45.290  29.790  27.219  1.00  0.00     0.031 C 
ATOM     23  C   UNL A   1      39.000  28.602  29.207  1.00  0.00     0.029 A 
ATOM     24  C   UNL A   1      39.656  29.761  29.761  1.00  0.00     0.049 A 
ATOM     25  H   UNL A   1      41.736  30.010  30.007  1.00  0.00     0.167 HD
ATOM     26  C   UNL A   1      45.955  30.796  29.416  1.00  0.00     0.037 A 
ATOM     27  C   UNL A   1      39.062  30.873  30.272  1.00  0.00     0.037 A 
ATOM     28  C   UNL A   1      45.656  30.670  30.816  1.00  0.00     0.049 A 
ATOM     29  C   UNL A   1      40.047  31.530  31.157  1.00  0.00     0.074 A 
ATOM     30  C   UNL A   1      46.331  30.456  31.993  1.00  0.00     0.029 A 
ATOM     31  N   UNL A   1      44.324  30.710  31.126  1.00  0.00    -0.354 N 
ATOM     32  N   UNL A   1      40.464  30.977  32.266  1.00  0.00    -0.248 NA
ATOM     33  C   UNL A   1      40.895  32.591  30.622  1.00  0.00     0.031 C 
ATOM     34  C   UNL A   1      45.355  30.435  33.036  1.00  0.00     0.029 A 
ATOM     35  C   UNL A   1      44.102  30.615  32.473  1.00  0.00     0.049 A 
ATOM     36  H   UNL A   1      43.607  30.797  30.458  1.00  0.00     0.167 HD
ATOM     37  C   UNL A   1      41.792  31.329  32.338  1.00  0.00     0.074 A 
ATOM     38  C   UNL A   1      41.982  32.411  31.377  1.00  0.00     0.031 C 
ATOM     39  C   UNL A   1      42.731  30.530  32.916  1.00  0.00     0.037 A 
BRANCH  26  40
ATOM     40  C   UNL A   1      46.310  32.148  28.857  1.00  0.00     0.058 A 
ATOM     41  C   UNL A   1      45.308  32.936  28.273  1.00  0.00     0.135 A 
ATOM     42  C   UNL A   1      47.643  32.558  28.620  1.00  0.00     0.135 A 
ATOM     43  F   UNL A   1      44.012  32.626  28.439  1.00  0.00    -0.206 F 
ATOM     44  C   UNL A   1      45.611  34.024  27.456  1.00  0.00     0.059 A 
ATOM     45  C   UNL A   1      47.965  33.681  27.873  1.00  0.00     0.059 A 
ATOM     46  F   UNL A   1      48.697  31.833  29.016  1.00  0.00    -0.206 F 
ATOM     47  C   UNL A   1      46.944  34.380  27.255  1.00  0.00     0.060 A 
BRANCH  47  48
ATOM     48  S   UNL A   1      47.340  35.716  26.120  1.00  0.00     0.124 S 
ATOM     49  O   UNL A   1      46.207  36.613  26.317  1.00  0.00    -0.237 OA
ATOM     50  O   UNL A   1      48.623  36.180  26.636  1.00  0.00    -0.237 OA
ATOM     51  O   UNL A   1      47.398  35.049  24.822  1.00  0.00    -0.744 OA
ENDBRANCH  47  48
ENDBRANCH  26  40
BRANCH  27  52
ATOM     52  C   UNL A   1      37.790  31.509  29.807  1.00  0.00     0.058 A 
ATOM     53  C   UNL A   1      36.521  31.042  30.200  1.00  0.00     0.135 A 
ATOM     54  C   UNL A   1      37.800  32.766  29.162  1.00  0.00     0.135 A 
ATOM     55  F   UNL A   1      36.398  29.853  30.809  1.00  0.00    -0.206 F 
ATOM     56  C   UNL A   1      35.356  31.812  30.043  1.00  0.00     0.059 A 
ATOM     57  C   UNL A   1      36.658  33.537  28.977  1.00  0.00     0.059 A 
ATOM     58  F   UNL A   1      38.944  33.345  28.772  1.00  0.00    -0.206 F 
ATOM     59  C   UNL A   1      35.445  33.078  29.463  1.00  0.00     0.060 A 
BRANCH  59  60
ATOM     60  S   UNL A   1      34.026  34.200  29.496  1.00  0.00     0.124 S 
ATOM     61  O   UNL A   1      33.700  34.242  30.917  1.00  0.00    -0.237 OA
ATOM     62  O   UNL A   1      34.592  35.420  28.931  1.00  0.00    -0.237 OA
ATOM     63  O   UNL A   1      33.042  33.526  28.651  1.00  0.00    -0.744 OA
ENDBRANCH  59  60
ENDBRANCH  27  52
BRANCH  39  64
ATOM     64  C   UNL A   1      42.310  29.446  33.866  1.00  0.00     0.058 A 
ATOM     65  C   UNL A   1      42.028  28.116  33.495  1.00  0.00     0.135 A 
ATOM     66  C   UNL A   1      42.314  29.731  35.239  1.00  0.00     0.135 A 
ATOM     67  F   UNL A   1      42.098  27.739  32.208  1.00  0.00    -0.206 F 
ATOM     68  C   UNL A   1      41.761  27.122  34.446  1.00  0.00     0.059 A 
ATOM     69  C   UNL A   1      42.078  28.756  36.202  1.00  0.00     0.059 A 
ATOM     70  F   UNL A   1      42.598  30.972  35.668  1.00  0.00    -0.206 F 
ATOM     71  C   UNL A   1      41.792  27.454  35.802  1.00  0.00     0.060 A 
BRANCH  71  72
ATOM     72  S   UNL A   1      41.490  26.180  37.051  1.00  0.00     0.124 S 
ATOM     73  O   UNL A   1      40.285  26.676  37.707  1.00  0.00    -0.237 OA
ATOM     74  O   UNL A   1      41.330  24.971  36.252  1.00  0.00    -0.237 OA
ATOM     75  O   UNL A   1      42.700  26.215  37.871  1.00  0.00    -0.744 OA
ENDBRANCH  71  72
ENDBRANCH  39  64
ENDBRANCH  13  14
ENDBRANCH   6   8
ENDBRANCH   5   6
ENDBRANCH   4   5
ENDBRANCH   3   4
ENDBRANCH   2   3
ENDBRANCH   1   2
BRANCH   1  76
ATOM     76  C   UNL A   1      40.486  20.914  26.828  1.00  0.00     0.188 C 
BRANCH  76  77
ATOM     77  O   UNL A   1      39.332  21.720  26.655  1.00  0.00    -0.376 OA
BRANCH  77  78
ATOM     78  C   UNL A   1      39.535  23.107  26.412  1.00  0.00     0.202 C 
BRANCH  78  79
ATOM     79  C   UNL A   1      38.377  24.119  26.499  1.00  0.00     0.261 C 
BRANCH  79  80
ATOM     80  O   UNL A   1      37.028  23.665  26.450  1.00  0.00    -0.460 OA
BRANCH  80  81
ATOM     81  C   UNL A   1      36.615  23.330  25.212  1.00  0.00     0.338 C 
ATOM     82  O   UNL A   1      37.186  23.583  24.160  1.00  0.00    -0.246 OA
BRANCH  81  83
ATOM     83  C   UNL A   1      35.288  22.688  25.311  1.00  0.00     0.068 A 
ATOM     84  C   UNL A   1      35.262  21.286  25.122  1.00  0.00     0.030 A 
ATOM     85  C   UNL A   1      34.116  23.518  25.527  1.00  0.00    -0.002 A 
ATOM     86  C   UNL A   1      33.958  20.808  25.120  1.00  0.00     0.056 A 
ATOM     87  C   UNL A   1      32.795  22.966  25.504  1.00  0.00     0.012 A 
ATOM     88  C   UNL A   1      34.189  24.899  25.765  1.00  0.00     0.010 A 
ATOM     89  C   UNL A   1      33.575  19.521  24.868  1.00  0.00     0.248 A 
ATOM     90  C   UNL A   1      32.744  21.562  25.295  1.00  0.00     0.122 A 
ATOM     91  C   UNL A   1      31.636  23.755  25.632  1.00  0.00     0.011 A 
ATOM     92  C   UNL A   1      33.037  25.684  25.853  1.00  0.00     0.001 A 
ATOM     93  O   UNL A   1      32.216  19.468  24.923  1.00  0.00    -0.350 OA
ATOM     94  N   UNL A   1      31.698  20.719  25.197  1.00  0.00    -0.079 NA
ATOM     95  C   UNL A   1      31.768  25.126  25.777  1.00  0.00     0.001 A 
BRANCH  89  96
ATOM     96  C   UNL A   1      34.259  18.277  24.506  1.00  0.00     0.453 C 
ATOM     97  F   UNL A   1      33.980  17.873  23.241  1.00  0.00    -0.163 F 
ATOM     98  F   UNL A   1      35.610  18.409  24.584  1.00  0.00    -0.163 F 
ATOM     99  F   UNL A   1      33.931  17.245  25.328  1.00  0.00    -0.163 F 
ENDBRANCH  89  96
ENDBRANCH  81  83
ENDBRANCH  80  81
ENDBRANCH  79  80
ENDBRANCH  78  79
ENDBRANCH  77  78
ENDBRANCH  76  77
ENDBRANCH   1  76
TORSDOF 21
ENDMDL
