MODEL 1
REMARK VINA RESULT:      -9.9      0.000      0.000
REMARK SMILES CC(C)c1cc2c(cc1Cl)C=C(C(=O)OCCOCCOCCOC(=O)c1ccc(-c3c4nc(c(-c5c(F)cc(S(=O)(=O)[O-])cc5F)c5ccc([nH]5)c(-c5c(F)cc(S(=O)(=O)[O-])cc5F)c5nc(c(-c6c(F)cc(S(=O)(=O)[O-])cc6F)c6ccc3[nH]6)C=C5)C=C4)cc1)[C@@H](C(F)(F)F)O2
REMARK SMILES IDX 20 1 19 2 18 3 17 4 16 5 15 6 13 7 14 8 12 9 4 10 5 11 9 12
REMARK SMILES IDX 6 13 8 14 10 15 7 16 98 17 11 18 93 19 2 20 1 21 3 22 94 23
REMARK SMILES IDX 95 24 96 25 97 26 21 27 22 28 23 29 24 30 25 31 26 32 27 33
REMARK SMILES IDX 28 34 92 35 29 36 91 37 30 38 31 39 32 40 85 41 33 42 90 43
REMARK SMILES IDX 84 44 86 45 34 46 89 47 83 48 82 49 35 51 69 52 48 53 68 54
REMARK SMILES IDX 49 55 52 56 67 57 87 58 50 59 51 60 66 62 88 63 53 64 36 65
REMARK SMILES IDX 37 66 46 67 38 68 39 69 45 70 47 71 40 72 41 73 42 74 43 75
REMARK SMILES IDX 44 76 70 77 71 78 80 79 72 80 73 81 79 82 81 83 74 84 75 85
REMARK SMILES IDX 76 86 77 87 78 88 54 89 55 90 64 91 56 92 57 93 63 94 65 95
REMARK SMILES IDX 58 96 59 97 60 98 61 99 62 100
REMARK H PARENT 86 50 52 61
REMARK Flexibility Score: inf
ROOT
ATOM      1  C   UNL A   1      32.454  28.690  22.775  1.00  0.00     0.188 C 
ENDROOT
BRANCH   1   2
ATOM      2  C   UNL A   1      33.789  28.085  22.288  1.00  0.00     0.188 C 
BRANCH   2   3
ATOM      3  O   UNL A   1      33.623  26.826  21.660  1.00  0.00    -0.376 OA
BRANCH   3   4
ATOM      4  C   UNL A   1      32.350  26.213  21.758  1.00  0.00     0.202 C 
BRANCH   4   5
ATOM      5  C   UNL A   1      32.161  25.126  22.827  1.00  0.00     0.261 C 
BRANCH   5   6
ATOM      6  O   UNL A   1      33.008  25.234  23.982  1.00  0.00    -0.460 OA
BRANCH   6   7
ATOM      7  C   UNL A   1      32.728  24.429  25.028  1.00  0.00     0.338 C 
ATOM      8  O   UNL A   1      31.660  24.342  25.609  1.00  0.00    -0.246 OA
BRANCH   7   9
ATOM      9  C   UNL A   1      33.903  23.567  25.288  1.00  0.00     0.087 C 
ATOM     10  C   UNL A   1      38.556  21.733  25.960  1.00  0.00    -0.023 A 
ATOM     11  C   UNL A   1      37.277  21.171  25.762  1.00  0.00     0.052 A 
ATOM     12  C   UNL A   1      38.623  23.121  26.178  1.00  0.00     0.045 A 
ATOM     13  C   UNL A   1      36.128  21.965  25.686  1.00  0.00     0.128 A 
ATOM     14  C   UNL A   1      37.472  23.917  26.085  1.00  0.00     0.032 A 
ATOM     15  Cl  UNL A   1      40.089  23.946  26.563  1.00  0.00    -0.084 Cl
ATOM     16  C   UNL A   1      36.230  23.347  25.797  1.00  0.00     0.019 A 
ATOM     17  O   UNL A   1      34.956  21.303  25.470  1.00  0.00    -0.475 OA
ATOM     18  C   UNL A   1      35.063  24.181  25.555  1.00  0.00     0.027 C 
ATOM     19  C   UNL A   1      33.732  22.069  25.289  1.00  0.00     0.316 C 
BRANCH  10  20
ATOM     20  C   UNL A   1      39.751  20.793  25.864  1.00  0.00     0.014 C 
ATOM     21  C   UNL A   1      40.637  20.800  27.116  1.00  0.00     0.012 C 
ATOM     22  C   UNL A   1      39.373  19.373  25.444  1.00  0.00     0.012 C 
ENDBRANCH  10  20
BRANCH  19  23
ATOM     23  C   UNL A   1      33.044  21.544  24.019  1.00  0.00     0.430 C 
ATOM     24  F   UNL A   1      33.497  22.192  22.916  1.00  0.00    -0.167 F 
ATOM     25  F   UNL A   1      33.286  20.228  23.812  1.00  0.00    -0.167 F 
ATOM     26  F   UNL A   1      31.704  21.709  24.060  1.00  0.00    -0.167 F 
ENDBRANCH  19  23
ENDBRANCH   7   9
ENDBRANCH   6   7
ENDBRANCH   5   6
ENDBRANCH   4   5
ENDBRANCH   3   4
ENDBRANCH   2   3
ENDBRANCH   1   2
BRANCH   1  27
ATOM     27  O   UNL A   1      32.380  29.300  24.059  1.00  0.00    -0.376 OA
BRANCH  27  28
ATOM     28  C   UNL A   1      32.726  28.536  25.209  1.00  0.00     0.202 C 
BRANCH  28  29
ATOM     29  C   UNL A   1      33.986  28.915  26.000  1.00  0.00     0.261 C 
BRANCH  29  30
ATOM     30  O   UNL A   1      33.736  29.454  27.307  1.00  0.00    -0.460 OA
BRANCH  30  31
ATOM     31  C   UNL A   1      34.451  30.563  27.631  1.00  0.00     0.338 C 
ATOM     32  O   UNL A   1      34.050  31.713  27.661  1.00  0.00    -0.246 OA
BRANCH  31  33
ATOM     33  C   UNL A   1      35.772  30.153  28.156  1.00  0.00     0.060 A 
ATOM     34  C   UNL A   1      36.946  30.416  27.448  1.00  0.00     0.016 A 
ATOM     35  C   UNL A   1      35.820  29.498  29.395  1.00  0.00     0.016 A 
ATOM     36  C   UNL A   1      38.176  30.037  27.998  1.00  0.00     0.010 A 
ATOM     37  C   UNL A   1      37.047  29.103  29.930  1.00  0.00     0.010 A 
ATOM     38  C   UNL A   1      38.235  29.386  29.244  1.00  0.00    -0.014 A 
BRANCH  38  39
ATOM     39  C   UNL A   1      39.545  29.143  29.897  1.00  0.00     0.031 A 
ATOM     40  C   UNL A   1      39.988  29.926  31.096  1.00  0.00     0.074 A 
ATOM     41  C   UNL A   1      40.348  28.199  29.374  1.00  0.00     0.049 A 
ATOM     42  N   UNL A   1      41.068  29.775  31.820  1.00  0.00    -0.248 NA
ATOM     43  C   UNL A   1      39.113  31.021  31.537  1.00  0.00     0.031 C 
ATOM     44  C   UNL A   1      40.036  27.398  28.187  1.00  0.00     0.029 A 
ATOM     45  N   UNL A   1      41.580  27.747  29.768  1.00  0.00    -0.354 N 
ATOM     46  C   UNL A   1      40.993  30.733  32.823  1.00  0.00     0.074 A 
ATOM     47  C   UNL A   1      39.784  31.495  32.580  1.00  0.00     0.031 C 
ATOM     48  C   UNL A   1      41.041  26.538  27.964  1.00  0.00     0.029 A 
ATOM     49  C   UNL A   1      42.073  26.736  28.978  1.00  0.00     0.049 A 
ATOM     50  H   UNL A   1      42.066  28.111  30.544  1.00  0.00     0.167 HD
ATOM     51  C   UNL A   1      41.843  30.938  33.858  1.00  0.00     0.037 A 
ATOM     52  C   UNL A   1      43.221  26.038  29.064  1.00  0.00     0.037 A 
ATOM     53  C   UNL A   1      43.059  30.189  34.075  1.00  0.00     0.049 A 
ATOM     54  C   UNL A   1      44.172  26.320  30.192  1.00  0.00     0.074 A 
ATOM     55  C   UNL A   1      43.963  30.300  35.119  1.00  0.00     0.029 A 
ATOM     56  N   UNL A   1      43.552  29.206  33.230  1.00  0.00    -0.354 N 
ATOM     57  N   UNL A   1      44.051  27.178  31.177  1.00  0.00    -0.248 NA
ATOM     58  C   UNL A   1      45.414  25.536  30.224  1.00  0.00     0.031 C 
ATOM     59  C   UNL A   1      45.024  29.419  34.879  1.00  0.00     0.029 A 
ATOM     60  C   UNL A   1      44.761  28.724  33.710  1.00  0.00     0.049 A 
ATOM     61  H   UNL A   1      43.107  28.895  32.408  1.00  0.00     0.167 HD
ATOM     62  C   UNL A   1      45.194  27.030  31.953  1.00  0.00     0.074 A 
ATOM     63  C   UNL A   1      45.985  25.985  31.334  1.00  0.00     0.031 C 
ATOM     64  C   UNL A   1      45.555  27.700  33.075  1.00  0.00     0.037 A 
BRANCH  51  65
ATOM     65  C   UNL A   1      41.488  32.011  34.852  1.00  0.00     0.058 A 
ATOM     66  C   UNL A   1      42.028  33.304  34.751  1.00  0.00     0.135 A 
ATOM     67  C   UNL A   1      40.555  31.770  35.873  1.00  0.00     0.135 A 
ATOM     68  F   UNL A   1      42.932  33.586  33.799  1.00  0.00    -0.206 F 
ATOM     69  C   UNL A   1      41.674  34.313  35.640  1.00  0.00     0.059 A 
ATOM     70  C   UNL A   1      40.167  32.772  36.760  1.00  0.00     0.059 A 
ATOM     71  F   UNL A   1      40.005  30.555  36.013  1.00  0.00    -0.206 F 
ATOM     72  C   UNL A   1      40.741  34.037  36.642  1.00  0.00     0.060 A 
BRANCH  72  73
ATOM     73  S   UNL A   1      40.288  35.363  37.781  1.00  0.00     0.124 S 
ATOM     74  O   UNL A   1      39.782  36.376  36.860  1.00  0.00    -0.237 OA
ATOM     75  O   UNL A   1      39.289  34.720  38.627  1.00  0.00    -0.237 OA
ATOM     76  O   UNL A   1      41.549  35.690  38.441  1.00  0.00    -0.744 OA
ENDBRANCH  72  73
ENDBRANCH  51  65
BRANCH  52  77
ATOM     77  C   UNL A   1      43.504  24.974  28.068  1.00  0.00     0.058 A 
ATOM     78  C   UNL A   1      44.141  25.278  26.857  1.00  0.00     0.135 A 
ATOM     79  C   UNL A   1      43.192  23.632  28.329  1.00  0.00     0.135 A 
ATOM     80  F   UNL A   1      44.454  26.550  26.563  1.00  0.00    -0.206 F 
ATOM     81  C   UNL A   1      44.460  24.287  25.936  1.00  0.00     0.059 A 
ATOM     82  C   UNL A   1      43.521  22.620  27.434  1.00  0.00     0.059 A 
ATOM     83  F   UNL A   1      42.596  23.292  29.482  1.00  0.00    -0.206 F 
ATOM     84  C   UNL A   1      44.154  22.959  26.238  1.00  0.00     0.060 A 
BRANCH  84  85
ATOM     85  S   UNL A   1      44.642  21.674  25.067  1.00  0.00     0.124 S 
ATOM     86  O   UNL A   1      44.521  22.375  23.794  1.00  0.00    -0.237 OA
ATOM     87  O   UNL A   1      46.002  21.368  25.501  1.00  0.00    -0.237 OA
ATOM     88  O   UNL A   1      43.664  20.616  25.301  1.00  0.00    -0.744 OA
ENDBRANCH  84  85
ENDBRANCH  52  77
BRANCH  64  89
ATOM     89  C   UNL A   1      46.871  27.330  33.704  1.00  0.00     0.058 A 
ATOM     90  C   UNL A   1      46.962  26.310  34.665  1.00  0.00     0.135 A 
ATOM     91  C   UNL A   1      48.059  27.975  33.320  1.00  0.00     0.135 A 
ATOM     92  F   UNL A   1      45.857  25.667  35.073  1.00  0.00    -0.206 F 
ATOM     93  C   UNL A   1      48.179  25.958  35.240  1.00  0.00     0.059 A 
ATOM     94  C   UNL A   1      49.291  27.622  33.863  1.00  0.00     0.059 A 
ATOM     95  F   UNL A   1      48.030  28.953  32.401  1.00  0.00    -0.206 F 
ATOM     96  C   UNL A   1      49.339  26.620  34.832  1.00  0.00     0.060 A 
BRANCH  96  97
ATOM     97  S   UNL A   1      50.914  26.135  35.571  1.00  0.00     0.124 S 
ATOM     98  O   UNL A   1      50.780  24.683  35.625  1.00  0.00    -0.237 OA
ATOM     99  O   UNL A   1      51.882  26.646  34.605  1.00  0.00    -0.237 OA
ATOM    100  O   UNL A   1      50.907  26.815  36.864  1.00  0.00    -0.744 OA
ENDBRANCH  96  97
ENDBRANCH  64  89
ENDBRANCH  38  39
ENDBRANCH  31  33
ENDBRANCH  30  31
ENDBRANCH  29  30
ENDBRANCH  28  29
ENDBRANCH  27  28
ENDBRANCH   1  27
TORSDOF 22
ENDMDL
MODEL 2
REMARK VINA RESULT:      -9.8      4.884      6.717
REMARK SMILES CC(C)c1cc2c(cc1Cl)C=C(C(=O)OCCOCCOCCOC(=O)c1ccc(-c3c4nc(c(-c5c(F)cc(S(=O)(=O)[O-])cc5F)c5ccc([nH]5)c(-c5c(F)cc(S(=O)(=O)[O-])cc5F)c5nc(c(-c6c(F)cc(S(=O)(=O)[O-])cc6F)c6ccc3[nH]6)C=C5)C=C4)cc1)[C@@H](C(F)(F)F)O2
REMARK SMILES IDX 20 1 19 2 18 3 17 4 16 5 15 6 13 7 14 8 12 9 4 10 5 11 9 12
REMARK SMILES IDX 6 13 8 14 10 15 7 16 98 17 11 18 93 19 2 20 1 21 3 22 94 23
REMARK SMILES IDX 95 24 96 25 97 26 21 27 22 28 23 29 24 30 25 31 26 32 27 33
REMARK SMILES IDX 28 34 92 35 29 36 91 37 30 38 31 39 32 40 85 41 33 42 90 43
REMARK SMILES IDX 84 44 86 45 34 46 89 47 83 48 82 49 35 51 69 52 48 53 68 54
REMARK SMILES IDX 49 55 52 56 67 57 87 58 50 59 51 60 66 62 88 63 53 64 36 65
REMARK SMILES IDX 37 66 46 67 38 68 39 69 45 70 47 71 40 72 41 73 42 74 43 75
REMARK SMILES IDX 44 76 70 77 71 78 80 79 72 80 73 81 79 82 81 83 74 84 75 85
REMARK SMILES IDX 76 86 77 87 78 88 54 89 55 90 64 91 56 92 57 93 63 94 65 95
REMARK SMILES IDX 58 96 59 97 60 98 61 99 62 100
REMARK H PARENT 86 50 52 61
REMARK Flexibility Score: inf
ROOT
ATOM      1  C   UNL A   1      34.546  32.825  27.978  1.00  0.00     0.188 C 
ENDROOT
BRANCH   1   2
ATOM      2  C   UNL A   1      34.068  31.359  28.071  1.00  0.00     0.188 C 
BRANCH   2   3
ATOM      3  O   UNL A   1      33.643  30.842  26.823  1.00  0.00    -0.376 OA
BRANCH   3   4
ATOM      4  C   UNL A   1      32.689  29.796  26.842  1.00  0.00     0.202 C 
BRANCH   4   5
ATOM      5  C   UNL A   1      31.750  29.664  25.634  1.00  0.00     0.261 C 
BRANCH   5   6
ATOM      6  O   UNL A   1      32.004  28.548  24.766  1.00  0.00    -0.460 OA
BRANCH   6   7
ATOM      7  C   UNL A   1      30.931  27.878  24.297  1.00  0.00     0.338 C 
ATOM      8  O   UNL A   1      29.901  28.368  23.867  1.00  0.00    -0.246 OA
BRANCH   7   9
ATOM      9  C   UNL A   1      31.251  26.433  24.274  1.00  0.00     0.087 C 
ATOM     10  C   UNL A   1      32.946  21.793  25.308  1.00  0.00    -0.023 A 
ATOM     11  C   UNL A   1      32.408  22.433  24.171  1.00  0.00     0.052 A 
ATOM     12  C   UNL A   1      32.903  22.498  26.524  1.00  0.00     0.045 A 
ATOM     13  C   UNL A   1      31.941  23.749  24.220  1.00  0.00     0.128 A 
ATOM     14  C   UNL A   1      32.448  23.824  26.567  1.00  0.00     0.032 A 
ATOM     15  Cl  UNL A   1      33.399  21.814  28.029  1.00  0.00    -0.084 Cl
ATOM     16  C   UNL A   1      32.006  24.467  25.409  1.00  0.00     0.019 A 
ATOM     17  O   UNL A   1      31.466  24.260  23.048  1.00  0.00    -0.475 OA
ATOM     18  C   UNL A   1      31.672  25.882  25.420  1.00  0.00     0.027 C 
ATOM     19  C   UNL A   1      31.046  25.652  22.999  1.00  0.00     0.316 C 
BRANCH  10  20
ATOM     20  C   UNL A   1      33.574  20.420  25.102  1.00  0.00     0.014 C 
ATOM     21  C   UNL A   1      32.922  19.612  23.974  1.00  0.00     0.012 C 
ATOM     22  C   UNL A   1      35.095  20.465  24.963  1.00  0.00     0.012 C 
ENDBRANCH  10  20
BRANCH  19  23
ATOM     23  C   UNL A   1      31.730  26.298  21.785  1.00  0.00     0.430 C 
ATOM     24  F   UNL A   1      32.904  26.880  22.139  1.00  0.00    -0.167 F 
ATOM     25  F   UNL A   1      32.030  25.392  20.824  1.00  0.00    -0.167 F 
ATOM     26  F   UNL A   1      30.964  27.254  21.216  1.00  0.00    -0.167 F 
ENDBRANCH  19  23
ENDBRANCH   7   9
ENDBRANCH   6   7
ENDBRANCH   5   6
ENDBRANCH   4   5
ENDBRANCH   3   4
ENDBRANCH   2   3
ENDBRANCH   1   2
BRANCH   1  27
ATOM     27  O   UNL A   1      35.727  33.230  28.663  1.00  0.00    -0.376 OA
BRANCH  27  28
ATOM     28  C   UNL A   1      35.630  33.653  30.019  1.00  0.00     0.202 C 
BRANCH  28  29
ATOM     29  C   UNL A   1      35.470  32.592  31.117  1.00  0.00     0.261 C 
BRANCH  29  30
ATOM     30  O   UNL A   1      36.228  31.391  30.908  1.00  0.00    -0.460 OA
BRANCH  30  31
ATOM     31  C   UNL A   1      37.203  31.145  31.821  1.00  0.00     0.338 C 
ATOM     32  O   UNL A   1      37.093  31.163  33.035  1.00  0.00    -0.246 OA
BRANCH  31  33
ATOM     33  C   UNL A   1      38.404  30.636  31.125  1.00  0.00     0.060 A 
ATOM     34  C   UNL A   1      38.526  30.718  29.738  1.00  0.00     0.016 A 
ATOM     35  C   UNL A   1      39.431  30.073  31.897  1.00  0.00     0.016 A 
ATOM     36  C   UNL A   1      39.694  30.252  29.124  1.00  0.00     0.010 A 
ATOM     37  C   UNL A   1      40.585  29.589  31.280  1.00  0.00     0.010 A 
ATOM     38  C   UNL A   1      40.734  29.692  29.891  1.00  0.00    -0.014 A 
BRANCH  38  39
ATOM     39  C   UNL A   1      42.033  29.360  29.256  1.00  0.00     0.031 A 
ATOM     40  C   UNL A   1      43.132  30.371  29.127  1.00  0.00     0.074 A 
ATOM     41  C   UNL A   1      42.203  28.114  28.777  1.00  0.00     0.049 A 
ATOM     42  N   UNL A   1      44.346  30.207  28.669  1.00  0.00    -0.248 NA
ATOM     43  C   UNL A   1      42.830  31.741  29.563  1.00  0.00     0.031 C 
ATOM     44  C   UNL A   1      41.190  27.057  28.816  1.00  0.00     0.029 A 
ATOM     45  N   UNL A   1      43.282  27.522  28.173  1.00  0.00    -0.354 N 
ATOM     46  C   UNL A   1      44.969  31.443  28.786  1.00  0.00     0.074 A 
ATOM     47  C   UNL A   1      43.978  32.360  29.312  1.00  0.00     0.031 C 
ATOM     48  C   UNL A   1      41.704  25.939  28.279  1.00  0.00     0.029 A 
ATOM     49  C   UNL A   1      43.073  26.205  27.845  1.00  0.00     0.049 A 
ATOM     50  H   UNL A   1      44.126  27.996  27.991  1.00  0.00     0.167 HD
ATOM     51  C   UNL A   1      46.254  31.770  28.502  1.00  0.00     0.037 A 
ATOM     52  C   UNL A   1      43.893  25.305  27.268  1.00  0.00     0.037 A 
ATOM     53  C   UNL A   1      47.226  30.854  27.953  1.00  0.00     0.049 A 
ATOM     54  C   UNL A   1      45.296  25.708  26.916  1.00  0.00     0.074 A 
ATOM     55  C   UNL A   1      48.562  31.086  27.669  1.00  0.00     0.029 A 
ATOM     56  N   UNL A   1      46.967  29.541  27.588  1.00  0.00    -0.354 N 
ATOM     57  N   UNL A   1      45.895  26.860  27.103  1.00  0.00    -0.248 NA
ATOM     58  C   UNL A   1      46.138  24.687  26.277  1.00  0.00     0.031 C 
ATOM     59  C   UNL A   1      49.097  29.929  27.089  1.00  0.00     0.029 A 
ATOM     60  C   UNL A   1      48.108  28.960  27.054  1.00  0.00     0.049 A 
ATOM     61  H   UNL A   1      46.100  29.087  27.694  1.00  0.00     0.167 HD
ATOM     62  C   UNL A   1      47.187  26.700  26.616  1.00  0.00     0.074 A 
ATOM     63  C   UNL A   1      47.288  25.333  26.145  1.00  0.00     0.031 C 
ATOM     64  C   UNL A   1      48.195  27.605  26.564  1.00  0.00     0.037 A 
BRANCH  51  65
ATOM     65  C   UNL A   1      46.695  33.180  28.788  1.00  0.00     0.058 A 
ATOM     66  C   UNL A   1      46.513  34.206  27.846  1.00  0.00     0.135 A 
ATOM     67  C   UNL A   1      47.244  33.526  30.034  1.00  0.00     0.135 A 
ATOM     68  F   UNL A   1      46.001  33.928  26.636  1.00  0.00    -0.206 F 
ATOM     69  C   UNL A   1      46.880  35.519  28.118  1.00  0.00     0.059 A 
ATOM     70  C   UNL A   1      47.597  34.839  30.337  1.00  0.00     0.059 A 
ATOM     71  F   UNL A   1      47.436  32.588  30.972  1.00  0.00    -0.206 F 
ATOM     72  C   UNL A   1      47.421  35.827  29.369  1.00  0.00     0.060 A 
BRANCH  72  73
ATOM     73  S   UNL A   1      47.884  37.539  29.704  1.00  0.00     0.124 S 
ATOM     74  O   UNL A   1      47.265  37.757  31.009  1.00  0.00    -0.237 OA
ATOM     75  O   UNL A   1      49.341  37.475  29.697  1.00  0.00    -0.237 OA
ATOM     76  O   UNL A   1      47.285  38.278  28.597  1.00  0.00    -0.744 OA
ENDBRANCH  72  73
ENDBRANCH  51  65
BRANCH  52  77
ATOM     77  C   UNL A   1      43.408  23.922  27.034  1.00  0.00     0.058 A 
ATOM     78  C   UNL A   1      43.369  22.990  28.080  1.00  0.00     0.135 A 
ATOM     79  C   UNL A   1      42.926  23.523  25.778  1.00  0.00     0.135 A 
ATOM     80  F   UNL A   1      43.823  23.327  29.297  1.00  0.00    -0.206 F 
ATOM     81  C   UNL A   1      42.869  21.707  27.890  1.00  0.00     0.059 A 
ATOM     82  C   UNL A   1      42.401  22.252  25.569  1.00  0.00     0.059 A 
ATOM     83  F   UNL A   1      42.930  24.386  24.751  1.00  0.00    -0.206 F 
ATOM     84  C   UNL A   1      42.379  21.350  26.633  1.00  0.00     0.060 A 
BRANCH  84  85
ATOM     85  S   UNL A   1      41.664  19.706  26.421  1.00  0.00     0.124 S 
ATOM     86  O   UNL A   1      41.995  19.075  27.694  1.00  0.00    -0.237 OA
ATOM     87  O   UNL A   1      40.253  20.013  26.208  1.00  0.00    -0.237 OA
ATOM     88  O   UNL A   1      42.367  19.181  25.254  1.00  0.00    -0.744 OA
ENDBRANCH  84  85
ENDBRANCH  52  77
BRANCH  64  89
ATOM     89  C   UNL A   1      49.499  27.148  25.966  1.00  0.00     0.058 A 
ATOM     90  C   UNL A   1      49.758  27.277  24.592  1.00  0.00     0.135 A 
ATOM     91  C   UNL A   1      50.513  26.610  26.776  1.00  0.00     0.135 A 
ATOM     92  F   UNL A   1      48.821  27.778  23.772  1.00  0.00    -0.206 F 
ATOM     93  C   UNL A   1      50.967  26.867  24.038  1.00  0.00     0.059 A 
ATOM     94  C   UNL A   1      51.739  26.217  26.247  1.00  0.00     0.059 A 
ATOM     95  F   UNL A   1      50.321  26.471  28.097  1.00  0.00    -0.206 F 
ATOM     96  C   UNL A   1      51.952  26.339  24.874  1.00  0.00     0.060 A 
BRANCH  96  97
ATOM     97  S   UNL A   1      53.524  25.832  24.143  1.00  0.00     0.124 S 
ATOM     98  O   UNL A   1      54.442  26.817  24.707  1.00  0.00    -0.237 OA
ATOM     99  O   UNL A   1      53.674  24.468  24.640  1.00  0.00    -0.237 OA
ATOM    100  O   UNL A   1      53.285  25.948  22.707  1.00  0.00    -0.744 OA
ENDBRANCH  96  97
ENDBRANCH  64  89
ENDBRANCH  38  39
ENDBRANCH  31  33
ENDBRANCH  30  31
ENDBRANCH  29  30
ENDBRANCH  28  29
ENDBRANCH  27  28
ENDBRANCH   1  27
TORSDOF 22
ENDMDL
MODEL 3
REMARK VINA RESULT:      -9.1      5.015      6.728
REMARK SMILES CC(C)c1cc2c(cc1Cl)C=C(C(=O)OCCOCCOCCOC(=O)c1ccc(-c3c4nc(c(-c5c(F)cc(S(=O)(=O)[O-])cc5F)c5ccc([nH]5)c(-c5c(F)cc(S(=O)(=O)[O-])cc5F)c5nc(c(-c6c(F)cc(S(=O)(=O)[O-])cc6F)c6ccc3[nH]6)C=C5)C=C4)cc1)[C@@H](C(F)(F)F)O2
REMARK SMILES IDX 20 1 19 2 18 3 17 4 16 5 15 6 13 7 14 8 12 9 4 10 5 11 9 12
REMARK SMILES IDX 6 13 8 14 10 15 7 16 98 17 11 18 93 19 2 20 1 21 3 22 94 23
REMARK SMILES IDX 95 24 96 25 97 26 21 27 22 28 23 29 24 30 25 31 26 32 27 33
REMARK SMILES IDX 28 34 92 35 29 36 91 37 30 38 31 39 32 40 85 41 33 42 90 43
REMARK SMILES IDX 84 44 86 45 34 46 89 47 83 48 82 49 35 51 69 52 48 53 68 54
REMARK SMILES IDX 49 55 52 56 67 57 87 58 50 59 51 60 66 62 88 63 53 64 36 65
REMARK SMILES IDX 37 66 46 67 38 68 39 69 45 70 47 71 40 72 41 73 42 74 43 75
REMARK SMILES IDX 44 76 70 77 71 78 80 79 72 80 73 81 79 82 81 83 74 84 75 85
REMARK SMILES IDX 76 86 77 87 78 88 54 89 55 90 64 91 56 92 57 93 63 94 65 95
REMARK SMILES IDX 58 96 59 97 60 98 61 99 62 100
REMARK H PARENT 86 50 52 61
REMARK Flexibility Score: inf
ROOT
ATOM      1  C   UNL A   1      34.358  31.536  28.149  1.00  0.00     0.188 C 
ENDROOT
BRANCH   1   2
ATOM      2  C   UNL A   1      34.944  30.230  27.568  1.00  0.00     0.188 C 
BRANCH   2   3
ATOM      3  O   UNL A   1      34.142  29.681  26.538  1.00  0.00    -0.376 OA
BRANCH   3   4
ATOM      4  C   UNL A   1      32.804  29.345  26.863  1.00  0.00     0.202 C 
BRANCH   4   5
ATOM      5  C   UNL A   1      32.135  28.221  26.057  1.00  0.00     0.261 C 
BRANCH   5   6
ATOM      6  O   UNL A   1      32.830  26.964  26.045  1.00  0.00    -0.460 OA
BRANCH   6   7
ATOM      7  C   UNL A   1      33.257  26.510  24.848  1.00  0.00     0.338 C 
ATOM      8  O   UNL A   1      33.808  27.164  23.980  1.00  0.00    -0.246 OA
BRANCH   7   9
ATOM      9  C   UNL A   1      33.054  25.044  24.802  1.00  0.00     0.087 C 
ATOM     10  C   UNL A   1      33.644  20.045  24.442  1.00  0.00    -0.023 A 
ATOM     11  C   UNL A   1      32.544  20.929  24.412  1.00  0.00     0.052 A 
ATOM     12  C   UNL A   1      34.894  20.584  24.794  1.00  0.00     0.045 A 
ATOM     13  C   UNL A   1      32.698  22.302  24.626  1.00  0.00     0.128 A 
ATOM     14  C   UNL A   1      35.049  21.965  24.992  1.00  0.00     0.032 A 
ATOM     15  Cl  UNL A   1      36.312  19.623  25.003  1.00  0.00    -0.084 Cl
ATOM     16  C   UNL A   1      33.960  22.832  24.867  1.00  0.00     0.019 A 
ATOM     17  O   UNL A   1      31.561  23.051  24.549  1.00  0.00    -0.475 OA
ATOM     18  C   UNL A   1      34.142  24.273  24.926  1.00  0.00     0.027 C 
ATOM     19  C   UNL A   1      31.654  24.497  24.670  1.00  0.00     0.316 C 
BRANCH  10  20
ATOM     20  C   UNL A   1      33.387  18.599  24.036  1.00  0.00     0.014 C 
ATOM     21  C   UNL A   1      32.883  17.721  25.188  1.00  0.00     0.012 C 
ATOM     22  C   UNL A   1      32.506  18.467  22.794  1.00  0.00     0.012 C 
ENDBRANCH  10  20
BRANCH  19  23
ATOM     23  C   UNL A   1      30.881  25.110  23.492  1.00  0.00     0.430 C 
ATOM     24  F   UNL A   1      30.517  26.390  23.760  1.00  0.00    -0.167 F 
ATOM     25  F   UNL A   1      31.625  25.157  22.361  1.00  0.00    -0.167 F 
ATOM     26  F   UNL A   1      29.754  24.422  23.208  1.00  0.00    -0.167 F 
ENDBRANCH  19  23
ENDBRANCH   7   9
ENDBRANCH   6   7
ENDBRANCH   5   6
ENDBRANCH   4   5
ENDBRANCH   3   4
ENDBRANCH   2   3
ENDBRANCH   1   2
BRANCH   1  27
ATOM     27  O   UNL A   1      35.200  32.433  28.865  1.00  0.00    -0.376 OA
BRANCH  27  28
ATOM     28  C   UNL A   1      36.464  31.973  29.330  1.00  0.00     0.202 C 
BRANCH  28  29
ATOM     29  C   UNL A   1      36.526  31.173  30.639  1.00  0.00     0.261 C 
BRANCH  29  30
ATOM     30  O   UNL A   1      36.528  29.746  30.472  1.00  0.00    -0.460 OA
BRANCH  30  31
ATOM     31  C   UNL A   1      37.368  29.061  31.291  1.00  0.00     0.338 C 
ATOM     32  O   UNL A   1      37.099  28.569  32.374  1.00  0.00    -0.246 OA
BRANCH  31  33
ATOM     33  C   UNL A   1      38.639  28.807  30.581  1.00  0.00     0.060 A 
ATOM     34  C   UNL A   1      38.708  28.829  29.188  1.00  0.00     0.016 A 
ATOM     35  C   UNL A   1      39.788  28.551  31.345  1.00  0.00     0.016 A 
ATOM     36  C   UNL A   1      39.939  28.613  28.558  1.00  0.00     0.010 A 
ATOM     37  C   UNL A   1      41.010  28.315  30.714  1.00  0.00     0.010 A 
ATOM     38  C   UNL A   1      41.098  28.363  29.317  1.00  0.00    -0.014 A 
BRANCH  38  39
ATOM     39  C   UNL A   1      42.425  28.307  28.654  1.00  0.00     0.031 A 
ATOM     40  C   UNL A   1      43.337  29.496  28.609  1.00  0.00     0.074 A 
ATOM     41  C   UNL A   1      42.794  27.151  28.073  1.00  0.00     0.049 A 
ATOM     42  N   UNL A   1      44.555  29.576  28.137  1.00  0.00    -0.248 NA
ATOM     43  C   UNL A   1      42.817  30.755  29.159  1.00  0.00     0.031 C 
ATOM     44  C   UNL A   1      41.972  25.939  28.024  1.00  0.00     0.029 A 
ATOM     45  N   UNL A   1      43.947  26.801  27.420  1.00  0.00    -0.354 N 
ATOM     46  C   UNL A   1      44.964  30.885  28.356  1.00  0.00     0.074 A 
ATOM     47  C   UNL A   1      43.841  31.576  28.959  1.00  0.00     0.031 C 
ATOM     48  C   UNL A   1      42.658  24.972  27.395  1.00  0.00     0.029 A 
ATOM     49  C   UNL A   1      43.956  25.499  26.983  1.00  0.00     0.049 A 
ATOM     50  H   UNL A   1      44.697  27.423  27.277  1.00  0.00     0.167 HD
ATOM     51  C   UNL A   1      46.171  31.446  28.098  1.00  0.00     0.037 A 
ATOM     52  C   UNL A   1      44.906  24.800  26.332  1.00  0.00     0.037 A 
ATOM     53  C   UNL A   1      47.274  30.755  27.474  1.00  0.00     0.049 A 
ATOM     54  C   UNL A   1      46.216  25.460  26.012  1.00  0.00     0.074 A 
ATOM     55  C   UNL A   1      48.548  31.230  27.208  1.00  0.00     0.029 A 
ATOM     56  N   UNL A   1      47.233  29.451  27.000  1.00  0.00    -0.354 N 
ATOM     57  N   UNL A   1      46.617  26.677  26.294  1.00  0.00    -0.248 NA
ATOM     58  C   UNL A   1      47.207  24.651  25.289  1.00  0.00     0.031 C 
ATOM     59  C   UNL A   1      49.260  30.231  26.533  1.00  0.00     0.029 A 
ATOM     60  C   UNL A   1      48.447  29.116  26.418  1.00  0.00     0.049 A 
ATOM     61  H   UNL A   1      46.455  28.851  27.069  1.00  0.00     0.167 HD
ATOM     62  C   UNL A   1      47.910  26.777  25.794  1.00  0.00     0.074 A 
ATOM     63  C   UNL A   1      48.231  25.490  25.210  1.00  0.00     0.031 C 
ATOM     64  C   UNL A   1      48.752  27.839  25.816  1.00  0.00     0.037 A 
BRANCH  51  65
ATOM     65  C   UNL A   1      46.375  32.881  28.501  1.00  0.00     0.058 A 
ATOM     66  C   UNL A   1      46.094  33.933  27.613  1.00  0.00     0.135 A 
ATOM     67  C   UNL A   1      46.790  33.216  29.800  1.00  0.00     0.135 A 
ATOM     68  F   UNL A   1      45.703  33.671  26.357  1.00  0.00    -0.206 F 
ATOM     69  C   UNL A   1      46.240  35.264  27.991  1.00  0.00     0.059 A 
ATOM     70  C   UNL A   1      46.920  34.541  30.208  1.00  0.00     0.059 A 
ATOM     71  F   UNL A   1      47.068  32.251  30.690  1.00  0.00    -0.206 F 
ATOM     72  C   UNL A   1      46.653  35.558  29.292  1.00  0.00     0.060 A 
BRANCH  72  73
ATOM     73  S   UNL A   1      46.829  37.292  29.764  1.00  0.00     0.124 S 
ATOM     74  O   UNL A   1      45.590  37.862  29.244  1.00  0.00    -0.237 OA
ATOM     75  O   UNL A   1      46.927  37.211  31.218  1.00  0.00    -0.237 OA
ATOM     76  O   UNL A   1      48.048  37.711  29.078  1.00  0.00    -0.744 OA
ENDBRANCH  72  73
ENDBRANCH  51  65
BRANCH  52  77
ATOM     77  C   UNL A   1      44.655  23.379  25.983  1.00  0.00     0.058 A 
ATOM     78  C   UNL A   1      44.092  23.033  24.747  1.00  0.00     0.135 A 
ATOM     79  C   UNL A   1      45.022  22.341  26.854  1.00  0.00     0.135 A 
ATOM     80  F   UNL A   1      43.722  23.993  23.886  1.00  0.00    -0.206 F 
ATOM     81  C   UNL A   1      43.899  21.705  24.384  1.00  0.00     0.059 A 
ATOM     82  C   UNL A   1      44.858  21.005  26.503  1.00  0.00     0.059 A 
ATOM     83  F   UNL A   1      45.578  22.623  28.041  1.00  0.00    -0.206 F 
ATOM     84  C   UNL A   1      44.294  20.698  25.266  1.00  0.00     0.060 A 
BRANCH  84  85
ATOM     85  S   UNL A   1      44.107  18.978  24.748  1.00  0.00     0.124 S 
ATOM     86  O   UNL A   1      45.266  18.354  25.376  1.00  0.00    -0.237 OA
ATOM     87  O   UNL A   1      42.808  18.630  25.316  1.00  0.00    -0.237 OA
ATOM     88  O   UNL A   1      44.144  19.059  23.291  1.00  0.00    -0.744 OA
ENDBRANCH  84  85
ENDBRANCH  52  77
BRANCH  64  89
ATOM     89  C   UNL A   1      50.104  27.659  25.180  1.00  0.00     0.058 A 
ATOM     90  C   UNL A   1      51.254  27.439  25.956  1.00  0.00     0.135 A 
ATOM     91  C   UNL A   1      50.249  27.672  23.783  1.00  0.00     0.135 A 
ATOM     92  F   UNL A   1      51.172  27.426  27.296  1.00  0.00    -0.206 F 
ATOM     93  C   UNL A   1      52.503  27.261  25.371  1.00  0.00     0.059 A 
ATOM     94  C   UNL A   1      51.485  27.470  23.176  1.00  0.00     0.059 A 
ATOM     95  F   UNL A   1      49.182  27.871  22.994  1.00  0.00    -0.206 F 
ATOM     96  C   UNL A   1      52.609  27.277  23.978  1.00  0.00     0.060 A 
BRANCH  96  97
ATOM     97  S   UNL A   1      54.234  27.021  23.234  1.00  0.00     0.124 S 
ATOM     98  O   UNL A   1      53.886  26.332  21.995  1.00  0.00    -0.237 OA
ATOM     99  O   UNL A   1      54.725  28.387  23.081  1.00  0.00    -0.237 OA
ATOM    100  O   UNL A   1      54.940  26.214  24.225  1.00  0.00    -0.744 OA
ENDBRANCH  96  97
ENDBRANCH  64  89
ENDBRANCH  38  39
ENDBRANCH  31  33
ENDBRANCH  30  31
ENDBRANCH  29  30
ENDBRANCH  28  29
ENDBRANCH  27  28
ENDBRANCH   1  27
TORSDOF 22
ENDMDL
