MODEL 1
REMARK VINA RESULT:      -8.0      0.000      0.000
REMARK SMILES COc1ccc(/C=C(/Sc2nc(C)n[nH]2)C(=O)OCCOCCOCCOC(=O)c2ccc(-c3c4nc(c(-c5c(F)cc(S(=O)(=O)[O-])cc5F)c5ccc([nH]5)c(-c5c(F)cc(S(=O)(=O)[O-])cc5F)c5nc(c(-c6c(F)cc(S(=O)(=O)[O-])cc6F)c6ccc3[nH]6)C=C5)C=C4)cc2)cc1OC
REMARK SMILES IDX 23 1 22 2 21 3 20 4 19 5 18 6 16 7 17 8 8 9 7 10 6 11 3 12
REMARK SMILES IDX 4 13 97 14 5 15 96 16 2 17 1 18 98 19 99 20 9 21 10 22 11 23
REMARK SMILES IDX 15 24 12 25 14 26 13 28 24 29 25 30 26 31 27 32 28 33 29 34
REMARK SMILES IDX 30 35 31 36 95 37 32 38 94 39 33 40 34 41 35 42 88 43 36 44
REMARK SMILES IDX 93 45 87 46 89 47 37 48 92 49 86 50 85 51 38 53 72 54 51 55
REMARK SMILES IDX 71 56 52 57 55 58 70 59 90 60 53 61 54 62 69 64 91 65 56 66
REMARK SMILES IDX 39 67 40 68 49 69 41 70 42 71 48 72 50 73 43 74 44 75 45 76
REMARK SMILES IDX 46 77 47 78 73 79 74 80 83 81 75 82 76 83 82 84 84 85 77 86
REMARK SMILES IDX 78 87 79 88 80 89 81 90 57 91 58 92 67 93 59 94 60 95 66 96
REMARK SMILES IDX 68 97 61 98 62 99 63 100 64 101 65 102
REMARK H PARENT 15 27 89 52 55 63
REMARK Flexibility Score: inf
ROOT
ATOM      1  C   UNL A   1      41.432  26.056  28.222  1.00  0.00     0.188 C 
ENDROOT
BRANCH   1   2
ATOM      2  C   UNL A   1      40.620  27.322  27.876  1.00  0.00     0.188 C 
BRANCH   2   3
ATOM      3  O   UNL A   1      39.254  27.306  28.260  1.00  0.00    -0.376 OA
BRANCH   3   4
ATOM      4  C   UNL A   1      39.015  27.242  29.664  1.00  0.00     0.202 C 
BRANCH   4   5
ATOM      5  C   UNL A   1      38.218  28.422  30.233  1.00  0.00     0.261 C 
BRANCH   5   6
ATOM      6  O   UNL A   1      37.291  28.949  29.272  1.00  0.00    -0.459 OA
BRANCH   6   7
ATOM      7  C   UNL A   1      36.312  29.792  29.675  1.00  0.00     0.345 C 
ATOM      8  O   UNL A   1      35.750  29.776  30.763  1.00  0.00    -0.246 OA
BRANCH   7   9
ATOM      9  C   UNL A   1      36.109  30.808  28.597  1.00  0.00     0.101 C 
ATOM     10  C   UNL A   1      35.205  30.643  27.604  1.00  0.00     0.031 C 
BRANCH  10  11
ATOM     11  C   UNL A   1      34.254  29.552  27.250  1.00  0.00    -0.020 A 
ATOM     12  C   UNL A   1      32.581  27.440  26.330  1.00  0.00     0.160 A 
ATOM     13  C   UNL A   1      32.046  28.540  27.003  1.00  0.00     0.051 A 
ATOM     14  C   UNL A   1      33.958  27.384  26.102  1.00  0.00     0.161 A 
ATOM     15  C   UNL A   1      32.875  29.567  27.471  1.00  0.00     0.012 A 
ATOM     16  C   UNL A   1      34.769  28.442  26.554  1.00  0.00     0.058 A 
BRANCH  12  17
ATOM     17  O   UNL A   1      31.748  26.486  25.812  1.00  0.00    -0.493 OA
ATOM     18  C   UNL A   1      30.407  26.586  26.290  1.00  0.00     0.278 C 
ENDBRANCH  12  17
BRANCH  14  19
ATOM     19  O   UNL A   1      34.663  26.404  25.455  1.00  0.00    -0.493 OA
ATOM     20  C   UNL A   1      34.220  25.060  25.604  1.00  0.00     0.278 C 
ENDBRANCH  14  19
ENDBRANCH  10  11
BRANCH   9  21
ATOM     21  S   UNL A   1      36.992  32.291  28.929  1.00  0.00    -0.043 SA
BRANCH  21  22
ATOM     22  C   UNL A   1      35.774  33.494  28.972  1.00  0.00     0.188 A 
ATOM     23  N   UNL A   1      34.993  33.824  29.969  1.00  0.00    -0.206 NA
ATOM     24  N   UNL A   1      35.414  34.175  27.850  1.00  0.00    -0.254 N 
ATOM     25  C   UNL A   1      34.134  34.724  29.391  1.00  0.00     0.148 A 
ATOM     26  N   UNL A   1      34.357  34.973  28.095  1.00  0.00    -0.158 NA
ATOM     27  H   UNL A   1      35.865  34.096  26.979  1.00  0.00     0.192 HD
ATOM     28  C   UNL A   1      33.024  35.332  30.149  1.00  0.00     0.092 C 
ENDBRANCH  21  22
ENDBRANCH   9  21
ENDBRANCH   7   9
ENDBRANCH   6   7
ENDBRANCH   5   6
ENDBRANCH   4   5
ENDBRANCH   3   4
ENDBRANCH   2   3
ENDBRANCH   1   2
BRANCH   1  29
ATOM     29  O   UNL A   1      41.080  24.770  27.726  1.00  0.00    -0.376 OA
BRANCH  29  30
ATOM     30  C   UNL A   1      41.548  23.582  28.352  1.00  0.00     0.202 C 
BRANCH  30  31
ATOM     31  C   UNL A   1      41.360  22.245  27.644  1.00  0.00     0.261 C 
BRANCH  31  32
ATOM     32  O   UNL A   1      41.525  22.352  26.239  1.00  0.00    -0.460 OA
BRANCH  32  33
ATOM     33  C   UNL A   1      42.645  21.781  25.763  1.00  0.00     0.338 C 
ATOM     34  O   UNL A   1      42.806  20.595  25.478  1.00  0.00    -0.246 OA
BRANCH  33  35
ATOM     35  C   UNL A   1      43.702  22.790  25.663  1.00  0.00     0.060 A 
ATOM     36  C   UNL A   1      44.929  22.445  26.228  1.00  0.00     0.016 A 
ATOM     37  C   UNL A   1      43.383  24.113  25.315  1.00  0.00     0.016 A 
ATOM     38  C   UNL A   1      45.690  23.453  26.764  1.00  0.00     0.010 A 
ATOM     39  C   UNL A   1      44.145  25.123  25.848  1.00  0.00     0.010 A 
ATOM     40  C   UNL A   1      45.197  24.758  26.685  1.00  0.00    -0.014 A 
BRANCH  40  41
ATOM     41  C   UNL A   1      45.686  25.687  27.678  1.00  0.00     0.031 A 
ATOM     42  C   UNL A   1      45.081  25.562  29.012  1.00  0.00     0.074 A 
ATOM     43  C   UNL A   1      46.665  26.562  27.372  1.00  0.00     0.049 A 
ATOM     44  N   UNL A   1      44.365  26.425  29.650  1.00  0.00    -0.248 NA
ATOM     45  C   UNL A   1      45.205  24.255  29.670  1.00  0.00     0.031 C 
ATOM     46  C   UNL A   1      47.517  26.573  26.175  1.00  0.00     0.029 A 
ATOM     47  N   UNL A   1      47.184  27.561  28.132  1.00  0.00    -0.354 N 
ATOM     48  C   UNL A   1      44.132  25.850  30.891  1.00  0.00     0.074 A 
ATOM     49  C   UNL A   1      44.517  24.466  30.790  1.00  0.00     0.031 C 
ATOM     50  C   UNL A   1      48.580  27.376  26.401  1.00  0.00     0.029 A 
ATOM     51  C   UNL A   1      48.418  28.016  27.695  1.00  0.00     0.049 A 
ATOM     52  H   UNL A   1      46.724  27.929  28.920  1.00  0.00     0.167 HD
ATOM     53  C   UNL A   1      43.889  26.606  31.993  1.00  0.00     0.037 A 
ATOM     54  C   UNL A   1      49.288  28.769  28.409  1.00  0.00     0.037 A 
ATOM     55  C   UNL A   1      43.447  27.935  31.662  1.00  0.00     0.049 A 
ATOM     56  C   UNL A   1      48.519  29.434  29.494  1.00  0.00     0.074 A 
ATOM     57  C   UNL A   1      42.388  28.451  30.941  1.00  0.00     0.029 A 
ATOM     58  N   UNL A   1      44.333  28.974  31.817  1.00  0.00    -0.354 N 
ATOM     59  N   UNL A   1      47.610  30.351  29.302  1.00  0.00    -0.248 NA
ATOM     60  C   UNL A   1      48.470  28.785  30.798  1.00  0.00     0.031 C 
ATOM     61  C   UNL A   1      42.889  29.631  30.320  1.00  0.00     0.029 A 
ATOM     62  C   UNL A   1      44.222  29.776  30.708  1.00  0.00     0.049 A 
ATOM     63  H   UNL A   1      44.937  29.116  32.582  1.00  0.00     0.167 HD
ATOM     64  C   UNL A   1      46.647  30.119  30.274  1.00  0.00     0.074 A 
ATOM     65  C   UNL A   1      47.286  29.223  31.231  1.00  0.00     0.031 C 
ATOM     66  C   UNL A   1      45.336  30.449  30.073  1.00  0.00     0.037 A 
BRANCH  53  67
ATOM     67  C   UNL A   1      44.406  26.223  33.351  1.00  0.00     0.058 A 
ATOM     68  C   UNL A   1      45.771  25.946  33.529  1.00  0.00     0.135 A 
ATOM     69  C   UNL A   1      43.554  25.863  34.423  1.00  0.00     0.135 A 
ATOM     70  F   UNL A   1      46.655  26.222  32.558  1.00  0.00    -0.206 F 
ATOM     71  C   UNL A   1      46.252  25.312  34.674  1.00  0.00     0.059 A 
ATOM     72  C   UNL A   1      44.020  25.290  35.596  1.00  0.00     0.059 A 
ATOM     73  F   UNL A   1      42.221  25.958  34.337  1.00  0.00    -0.206 F 
ATOM     74  C   UNL A   1      45.363  24.973  35.694  1.00  0.00     0.060 A 
BRANCH  74  75
ATOM     75  S   UNL A   1      45.949  24.033  37.112  1.00  0.00     0.124 S 
ATOM     76  O   UNL A   1      45.722  22.666  36.659  1.00  0.00    -0.237 OA
ATOM     77  O   UNL A   1      47.343  24.454  37.207  1.00  0.00    -0.237 OA
ATOM     78  O   UNL A   1      45.087  24.493  38.197  1.00  0.00    -0.744 OA
ENDBRANCH  74  75
ENDBRANCH  53  67
BRANCH  54  79
ATOM     79  C   UNL A   1      50.769  28.641  28.418  1.00  0.00     0.058 A 
ATOM     80  C   UNL A   1      51.599  29.760  28.242  1.00  0.00     0.135 A 
ATOM     81  C   UNL A   1      51.407  27.456  28.845  1.00  0.00     0.135 A 
ATOM     82  F   UNL A   1      51.073  30.938  27.874  1.00  0.00    -0.206 F 
ATOM     83  C   UNL A   1      52.974  29.716  28.502  1.00  0.00     0.059 A 
ATOM     84  C   UNL A   1      52.776  27.382  29.089  1.00  0.00     0.059 A 
ATOM     85  F   UNL A   1      50.706  26.349  29.131  1.00  0.00    -0.206 F 
ATOM     86  C   UNL A   1      53.551  28.523  28.937  1.00  0.00     0.060 A 
BRANCH  86  87
ATOM     87  S   UNL A   1      55.293  28.493  29.416  1.00  0.00     0.124 S 
ATOM     88  O   UNL A   1      55.281  29.285  30.641  1.00  0.00    -0.237 OA
ATOM     89  O   UNL A   1      55.541  27.065  29.583  1.00  0.00    -0.237 OA
ATOM     90  O   UNL A   1      55.969  29.111  28.280  1.00  0.00    -0.744 OA
ENDBRANCH  86  87
ENDBRANCH  54  79
BRANCH  66  91
ATOM     91  C   UNL A   1      45.008  31.360  28.917  1.00  0.00     0.058 A 
ATOM     92  C   UNL A   1      45.038  32.763  28.999  1.00  0.00     0.135 A 
ATOM     93  C   UNL A   1      44.811  30.798  27.646  1.00  0.00     0.135 A 
ATOM     94  F   UNL A   1      45.330  33.377  30.153  1.00  0.00    -0.206 F 
ATOM     95  C   UNL A   1      44.840  33.571  27.878  1.00  0.00     0.059 A 
ATOM     96  C   UNL A   1      44.640  31.584  26.509  1.00  0.00     0.059 A 
ATOM     97  F   UNL A   1      44.839  29.464  27.490  1.00  0.00    -0.206 F 
ATOM     98  C   UNL A   1      44.644  32.973  26.634  1.00  0.00     0.060 A 
BRANCH  98  99
ATOM     99  S   UNL A   1      44.488  34.021  25.172  1.00  0.00     0.124 S 
ATOM    100  O   UNL A   1      45.834  34.570  25.042  1.00  0.00    -0.237 OA
ATOM    101  O   UNL A   1      44.088  33.072  24.137  1.00  0.00    -0.237 OA
ATOM    102  O   UNL A   1      43.456  34.985  25.551  1.00  0.00    -0.744 OA
ENDBRANCH  98  99
ENDBRANCH  66  91
ENDBRANCH  40  41
ENDBRANCH  33  35
ENDBRANCH  32  33
ENDBRANCH  31  32
ENDBRANCH  30  31
ENDBRANCH  29  30
ENDBRANCH   1  29
TORSDOF 25
ENDMDL
MODEL 2
REMARK VINA RESULT:      -8.0      5.457     12.695
REMARK SMILES COc1ccc(/C=C(/Sc2nc(C)n[nH]2)C(=O)OCCOCCOCCOC(=O)c2ccc(-c3c4nc(c(-c5c(F)cc(S(=O)(=O)[O-])cc5F)c5ccc([nH]5)c(-c5c(F)cc(S(=O)(=O)[O-])cc5F)c5nc(c(-c6c(F)cc(S(=O)(=O)[O-])cc6F)c6ccc3[nH]6)C=C5)C=C4)cc2)cc1OC
REMARK SMILES IDX 23 1 22 2 21 3 20 4 19 5 18 6 16 7 17 8 8 9 7 10 6 11 3 12
REMARK SMILES IDX 4 13 97 14 5 15 96 16 2 17 1 18 98 19 99 20 9 21 10 22 11 23
REMARK SMILES IDX 15 24 12 25 14 26 13 28 24 29 25 30 26 31 27 32 28 33 29 34
REMARK SMILES IDX 30 35 31 36 95 37 32 38 94 39 33 40 34 41 35 42 88 43 36 44
REMARK SMILES IDX 93 45 87 46 89 47 37 48 92 49 86 50 85 51 38 53 72 54 51 55
REMARK SMILES IDX 71 56 52 57 55 58 70 59 90 60 53 61 54 62 69 64 91 65 56 66
REMARK SMILES IDX 39 67 40 68 49 69 41 70 42 71 48 72 50 73 43 74 44 75 45 76
REMARK SMILES IDX 46 77 47 78 73 79 74 80 83 81 75 82 76 83 82 84 84 85 77 86
REMARK SMILES IDX 78 87 79 88 80 89 81 90 57 91 58 92 67 93 59 94 60 95 66 96
REMARK SMILES IDX 68 97 61 98 62 99 63 100 64 101 65 102
REMARK H PARENT 15 27 89 52 55 63
REMARK Flexibility Score: inf
ROOT
ATOM      1  C   UNL A   1      39.371  28.657  27.828  1.00  0.00     0.188 C 
ENDROOT
BRANCH   1   2
ATOM      2  C   UNL A   1      40.019  27.744  28.890  1.00  0.00     0.188 C 
BRANCH   2   3
ATOM      3  O   UNL A   1      41.382  28.006  29.184  1.00  0.00    -0.376 OA
BRANCH   3   4
ATOM      4  C   UNL A   1      42.247  28.093  28.054  1.00  0.00     0.202 C 
BRANCH   4   5
ATOM      5  C   UNL A   1      43.648  27.513  28.274  1.00  0.00     0.261 C 
BRANCH   5   6
ATOM      6  O   UNL A   1      43.603  26.275  28.999  1.00  0.00    -0.459 OA
BRANCH   6   7
ATOM      7  C   UNL A   1      44.743  25.751  29.507  1.00  0.00     0.345 C 
ATOM      8  O   UNL A   1      45.499  26.302  30.297  1.00  0.00    -0.246 OA
BRANCH   7   9
ATOM      9  C   UNL A   1      44.861  24.345  29.013  1.00  0.00     0.101 C 
ATOM     10  C   UNL A   1      45.800  23.967  28.115  1.00  0.00     0.031 C 
BRANCH  10  11
ATOM     11  C   UNL A   1      46.868  24.696  27.376  1.00  0.00    -0.020 A 
ATOM     12  C   UNL A   1      48.792  25.991  25.723  1.00  0.00     0.160 A 
ATOM     13  C   UNL A   1      49.167  25.384  26.924  1.00  0.00     0.051 A 
ATOM     14  C   UNL A   1      47.452  25.953  25.330  1.00  0.00     0.161 A 
ATOM     15  C   UNL A   1      48.214  24.765  27.742  1.00  0.00     0.012 A 
ATOM     16  C   UNL A   1      46.516  25.300  26.154  1.00  0.00     0.058 A 
BRANCH  12  17
ATOM     17  O   UNL A   1      49.747  26.521  24.900  1.00  0.00    -0.493 OA
ATOM     18  C   UNL A   1      50.074  27.875  25.210  1.00  0.00     0.278 C 
ENDBRANCH  12  17
BRANCH  14  19
ATOM     19  O   UNL A   1      46.896  26.476  24.192  1.00  0.00    -0.493 OA
ATOM     20  C   UNL A   1      46.531  27.850  24.204  1.00  0.00     0.278 C 
ENDBRANCH  14  19
ENDBRANCH  10  11
BRANCH   9  21
ATOM     21  S   UNL A   1      43.820  23.252  29.913  1.00  0.00    -0.043 SA
BRANCH  21  22
ATOM     22  C   UNL A   1      42.625  22.792  28.776  1.00  0.00     0.188 A 
ATOM     23  N   UNL A   1      41.641  23.510  28.297  1.00  0.00    -0.206 NA
ATOM     24  N   UNL A   1      42.525  21.508  28.336  1.00  0.00    -0.254 N 
ATOM     25  C   UNL A   1      40.934  22.595  27.559  1.00  0.00     0.148 A 
ATOM     26  N   UNL A   1      41.441  21.355  27.551  1.00  0.00    -0.158 NA
ATOM     27  H   UNL A   1      43.159  20.789  28.560  1.00  0.00     0.192 HD
ATOM     28  C   UNL A   1      39.684  22.958  26.865  1.00  0.00     0.092 C 
ENDBRANCH  21  22
ENDBRANCH   9  21
ENDBRANCH   7   9
ENDBRANCH   6   7
ENDBRANCH   5   6
ENDBRANCH   4   5
ENDBRANCH   3   4
ENDBRANCH   2   3
ENDBRANCH   1   2
BRANCH   1  29
ATOM     29  O   UNL A   1      38.367  29.610  28.160  1.00  0.00    -0.376 OA
BRANCH  29  30
ATOM     30  C   UNL A   1      37.363  29.981  27.223  1.00  0.00     0.202 C 
BRANCH  30  31
ATOM     31  C   UNL A   1      35.970  30.339  27.729  1.00  0.00     0.261 C 
BRANCH  31  32
ATOM     32  O   UNL A   1      35.811  31.735  27.923  1.00  0.00    -0.460 OA
BRANCH  32  33
ATOM     33  C   UNL A   1      34.792  32.074  28.734  1.00  0.00     0.338 C 
ATOM     34  O   UNL A   1      33.623  32.271  28.408  1.00  0.00    -0.246 OA
BRANCH  33  35
ATOM     35  C   UNL A   1      35.290  32.223  30.104  1.00  0.00     0.060 A 
ATOM     36  C   UNL A   1      35.480  33.533  30.543  1.00  0.00     0.016 A 
ATOM     37  C   UNL A   1      35.835  31.119  30.780  1.00  0.00     0.016 A 
ATOM     38  C   UNL A   1      36.490  33.762  31.442  1.00  0.00     0.010 A 
ATOM     39  C   UNL A   1      36.845  31.347  31.681  1.00  0.00     0.010 A 
ATOM     40  C   UNL A   1      37.244  32.667  31.875  1.00  0.00    -0.014 A 
BRANCH  40  41
ATOM     41  C   UNL A   1      38.578  32.957  32.348  1.00  0.00     0.031 A 
ATOM     42  C   UNL A   1      39.533  33.391  31.319  1.00  0.00     0.074 A 
ATOM     43  C   UNL A   1      38.872  32.868  33.661  1.00  0.00     0.049 A 
ATOM     44  N   UNL A   1      40.613  32.801  30.929  1.00  0.00    -0.248 NA
ATOM     45  C   UNL A   1      39.172  34.589  30.549  1.00  0.00     0.031 C 
ATOM     46  C   UNL A   1      37.935  32.723  34.783  1.00  0.00     0.029 A 
ATOM     47  N   UNL A   1      40.074  33.007  34.277  1.00  0.00    -0.354 N 
ATOM     48  C   UNL A   1      41.187  33.672  30.013  1.00  0.00     0.074 A 
ATOM     49  C   UNL A   1      40.188  34.660  29.692  1.00  0.00     0.031 C 
ATOM     50  C   UNL A   1      38.580  33.015  35.933  1.00  0.00     0.029 A 
ATOM     51  C   UNL A   1      39.983  33.246  35.639  1.00  0.00     0.049 A 
ATOM     52  H   UNL A   1      40.932  32.944  33.799  1.00  0.00     0.167 HD
ATOM     53  C   UNL A   1      42.524  33.682  29.780  1.00  0.00     0.037 A 
ATOM     54  C   UNL A   1      40.974  33.716  36.434  1.00  0.00     0.037 A 
ATOM     55  C   UNL A   1      43.163  32.458  30.187  1.00  0.00     0.049 A 
ATOM     56  C   UNL A   1      42.264  33.454  35.743  1.00  0.00     0.074 A 
ATOM     57  C   UNL A   1      43.004  31.127  29.854  1.00  0.00     0.029 A 
ATOM     58  N   UNL A   1      43.917  32.467  31.336  1.00  0.00    -0.354 N 
ATOM     59  N   UNL A   1      42.761  32.265  35.529  1.00  0.00    -0.248 NA
ATOM     60  C   UNL A   1      42.829  34.513  34.917  1.00  0.00     0.031 C 
ATOM     61  C   UNL A   1      43.282  30.400  31.047  1.00  0.00     0.029 A 
ATOM     62  C   UNL A   1      43.608  31.328  32.038  1.00  0.00     0.049 A 
ATOM     63  H   UNL A   1      44.559  33.163  31.607  1.00  0.00     0.167 HD
ATOM     64  C   UNL A   1      43.389  32.350  34.295  1.00  0.00     0.074 A 
ATOM     65  C   UNL A   1      43.498  33.779  34.025  1.00  0.00     0.031 C 
ATOM     66  C   UNL A   1      43.514  31.259  33.482  1.00  0.00     0.037 A 
BRANCH  53  67
ATOM     67  C   UNL A   1      43.276  34.955  29.513  1.00  0.00     0.058 A 
ATOM     68  C   UNL A   1      43.340  35.953  30.499  1.00  0.00     0.135 A 
ATOM     69  C   UNL A   1      43.712  35.332  28.220  1.00  0.00     0.135 A 
ATOM     70  F   UNL A   1      42.921  35.703  31.749  1.00  0.00    -0.206 F 
ATOM     71  C   UNL A   1      43.762  37.251  30.210  1.00  0.00     0.059 A 
ATOM     72  C   UNL A   1      44.195  36.598  27.925  1.00  0.00     0.059 A 
ATOM     73  F   UNL A   1      43.591  34.519  27.162  1.00  0.00    -0.206 F 
ATOM     74  C   UNL A   1      44.172  37.565  28.915  1.00  0.00     0.060 A 
BRANCH  74  75
ATOM     75  S   UNL A   1      44.586  39.266  28.498  1.00  0.00     0.124 S 
ATOM     76  O   UNL A   1      43.263  39.831  28.263  1.00  0.00    -0.237 OA
ATOM     77  O   UNL A   1      45.272  39.720  29.704  1.00  0.00    -0.237 OA
ATOM     78  O   UNL A   1      45.434  39.123  27.318  1.00  0.00    -0.744 OA
ENDBRANCH  74  75
ENDBRANCH  53  67
BRANCH  54  79
ATOM     79  C   UNL A   1      40.827  34.687  37.550  1.00  0.00     0.058 A 
ATOM     80  C   UNL A   1      40.261  35.955  37.343  1.00  0.00     0.135 A 
ATOM     81  C   UNL A   1      41.012  34.302  38.896  1.00  0.00     0.135 A 
ATOM     82  F   UNL A   1      40.016  36.389  36.097  1.00  0.00    -0.206 F 
ATOM     83  C   UNL A   1      39.874  36.781  38.406  1.00  0.00     0.059 A 
ATOM     84  C   UNL A   1      40.655  35.114  39.969  1.00  0.00     0.059 A 
ATOM     85  F   UNL A   1      41.461  33.080  39.218  1.00  0.00    -0.206 F 
ATOM     86  C   UNL A   1      40.065  36.344  39.717  1.00  0.00     0.060 A 
BRANCH  86  87
ATOM     87  S   UNL A   1      39.436  37.334  41.091  1.00  0.00     0.124 S 
ATOM     88  O   UNL A   1      38.531  38.254  40.409  1.00  0.00    -0.237 OA
ATOM     89  O   UNL A   1      38.804  36.324  41.933  1.00  0.00    -0.237 OA
ATOM     90  O   UNL A   1      40.639  37.943  41.651  1.00  0.00    -0.744 OA
ENDBRANCH  86  87
ENDBRANCH  54  79
BRANCH  66  91
ATOM     91  C   UNL A   1      43.250  29.900  34.079  1.00  0.00     0.058 A 
ATOM     92  C   UNL A   1      44.225  29.145  34.756  1.00  0.00     0.135 A 
ATOM     93  C   UNL A   1      41.934  29.416  34.108  1.00  0.00     0.135 A 
ATOM     94  F   UNL A   1      45.483  29.592  34.870  1.00  0.00    -0.206 F 
ATOM     95  C   UNL A   1      43.914  27.944  35.394  1.00  0.00     0.059 A 
ATOM     96  C   UNL A   1      41.594  28.235  34.764  1.00  0.00     0.059 A 
ATOM     97  F   UNL A   1      40.945  30.125  33.539  1.00  0.00    -0.206 F 
ATOM     98  C   UNL A   1      42.593  27.496  35.396  1.00  0.00     0.060 A 
BRANCH  98  99
ATOM     99  S   UNL A   1      42.178  25.994  36.309  1.00  0.00     0.124 S 
ATOM    100  O   UNL A   1      43.241  25.082  35.901  1.00  0.00    -0.237 OA
ATOM    101  O   UNL A   1      42.226  26.440  37.698  1.00  0.00    -0.237 OA
ATOM    102  O   UNL A   1      40.843  25.656  35.820  1.00  0.00    -0.744 OA
ENDBRANCH  98  99
ENDBRANCH  66  91
ENDBRANCH  40  41
ENDBRANCH  33  35
ENDBRANCH  32  33
ENDBRANCH  31  32
ENDBRANCH  30  31
ENDBRANCH  29  30
ENDBRANCH   1  29
TORSDOF 25
ENDMDL
MODEL 3
REMARK VINA RESULT:      -7.7      1.669      2.275
REMARK SMILES COc1ccc(/C=C(/Sc2nc(C)n[nH]2)C(=O)OCCOCCOCCOC(=O)c2ccc(-c3c4nc(c(-c5c(F)cc(S(=O)(=O)[O-])cc5F)c5ccc([nH]5)c(-c5c(F)cc(S(=O)(=O)[O-])cc5F)c5nc(c(-c6c(F)cc(S(=O)(=O)[O-])cc6F)c6ccc3[nH]6)C=C5)C=C4)cc2)cc1OC
REMARK SMILES IDX 23 1 22 2 21 3 20 4 19 5 18 6 16 7 17 8 8 9 7 10 6 11 3 12
REMARK SMILES IDX 4 13 97 14 5 15 96 16 2 17 1 18 98 19 99 20 9 21 10 22 11 23
REMARK SMILES IDX 15 24 12 25 14 26 13 28 24 29 25 30 26 31 27 32 28 33 29 34
REMARK SMILES IDX 30 35 31 36 95 37 32 38 94 39 33 40 34 41 35 42 88 43 36 44
REMARK SMILES IDX 93 45 87 46 89 47 37 48 92 49 86 50 85 51 38 53 72 54 51 55
REMARK SMILES IDX 71 56 52 57 55 58 70 59 90 60 53 61 54 62 69 64 91 65 56 66
REMARK SMILES IDX 39 67 40 68 49 69 41 70 42 71 48 72 50 73 43 74 44 75 45 76
REMARK SMILES IDX 46 77 47 78 73 79 74 80 83 81 75 82 76 83 82 84 84 85 77 86
REMARK SMILES IDX 78 87 79 88 80 89 81 90 57 91 58 92 67 93 59 94 60 95 66 96
REMARK SMILES IDX 68 97 61 98 62 99 63 100 64 101 65 102
REMARK H PARENT 15 27 89 52 55 63
REMARK Flexibility Score: inf
ROOT
ATOM      1  C   UNL A   1      42.118  26.272  29.003  1.00  0.00     0.188 C 
ENDROOT
BRANCH   1   2
ATOM      2  C   UNL A   1      41.276  27.558  29.137  1.00  0.00     0.188 C 
BRANCH   2   3
ATOM      3  O   UNL A   1      40.398  27.839  28.057  1.00  0.00    -0.376 OA
BRANCH   3   4
ATOM      4  C   UNL A   1      39.011  27.667  28.337  1.00  0.00     0.202 C 
BRANCH   4   5
ATOM      5  C   UNL A   1      38.351  28.851  29.053  1.00  0.00     0.261 C 
BRANCH   5   6
ATOM      6  O   UNL A   1      37.202  29.330  28.340  1.00  0.00    -0.459 OA
BRANCH   6   7
ATOM      7  C   UNL A   1      36.226  29.992  29.005  1.00  0.00     0.345 C 
ATOM      8  O   UNL A   1      35.916  29.830  30.178  1.00  0.00    -0.246 OA
BRANCH   7   9
ATOM      9  C   UNL A   1      35.664  31.026  28.082  1.00  0.00     0.101 C 
ATOM     10  C   UNL A   1      34.608  30.782  27.273  1.00  0.00     0.031 C 
BRANCH  10  11
ATOM     11  C   UNL A   1      33.770  29.578  27.013  1.00  0.00    -0.020 A 
ATOM     12  C   UNL A   1      32.220  27.319  26.239  1.00  0.00     0.160 A 
ATOM     13  C   UNL A   1      31.793  28.166  27.263  1.00  0.00     0.051 A 
ATOM     14  C   UNL A   1      33.422  27.592  25.584  1.00  0.00     0.161 A 
ATOM     15  C   UNL A   1      32.569  29.266  27.653  1.00  0.00     0.012 A 
ATOM     16  C   UNL A   1      34.171  28.720  25.972  1.00  0.00     0.058 A 
BRANCH  12  17
ATOM     17  O   UNL A   1      31.412  26.297  25.820  1.00  0.00    -0.493 OA
ATOM     18  C   UNL A   1      31.807  25.021  26.321  1.00  0.00     0.278 C 
ENDBRANCH  12  17
BRANCH  14  19
ATOM     19  O   UNL A   1      33.997  26.892  24.556  1.00  0.00    -0.493 OA
ATOM     20  C   UNL A   1      33.624  27.238  23.228  1.00  0.00     0.278 C 
ENDBRANCH  14  19
ENDBRANCH  10  11
BRANCH   9  21
ATOM     21  S   UNL A   1      36.377  32.607  28.370  1.00  0.00    -0.043 SA
BRANCH  21  22
ATOM     22  C   UNL A   1      35.100  33.515  29.060  1.00  0.00     0.188 A 
ATOM     23  N   UNL A   1      34.575  34.635  28.632  1.00  0.00    -0.206 NA
ATOM     24  N   UNL A   1      34.566  33.179  30.267  1.00  0.00    -0.254 N 
ATOM     25  C   UNL A   1      33.712  34.968  29.644  1.00  0.00     0.148 A 
ATOM     26  N   UNL A   1      33.669  34.102  30.665  1.00  0.00    -0.158 NA
ATOM     27  H   UNL A   1      34.801  32.372  30.777  1.00  0.00     0.192 HD
ATOM     28  C   UNL A   1      32.924  36.216  29.612  1.00  0.00     0.092 C 
ENDBRANCH  21  22
ENDBRANCH   9  21
ENDBRANCH   7   9
ENDBRANCH   6   7
ENDBRANCH   5   6
ENDBRANCH   4   5
ENDBRANCH   3   4
ENDBRANCH   2   3
ENDBRANCH   1   2
BRANCH   1  29
ATOM     29  O   UNL A   1      41.811  25.260  28.050  1.00  0.00    -0.376 OA
BRANCH  29  30
ATOM     30  C   UNL A   1      42.243  23.918  28.232  1.00  0.00     0.202 C 
BRANCH  30  31
ATOM     31  C   UNL A   1      41.878  22.871  27.186  1.00  0.00     0.261 C 
BRANCH  31  32
ATOM     32  O   UNL A   1      41.903  23.397  25.868  1.00  0.00    -0.460 OA
BRANCH  32  33
ATOM     33  C   UNL A   1      42.925  22.960  25.111  1.00  0.00     0.338 C 
ATOM     34  O   UNL A   1      43.056  21.840  24.621  1.00  0.00    -0.246 OA
BRANCH  33  35
ATOM     35  C   UNL A   1      43.921  24.027  24.978  1.00  0.00     0.060 A 
ATOM     36  C   UNL A   1      45.254  23.617  24.965  1.00  0.00     0.016 A 
ATOM     37  C   UNL A   1      43.551  25.367  25.180  1.00  0.00     0.016 A 
ATOM     38  C   UNL A   1      46.187  24.470  25.496  1.00  0.00     0.010 A 
ATOM     39  C   UNL A   1      44.485  26.222  25.710  1.00  0.00     0.010 A 
ATOM     40  C   UNL A   1      45.745  25.700  25.991  1.00  0.00    -0.014 A 
BRANCH  40  41
ATOM     41  C   UNL A   1      46.577  26.320  26.997  1.00  0.00     0.031 A 
ATOM     42  C   UNL A   1      46.126  26.145  28.385  1.00  0.00     0.074 A 
ATOM     43  C   UNL A   1      47.705  26.967  26.645  1.00  0.00     0.049 A 
ATOM     44  N   UNL A   1      45.743  27.048  29.222  1.00  0.00    -0.248 NA
ATOM     45  C   UNL A   1      45.983  24.762  28.860  1.00  0.00     0.031 C 
ATOM     46  C   UNL A   1      48.380  26.954  25.340  1.00  0.00     0.029 A 
ATOM     47  N   UNL A   1      48.556  27.684  27.426  1.00  0.00    -0.354 N 
ATOM     48  C   UNL A   1      45.520  26.366  30.410  1.00  0.00     0.074 A 
ATOM     49  C   UNL A   1      45.515  24.961  30.090  1.00  0.00     0.031 C 
ATOM     50  C   UNL A   1      49.635  27.431  25.489  1.00  0.00     0.029 A 
ATOM     51  C   UNL A   1      49.803  27.887  26.858  1.00  0.00     0.049 A 
ATOM     52  H   UNL A   1      48.308  28.028  28.314  1.00  0.00     0.167 HD
ATOM     53  C   UNL A   1      45.619  26.981  31.616  1.00  0.00     0.037 A 
ATOM     54  C   UNL A   1      50.920  28.290  27.511  1.00  0.00     0.037 A 
ATOM     55  C   UNL A   1      45.503  28.412  31.515  1.00  0.00     0.049 A 
ATOM     56  C   UNL A   1      50.489  28.948  28.772  1.00  0.00     0.074 A 
ATOM     57  C   UNL A   1      44.537  29.273  31.032  1.00  0.00     0.029 A 
ATOM     58  N   UNL A   1      46.642  29.169  31.650  1.00  0.00    -0.354 N 
ATOM     59  N   UNL A   1      49.835  30.077  28.831  1.00  0.00    -0.248 NA
ATOM     60  C   UNL A   1      50.431  28.140  29.983  1.00  0.00     0.031 C 
ATOM     61  C   UNL A   1      45.250  30.376  30.482  1.00  0.00     0.029 A 
ATOM     62  C   UNL A   1      46.612  30.133  30.672  1.00  0.00     0.049 A 
ATOM     63  H   UNL A   1      47.350  29.043  32.322  1.00  0.00     0.167 HD
ATOM     64  C   UNL A   1      48.970  29.940  29.908  1.00  0.00     0.074 A 
ATOM     65  C   UNL A   1      49.464  28.781  30.643  1.00  0.00     0.031 C 
ATOM     66  C   UNL A   1      47.777  30.604  29.953  1.00  0.00     0.037 A 
BRANCH  53  67
ATOM     67  C   UNL A   1      46.179  26.282  32.823  1.00  0.00     0.058 A 
ATOM     68  C   UNL A   1      45.445  26.252  34.020  1.00  0.00     0.135 A 
ATOM     69  C   UNL A   1      47.530  25.870  32.913  1.00  0.00     0.135 A 
ATOM     70  F   UNL A   1      44.164  26.653  34.044  1.00  0.00    -0.206 F 
ATOM     71  C   UNL A   1      46.027  25.884  35.233  1.00  0.00     0.059 A 
ATOM     72  C   UNL A   1      48.110  25.439  34.096  1.00  0.00     0.059 A 
ATOM     73  F   UNL A   1      48.375  25.965  31.877  1.00  0.00    -0.206 F 
ATOM     74  C   UNL A   1      47.365  25.495  35.261  1.00  0.00     0.060 A 
BRANCH  74  75
ATOM     75  S   UNL A   1      48.162  25.151  36.838  1.00  0.00     0.124 S 
ATOM     76  O   UNL A   1      49.545  25.502  36.539  1.00  0.00    -0.237 OA
ATOM     77  O   UNL A   1      47.454  26.050  37.743  1.00  0.00    -0.237 OA
ATOM     78  O   UNL A   1      47.898  23.730  37.041  1.00  0.00    -0.744 OA
ENDBRANCH  74  75
ENDBRANCH  53  67
BRANCH  54  79
ATOM     79  C   UNL A   1      52.306  27.806  27.273  1.00  0.00     0.058 A 
ATOM     80  C   UNL A   1      53.326  28.685  26.875  1.00  0.00     0.135 A 
ATOM     81  C   UNL A   1      52.718  26.516  27.670  1.00  0.00     0.135 A 
ATOM     82  F   UNL A   1      53.030  29.944  26.516  1.00  0.00    -0.206 F 
ATOM     83  C   UNL A   1      54.677  28.317  26.896  1.00  0.00     0.059 A 
ATOM     84  C   UNL A   1      54.052  26.119  27.679  1.00  0.00     0.059 A 
ATOM     85  F   UNL A   1      51.844  25.621  28.154  1.00  0.00    -0.206 F 
ATOM     86  C   UNL A   1      55.031  27.033  27.313  1.00  0.00     0.060 A 
BRANCH  86  87
ATOM     87  S   UNL A   1      56.775  26.596  27.485  1.00  0.00     0.124 S 
ATOM     88  O   UNL A   1      57.435  27.772  26.929  1.00  0.00    -0.237 OA
ATOM     89  O   UNL A   1      56.904  26.414  28.927  1.00  0.00    -0.237 OA
ATOM     90  O   UNL A   1      56.901  25.377  26.692  1.00  0.00    -0.744 OA
ENDBRANCH  86  87
ENDBRANCH  54  79
BRANCH  66  91
ATOM     91  C   UNL A   1      47.561  31.732  28.976  1.00  0.00     0.058 A 
ATOM     92  C   UNL A   1      48.029  33.042  29.183  1.00  0.00     0.135 A 
ATOM     93  C   UNL A   1      47.002  31.444  27.722  1.00  0.00     0.135 A 
ATOM     94  F   UNL A   1      48.673  33.370  30.311  1.00  0.00    -0.206 F 
ATOM     95  C   UNL A   1      47.909  34.030  28.205  1.00  0.00     0.059 A 
ATOM     96  C   UNL A   1      46.898  32.407  26.720  1.00  0.00     0.059 A 
ATOM     97  F   UNL A   1      46.598  30.195  27.437  1.00  0.00    -0.206 F 
ATOM     98  C   UNL A   1      47.344  33.704  26.973  1.00  0.00     0.060 A 
BRANCH  98  99
ATOM     99  S   UNL A   1      47.283  34.959  25.676  1.00  0.00     0.124 S 
ATOM    100  O   UNL A   1      46.109  34.554  24.910  1.00  0.00    -0.237 OA
ATOM    101  O   UNL A   1      47.146  36.199  26.436  1.00  0.00    -0.237 OA
ATOM    102  O   UNL A   1      48.563  34.801  24.988  1.00  0.00    -0.744 OA
ENDBRANCH  98  99
ENDBRANCH  66  91
ENDBRANCH  40  41
ENDBRANCH  33  35
ENDBRANCH  32  33
ENDBRANCH  31  32
ENDBRANCH  30  31
ENDBRANCH  29  30
ENDBRANCH   1  29
TORSDOF 25
ENDMDL
