MODEL 1
REMARK VINA RESULT:     -11.2      0.000      0.000
REMARK SMILES Nc1c(Cl)ccc2c1C=C(C(=O)OCCOCCOCCOC(=O)c1ccc(-c3c4nc(c(-c5c(F)cc(S(=O)(=O)[O-])cc5F)c5ccc([nH]5)c(-c5c(F)cc(S(=O)(=O)[O-])cc5F)c5nc(c(-c6c(F)cc(S(=O)(=O)[O-])cc6F)c6ccc3[nH]6)C=C5)C=C4)cc1)[C@@H](C(F)(F)F)O2
REMARK SMILES IDX 18 1 17 2 16 3 15 4 14 5 13 6 11 7 12 8 10 9 2 10 3 11 8 12
REMARK SMILES IDX 4 13 5 14 7 15 9 16 6 17 96 18 91 19 1 20 92 23 93 24 94 25
REMARK SMILES IDX 95 26 19 27 20 28 21 29 22 30 23 31 24 32 25 33 26 34 90 35
REMARK SMILES IDX 27 36 89 37 28 38 29 39 30 40 83 41 31 42 88 43 82 44 84 45
REMARK SMILES IDX 32 46 87 47 81 48 80 49 33 51 67 52 46 53 66 54 47 55 50 56
REMARK SMILES IDX 65 57 85 58 48 59 49 60 64 62 86 63 51 64 34 65 35 66 44 67
REMARK SMILES IDX 36 68 37 69 43 70 45 71 38 72 39 73 40 74 41 75 42 76 68 77
REMARK SMILES IDX 69 78 78 79 70 80 71 81 77 82 79 83 72 84 73 85 74 86 75 87
REMARK SMILES IDX 76 88 52 89 53 90 62 91 54 92 55 93 61 94 63 95 56 96 57 97
REMARK SMILES IDX 58 98 59 99 60 100
REMARK H PARENT 1 21 1 22 84 50 50 61
REMARK Flexibility Score: inf
ROOT
ATOM      1  C   UNL A   1      38.086  21.473  25.161  1.00  0.00     0.188 C 
ENDROOT
BRANCH   1   2
ATOM      2  C   UNL A   1      37.120  22.341  25.997  1.00  0.00     0.188 C 
BRANCH   2   3
ATOM      3  O   UNL A   1      36.954  23.659  25.537  1.00  0.00    -0.376 OA
BRANCH   3   4
ATOM      4  C   UNL A   1      35.735  24.110  24.981  1.00  0.00     0.202 C 
BRANCH   4   5
ATOM      5  C   UNL A   1      34.455  24.449  25.766  1.00  0.00     0.261 C 
BRANCH   5   6
ATOM      6  O   UNL A   1      33.553  23.382  26.059  1.00  0.00    -0.460 OA
BRANCH   6   7
ATOM      7  C   UNL A   1      32.407  23.359  25.340  1.00  0.00     0.338 C 
ATOM      8  O   UNL A   1      31.583  24.253  25.250  1.00  0.00    -0.246 OA
BRANCH   7   9
ATOM      9  C   UNL A   1      32.355  22.100  24.570  1.00  0.00     0.088 C 
ATOM     10  C   UNL A   1      32.654  18.448  25.184  1.00  0.00     0.061 A 
ATOM     11  C   UNL A   1      32.802  17.296  24.380  1.00  0.00     0.064 A 
ATOM     12  C   UNL A   1      32.487  19.694  24.533  1.00  0.00     0.042 A 
ATOM     13  Cl  UNL A   1      33.122  15.751  25.096  1.00  0.00    -0.082 Cl
ATOM     14  C   UNL A   1      32.691  17.355  22.990  1.00  0.00     0.026 A 
ATOM     15  C   UNL A   1      32.342  19.738  23.137  1.00  0.00     0.130 A 
ATOM     16  C   UNL A   1      32.515  20.963  25.259  1.00  0.00     0.029 C 
ATOM     17  C   UNL A   1      32.436  18.575  22.373  1.00  0.00     0.049 A 
ATOM     18  O   UNL A   1      32.112  20.876  22.417  1.00  0.00    -0.475 OA
ATOM     19  C   UNL A   1      32.106  22.160  23.090  1.00  0.00     0.316 C 
BRANCH  10  20
ATOM     20  N   UNL A   1      32.793  18.350  26.571  1.00  0.00    -0.397 N 
ATOM     21  H   UNL A   1      33.565  17.877  26.957  1.00  0.00     0.156 HD
ATOM     22  H   UNL A   1      32.116  18.753  27.164  1.00  0.00     0.156 HD
ENDBRANCH  10  20
BRANCH  19  23
ATOM     23  C   UNL A   1      33.096  23.082  22.363  1.00  0.00     0.430 C 
ATOM     24  F   UNL A   1      34.373  22.826  22.742  1.00  0.00    -0.167 F 
ATOM     25  F   UNL A   1      33.056  22.910  21.020  1.00  0.00    -0.167 F 
ATOM     26  F   UNL A   1      32.856  24.388  22.610  1.00  0.00    -0.167 F 
ENDBRANCH  19  23
ENDBRANCH   7   9
ENDBRANCH   6   7
ENDBRANCH   5   6
ENDBRANCH   4   5
ENDBRANCH   3   4
ENDBRANCH   2   3
ENDBRANCH   1   2
BRANCH   1  27
ATOM     27  O   UNL A   1      39.291  20.997  25.745  1.00  0.00    -0.376 OA
BRANCH  27  28
ATOM     28  C   UNL A   1      39.869  21.742  26.813  1.00  0.00     0.202 C 
BRANCH  28  29
ATOM     29  C   UNL A   1      40.797  22.923  26.493  1.00  0.00     0.261 C 
BRANCH  29  30
ATOM     30  O   UNL A   1      40.122  24.186  26.368  1.00  0.00    -0.460 OA
BRANCH  30  31
ATOM     31  C   UNL A   1      40.932  25.264  26.220  1.00  0.00     0.338 C 
ATOM     32  O   UNL A   1      41.434  25.677  25.188  1.00  0.00    -0.246 OA
BRANCH  31  33
ATOM     33  C   UNL A   1      40.989  26.011  27.489  1.00  0.00     0.060 A 
ATOM     34  C   UNL A   1      39.899  25.920  28.367  1.00  0.00     0.016 A 
ATOM     35  C   UNL A   1      42.066  26.851  27.776  1.00  0.00     0.016 A 
ATOM     36  C   UNL A   1      39.877  26.682  29.533  1.00  0.00     0.010 A 
ATOM     37  C   UNL A   1      42.023  27.646  28.924  1.00  0.00     0.010 A 
ATOM     38  C   UNL A   1      40.916  27.585  29.790  1.00  0.00    -0.014 A 
BRANCH  38  39
ATOM     39  C   UNL A   1      40.732  28.623  30.829  1.00  0.00     0.031 A 
ATOM     40  C   UNL A   1      41.600  28.557  32.056  1.00  0.00     0.074 A 
ATOM     41  C   UNL A   1      39.831  29.609  30.684  1.00  0.00     0.049 A 
ATOM     42  N   UNL A   1      41.601  29.324  33.113  1.00  0.00    -0.248 NA
ATOM     43  C   UNL A   1      42.609  27.483  32.089  1.00  0.00     0.031 C 
ATOM     44  C   UNL A   1      38.972  29.807  29.518  1.00  0.00     0.029 A 
ATOM     45  N   UNL A   1      39.484  30.628  31.536  1.00  0.00    -0.354 N 
ATOM     46  C   UNL A   1      42.614  28.838  33.930  1.00  0.00     0.074 A 
ATOM     47  C   UNL A   1      43.191  27.693  33.259  1.00  0.00     0.031 C 
ATOM     48  C   UNL A   1      38.183  30.875  29.736  1.00  0.00     0.029 A 
ATOM     49  C   UNL A   1      38.461  31.415  31.066  1.00  0.00     0.049 A 
ATOM     50  H   UNL A   1      39.928  30.781  32.400  1.00  0.00     0.167 HD
ATOM     51  C   UNL A   1      43.030  29.304  35.130  1.00  0.00     0.037 A 
ATOM     52  C   UNL A   1      37.809  32.437  31.658  1.00  0.00     0.037 A 
ATOM     53  C   UNL A   1      42.429  30.418  35.811  1.00  0.00     0.049 A 
ATOM     54  C   UNL A   1      38.213  32.867  33.045  1.00  0.00     0.074 A 
ATOM     55  C   UNL A   1      42.768  30.959  37.039  1.00  0.00     0.029 A 
ATOM     56  N   UNL A   1      41.354  31.152  35.332  1.00  0.00    -0.354 N 
ATOM     57  N   UNL A   1      39.178  32.405  33.806  1.00  0.00    -0.248 NA
ATOM     58  C   UNL A   1      37.434  33.953  33.660  1.00  0.00     0.031 C 
ATOM     59  C   UNL A   1      41.867  31.991  37.323  1.00  0.00     0.029 A 
ATOM     60  C   UNL A   1      40.998  32.124  36.250  1.00  0.00     0.049 A 
ATOM     61  H   UNL A   1      40.911  31.003  34.465  1.00  0.00     0.167 HD
ATOM     62  C   UNL A   1      39.135  33.155  34.977  1.00  0.00     0.074 A 
ATOM     63  C   UNL A   1      38.057  34.109  34.821  1.00  0.00     0.031 C 
ATOM     64  C   UNL A   1      39.918  33.064  36.081  1.00  0.00     0.037 A 
BRANCH  51  65
ATOM     65  C   UNL A   1      44.172  28.588  35.790  1.00  0.00     0.058 A 
ATOM     66  C   UNL A   1      45.503  28.974  35.569  1.00  0.00     0.135 A 
ATOM     67  C   UNL A   1      43.934  27.523  36.671  1.00  0.00     0.135 A 
ATOM     68  F   UNL A   1      45.786  29.971  34.715  1.00  0.00    -0.206 F 
ATOM     69  C   UNL A   1      46.561  28.318  36.189  1.00  0.00     0.059 A 
ATOM     70  C   UNL A   1      44.976  26.867  37.321  1.00  0.00     0.059 A 
ATOM     71  F   UNL A   1      42.679  27.108  36.908  1.00  0.00    -0.206 F 
ATOM     72  C   UNL A   1      46.287  27.267  37.066  1.00  0.00     0.060 A 
BRANCH  72  73
ATOM     73  S   UNL A   1      47.672  26.435  37.871  1.00  0.00     0.124 S 
ATOM     74  O   UNL A   1      48.186  27.495  38.734  1.00  0.00    -0.237 OA
ATOM     75  O   UNL A   1      47.014  25.325  38.552  1.00  0.00    -0.237 OA
ATOM     76  O   UNL A   1      48.538  26.060  36.757  1.00  0.00    -0.744 OA
ENDBRANCH  72  73
ENDBRANCH  51  65
BRANCH  52  77
ATOM     77  C   UNL A   1      36.691  33.116  30.949  1.00  0.00     0.058 A 
ATOM     78  C   UNL A   1      35.358  32.900  31.327  1.00  0.00     0.135 A 
ATOM     79  C   UNL A   1      36.934  33.995  29.882  1.00  0.00     0.135 A 
ATOM     80  F   UNL A   1      35.075  32.055  32.331  1.00  0.00    -0.206 F 
ATOM     81  C   UNL A   1      34.304  33.527  30.671  1.00  0.00     0.059 A 
ATOM     82  C   UNL A   1      35.899  34.652  29.225  1.00  0.00     0.059 A 
ATOM     83  F   UNL A   1      38.192  34.238  29.483  1.00  0.00    -0.206 F 
ATOM     84  C   UNL A   1      34.586  34.407  29.624  1.00  0.00     0.060 A 
BRANCH  84  85
ATOM     85  S   UNL A   1      33.211  35.261  28.820  1.00  0.00     0.124 S 
ATOM     86  O   UNL A   1      32.446  35.734  29.968  1.00  0.00    -0.237 OA
ATOM     87  O   UNL A   1      33.902  36.287  28.045  1.00  0.00    -0.237 OA
ATOM     88  O   UNL A   1      32.578  34.210  28.030  1.00  0.00    -0.744 OA
ENDBRANCH  84  85
ENDBRANCH  52  77
BRANCH  64  89
ATOM     89  C   UNL A   1      39.653  34.023  37.208  1.00  0.00     0.058 A 
ATOM     90  C   UNL A   1      38.957  33.627  38.360  1.00  0.00     0.135 A 
ATOM     91  C   UNL A   1      40.168  35.329  37.170  1.00  0.00     0.135 A 
ATOM     92  F   UNL A   1      38.441  32.390  38.447  1.00  0.00    -0.206 F 
ATOM     93  C   UNL A   1      38.767  34.497  39.430  1.00  0.00     0.059 A 
ATOM     94  C   UNL A   1      40.013  36.208  38.237  1.00  0.00     0.059 A 
ATOM     95  F   UNL A   1      40.852  35.754  36.096  1.00  0.00    -0.206 F 
ATOM     96  C   UNL A   1      39.304  35.784  39.361  1.00  0.00     0.060 A 
BRANCH  96  97
ATOM     97  S   UNL A   1      39.087  36.887  40.774  1.00  0.00     0.124 S 
ATOM     98  O   UNL A   1      38.398  38.019  40.162  1.00  0.00    -0.237 OA
ATOM     99  O   UNL A   1      38.287  36.074  41.683  1.00  0.00    -0.237 OA
ATOM    100  O   UNL A   1      40.455  37.149  41.214  1.00  0.00    -0.744 OA
ENDBRANCH  96  97
ENDBRANCH  64  89
ENDBRANCH  38  39
ENDBRANCH  31  33
ENDBRANCH  30  31
ENDBRANCH  29  30
ENDBRANCH  28  29
ENDBRANCH  27  28
ENDBRANCH   1  27
TORSDOF 22
ENDMDL
MODEL 2
REMARK VINA RESULT:     -10.9      0.555      8.141
REMARK SMILES Nc1c(Cl)ccc2c1C=C(C(=O)OCCOCCOCCOC(=O)c1ccc(-c3c4nc(c(-c5c(F)cc(S(=O)(=O)[O-])cc5F)c5ccc([nH]5)c(-c5c(F)cc(S(=O)(=O)[O-])cc5F)c5nc(c(-c6c(F)cc(S(=O)(=O)[O-])cc6F)c6ccc3[nH]6)C=C5)C=C4)cc1)[C@@H](C(F)(F)F)O2
REMARK SMILES IDX 18 1 17 2 16 3 15 4 14 5 13 6 11 7 12 8 10 9 2 10 3 11 8 12
REMARK SMILES IDX 4 13 5 14 7 15 9 16 6 17 96 18 91 19 1 20 92 23 93 24 94 25
REMARK SMILES IDX 95 26 19 27 20 28 21 29 22 30 23 31 24 32 25 33 26 34 90 35
REMARK SMILES IDX 27 36 89 37 28 38 29 39 30 40 83 41 31 42 88 43 82 44 84 45
REMARK SMILES IDX 32 46 87 47 81 48 80 49 33 51 67 52 46 53 66 54 47 55 50 56
REMARK SMILES IDX 65 57 85 58 48 59 49 60 64 62 86 63 51 64 34 65 35 66 44 67
REMARK SMILES IDX 36 68 37 69 43 70 45 71 38 72 39 73 40 74 41 75 42 76 68 77
REMARK SMILES IDX 69 78 78 79 70 80 71 81 77 82 79 83 72 84 73 85 74 86 75 87
REMARK SMILES IDX 76 88 52 89 53 90 62 91 54 92 55 93 61 94 63 95 56 96 57 97
REMARK SMILES IDX 58 98 59 99 60 100
REMARK H PARENT 1 21 1 22 84 50 50 61
REMARK Flexibility Score: inf
ROOT
ATOM      1  C   UNL A   1      38.341  21.472  25.436  1.00  0.00     0.188 C 
ENDROOT
BRANCH   1   2
ATOM      2  C   UNL A   1      37.282  22.428  26.027  1.00  0.00     0.188 C 
BRANCH   2   3
ATOM      3  O   UNL A   1      37.140  23.652  25.349  1.00  0.00    -0.376 OA
BRANCH   3   4
ATOM      4  C   UNL A   1      35.917  24.043  24.760  1.00  0.00     0.202 C 
BRANCH   4   5
ATOM      5  C   UNL A   1      34.665  24.529  25.513  1.00  0.00     0.261 C 
BRANCH   5   6
ATOM      6  O   UNL A   1      33.714  23.548  25.923  1.00  0.00    -0.460 OA
BRANCH   6   7
ATOM      7  C   UNL A   1      32.549  23.526  25.235  1.00  0.00     0.338 C 
ATOM      8  O   UNL A   1      31.745  24.437  25.131  1.00  0.00    -0.246 OA
BRANCH   7   9
ATOM      9  C   UNL A   1      32.445  22.240  24.517  1.00  0.00     0.088 C 
ATOM     10  C   UNL A   1      32.702  18.609  25.261  1.00  0.00     0.061 A 
ATOM     11  C   UNL A   1      32.799  17.424  24.498  1.00  0.00     0.064 A 
ATOM     12  C   UNL A   1      32.533  19.832  24.569  1.00  0.00     0.042 A 
ATOM     13  Cl  UNL A   1      33.117  15.902  25.262  1.00  0.00    -0.082 Cl
ATOM     14  C   UNL A   1      32.637  17.432  23.112  1.00  0.00     0.026 A 
ATOM     15  C   UNL A   1      32.336  19.826  23.179  1.00  0.00     0.130 A 
ATOM     16  C   UNL A   1      32.611  21.127  25.243  1.00  0.00     0.029 C 
ATOM     17  C   UNL A   1      32.380  18.632  22.457  1.00  0.00     0.049 A 
ATOM     18  O   UNL A   1      32.099  20.939  22.424  1.00  0.00    -0.475 OA
ATOM     19  C   UNL A   1      32.142  22.248  23.046  1.00  0.00     0.316 C 
BRANCH  10  20
ATOM     20  N   UNL A   1      32.890  18.561  26.646  1.00  0.00    -0.397 N 
ATOM     21  H   UNL A   1      32.286  19.059  27.242  1.00  0.00     0.156 HD
ATOM     22  H   UNL A   1      33.629  18.030  27.024  1.00  0.00     0.156 HD
ENDBRANCH  10  20
BRANCH  19  23
ATOM     23  C   UNL A   1      33.121  23.121  22.247  1.00  0.00     0.430 C 
ATOM     24  F   UNL A   1      32.980  22.923  20.913  1.00  0.00    -0.167 F 
ATOM     25  F   UNL A   1      32.911  24.442  22.461  1.00  0.00    -0.167 F 
ATOM     26  F   UNL A   1      34.410  22.862  22.560  1.00  0.00    -0.167 F 
ENDBRANCH  19  23
ENDBRANCH   7   9
ENDBRANCH   6   7
ENDBRANCH   5   6
ENDBRANCH   4   5
ENDBRANCH   3   4
ENDBRANCH   2   3
ENDBRANCH   1   2
BRANCH   1  27
ATOM     27  O   UNL A   1      39.593  21.316  26.090  1.00  0.00    -0.376 OA
BRANCH  27  28
ATOM     28  C   UNL A   1      40.023  22.335  26.987  1.00  0.00     0.202 C 
BRANCH  28  29
ATOM     29  C   UNL A   1      41.009  23.405  26.495  1.00  0.00     0.261 C 
BRANCH  29  30
ATOM     30  O   UNL A   1      40.395  24.657  26.146  1.00  0.00    -0.460 OA
BRANCH  30  31
ATOM     31  C   UNL A   1      41.232  25.724  26.110  1.00  0.00     0.338 C 
ATOM     32  O   UNL A   1      41.753  26.223  25.126  1.00  0.00    -0.246 OA
BRANCH  31  33
ATOM     33  C   UNL A   1      41.298  26.340  27.447  1.00  0.00     0.060 A 
ATOM     34  C   UNL A   1      40.244  26.107  28.342  1.00  0.00     0.016 A 
ATOM     35  C   UNL A   1      42.343  27.200  27.786  1.00  0.00     0.016 A 
ATOM     36  C   UNL A   1      40.226  26.745  29.580  1.00  0.00     0.010 A 
ATOM     37  C   UNL A   1      42.303  27.872  29.011  1.00  0.00     0.010 A 
ATOM     38  C   UNL A   1      41.230  27.669  29.898  1.00  0.00    -0.014 A 
BRANCH  38  39
ATOM     39  C   UNL A   1      41.033  28.586  31.043  1.00  0.00     0.031 A 
ATOM     40  C   UNL A   1      39.978  29.652  30.921  1.00  0.00     0.074 A 
ATOM     41  C   UNL A   1      41.759  28.470  32.167  1.00  0.00     0.049 A 
ATOM     42  N   UNL A   1      39.647  30.591  31.767  1.00  0.00    -0.248 NA
ATOM     43  C   UNL A   1      39.186  29.652  29.679  1.00  0.00     0.031 C 
ATOM     44  C   UNL A   1      42.769  27.445  32.421  1.00  0.00     0.029 A 
ATOM     45  N   UNL A   1      41.757  29.232  33.308  1.00  0.00    -0.354 N 
ATOM     46  C   UNL A   1      38.602  31.284  31.170  1.00  0.00     0.074 A 
ATOM     47  C   UNL A   1      38.369  30.675  29.878  1.00  0.00     0.031 C 
ATOM     48  C   UNL A   1      43.305  27.655  33.637  1.00  0.00     0.029 A 
ATOM     49  C   UNL A   1      42.696  28.843  34.233  1.00  0.00     0.049 A 
ATOM     50  H   UNL A   1      41.141  29.986  33.451  1.00  0.00     0.167 HD
ATOM     51  C   UNL A   1      37.896  32.331  31.654  1.00  0.00     0.037 A 
ATOM     52  C   UNL A   1      43.037  29.402  35.412  1.00  0.00     0.037 A 
ATOM     53  C   UNL A   1      38.155  32.957  32.922  1.00  0.00     0.049 A 
ATOM     54  C   UNL A   1      42.315  30.639  35.881  1.00  0.00     0.074 A 
ATOM     55  C   UNL A   1      37.505  34.035  33.497  1.00  0.00     0.029 A 
ATOM     56  N   UNL A   1      39.154  32.574  33.804  1.00  0.00    -0.354 N 
ATOM     57  N   UNL A   1      41.321  31.282  35.312  1.00  0.00    -0.248 NA
ATOM     58  C   UNL A   1      42.763  31.233  37.149  1.00  0.00     0.031 C 
ATOM     59  C   UNL A   1      38.143  34.332  34.707  1.00  0.00     0.029 A 
ATOM     60  C   UNL A   1      39.158  33.409  34.907  1.00  0.00     0.049 A 
ATOM     61  H   UNL A   1      39.770  31.818  33.665  1.00  0.00     0.167 HD
ATOM     62  C   UNL A   1      41.015  32.342  36.160  1.00  0.00     0.074 A 
ATOM     63  C   UNL A   1      41.919  32.247  37.287  1.00  0.00     0.031 C 
ATOM     64  C   UNL A   1      40.069  33.304  36.020  1.00  0.00     0.037 A 
BRANCH  51  65
ATOM     65  C   UNL A   1      36.795  32.878  30.794  1.00  0.00     0.058 A 
ATOM     66  C   UNL A   1      35.476  32.413  30.908  1.00  0.00     0.135 A 
ATOM     67  C   UNL A   1      37.055  33.896  29.863  1.00  0.00     0.135 A 
ATOM     68  F   UNL A   1      35.180  31.422  31.766  1.00  0.00    -0.206 F 
ATOM     69  C   UNL A   1      34.453  32.928  30.119  1.00  0.00     0.059 A 
ATOM     70  C   UNL A   1      36.043  34.442  29.078  1.00  0.00     0.059 A 
ATOM     71  F   UNL A   1      38.302  34.368  29.707  1.00  0.00    -0.206 F 
ATOM     72  C   UNL A   1      34.747  33.944  29.208  1.00  0.00     0.060 A 
BRANCH  72  73
ATOM     73  S   UNL A   1      33.405  34.608  28.200  1.00  0.00     0.124 S 
ATOM     74  O   UNL A   1      32.804  35.574  29.116  1.00  0.00    -0.237 OA
ATOM     75  O   UNL A   1      34.122  35.174  27.062  1.00  0.00    -0.237 OA
ATOM     76  O   UNL A   1      32.588  33.435  27.903  1.00  0.00    -0.744 OA
ENDBRANCH  72  73
ENDBRANCH  51  65
BRANCH  52  77
ATOM     77  C   UNL A   1      44.130  28.807  36.228  1.00  0.00     0.058 A 
ATOM     78  C   UNL A   1      45.431  29.327  36.182  1.00  0.00     0.135 A 
ATOM     79  C   UNL A   1      43.894  27.710  37.071  1.00  0.00     0.135 A 
ATOM     80  F   UNL A   1      45.710  30.366  35.378  1.00  0.00    -0.206 F 
ATOM     81  C   UNL A   1      46.462  28.779  36.938  1.00  0.00     0.059 A 
ATOM     82  C   UNL A   1      44.903  27.159  37.854  1.00  0.00     0.059 A 
ATOM     83  F   UNL A   1      42.665  27.177  37.153  1.00  0.00    -0.206 F 
ATOM     84  C   UNL A   1      46.186  27.698  37.776  1.00  0.00     0.060 A 
BRANCH  84  85
ATOM     85  S   UNL A   1      47.520  27.034  38.798  1.00  0.00     0.124 S 
ATOM     86  O   UNL A   1      48.305  28.231  39.072  1.00  0.00    -0.237 OA
ATOM     87  O   UNL A   1      46.787  26.476  39.931  1.00  0.00    -0.237 OA
ATOM     88  O   UNL A   1      48.153  26.050  37.926  1.00  0.00    -0.744 OA
ENDBRANCH  84  85
ENDBRANCH  52  77
BRANCH  64  89
ATOM     89  C   UNL A   1      39.949  34.331  37.111  1.00  0.00     0.058 A 
ATOM     90  C   UNL A   1      40.573  35.584  37.013  1.00  0.00     0.135 A 
ATOM     91  C   UNL A   1      39.138  34.089  38.233  1.00  0.00     0.135 A 
ATOM     92  F   UNL A   1      41.362  35.866  35.964  1.00  0.00    -0.206 F 
ATOM     93  C   UNL A   1      40.409  36.557  37.994  1.00  0.00     0.059 A 
ATOM     94  C   UNL A   1      38.938  35.055  39.213  1.00  0.00     0.059 A 
ATOM     95  F   UNL A   1      38.508  32.911  38.369  1.00  0.00    -0.206 F 
ATOM     96  C   UNL A   1      39.585  36.285  39.088  1.00  0.00     0.060 A 
BRANCH  96  97
ATOM     97  S   UNL A   1      39.347  37.573  40.332  1.00  0.00     0.124 S 
ATOM     98  O   UNL A   1      40.665  38.198  40.364  1.00  0.00    -0.237 OA
ATOM     99  O   UNL A   1      38.278  38.376  39.747  1.00  0.00    -0.237 OA
ATOM    100  O   UNL A   1      38.977  36.825  41.530  1.00  0.00    -0.744 OA
ENDBRANCH  96  97
ENDBRANCH  64  89
ENDBRANCH  38  39
ENDBRANCH  31  33
ENDBRANCH  30  31
ENDBRANCH  29  30
ENDBRANCH  28  29
ENDBRANCH  27  28
ENDBRANCH   1  27
TORSDOF 22
ENDMDL
MODEL 3
REMARK VINA RESULT:     -10.5      7.006     12.244
REMARK SMILES Nc1c(Cl)ccc2c1C=C(C(=O)OCCOCCOCCOC(=O)c1ccc(-c3c4nc(c(-c5c(F)cc(S(=O)(=O)[O-])cc5F)c5ccc([nH]5)c(-c5c(F)cc(S(=O)(=O)[O-])cc5F)c5nc(c(-c6c(F)cc(S(=O)(=O)[O-])cc6F)c6ccc3[nH]6)C=C5)C=C4)cc1)[C@@H](C(F)(F)F)O2
REMARK SMILES IDX 18 1 17 2 16 3 15 4 14 5 13 6 11 7 12 8 10 9 2 10 3 11 8 12
REMARK SMILES IDX 4 13 5 14 7 15 9 16 6 17 96 18 91 19 1 20 92 23 93 24 94 25
REMARK SMILES IDX 95 26 19 27 20 28 21 29 22 30 23 31 24 32 25 33 26 34 90 35
REMARK SMILES IDX 27 36 89 37 28 38 29 39 30 40 83 41 31 42 88 43 82 44 84 45
REMARK SMILES IDX 32 46 87 47 81 48 80 49 33 51 67 52 46 53 66 54 47 55 50 56
REMARK SMILES IDX 65 57 85 58 48 59 49 60 64 62 86 63 51 64 34 65 35 66 44 67
REMARK SMILES IDX 36 68 37 69 43 70 45 71 38 72 39 73 40 74 41 75 42 76 68 77
REMARK SMILES IDX 69 78 78 79 70 80 71 81 77 82 79 83 72 84 73 85 74 86 75 87
REMARK SMILES IDX 76 88 52 89 53 90 62 91 54 92 55 93 61 94 63 95 56 96 57 97
REMARK SMILES IDX 58 98 59 99 60 100
REMARK H PARENT 1 21 1 22 84 50 50 61
REMARK Flexibility Score: inf
ROOT
ATOM      1  C   UNL A   1      33.315  31.130  27.620  1.00  0.00     0.188 C 
ENDROOT
BRANCH   1   2
ATOM      2  C   UNL A   1      32.784  30.296  26.434  1.00  0.00     0.188 C 
BRANCH   2   3
ATOM      3  O   UNL A   1      33.721  29.423  25.853  1.00  0.00    -0.376 OA
BRANCH   3   4
ATOM      4  C   UNL A   1      33.583  28.951  24.528  1.00  0.00     0.202 C 
BRANCH   4   5
ATOM      5  C   UNL A   1      33.862  27.516  24.047  1.00  0.00     0.261 C 
BRANCH   5   6
ATOM      6  O   UNL A   1      33.064  26.465  24.592  1.00  0.00    -0.460 OA
BRANCH   6   7
ATOM      7  C   UNL A   1      32.294  25.786  23.711  1.00  0.00     0.338 C 
ATOM      8  O   UNL A   1      32.568  24.732  23.162  1.00  0.00    -0.246 OA
BRANCH   7   9
ATOM      9  C   UNL A   1      30.991  26.470  23.594  1.00  0.00     0.088 C 
ATOM     10  C   UNL A   1      29.583  29.527  22.019  1.00  0.00     0.061 A 
ATOM     11  C   UNL A   1      28.370  30.245  22.110  1.00  0.00     0.064 A 
ATOM     12  C   UNL A   1      29.697  28.321  22.751  1.00  0.00     0.042 A 
ATOM     13  Cl  UNL A   1      28.191  31.783  21.335  1.00  0.00    -0.082 Cl
ATOM     14  C   UNL A   1      27.275  29.744  22.817  1.00  0.00     0.026 A 
ATOM     15  C   UNL A   1      28.580  27.808  23.429  1.00  0.00     0.130 A 
ATOM     16  C   UNL A   1      30.964  27.602  22.879  1.00  0.00     0.029 C 
ATOM     17  C   UNL A   1      27.375  28.512  23.455  1.00  0.00     0.049 A 
ATOM     18  O   UNL A   1      28.561  26.624  24.110  1.00  0.00    -0.475 OA
ATOM     19  C   UNL A   1      29.785  25.859  24.248  1.00  0.00     0.316 C 
BRANCH  10  20
ATOM     20  N   UNL A   1      30.663  30.073  21.319  1.00  0.00    -0.397 N 
ATOM     21  H   UNL A   1      30.813  31.045  21.326  1.00  0.00     0.156 HD
ATOM     22  H   UNL A   1      31.273  29.484  20.817  1.00  0.00     0.156 HD
ENDBRANCH  10  20
BRANCH  19  23
ATOM     23  C   UNL A   1      30.004  25.579  25.742  1.00  0.00     0.430 C 
ATOM     24  F   UNL A   1      30.552  26.651  26.367  1.00  0.00    -0.167 F 
ATOM     25  F   UNL A   1      28.840  25.317  26.384  1.00  0.00    -0.167 F 
ATOM     26  F   UNL A   1      30.826  24.527  25.951  1.00  0.00    -0.167 F 
ENDBRANCH  19  23
ENDBRANCH   7   9
ENDBRANCH   6   7
ENDBRANCH   5   6
ENDBRANCH   4   5
ENDBRANCH   3   4
ENDBRANCH   2   3
ENDBRANCH   1   2
BRANCH   1  27
ATOM     27  O   UNL A   1      34.673  31.551  27.634  1.00  0.00    -0.376 OA
BRANCH  27  28
ATOM     28  C   UNL A   1      35.069  32.538  28.582  1.00  0.00     0.202 C 
BRANCH  28  29
ATOM     29  C   UNL A   1      34.845  32.279  30.078  1.00  0.00     0.261 C 
BRANCH  29  30
ATOM     30  O   UNL A   1      35.848  31.451  30.691  1.00  0.00    -0.460 OA
BRANCH  30  31
ATOM     31  C   UNL A   1      37.035  32.061  30.934  1.00  0.00     0.338 C 
ATOM     32  O   UNL A   1      37.227  33.073  31.586  1.00  0.00    -0.246 OA
BRANCH  31  33
ATOM     33  C   UNL A   1      38.132  31.212  30.437  1.00  0.00     0.060 A 
ATOM     34  C   UNL A   1      39.036  30.676  31.366  1.00  0.00     0.016 A 
ATOM     35  C   UNL A   1      38.315  31.011  29.068  1.00  0.00     0.016 A 
ATOM     36  C   UNL A   1      40.137  29.946  30.926  1.00  0.00     0.010 A 
ATOM     37  C   UNL A   1      39.443  30.313  28.626  1.00  0.00     0.010 A 
ATOM     38  C   UNL A   1      40.372  29.805  29.553  1.00  0.00    -0.014 A 
BRANCH  38  39
ATOM     39  C   UNL A   1      41.697  29.334  29.089  1.00  0.00     0.031 A 
ATOM     40  C   UNL A   1      42.818  30.335  29.022  1.00  0.00     0.074 A 
ATOM     41  C   UNL A   1      41.907  28.051  28.751  1.00  0.00     0.049 A 
ATOM     42  N   UNL A   1      44.049  30.175  28.615  1.00  0.00    -0.248 NA
ATOM     43  C   UNL A   1      42.508  31.700  29.483  1.00  0.00     0.031 C 
ATOM     44  C   UNL A   1      40.913  26.982  28.827  1.00  0.00     0.029 A 
ATOM     45  N   UNL A   1      43.032  27.433  28.267  1.00  0.00    -0.354 N 
ATOM     46  C   UNL A   1      44.665  31.409  28.784  1.00  0.00     0.074 A 
ATOM     47  C   UNL A   1      43.666  32.317  29.305  1.00  0.00     0.031 C 
ATOM     48  C   UNL A   1      41.470  25.840  28.386  1.00  0.00     0.029 A 
ATOM     49  C   UNL A   1      42.847  26.105  27.971  1.00  0.00     0.049 A 
ATOM     50  H   UNL A   1      43.892  27.898  28.146  1.00  0.00     0.167 HD
ATOM     51  C   UNL A   1      45.948  31.755  28.531  1.00  0.00     0.037 A 
ATOM     52  C   UNL A   1      43.689  25.216  27.405  1.00  0.00     0.037 A 
ATOM     53  C   UNL A   1      46.927  30.860  27.977  1.00  0.00     0.049 A 
ATOM     54  C   UNL A   1      45.080  25.654  27.023  1.00  0.00     0.074 A 
ATOM     55  C   UNL A   1      48.251  31.119  27.669  1.00  0.00     0.029 A 
ATOM     56  N   UNL A   1      46.686  29.538  27.632  1.00  0.00    -0.354 N 
ATOM     57  N   UNL A   1      45.655  26.821  27.194  1.00  0.00    -0.248 NA
ATOM     58  C   UNL A   1      45.937  24.656  26.364  1.00  0.00     0.031 C 
ATOM     59  C   UNL A   1      48.797  29.966  27.094  1.00  0.00     0.029 A 
ATOM     60  C   UNL A   1      47.827  28.975  27.089  1.00  0.00     0.049 A 
ATOM     61  H   UNL A   1      45.828  29.071  27.756  1.00  0.00     0.167 HD
ATOM     62  C   UNL A   1      46.943  26.693  26.683  1.00  0.00     0.074 A 
ATOM     63  C   UNL A   1      47.068  25.331  26.208  1.00  0.00     0.031 C 
ATOM     64  C   UNL A   1      47.933  27.618  26.615  1.00  0.00     0.037 A 
BRANCH  51  65
ATOM     65  C   UNL A   1      46.352  33.170  28.827  1.00  0.00     0.058 A 
ATOM     66  C   UNL A   1      46.220  34.184  27.866  1.00  0.00     0.135 A 
ATOM     67  C   UNL A   1      46.853  33.520  30.089  1.00  0.00     0.135 A 
ATOM     68  F   UNL A   1      45.770  33.896  26.634  1.00  0.00    -0.206 F 
ATOM     69  C   UNL A   1      46.584  35.498  28.144  1.00  0.00     0.059 A 
ATOM     70  C   UNL A   1      47.202  34.832  30.397  1.00  0.00     0.059 A 
ATOM     71  F   UNL A   1      47.009  32.585  31.039  1.00  0.00    -0.206 F 
ATOM     72  C   UNL A   1      47.073  35.812  29.413  1.00  0.00     0.060 A 
BRANCH  72  73
ATOM     73  S   UNL A   1      47.529  37.524  29.759  1.00  0.00     0.124 S 
ATOM     74  O   UNL A   1      48.965  37.400  29.992  1.00  0.00    -0.237 OA
ATOM     75  O   UNL A   1      47.142  38.203  28.527  1.00  0.00    -0.237 OA
ATOM     76  O   UNL A   1      46.731  37.859  30.934  1.00  0.00    -0.744 OA
ENDBRANCH  72  73
ENDBRANCH  51  65
BRANCH  52  77
ATOM     77  C   UNL A   1      43.235  23.823  27.146  1.00  0.00     0.058 A 
ATOM     78  C   UNL A   1      43.187  22.875  28.179  1.00  0.00     0.135 A 
ATOM     79  C   UNL A   1      42.839  23.413  25.864  1.00  0.00     0.135 A 
ATOM     80  F   UNL A   1      43.572  23.215  29.419  1.00  0.00    -0.206 F 
ATOM     81  C   UNL A   1      42.766  21.569  27.950  1.00  0.00     0.059 A 
ATOM     82  C   UNL A   1      42.393  22.119  25.615  1.00  0.00     0.059 A 
ATOM     83  F   UNL A   1      42.864  24.282  24.842  1.00  0.00    -0.206 F 
ATOM     84  C   UNL A   1      42.365  21.202  26.664  1.00  0.00     0.060 A 
BRANCH  84  85
ATOM     85  S   UNL A   1      41.764  19.520  26.394  1.00  0.00     0.124 S 
ATOM     86  O   UNL A   1      42.229  18.843  27.598  1.00  0.00    -0.237 OA
ATOM     87  O   UNL A   1      40.323  19.725  26.290  1.00  0.00    -0.237 OA
ATOM     88  O   UNL A   1      42.424  19.123  25.153  1.00  0.00    -0.744 OA
ENDBRANCH  84  85
ENDBRANCH  52  77
BRANCH  64  89
ATOM     89  C   UNL A   1      49.246  27.195  26.017  1.00  0.00     0.058 A 
ATOM     90  C   UNL A   1      49.497  27.312  24.642  1.00  0.00     0.135 A 
ATOM     91  C   UNL A   1      50.291  26.739  26.838  1.00  0.00     0.135 A 
ATOM     92  F   UNL A   1      48.532  27.738  23.812  1.00  0.00    -0.206 F 
ATOM     93  C   UNL A   1      50.735  26.979  24.098  1.00  0.00     0.059 A 
ATOM     94  C   UNL A   1      51.543  26.426  26.321  1.00  0.00     0.059 A 
ATOM     95  F   UNL A   1      50.107  26.621  28.163  1.00  0.00    -0.206 F 
ATOM     96  C   UNL A   1      51.753  26.542  24.947  1.00  0.00     0.060 A 
BRANCH  96  97
ATOM     97  S   UNL A   1      53.367  26.156  24.233  1.00  0.00     0.124 S 
ATOM     98  O   UNL A   1      53.764  24.991  25.017  1.00  0.00    -0.237 OA
ATOM     99  O   UNL A   1      53.035  25.898  22.836  1.00  0.00    -0.237 OA
ATOM    100  O   UNL A   1      54.144  27.369  24.473  1.00  0.00    -0.744 OA
ENDBRANCH  96  97
ENDBRANCH  64  89
ENDBRANCH  38  39
ENDBRANCH  31  33
ENDBRANCH  30  31
ENDBRANCH  29  30
ENDBRANCH  28  29
ENDBRANCH  27  28
ENDBRANCH   1  27
TORSDOF 22
ENDMDL
