MODEL 1
REMARK VINA RESULT:      -9.9      0.000      0.000
REMARK SMILES C[C@H](NC(=O)NCCc1ccccc1F)C(=O)OCCOCCOCCOC(=O)c1ccc(-c2c3nc(c(-c4c(F)cc(S(=O)(=O)[O-])cc4F)c4ccc([nH]4)c(-c4c(F)cc(S(=O)(=O)[O-])cc4F)c4nc(c(-c5c(F)cc(S(=O)(=O)[O-])cc5F)c5ccc2[nH]5)C=C4)C=C3)cc1
REMARK SMILES IDX 22 1 21 2 20 3 19 4 18 5 16 6 17 7 2 8 1 9 3 10 4 11 5 13
REMARK SMILES IDX 6 14 7 16 8 17 9 18 10 19 14 20 11 21 13 22 15 23 12 24
REMARK SMILES IDX 23 25 24 26 25 27 26 28 27 29 28 30 29 31 30 32 31 33 95 34
REMARK SMILES IDX 32 35 94 36 33 37 34 38 35 39 88 40 36 41 93 42 87 43 89 44
REMARK SMILES IDX 37 45 92 46 86 47 85 48 38 50 72 51 51 52 71 53 52 54 55 55
REMARK SMILES IDX 70 56 90 57 53 58 54 59 69 61 91 62 56 63 39 64 40 65 49 66
REMARK SMILES IDX 41 67 42 68 48 69 50 70 43 71 44 72 45 73 46 74 47 75 73 76
REMARK SMILES IDX 74 77 83 78 75 79 76 80 82 81 84 82 77 83 78 84 79 85 80 86
REMARK SMILES IDX 81 87 57 88 58 89 67 90 59 91 60 92 66 93 68 94 61 95 62 96
REMARK SMILES IDX 63 97 64 98 65 99
REMARK H PARENT 3 12 6 15 89 49 55 60
REMARK Flexibility Score: inf
ROOT
ATOM      1  C   UNL A   1      34.917  31.932  27.977  1.00  0.00     0.188 C 
ENDROOT
BRANCH   1   2
ATOM      2  O   UNL A   1      33.644  31.502  27.504  1.00  0.00    -0.376 OA
BRANCH   2   3
ATOM      3  C   UNL A   1      33.536  30.270  26.806  1.00  0.00     0.202 C 
BRANCH   3   4
ATOM      4  C   UNL A   1      34.435  29.102  27.241  1.00  0.00     0.261 C 
BRANCH   4   5
ATOM      5  O   UNL A   1      34.022  27.813  26.754  1.00  0.00    -0.462 OA
BRANCH   5   6
ATOM      6  C   UNL A   1      33.038  27.789  25.813  1.00  0.00     0.328 C 
ATOM      7  O   UNL A   1      33.194  28.130  24.647  1.00  0.00    -0.250 OA
BRANCH   6   8
ATOM      8  C   UNL A   1      31.705  27.196  26.346  1.00  0.00     0.190 C 
ATOM      9  C   UNL A   1      31.033  28.072  27.396  1.00  0.00     0.043 C 
BRANCH   8  10
ATOM     10  N   UNL A   1      31.575  25.766  26.647  1.00  0.00    -0.325 N 
ATOM     11  C   UNL A   1      30.955  24.713  26.114  1.00  0.00     0.315 C 
ATOM     12  H   UNL A   1      32.079  25.519  27.457  1.00  0.00     0.166 HD
ATOM     13  O   UNL A   1      31.061  23.634  26.701  1.00  0.00    -0.249 OA
ATOM     14  N   UNL A   1      30.213  24.759  25.008  1.00  0.00    -0.338 N 
ATOM     15  H   UNL A   1      29.631  23.972  24.898  1.00  0.00     0.165 HD
BRANCH  14  16
ATOM     16  C   UNL A   1      30.085  25.721  23.939  1.00  0.00     0.122 C 
BRANCH  16  17
ATOM     17  C   UNL A   1      28.750  26.467  24.009  1.00  0.00     0.060 C 
BRANCH  17  18
ATOM     18  C   UNL A   1      28.780  27.800  23.311  1.00  0.00    -0.010 A 
ATOM     19  C   UNL A   1      29.976  28.256  22.740  1.00  0.00     0.007 A 
ATOM     20  C   UNL A   1      27.643  28.607  23.208  1.00  0.00     0.126 A 
ATOM     21  C   UNL A   1      30.031  29.503  22.117  1.00  0.00     0.000 A 
ATOM     22  C   UNL A   1      27.692  29.852  22.593  1.00  0.00     0.039 A 
ATOM     23  F   UNL A   1      26.471  28.203  23.717  1.00  0.00    -0.207 F 
ATOM     24  C   UNL A   1      28.892  30.305  22.050  1.00  0.00     0.003 A 
ENDBRANCH  17  18
ENDBRANCH  16  17
ENDBRANCH  14  16
ENDBRANCH   8  10
ENDBRANCH   6   8
ENDBRANCH   5   6
ENDBRANCH   4   5
ENDBRANCH   3   4
ENDBRANCH   2   3
ENDBRANCH   1   2
BRANCH   1  25
ATOM     25  C   UNL A   1      35.147  33.417  28.320  1.00  0.00     0.188 C 
BRANCH  25  26
ATOM     26  O   UNL A   1      36.037  33.631  29.396  1.00  0.00    -0.376 OA
BRANCH  26  27
ATOM     27  C   UNL A   1      35.429  33.798  30.663  1.00  0.00     0.202 C 
BRANCH  27  28
ATOM     28  C   UNL A   1      35.059  32.488  31.375  1.00  0.00     0.261 C 
BRANCH  28  29
ATOM     29  O   UNL A   1      36.044  31.434  31.323  1.00  0.00    -0.460 OA
BRANCH  29  30
ATOM     30  C   UNL A   1      37.188  31.617  32.020  1.00  0.00     0.338 C 
ATOM     31  O   UNL A   1      37.283  32.103  33.139  1.00  0.00    -0.246 OA
BRANCH  30  32
ATOM     32  C   UNL A   1      38.300  30.937  31.309  1.00  0.00     0.060 A 
ATOM     33  C   UNL A   1      39.254  30.229  32.055  1.00  0.00     0.016 A 
ATOM     34  C   UNL A   1      38.418  31.002  29.918  1.00  0.00     0.016 A 
ATOM     35  C   UNL A   1      40.344  29.626  31.418  1.00  0.00     0.010 A 
ATOM     36  C   UNL A   1      39.522  30.411  29.283  1.00  0.00     0.010 A 
ATOM     37  C   UNL A   1      40.513  29.750  30.030  1.00  0.00    -0.014 A 
BRANCH  37  38
ATOM     38  C   UNL A   1      41.797  29.326  29.400  1.00  0.00     0.031 A 
ATOM     39  C   UNL A   1      42.934  30.316  29.320  1.00  0.00     0.074 A 
ATOM     40  C   UNL A   1      41.981  28.067  28.956  1.00  0.00     0.049 A 
ATOM     41  N   UNL A   1      44.139  30.160  28.835  1.00  0.00    -0.248 NA
ATOM     42  C   UNL A   1      42.678  31.661  29.862  1.00  0.00     0.031 C 
ATOM     43  C   UNL A   1      40.982  27.000  29.000  1.00  0.00     0.029 A 
ATOM     44  N   UNL A   1      43.080  27.469  28.384  1.00  0.00    -0.354 N 
ATOM     45  C   UNL A   1      44.786  31.378  29.018  1.00  0.00     0.074 A 
ATOM     46  C   UNL A   1      43.827  32.277  29.622  1.00  0.00     0.031 C 
ATOM     47  C   UNL A   1      41.517  25.878  28.487  1.00  0.00     0.029 A 
ATOM     48  C   UNL A   1      42.886  26.148  28.048  1.00  0.00     0.049 A 
ATOM     49  H   UNL A   1      43.929  27.943  28.229  1.00  0.00     0.167 HD
ATOM     50  C   UNL A   1      46.066  31.714  28.727  1.00  0.00     0.037 A 
ATOM     51  C   UNL A   1      43.710  25.262  27.450  1.00  0.00     0.037 A 
ATOM     52  C   UNL A   1      47.026  30.819  28.132  1.00  0.00     0.049 A 
ATOM     53  C   UNL A   1      45.108  25.686  27.070  1.00  0.00     0.074 A 
ATOM     54  C   UNL A   1      48.352  31.070  27.818  1.00  0.00     0.029 A 
ATOM     55  N   UNL A   1      46.771  29.509  27.758  1.00  0.00    -0.354 N 
ATOM     56  N   UNL A   1      45.709  26.835  27.272  1.00  0.00    -0.248 NA
ATOM     57  C   UNL A   1      45.943  24.689  26.380  1.00  0.00     0.031 C 
ATOM     58  C   UNL A   1      48.882  29.932  27.206  1.00  0.00     0.029 A 
ATOM     59  C   UNL A   1      47.906  28.950  27.191  1.00  0.00     0.049 A 
ATOM     60  H   UNL A   1      45.912  29.044  27.878  1.00  0.00     0.167 HD
ATOM     61  C   UNL A   1      46.994  26.690  26.755  1.00  0.00     0.074 A 
ATOM     62  C   UNL A   1      47.094  25.335  26.257  1.00  0.00     0.031 C 
ATOM     63  C   UNL A   1      47.998  27.601  26.691  1.00  0.00     0.037 A 
BRANCH  50  64
ATOM     64  C   UNL A   1      46.525  33.112  29.046  1.00  0.00     0.058 A 
ATOM     65  C   UNL A   1      46.426  34.131  28.085  1.00  0.00     0.135 A 
ATOM     66  C   UNL A   1      47.165  33.414  30.258  1.00  0.00     0.135 A 
ATOM     67  F   UNL A   1      45.817  33.898  26.912  1.00  0.00    -0.206 F 
ATOM     68  C   UNL A   1      46.977  35.389  28.300  1.00  0.00     0.059 A 
ATOM     69  C   UNL A   1      47.700  34.676  30.505  1.00  0.00     0.059 A 
ATOM     70  F   UNL A   1      47.266  32.484  31.220  1.00  0.00    -0.206 F 
ATOM     71  C   UNL A   1      47.620  35.651  29.511  1.00  0.00     0.060 A 
BRANCH  71  72
ATOM     72  S   UNL A   1      48.346  37.284  29.763  1.00  0.00     0.124 S 
ATOM     73  O   UNL A   1      47.296  37.970  30.507  1.00  0.00    -0.237 OA
ATOM     74  O   UNL A   1      49.557  36.966  30.514  1.00  0.00    -0.237 OA
ATOM     75  O   UNL A   1      48.572  37.767  28.403  1.00  0.00    -0.744 OA
ENDBRANCH  71  72
ENDBRANCH  50  64
BRANCH  51  76
ATOM     76  C   UNL A   1      43.243  23.874  27.167  1.00  0.00     0.058 A 
ATOM     77  C   UNL A   1      43.212  22.895  28.172  1.00  0.00     0.135 A 
ATOM     78  C   UNL A   1      42.797  23.505  25.888  1.00  0.00     0.135 A 
ATOM     79  F   UNL A   1      43.624  23.192  29.414  1.00  0.00    -0.206 F 
ATOM     80  C   UNL A   1      42.780  21.598  27.916  1.00  0.00     0.059 A 
ATOM     81  C   UNL A   1      42.330  22.222  25.614  1.00  0.00     0.059 A 
ATOM     82  F   UNL A   1      42.785  24.410  24.896  1.00  0.00    -0.206 F 
ATOM     83  C   UNL A   1      42.341  21.271  26.633  1.00  0.00     0.060 A 
BRANCH  83  84
ATOM     84  S   UNL A   1      41.776  19.583  26.324  1.00  0.00     0.124 S 
ATOM     85  O   UNL A   1      42.165  18.916  27.563  1.00  0.00    -0.237 OA
ATOM     86  O   UNL A   1      40.343  19.771  26.125  1.00  0.00    -0.237 OA
ATOM     87  O   UNL A   1      42.526  19.187  25.137  1.00  0.00    -0.744 OA
ENDBRANCH  83  84
ENDBRANCH  51  76
BRANCH  63  88
ATOM     88  C   UNL A   1      49.301  27.165  26.070  1.00  0.00     0.058 A 
ATOM     89  C   UNL A   1      50.330  26.628  26.862  1.00  0.00     0.135 A 
ATOM     90  C   UNL A   1      49.549  27.315  24.696  1.00  0.00     0.135 A 
ATOM     91  F   UNL A   1      50.156  26.471  28.184  1.00  0.00    -0.206 F 
ATOM     92  C   UNL A   1      51.555  26.257  26.315  1.00  0.00     0.059 A 
ATOM     93  C   UNL A   1      50.754  26.921  24.122  1.00  0.00     0.059 A 
ATOM     94  F   UNL A   1      48.600  27.819  23.891  1.00  0.00    -0.206 F 
ATOM     95  C   UNL A   1      51.755  26.401  24.942  1.00  0.00     0.060 A 
BRANCH  95  96
ATOM     96  S   UNL A   1      53.328  25.858  24.240  1.00  0.00     0.124 S 
ATOM     97  O   UNL A   1      53.522  24.571  24.898  1.00  0.00    -0.237 OA
ATOM     98  O   UNL A   1      53.025  25.802  22.813  1.00  0.00    -0.237 OA
ATOM     99  O   UNL A   1      54.258  26.912  24.635  1.00  0.00    -0.744 OA
ENDBRANCH  95  96
ENDBRANCH  63  88
ENDBRANCH  37  38
ENDBRANCH  30  32
ENDBRANCH  29  30
ENDBRANCH  28  29
ENDBRANCH  27  28
ENDBRANCH  26  27
ENDBRANCH  25  26
ENDBRANCH   1  25
TORSDOF 24
ENDMDL
MODEL 2
REMARK VINA RESULT:      -9.8      3.303      9.572
REMARK SMILES C[C@H](NC(=O)NCCc1ccccc1F)C(=O)OCCOCCOCCOC(=O)c1ccc(-c2c3nc(c(-c4c(F)cc(S(=O)(=O)[O-])cc4F)c4ccc([nH]4)c(-c4c(F)cc(S(=O)(=O)[O-])cc4F)c4nc(c(-c5c(F)cc(S(=O)(=O)[O-])cc5F)c5ccc2[nH]5)C=C4)C=C3)cc1
REMARK SMILES IDX 22 1 21 2 20 3 19 4 18 5 16 6 17 7 2 8 1 9 3 10 4 11 5 13
REMARK SMILES IDX 6 14 7 16 8 17 9 18 10 19 14 20 11 21 13 22 15 23 12 24
REMARK SMILES IDX 23 25 24 26 25 27 26 28 27 29 28 30 29 31 30 32 31 33 95 34
REMARK SMILES IDX 32 35 94 36 33 37 34 38 35 39 88 40 36 41 93 42 87 43 89 44
REMARK SMILES IDX 37 45 92 46 86 47 85 48 38 50 72 51 51 52 71 53 52 54 55 55
REMARK SMILES IDX 70 56 90 57 53 58 54 59 69 61 91 62 56 63 39 64 40 65 49 66
REMARK SMILES IDX 41 67 42 68 48 69 50 70 43 71 44 72 45 73 46 74 47 75 73 76
REMARK SMILES IDX 74 77 83 78 75 79 76 80 82 81 84 82 77 83 78 84 79 85 80 86
REMARK SMILES IDX 81 87 57 88 58 89 67 90 59 91 60 92 66 93 68 94 61 95 62 96
REMARK SMILES IDX 63 97 64 98 65 99
REMARK H PARENT 3 12 6 15 89 49 55 60
REMARK Flexibility Score: inf
ROOT
ATOM      1  C   UNL A   1      33.546  24.341  26.076  1.00  0.00     0.188 C 
ENDROOT
BRANCH   1   2
ATOM      2  O   UNL A   1      32.177  24.164  26.432  1.00  0.00    -0.376 OA
BRANCH   2   3
ATOM      3  C   UNL A   1      31.365  23.279  25.675  1.00  0.00     0.202 C 
BRANCH   3   4
ATOM      4  C   UNL A   1      31.332  23.444  24.147  1.00  0.00     0.261 C 
BRANCH   4   5
ATOM      5  O   UNL A   1      30.475  24.497  23.675  1.00  0.00    -0.462 OA
BRANCH   5   6
ATOM      6  C   UNL A   1      31.058  25.692  23.384  1.00  0.00     0.328 C 
ATOM      7  O   UNL A   1      32.218  25.818  23.008  1.00  0.00    -0.250 OA
BRANCH   6   8
ATOM      8  C   UNL A   1      30.074  26.889  23.490  1.00  0.00     0.190 C 
ATOM      9  C   UNL A   1      28.661  26.474  23.880  1.00  0.00     0.043 C 
BRANCH   8  10
ATOM     10  N   UNL A   1      30.084  27.972  22.500  1.00  0.00    -0.325 N 
ATOM     11  C   UNL A   1      30.266  29.292  22.506  1.00  0.00     0.315 C 
ATOM     12  H   UNL A   1      29.909  27.633  21.592  1.00  0.00     0.166 HD
ATOM     13  O   UNL A   1      30.158  29.885  21.430  1.00  0.00    -0.249 OA
ATOM     14  N   UNL A   1      30.530  30.009  23.598  1.00  0.00    -0.338 N 
ATOM     15  H   UNL A   1      30.383  30.975  23.473  1.00  0.00     0.165 HD
BRANCH  14  16
ATOM     16  C   UNL A   1      30.987  29.664  24.924  1.00  0.00     0.122 C 
BRANCH  16  17
ATOM     17  C   UNL A   1      32.412  29.108  24.901  1.00  0.00     0.060 C 
BRANCH  17  18
ATOM     18  C   UNL A   1      33.260  29.607  26.042  1.00  0.00    -0.010 A 
ATOM     19  C   UNL A   1      33.009  30.872  26.589  1.00  0.00     0.007 A 
ATOM     20  C   UNL A   1      34.297  28.841  26.583  1.00  0.00     0.126 A 
ATOM     21  C   UNL A   1      33.804  31.364  27.625  1.00  0.00     0.000 A 
ATOM     22  C   UNL A   1      35.096  29.328  27.610  1.00  0.00     0.039 A 
ATOM     23  F   UNL A   1      34.560  27.616  26.108  1.00  0.00    -0.207 F 
ATOM     24  C   UNL A   1      34.852  30.597  28.130  1.00  0.00     0.003 A 
ENDBRANCH  17  18
ENDBRANCH  16  17
ENDBRANCH  14  16
ENDBRANCH   8  10
ENDBRANCH   6   8
ENDBRANCH   5   6
ENDBRANCH   4   5
ENDBRANCH   3   4
ENDBRANCH   2   3
ENDBRANCH   1   2
BRANCH   1  25
ATOM     25  C   UNL A   1      34.494  23.126  26.040  1.00  0.00     0.188 C 
BRANCH  25  26
ATOM     26  O   UNL A   1      35.030  22.848  24.763  1.00  0.00    -0.376 OA
BRANCH  26  27
ATOM     27  C   UNL A   1      35.723  21.621  24.649  1.00  0.00     0.202 C 
BRANCH  27  28
ATOM     28  C   UNL A   1      36.953  21.491  25.561  1.00  0.00     0.261 C 
BRANCH  28  29
ATOM     29  O   UNL A   1      37.964  22.511  25.415  1.00  0.00    -0.460 OA
BRANCH  29  30
ATOM     30  C   UNL A   1      39.041  22.441  26.231  1.00  0.00     0.338 C 
ATOM     31  O   UNL A   1      39.738  21.454  26.424  1.00  0.00    -0.246 OA
BRANCH  30  32
ATOM     32  C   UNL A   1      39.384  23.808  26.697  1.00  0.00     0.060 A 
ATOM     33  C   UNL A   1      39.999  24.698  25.805  1.00  0.00     0.016 A 
ATOM     34  C   UNL A   1      39.116  24.215  28.006  1.00  0.00     0.016 A 
ATOM     35  C   UNL A   1      40.385  25.974  26.231  1.00  0.00     0.010 A 
ATOM     36  C   UNL A   1      39.519  25.489  28.437  1.00  0.00     0.010 A 
ATOM     37  C   UNL A   1      40.189  26.365  27.564  1.00  0.00    -0.014 A 
BRANCH  37  38
ATOM     38  C   UNL A   1      40.826  27.617  28.069  1.00  0.00     0.031 A 
ATOM     39  C   UNL A   1      42.322  27.778  27.944  1.00  0.00     0.074 A 
ATOM     40  C   UNL A   1      40.091  28.625  28.578  1.00  0.00     0.049 A 
ATOM     41  N   UNL A   1      43.082  28.783  28.294  1.00  0.00    -0.248 NA
ATOM     42  C   UNL A   1      43.059  26.655  27.339  1.00  0.00     0.031 C 
ATOM     43  C   UNL A   1      38.636  28.619  28.728  1.00  0.00     0.029 A 
ATOM     44  N   UNL A   1      40.469  29.857  29.059  1.00  0.00    -0.354 N 
ATOM     45  C   UNL A   1      44.379  28.421  27.949  1.00  0.00     0.074 A 
ATOM     46  C   UNL A   1      44.311  27.085  27.397  1.00  0.00     0.031 C 
ATOM     47  C   UNL A   1      38.246  29.793  29.255  1.00  0.00     0.029 A 
ATOM     48  C   UNL A   1      39.420  30.626  29.510  1.00  0.00     0.049 A 
ATOM     49  H   UNL A   1      41.405  30.161  29.079  1.00  0.00     0.167 HD
ATOM     50  C   UNL A   1      45.523  29.139  28.063  1.00  0.00     0.037 A 
ATOM     51  C   UNL A   1      39.407  31.855  30.070  1.00  0.00     0.037 A 
ATOM     52  C   UNL A   1      45.595  30.473  28.605  1.00  0.00     0.049 A 
ATOM     53  C   UNL A   1      40.705  32.603  30.252  1.00  0.00     0.074 A 
ATOM     54  C   UNL A   1      46.709  31.283  28.742  1.00  0.00     0.029 A 
ATOM     55  N   UNL A   1      44.518  31.191  29.100  1.00  0.00    -0.354 N 
ATOM     56  N   UNL A   1      41.920  32.253  29.899  1.00  0.00    -0.248 NA
ATOM     57  C   UNL A   1      40.630  33.918  30.909  1.00  0.00     0.031 C 
ATOM     58  C   UNL A   1      46.317  32.468  29.369  1.00  0.00     0.029 A 
ATOM     59  C   UNL A   1      44.948  32.423  29.569  1.00  0.00     0.049 A 
ATOM     60  H   UNL A   1      43.586  30.875  29.115  1.00  0.00     0.167 HD
ATOM     61  C   UNL A   1      42.746  33.311  30.271  1.00  0.00     0.074 A 
ATOM     62  C   UNL A   1      41.891  34.324  30.850  1.00  0.00     0.031 C 
ATOM     63  C   UNL A   1      44.093  33.428  30.151  1.00  0.00     0.037 A 
BRANCH  50  64
ATOM     64  C   UNL A   1      46.808  28.512  27.593  1.00  0.00     0.058 A 
ATOM     65  C   UNL A   1      47.646  27.840  28.497  1.00  0.00     0.135 A 
ATOM     66  C   UNL A   1      47.262  28.673  26.274  1.00  0.00     0.135 A 
ATOM     67  F   UNL A   1      47.257  27.651  29.768  1.00  0.00    -0.206 F 
ATOM     68  C   UNL A   1      48.904  27.383  28.121  1.00  0.00     0.059 A 
ATOM     69  C   UNL A   1      48.508  28.199  25.869  1.00  0.00     0.059 A 
ATOM     70  F   UNL A   1      46.491  29.287  25.363  1.00  0.00    -0.206 F 
ATOM     71  C   UNL A   1      49.330  27.574  26.805  1.00  0.00     0.060 A 
BRANCH  71  72
ATOM     72  S   UNL A   1      50.975  26.992  26.342  1.00  0.00     0.124 S 
ATOM     73  O   UNL A   1      51.287  27.844  25.201  1.00  0.00    -0.237 OA
ATOM     74  O   UNL A   1      51.742  27.248  27.558  1.00  0.00    -0.237 OA
ATOM     75  O   UNL A   1      50.760  25.581  26.033  1.00  0.00    -0.744 OA
ENDBRANCH  71  72
ENDBRANCH  50  64
BRANCH  51  76
ATOM     76  C   UNL A   1      38.119  32.468  30.505  1.00  0.00     0.058 A 
ATOM     77  C   UNL A   1      37.626  32.282  31.807  1.00  0.00     0.135 A 
ATOM     78  C   UNL A   1      37.366  33.272  29.635  1.00  0.00     0.135 A 
ATOM     79  F   UNL A   1      38.305  31.525  32.682  1.00  0.00    -0.206 F 
ATOM     80  C   UNL A   1      36.424  32.848  32.220  1.00  0.00     0.059 A 
ATOM     81  C   UNL A   1      36.177  33.876  30.035  1.00  0.00     0.059 A 
ATOM     82  F   UNL A   1      37.805  33.501  28.387  1.00  0.00    -0.206 F 
ATOM     83  C   UNL A   1      35.707  33.645  31.327  1.00  0.00     0.060 A 
BRANCH  83  84
ATOM     84  S   UNL A   1      34.154  34.377  31.888  1.00  0.00     0.124 S 
ATOM     85  O   UNL A   1      34.616  35.641  32.452  1.00  0.00    -0.237 OA
ATOM     86  O   UNL A   1      33.395  34.474  30.646  1.00  0.00    -0.237 OA
ATOM     87  O   UNL A   1      33.651  33.406  32.854  1.00  0.00    -0.744 OA
ENDBRANCH  83  84
ENDBRANCH  51  76
BRANCH  63  88
ATOM     88  C   UNL A   1      44.731  34.700  30.644  1.00  0.00     0.058 A 
ATOM     89  C   UNL A   1      44.900  35.799  29.786  1.00  0.00     0.135 A 
ATOM     90  C   UNL A   1      45.216  34.820  31.958  1.00  0.00     0.135 A 
ATOM     91  F   UNL A   1      44.469  35.740  28.516  1.00  0.00    -0.206 F 
ATOM     92  C   UNL A   1      45.525  36.969  30.210  1.00  0.00     0.059 A 
ATOM     93  C   UNL A   1      45.814  35.992  32.414  1.00  0.00     0.059 A 
ATOM     94  F   UNL A   1      45.078  33.803  32.822  1.00  0.00    -0.206 F 
ATOM     95  C   UNL A   1      45.972  37.059  31.528  1.00  0.00     0.060 A 
BRANCH  95  96
ATOM     96  S   UNL A   1      46.724  38.605  32.080  1.00  0.00     0.124 S 
ATOM     97  O   UNL A   1      47.851  38.125  32.871  1.00  0.00    -0.237 OA
ATOM     98  O   UNL A   1      47.065  39.250  30.815  1.00  0.00    -0.237 OA
ATOM     99  O   UNL A   1      45.655  39.251  32.836  1.00  0.00    -0.744 OA
ENDBRANCH  95  96
ENDBRANCH  63  88
ENDBRANCH  37  38
ENDBRANCH  30  32
ENDBRANCH  29  30
ENDBRANCH  28  29
ENDBRANCH  27  28
ENDBRANCH  26  27
ENDBRANCH  25  26
ENDBRANCH   1  25
TORSDOF 24
ENDMDL
MODEL 3
REMARK VINA RESULT:      -9.6      4.563     10.185
REMARK SMILES C[C@H](NC(=O)NCCc1ccccc1F)C(=O)OCCOCCOCCOC(=O)c1ccc(-c2c3nc(c(-c4c(F)cc(S(=O)(=O)[O-])cc4F)c4ccc([nH]4)c(-c4c(F)cc(S(=O)(=O)[O-])cc4F)c4nc(c(-c5c(F)cc(S(=O)(=O)[O-])cc5F)c5ccc2[nH]5)C=C4)C=C3)cc1
REMARK SMILES IDX 22 1 21 2 20 3 19 4 18 5 16 6 17 7 2 8 1 9 3 10 4 11 5 13
REMARK SMILES IDX 6 14 7 16 8 17 9 18 10 19 14 20 11 21 13 22 15 23 12 24
REMARK SMILES IDX 23 25 24 26 25 27 26 28 27 29 28 30 29 31 30 32 31 33 95 34
REMARK SMILES IDX 32 35 94 36 33 37 34 38 35 39 88 40 36 41 93 42 87 43 89 44
REMARK SMILES IDX 37 45 92 46 86 47 85 48 38 50 72 51 51 52 71 53 52 54 55 55
REMARK SMILES IDX 70 56 90 57 53 58 54 59 69 61 91 62 56 63 39 64 40 65 49 66
REMARK SMILES IDX 41 67 42 68 48 69 50 70 43 71 44 72 45 73 46 74 47 75 73 76
REMARK SMILES IDX 74 77 83 78 75 79 76 80 82 81 84 82 77 83 78 84 79 85 80 86
REMARK SMILES IDX 81 87 57 88 58 89 67 90 59 91 60 92 66 93 68 94 61 95 62 96
REMARK SMILES IDX 63 97 64 98 65 99
REMARK H PARENT 3 12 6 15 89 49 55 60
REMARK Flexibility Score: inf
ROOT
ATOM      1  C   UNL A   1      32.968  23.283  26.705  1.00  0.00     0.188 C 
ENDROOT
BRANCH   1   2
ATOM      2  O   UNL A   1      32.900  21.882  26.958  1.00  0.00    -0.376 OA
BRANCH   2   3
ATOM      3  C   UNL A   1      33.524  20.977  26.058  1.00  0.00     0.202 C 
BRANCH   3   4
ATOM      4  C   UNL A   1      32.819  20.665  24.729  1.00  0.00     0.261 C 
BRANCH   4   5
ATOM      5  O   UNL A   1      31.902  21.679  24.282  1.00  0.00    -0.462 OA
BRANCH   5   6
ATOM      6  C   UNL A   1      32.025  22.107  22.996  1.00  0.00     0.328 C 
ATOM      7  O   UNL A   1      32.144  21.360  22.031  1.00  0.00    -0.250 OA
BRANCH   6   8
ATOM      8  C   UNL A   1      31.911  23.650  22.857  1.00  0.00     0.190 C 
ATOM      9  C   UNL A   1      30.580  24.201  23.353  1.00  0.00     0.043 C 
BRANCH   8  10
ATOM     10  N   UNL A   1      32.389  24.342  21.655  1.00  0.00    -0.325 N 
ATOM     11  C   UNL A   1      32.734  25.586  21.323  1.00  0.00     0.315 C 
ATOM     12  H   UNL A   1      32.477  23.725  20.892  1.00  0.00     0.166 HD
ATOM     13  O   UNL A   1      33.065  25.791  20.153  1.00  0.00    -0.249 OA
ATOM     14  N   UNL A   1      32.721  26.619  22.164  1.00  0.00    -0.338 N 
ATOM     15  H   UNL A   1      32.754  27.492  21.709  1.00  0.00     0.165 HD
BRANCH  14  16
ATOM     16  C   UNL A   1      32.668  26.725  23.604  1.00  0.00     0.122 C 
BRANCH  16  17
ATOM     17  C   UNL A   1      33.712  27.710  24.134  1.00  0.00     0.060 C 
BRANCH  17  18
ATOM     18  C   UNL A   1      33.135  28.734  25.076  1.00  0.00    -0.010 A 
ATOM     19  C   UNL A   1      31.973  29.428  24.716  1.00  0.00     0.007 A 
ATOM     20  C   UNL A   1      33.724  29.015  26.313  1.00  0.00     0.126 A 
ATOM     21  C   UNL A   1      31.442  30.403  25.562  1.00  0.00     0.000 A 
ATOM     22  C   UNL A   1      33.203  29.989  27.157  1.00  0.00     0.039 A 
ATOM     23  F   UNL A   1      34.823  28.360  26.711  1.00  0.00    -0.207 F 
ATOM     24  C   UNL A   1      32.060  30.689  26.778  1.00  0.00     0.003 A 
ENDBRANCH  17  18
ENDBRANCH  16  17
ENDBRANCH  14  16
ENDBRANCH   8  10
ENDBRANCH   6   8
ENDBRANCH   5   6
ENDBRANCH   4   5
ENDBRANCH   3   4
ENDBRANCH   2   3
ENDBRANCH   1   2
BRANCH   1  25
ATOM     25  C   UNL A   1      34.330  23.950  26.434  1.00  0.00     0.188 C 
BRANCH  25  26
ATOM     26  O   UNL A   1      34.469  24.474  25.130  1.00  0.00    -0.376 OA
BRANCH  26  27
ATOM     27  C   UNL A   1      35.338  23.758  24.275  1.00  0.00     0.202 C 
BRANCH  27  28
ATOM     28  C   UNL A   1      36.530  23.095  24.981  1.00  0.00     0.261 C 
BRANCH  28  29
ATOM     29  O   UNL A   1      37.599  23.975  25.389  1.00  0.00    -0.460 OA
BRANCH  29  30
ATOM     30  C   UNL A   1      38.597  23.442  26.131  1.00  0.00     0.338 C 
ATOM     31  O   UNL A   1      39.022  22.297  26.052  1.00  0.00    -0.246 OA
BRANCH  30  32
ATOM     32  C   UNL A   1      39.249  24.523  26.911  1.00  0.00     0.060 A 
ATOM     33  C   UNL A   1      38.983  24.628  28.284  1.00  0.00     0.016 A 
ATOM     34  C   UNL A   1      40.110  25.438  26.301  1.00  0.00     0.016 A 
ATOM     35  C   UNL A   1      39.539  25.670  29.035  1.00  0.00     0.010 A 
ATOM     36  C   UNL A   1      40.653  26.493  27.052  1.00  0.00     0.010 A 
ATOM     37  C   UNL A   1      40.343  26.639  28.416  1.00  0.00    -0.014 A 
BRANCH  37  38
ATOM     38  C   UNL A   1      40.720  27.874  29.163  1.00  0.00     0.031 A 
ATOM     39  C   UNL A   1      42.110  27.984  29.741  1.00  0.00     0.074 A 
ATOM     40  C   UNL A   1      39.868  28.912  29.283  1.00  0.00     0.049 A 
ATOM     41  N   UNL A   1      42.658  28.968  30.407  1.00  0.00    -0.248 NA
ATOM     42  C   UNL A   1      43.003  26.831  29.536  1.00  0.00     0.031 C 
ATOM     43  C   UNL A   1      38.508  28.955  28.748  1.00  0.00     0.029 A 
ATOM     44  N   UNL A   1      40.025  30.135  29.891  1.00  0.00    -0.354 N 
ATOM     45  C   UNL A   1      43.956  28.559  30.695  1.00  0.00     0.074 A 
ATOM     46  C   UNL A   1      44.104  27.220  30.166  1.00  0.00     0.031 C 
ATOM     47  C   UNL A   1      37.959  30.147  29.044  1.00  0.00     0.029 A 
ATOM     48  C   UNL A   1      38.913  30.944  29.814  1.00  0.00     0.049 A 
ATOM     49  H   UNL A   1      40.857  30.409  30.341  1.00  0.00     0.167 HD
ATOM     50  C   UNL A   1      44.943  29.240  31.325  1.00  0.00     0.037 A 
ATOM     51  C   UNL A   1      38.687  32.178  30.312  1.00  0.00     0.037 A 
ATOM     52  C   UNL A   1      44.804  30.577  31.847  1.00  0.00     0.049 A 
ATOM     53  C   UNL A   1      39.781  32.885  31.075  1.00  0.00     0.074 A 
ATOM     54  C   UNL A   1      45.758  31.351  32.485  1.00  0.00     0.029 A 
ATOM     55  N   UNL A   1      43.646  31.336  31.795  1.00  0.00    -0.354 N 
ATOM     56  N   UNL A   1      41.009  32.491  31.317  1.00  0.00    -0.248 NA
ATOM     57  C   UNL A   1      39.458  34.209  31.631  1.00  0.00     0.031 C 
ATOM     58  C   UNL A   1      45.163  32.556  32.868  1.00  0.00     0.029 A 
ATOM     59  C   UNL A   1      43.854  32.558  32.416  1.00  0.00     0.049 A 
ATOM     60  H   UNL A   1      42.800  31.051  31.379  1.00  0.00     0.167 HD
ATOM     61  C   UNL A   1      41.608  33.525  32.033  1.00  0.00     0.074 A 
ATOM     62  C   UNL A   1      40.617  34.573  32.160  1.00  0.00     0.031 C 
ATOM     63  C   UNL A   1      42.862  33.596  32.546  1.00  0.00     0.037 A 
BRANCH  50  64
ATOM     64  C   UNL A   1      46.279  28.566  31.494  1.00  0.00     0.058 A 
ATOM     65  C   UNL A   1      46.567  27.837  32.659  1.00  0.00     0.135 A 
ATOM     66  C   UNL A   1      47.309  28.735  30.557  1.00  0.00     0.135 A 
ATOM     67  F   UNL A   1      45.615  27.638  33.585  1.00  0.00    -0.206 F 
ATOM     68  C   UNL A   1      47.838  27.331  32.906  1.00  0.00     0.059 A 
ATOM     69  C   UNL A   1      48.584  28.214  30.771  1.00  0.00     0.059 A 
ATOM     70  F   UNL A   1      47.082  29.403  29.414  1.00  0.00    -0.206 F 
ATOM     71  C   UNL A   1      48.843  27.532  31.958  1.00  0.00     0.060 A 
BRANCH  71  72
ATOM     72  S   UNL A   1      50.493  26.886  32.307  1.00  0.00     0.124 S 
ATOM     73  O   UNL A   1      50.799  26.161  31.079  1.00  0.00    -0.237 OA
ATOM     74  O   UNL A   1      51.257  28.109  32.533  1.00  0.00    -0.237 OA
ATOM     75  O   UNL A   1      50.288  26.056  33.491  1.00  0.00    -0.744 OA
ENDBRANCH  71  72
ENDBRANCH  50  64
BRANCH  51  76
ATOM     76  C   UNL A   1      37.365  32.838  30.111  1.00  0.00     0.058 A 
ATOM     77  C   UNL A   1      36.301  32.629  31.003  1.00  0.00     0.135 A 
ATOM     78  C   UNL A   1      37.145  33.710  29.033  1.00  0.00     0.135 A 
ATOM     79  F   UNL A   1      36.454  31.808  32.053  1.00  0.00    -0.206 F 
ATOM     80  C   UNL A   1      35.064  33.239  30.821  1.00  0.00     0.059 A 
ATOM     81  C   UNL A   1      35.926  34.358  28.847  1.00  0.00     0.059 A 
ATOM     82  F   UNL A   1      38.136  33.963  28.163  1.00  0.00    -0.206 F 
ATOM     83  C   UNL A   1      34.886  34.103  29.740  1.00  0.00     0.060 A 
BRANCH  83  84
ATOM     84  S   UNL A   1      33.275  34.890  29.528  1.00  0.00     0.124 S 
ATOM     85  O   UNL A   1      32.769  34.891  30.897  1.00  0.00    -0.237 OA
ATOM     86  O   UNL A   1      33.641  36.194  28.984  1.00  0.00    -0.237 OA
ATOM     87  O   UNL A   1      32.582  33.999  28.604  1.00  0.00    -0.744 OA
ENDBRANCH  83  84
ENDBRANCH  51  76
BRANCH  63  88
ATOM     88  C   UNL A   1      43.246  34.852  33.285  1.00  0.00     0.058 A 
ATOM     89  C   UNL A   1      43.759  35.964  32.595  1.00  0.00     0.135 A 
ATOM     90  C   UNL A   1      43.146  34.944  34.683  1.00  0.00     0.135 A 
ATOM     91  F   UNL A   1      43.890  35.931  31.259  1.00  0.00    -0.206 F 
ATOM     92  C   UNL A   1      44.158  37.118  33.263  1.00  0.00     0.059 A 
ATOM     93  C   UNL A   1      43.508  36.101  35.369  1.00  0.00     0.059 A 
ATOM     94  F   UNL A   1      42.660  33.915  35.393  1.00  0.00    -0.206 F 
ATOM     95  C   UNL A   1      44.022  37.180  34.649  1.00  0.00     0.060 A 
BRANCH  95  96
ATOM     96  S   UNL A   1      44.487  38.707  35.493  1.00  0.00     0.124 S 
ATOM     97  O   UNL A   1      45.939  38.690  35.367  1.00  0.00    -0.237 OA
ATOM     98  O   UNL A   1      43.793  39.720  34.703  1.00  0.00    -0.237 OA
ATOM     99  O   UNL A   1      43.971  38.518  36.846  1.00  0.00    -0.744 OA
ENDBRANCH  95  96
ENDBRANCH  63  88
ENDBRANCH  37  38
ENDBRANCH  30  32
ENDBRANCH  29  30
ENDBRANCH  28  29
ENDBRANCH  27  28
ENDBRANCH  26  27
ENDBRANCH  25  26
ENDBRANCH   1  25
TORSDOF 24
ENDMDL
