MODEL 1
REMARK VINA RESULT:      -9.9      0.000      0.000
REMARK SMILES O=C(OCCOCCOCCOC(=O)c1nc(/N=C/c2cccc([N+](=O)[O-])c2)n[nH]1)c1ccc(-c2c3nc(c(-c4c(F)cc(S(=O)(=O)[O-])cc4F)c4ccc([nH]4)c(-c4c(F)cc(S(=O)(=O)[O-])cc4F)c4nc(c(-c5c(F)cc(S(=O)(=O)[O-])cc5F)c5ccc2[nH]5)C=C4)C=C3)cc1
REMARK SMILES IDX 7 1 6 2 5 3 4 4 3 5 2 6 1 7 31 8 32 9 96 10 33 11 95 12
REMARK SMILES IDX 34 13 35 14 36 15 89 16 37 17 94 18 88 19 90 20 38 21 93 22
REMARK SMILES IDX 87 23 86 24 39 26 73 27 52 28 72 29 53 30 56 31 71 32 91 33
REMARK SMILES IDX 54 34 55 35 70 37 92 38 57 39 40 40 41 41 50 42 42 43 43 44
REMARK SMILES IDX 49 45 51 46 44 47 45 48 46 49 47 50 48 51 74 52 75 53 84 54
REMARK SMILES IDX 76 55 77 56 83 57 85 58 78 59 79 60 80 61 81 62 82 63 58 64
REMARK SMILES IDX 59 65 68 66 60 67 61 68 67 69 69 70 62 71 63 72 64 73 65 74
REMARK SMILES IDX 66 75 8 76 9 77 10 78 11 79 12 80 13 81 14 82 15 83 16 84
REMARK SMILES IDX 30 85 17 86 29 87 18 89 19 90 20 91 21 92 28 93 22 94 24 95
REMARK SMILES IDX 23 96 25 97 26 98 27 99
REMARK H PARENT 90 25 56 36 30 88
REMARK Flexibility Score: inf
ROOT
ATOM      1  C   UNL A   1      32.539  30.850  26.660  1.00  0.00     0.188 C 
ENDROOT
BRANCH   1   2
ATOM      2  O   UNL A   1      33.406  30.908  27.802  1.00  0.00    -0.376 OA
BRANCH   2   3
ATOM      3  C   UNL A   1      34.061  32.175  27.953  1.00  0.00     0.202 C 
BRANCH   3   4
ATOM      4  C   UNL A   1      35.211  32.177  28.969  1.00  0.00     0.261 C 
BRANCH   4   5
ATOM      5  O   UNL A   1      35.378  30.895  29.596  1.00  0.00    -0.460 OA
BRANCH   5   6
ATOM      6  C   UNL A   1      36.393  30.474  30.391  1.00  0.00     0.338 C 
ATOM      7  O   UNL A   1      36.149  30.283  31.583  1.00  0.00    -0.246 OA
BRANCH   6   8
ATOM      8  C   UNL A   1      37.785  30.198  29.909  1.00  0.00     0.060 A 
ATOM      9  C   UNL A   1      38.170  30.093  28.574  1.00  0.00     0.016 A 
ATOM     10  C   UNL A   1      38.793  30.086  30.886  1.00  0.00     0.016 A 
ATOM     11  C   UNL A   1      39.473  29.758  28.219  1.00  0.00     0.010 A 
ATOM     12  C   UNL A   1      40.125  29.821  30.534  1.00  0.00     0.010 A 
ATOM     13  C   UNL A   1      40.463  29.617  29.192  1.00  0.00    -0.014 A 
BRANCH  13  14
ATOM     14  C   UNL A   1      41.805  29.162  28.759  1.00  0.00     0.031 A 
ATOM     15  C   UNL A   1      42.978  30.082  28.943  1.00  0.00     0.074 A 
ATOM     16  C   UNL A   1      41.993  27.874  28.414  1.00  0.00     0.049 A 
ATOM     17  N   UNL A   1      44.239  29.870  28.684  1.00  0.00    -0.248 NA
ATOM     18  C   UNL A   1      42.699  31.400  29.539  1.00  0.00     0.031 C 
ATOM     19  C   UNL A   1      40.938  26.862  28.363  1.00  0.00     0.029 A 
ATOM     20  N   UNL A   1      43.132  27.175  28.102  1.00  0.00    -0.354 N 
ATOM     21  C   UNL A   1      44.908  31.012  29.104  1.00  0.00     0.074 A 
ATOM     22  C   UNL A   1      43.911  31.933  29.602  1.00  0.00     0.031 C 
ATOM     23  C   UNL A   1      41.484  25.663  28.113  1.00  0.00     0.029 A 
ATOM     24  C   UNL A   1      42.912  25.834  27.871  1.00  0.00     0.049 A 
ATOM     25  H   UNL A   1      44.022  27.592  28.048  1.00  0.00     0.167 HD
ATOM     26  C   UNL A   1      46.238  31.259  29.093  1.00  0.00     0.037 A 
ATOM     27  C   UNL A   1      43.764  24.875  27.452  1.00  0.00     0.037 A 
ATOM     28  C   UNL A   1      47.214  30.339  28.577  1.00  0.00     0.049 A 
ATOM     29  C   UNL A   1      45.174  25.295  27.135  1.00  0.00     0.074 A 
ATOM     30  C   UNL A   1      48.582  30.504  28.453  1.00  0.00     0.029 A 
ATOM     31  N   UNL A   1      46.916  29.074  28.090  1.00  0.00    -0.354 N 
ATOM     32  N   UNL A   1      45.789  26.411  27.445  1.00  0.00    -0.248 NA
ATOM     33  C   UNL A   1      45.987  24.352  26.357  1.00  0.00     0.031 C 
ATOM     34  C   UNL A   1      49.106  29.349  27.859  1.00  0.00     0.029 A 
ATOM     35  C   UNL A   1      48.069  28.454  27.643  1.00  0.00     0.049 A 
ATOM     36  H   UNL A   1      46.016  28.677  28.067  1.00  0.00     0.167 HD
ATOM     37  C   UNL A   1      47.080  26.282  26.950  1.00  0.00     0.074 A 
ATOM     38  C   UNL A   1      47.149  24.988  26.300  1.00  0.00     0.031 C 
ATOM     39  C   UNL A   1      48.119  27.147  27.040  1.00  0.00     0.037 A 
BRANCH  26  40
ATOM     40  C   UNL A   1      46.693  32.583  29.631  1.00  0.00     0.058 A 
ATOM     41  C   UNL A   1      46.783  33.715  28.806  1.00  0.00     0.135 A 
ATOM     42  C   UNL A   1      47.054  32.720  30.979  1.00  0.00     0.135 A 
ATOM     43  F   UNL A   1      46.477  33.628  27.501  1.00  0.00    -0.206 F 
ATOM     44  C   UNL A   1      47.235  34.935  29.296  1.00  0.00     0.059 A 
ATOM     45  C   UNL A   1      47.494  33.935  31.495  1.00  0.00     0.059 A 
ATOM     46  F   UNL A   1      46.999  31.663  31.804  1.00  0.00    -0.206 F 
ATOM     47  C   UNL A   1      47.593  35.035  30.642  1.00  0.00     0.060 A 
BRANCH  47  48
ATOM     48  S   UNL A   1      48.192  36.622  31.262  1.00  0.00     0.124 S 
ATOM     49  O   UNL A   1      46.962  37.214  31.780  1.00  0.00    -0.237 OA
ATOM     50  O   UNL A   1      49.171  36.217  32.265  1.00  0.00    -0.237 OA
ATOM     51  O   UNL A   1      48.744  37.264  30.073  1.00  0.00    -0.744 OA
ENDBRANCH  47  48
ENDBRANCH  26  40
BRANCH  27  52
ATOM     52  C   UNL A   1      43.300  23.486  27.159  1.00  0.00     0.058 A 
ATOM     53  C   UNL A   1      43.162  22.499  28.146  1.00  0.00     0.135 A 
ATOM     54  C   UNL A   1      43.060  23.097  25.837  1.00  0.00     0.135 A 
ATOM     55  F   UNL A   1      43.395  22.802  29.431  1.00  0.00    -0.206 F 
ATOM     56  C   UNL A   1      42.828  21.178  27.826  1.00  0.00     0.059 A 
ATOM     57  C   UNL A   1      42.683  21.806  25.498  1.00  0.00     0.059 A 
ATOM     58  F   UNL A   1      43.198  23.989  24.851  1.00  0.00    -0.206 F 
ATOM     59  C   UNL A   1      42.602  20.842  26.493  1.00  0.00     0.060 A 
BRANCH  59  60
ATOM     60  S   UNL A   1      42.192  19.150  26.014  1.00  0.00     0.124 S 
ATOM     61  O   UNL A   1      43.004  18.984  24.814  1.00  0.00    -0.237 OA
ATOM     62  O   UNL A   1      42.603  18.376  27.180  1.00  0.00    -0.237 OA
ATOM     63  O   UNL A   1      40.750  19.215  25.787  1.00  0.00    -0.744 OA
ENDBRANCH  59  60
ENDBRANCH  27  52
BRANCH  39  64
ATOM     64  C   UNL A   1      49.443  26.662  26.531  1.00  0.00     0.058 A 
ATOM     65  C   UNL A   1      49.900  26.964  25.241  1.00  0.00     0.135 A 
ATOM     66  C   UNL A   1      50.269  25.894  27.366  1.00  0.00     0.135 A 
ATOM     67  F   UNL A   1      49.136  27.683  24.404  1.00  0.00    -0.206 F 
ATOM     68  C   UNL A   1      51.128  26.498  24.785  1.00  0.00     0.059 A 
ATOM     69  C   UNL A   1      51.509  25.437  26.939  1.00  0.00     0.059 A 
ATOM     70  F   UNL A   1      49.874  25.587  28.612  1.00  0.00    -0.206 F 
ATOM     71  C   UNL A   1      51.925  25.732  25.641  1.00  0.00     0.060 A 
BRANCH  71  72
ATOM     72  S   UNL A   1      53.528  25.148  25.056  1.00  0.00     0.124 S 
ATOM     73  O   UNL A   1      53.405  23.708  25.252  1.00  0.00    -0.237 OA
ATOM     74  O   UNL A   1      53.544  25.601  23.668  1.00  0.00    -0.237 OA
ATOM     75  O   UNL A   1      54.474  25.825  25.937  1.00  0.00    -0.744 OA
ENDBRANCH  71  72
ENDBRANCH  39  64
ENDBRANCH  13  14
ENDBRANCH   6   8
ENDBRANCH   5   6
ENDBRANCH   4   5
ENDBRANCH   3   4
ENDBRANCH   2   3
ENDBRANCH   1   2
BRANCH   1  76
ATOM     76  C   UNL A   1      32.938  29.701  25.729  1.00  0.00     0.188 C 
BRANCH  76  77
ATOM     77  O   UNL A   1      31.926  28.708  25.529  1.00  0.00    -0.376 OA
BRANCH  77  78
ATOM     78  C   UNL A   1      31.177  28.786  24.317  1.00  0.00     0.202 C 
BRANCH  78  79
ATOM     79  C   UNL A   1      31.487  27.699  23.285  1.00  0.00     0.261 C 
BRANCH  79  80
ATOM     80  O   UNL A   1      30.323  26.949  22.895  1.00  0.00    -0.457 OA
BRANCH  80  81
ATOM     81  C   UNL A   1      29.860  26.077  23.843  1.00  0.00     0.376 C 
ATOM     82  O   UNL A   1      28.927  26.318  24.604  1.00  0.00    -0.242 OA
BRANCH  81  83
ATOM     83  C   UNL A   1      30.626  24.860  23.825  1.00  0.00     0.237 A 
ATOM     84  N   UNL A   1      31.496  24.515  24.755  1.00  0.00    -0.184 NA
ATOM     85  N   UNL A   1      30.608  23.881  22.876  1.00  0.00    -0.251 N 
ATOM     86  C   UNL A   1      32.018  23.338  24.300  1.00  0.00     0.268 A 
ATOM     87  N   UNL A   1      31.463  22.890  23.171  1.00  0.00    -0.132 NA
ATOM     88  H   UNL A   1      30.037  23.899  22.075  1.00  0.00     0.192 HD
BRANCH  86  89
ATOM     89  N   UNL A   1      33.139  22.687  24.816  1.00  0.00    -0.218 NA
ATOM     90  C   UNL A   1      34.238  23.306  24.524  1.00  0.00     0.123 C 
BRANCH  90  91
ATOM     91  C   UNL A   1      35.573  22.711  24.757  1.00  0.00    -0.000 A 
ATOM     92  C   UNL A   1      35.714  21.327  24.589  1.00  0.00     0.010 A 
ATOM     93  C   UNL A   1      36.608  23.465  25.319  1.00  0.00     0.095 A 
ATOM     94  C   UNL A   1      36.871  20.681  25.029  1.00  0.00     0.008 A 
ATOM     95  C   UNL A   1      37.750  22.801  25.792  1.00  0.00     0.270 A 
ATOM     96  C   UNL A   1      37.885  21.411  25.648  1.00  0.00     0.085 A 
BRANCH  95  97
ATOM     97  N   UNL A   1      38.782  23.553  26.516  1.00  0.00     0.062 N 
ATOM     98  O   UNL A   1      38.628  24.777  26.634  1.00  0.00    -0.258 OA
ATOM     99  O   UNL A   1      39.730  22.917  26.998  1.00  0.00    -0.258 OA
ENDBRANCH  95  97
ENDBRANCH  90  91
ENDBRANCH  86  89
ENDBRANCH  81  83
ENDBRANCH  80  81
ENDBRANCH  79  80
ENDBRANCH  78  79
ENDBRANCH  77  78
ENDBRANCH  76  77
ENDBRANCH   1  76
TORSDOF 23
ENDMDL
MODEL 2
REMARK VINA RESULT:      -9.9      5.448     11.897
REMARK SMILES O=C(OCCOCCOCCOC(=O)c1nc(/N=C/c2cccc([N+](=O)[O-])c2)n[nH]1)c1ccc(-c2c3nc(c(-c4c(F)cc(S(=O)(=O)[O-])cc4F)c4ccc([nH]4)c(-c4c(F)cc(S(=O)(=O)[O-])cc4F)c4nc(c(-c5c(F)cc(S(=O)(=O)[O-])cc5F)c5ccc2[nH]5)C=C4)C=C3)cc1
REMARK SMILES IDX 7 1 6 2 5 3 4 4 3 5 2 6 1 7 31 8 32 9 96 10 33 11 95 12
REMARK SMILES IDX 34 13 35 14 36 15 89 16 37 17 94 18 88 19 90 20 38 21 93 22
REMARK SMILES IDX 87 23 86 24 39 26 73 27 52 28 72 29 53 30 56 31 71 32 91 33
REMARK SMILES IDX 54 34 55 35 70 37 92 38 57 39 40 40 41 41 50 42 42 43 43 44
REMARK SMILES IDX 49 45 51 46 44 47 45 48 46 49 47 50 48 51 74 52 75 53 84 54
REMARK SMILES IDX 76 55 77 56 83 57 85 58 78 59 79 60 80 61 81 62 82 63 58 64
REMARK SMILES IDX 59 65 68 66 60 67 61 68 67 69 69 70 62 71 63 72 64 73 65 74
REMARK SMILES IDX 66 75 8 76 9 77 10 78 11 79 12 80 13 81 14 82 15 83 16 84
REMARK SMILES IDX 30 85 17 86 29 87 18 89 19 90 20 91 21 92 28 93 22 94 24 95
REMARK SMILES IDX 23 96 25 97 26 98 27 99
REMARK H PARENT 90 25 56 36 30 88
REMARK Flexibility Score: inf
ROOT
ATOM      1  C   UNL A   1      46.153  21.592  24.648  1.00  0.00     0.188 C 
ENDROOT
BRANCH   1   2
ATOM      2  O   UNL A   1      46.043  22.322  25.880  1.00  0.00    -0.376 OA
BRANCH   2   3
ATOM      3  C   UNL A   1      45.122  23.418  25.808  1.00  0.00     0.202 C 
BRANCH   3   4
ATOM      4  C   UNL A   1      43.837  23.220  26.624  1.00  0.00     0.261 C 
BRANCH   4   5
ATOM      5  O   UNL A   1      42.745  23.996  26.106  1.00  0.00    -0.460 OA
BRANCH   5   6
ATOM      6  C   UNL A   1      42.619  25.346  26.064  1.00  0.00     0.338 C 
ATOM      7  O   UNL A   1      42.612  25.889  24.959  1.00  0.00    -0.246 OA
BRANCH   6   8
ATOM      8  C   UNL A   1      42.460  26.218  27.273  1.00  0.00     0.060 A 
ATOM      9  C   UNL A   1      41.878  25.828  28.478  1.00  0.00     0.016 A 
ATOM     10  C   UNL A   1      42.987  27.522  27.199  1.00  0.00     0.016 A 
ATOM     11  C   UNL A   1      41.703  26.729  29.523  1.00  0.00     0.010 A 
ATOM     12  C   UNL A   1      42.881  28.415  28.276  1.00  0.00     0.010 A 
ATOM     13  C   UNL A   1      42.199  28.030  29.434  1.00  0.00    -0.014 A 
BRANCH  13  14
ATOM     14  C   UNL A   1      41.893  28.969  30.539  1.00  0.00     0.031 A 
ATOM     15  C   UNL A   1      42.920  29.186  31.612  1.00  0.00     0.074 A 
ATOM     16  C   UNL A   1      40.810  29.766  30.457  1.00  0.00     0.049 A 
ATOM     17  N   UNL A   1      42.883  29.995  32.636  1.00  0.00    -0.248 NA
ATOM     18  C   UNL A   1      44.175  28.425  31.493  1.00  0.00     0.031 C 
ATOM     19  C   UNL A   1      39.837  29.739  29.364  1.00  0.00     0.029 A 
ATOM     20  N   UNL A   1      40.373  30.788  31.259  1.00  0.00    -0.354 N 
ATOM     21  C   UNL A   1      44.112  29.859  33.269  1.00  0.00     0.074 A 
ATOM     22  C   UNL A   1      44.862  28.864  32.538  1.00  0.00     0.031 C 
ATOM     23  C   UNL A   1      38.963  30.743  29.523  1.00  0.00     0.029 A 
ATOM     24  C   UNL A   1      39.239  31.415  30.788  1.00  0.00     0.049 A 
ATOM     25  H   UNL A   1      40.826  31.050  32.093  1.00  0.00     0.167 HD
ATOM     26  C   UNL A   1      44.577  30.524  34.352  1.00  0.00     0.037 A 
ATOM     27  C   UNL A   1      38.483  32.380  31.353  1.00  0.00     0.037 A 
ATOM     28  C   UNL A   1      43.809  31.499  35.078  1.00  0.00     0.049 A 
ATOM     29  C   UNL A   1      38.876  32.848  32.728  1.00  0.00     0.074 A 
ATOM     30  C   UNL A   1      44.149  32.190  36.227  1.00  0.00     0.029 A 
ATOM     31  N   UNL A   1      42.535  31.915  34.721  1.00  0.00    -0.354 N 
ATOM     32  N   UNL A   1      39.999  32.648  33.376  1.00  0.00    -0.248 NA
ATOM     33  C   UNL A   1      37.876  33.620  33.476  1.00  0.00     0.031 C 
ATOM     34  C   UNL A   1      43.063  33.000  36.583  1.00  0.00     0.029 A 
ATOM     35  C   UNL A   1      42.062  32.836  35.638  1.00  0.00     0.049 A 
ATOM     36  H   UNL A   1      42.040  31.600  33.930  1.00  0.00     0.167 HD
ATOM     37  C   UNL A   1      39.863  33.317  34.584  1.00  0.00     0.074 A 
ATOM     38  C   UNL A   1      38.539  33.908  34.587  1.00  0.00     0.031 C 
ATOM     39  C   UNL A   1      40.758  33.445  35.594  1.00  0.00     0.037 A 
BRANCH  26  40
ATOM     40  C   UNL A   1      45.963  30.191  34.817  1.00  0.00     0.058 A 
ATOM     41  C   UNL A   1      47.081  30.900  34.348  1.00  0.00     0.135 A 
ATOM     42  C   UNL A   1      46.180  29.148  35.729  1.00  0.00     0.135 A 
ATOM     43  F   UNL A   1      46.929  31.888  33.452  1.00  0.00    -0.206 F 
ATOM     44  C   UNL A   1      48.370  30.572  34.755  1.00  0.00     0.059 A 
ATOM     45  C   UNL A   1      47.459  28.813  36.161  1.00  0.00     0.059 A 
ATOM     46  F   UNL A   1      45.145  28.432  36.194  1.00  0.00    -0.206 F 
ATOM     47  C   UNL A   1      48.549  29.523  35.658  1.00  0.00     0.060 A 
BRANCH  47  48
ATOM     48  S   UNL A   1      50.230  29.098  36.166  1.00  0.00     0.124 S 
ATOM     49  O   UNL A   1      51.020  30.016  35.350  1.00  0.00    -0.237 OA
ATOM     50  O   UNL A   1      50.206  29.384  37.597  1.00  0.00    -0.237 OA
ATOM     51  O   UNL A   1      50.345  27.688  35.812  1.00  0.00    -0.744 OA
ENDBRANCH  47  48
ENDBRANCH  26  40
BRANCH  27  52
ATOM     52  C   UNL A   1      37.219  32.859  30.719  1.00  0.00     0.058 A 
ATOM     53  C   UNL A   1      35.977  32.238  30.919  1.00  0.00     0.135 A 
ATOM     54  C   UNL A   1      37.253  33.925  29.815  1.00  0.00     0.135 A 
ATOM     55  F   UNL A   1      35.878  31.197  31.760  1.00  0.00    -0.206 F 
ATOM     56  C   UNL A   1      34.829  32.642  30.228  1.00  0.00     0.059 A 
ATOM     57  C   UNL A   1      36.122  34.376  29.152  1.00  0.00     0.059 A 
ATOM     58  F   UNL A   1      38.414  34.542  29.567  1.00  0.00    -0.206 F 
ATOM     59  C   UNL A   1      34.919  33.710  29.337  1.00  0.00     0.060 A 
BRANCH  59  60
ATOM     60  S   UNL A   1      33.480  34.264  28.397  1.00  0.00     0.124 S 
ATOM     61  O   UNL A   1      34.079  35.248  27.503  1.00  0.00    -0.237 OA
ATOM     62  O   UNL A   1      33.009  33.033  27.774  1.00  0.00    -0.237 OA
ATOM     63  O   UNL A   1      32.606  34.811  29.432  1.00  0.00    -0.744 OA
ENDBRANCH  59  60
ENDBRANCH  27  52
BRANCH  39  64
ATOM     64  C   UNL A   1      40.375  34.358  36.719  1.00  0.00     0.058 A 
ATOM     65  C   UNL A   1      40.750  35.709  36.742  1.00  0.00     0.135 A 
ATOM     66  C   UNL A   1      39.604  33.865  37.782  1.00  0.00     0.135 A 
ATOM     67  F   UNL A   1      41.500  36.220  35.754  1.00  0.00    -0.206 F 
ATOM     68  C   UNL A   1      40.390  36.538  37.799  1.00  0.00     0.059 A 
ATOM     69  C   UNL A   1      39.215  34.681  38.837  1.00  0.00     0.059 A 
ATOM     70  F   UNL A   1      39.216  32.579  37.798  1.00  0.00    -0.206 F 
ATOM     71  C   UNL A   1      39.625  36.013  38.844  1.00  0.00     0.060 A 
BRANCH  71  72
ATOM     72  S   UNL A   1      39.139  37.096  40.203  1.00  0.00     0.124 S 
ATOM     73  O   UNL A   1      40.434  37.444  40.778  1.00  0.00    -0.237 OA
ATOM     74  O   UNL A   1      38.440  38.177  39.513  1.00  0.00    -0.237 OA
ATOM     75  O   UNL A   1      38.293  36.240  41.029  1.00  0.00    -0.744 OA
ENDBRANCH  71  72
ENDBRANCH  39  64
ENDBRANCH  13  14
ENDBRANCH   6   8
ENDBRANCH   5   6
ENDBRANCH   4   5
ENDBRANCH   3   4
ENDBRANCH   2   3
ENDBRANCH   1   2
BRANCH   1  76
ATOM     76  C   UNL A   1      45.502  20.211  24.770  1.00  0.00     0.188 C 
BRANCH  76  77
ATOM     77  O   UNL A   1      44.071  20.215  24.731  1.00  0.00    -0.376 OA
BRANCH  77  78
ATOM     78  C   UNL A   1      43.409  19.056  25.236  1.00  0.00     0.202 C 
BRANCH  78  79
ATOM     79  C   UNL A   1      42.180  19.330  26.106  1.00  0.00     0.261 C 
BRANCH  79  80
ATOM     80  O   UNL A   1      41.532  20.573  25.785  1.00  0.00    -0.457 OA
BRANCH  80  81
ATOM     81  C   UNL A   1      40.919  21.189  26.842  1.00  0.00     0.376 C 
ATOM     82  O   UNL A   1      41.305  21.109  28.005  1.00  0.00    -0.242 OA
BRANCH  81  83
ATOM     83  C   UNL A   1      39.764  21.921  26.398  1.00  0.00     0.237 A 
ATOM     84  N   UNL A   1      38.657  21.363  25.949  1.00  0.00    -0.184 NA
ATOM     85  N   UNL A   1      39.608  23.275  26.346  1.00  0.00    -0.251 N 
ATOM     86  C   UNL A   1      37.873  22.422  25.590  1.00  0.00     0.268 A 
ATOM     87  N   UNL A   1      38.404  23.617  25.863  1.00  0.00    -0.132 NA
ATOM     88  H   UNL A   1      40.294  23.921  26.629  1.00  0.00     0.192 HD
BRANCH  86  89
ATOM     89  N   UNL A   1      36.691  22.351  24.852  1.00  0.00    -0.218 NA
ATOM     90  C   UNL A   1      35.687  22.855  25.495  1.00  0.00     0.123 C 
BRANCH  90  91
ATOM     91  C   UNL A   1      34.288  22.702  25.034  1.00  0.00    -0.000 A 
ATOM     92  C   UNL A   1      34.034  22.812  23.661  1.00  0.00     0.010 A 
ATOM     93  C   UNL A   1      33.231  22.652  25.948  1.00  0.00     0.095 A 
ATOM     94  C   UNL A   1      32.721  22.923  23.196  1.00  0.00     0.008 A 
ATOM     95  C   UNL A   1      31.919  22.804  25.475  1.00  0.00     0.270 A 
ATOM     96  C   UNL A   1      31.660  22.938  24.102  1.00  0.00     0.085 A 
BRANCH  95  97
ATOM     97  N   UNL A   1      30.808  22.901  26.429  1.00  0.00     0.062 N 
ATOM     98  O   UNL A   1      30.830  23.832  27.247  1.00  0.00    -0.258 OA
ATOM     99  O   UNL A   1      29.894  22.069  26.340  1.00  0.00    -0.258 OA
ENDBRANCH  95  97
ENDBRANCH  90  91
ENDBRANCH  86  89
ENDBRANCH  81  83
ENDBRANCH  80  81
ENDBRANCH  79  80
ENDBRANCH  78  79
ENDBRANCH  77  78
ENDBRANCH  76  77
ENDBRANCH   1  76
TORSDOF 23
ENDMDL
MODEL 3
REMARK VINA RESULT:      -9.2      3.349      9.905
REMARK SMILES O=C(OCCOCCOCCOC(=O)c1nc(/N=C/c2cccc([N+](=O)[O-])c2)n[nH]1)c1ccc(-c2c3nc(c(-c4c(F)cc(S(=O)(=O)[O-])cc4F)c4ccc([nH]4)c(-c4c(F)cc(S(=O)(=O)[O-])cc4F)c4nc(c(-c5c(F)cc(S(=O)(=O)[O-])cc5F)c5ccc2[nH]5)C=C4)C=C3)cc1
REMARK SMILES IDX 7 1 6 2 5 3 4 4 3 5 2 6 1 7 31 8 32 9 96 10 33 11 95 12
REMARK SMILES IDX 34 13 35 14 36 15 89 16 37 17 94 18 88 19 90 20 38 21 93 22
REMARK SMILES IDX 87 23 86 24 39 26 73 27 52 28 72 29 53 30 56 31 71 32 91 33
REMARK SMILES IDX 54 34 55 35 70 37 92 38 57 39 40 40 41 41 50 42 42 43 43 44
REMARK SMILES IDX 49 45 51 46 44 47 45 48 46 49 47 50 48 51 74 52 75 53 84 54
REMARK SMILES IDX 76 55 77 56 83 57 85 58 78 59 79 60 80 61 81 62 82 63 58 64
REMARK SMILES IDX 59 65 68 66 60 67 61 68 67 69 69 70 62 71 63 72 64 73 65 74
REMARK SMILES IDX 66 75 8 76 9 77 10 78 11 79 12 80 13 81 14 82 15 83 16 84
REMARK SMILES IDX 30 85 17 86 29 87 18 89 19 90 20 91 21 92 28 93 22 94 24 95
REMARK SMILES IDX 23 96 25 97 26 98 27 99
REMARK H PARENT 90 25 56 36 30 88
REMARK Flexibility Score: inf
ROOT
ATOM      1  C   UNL A   1      35.362  32.314  30.873  1.00  0.00     0.188 C 
ENDROOT
BRANCH   1   2
ATOM      2  O   UNL A   1      36.003  33.540  30.490  1.00  0.00    -0.376 OA
BRANCH   2   3
ATOM      3  C   UNL A   1      36.930  33.381  29.408  1.00  0.00     0.202 C 
BRANCH   3   4
ATOM      4  C   UNL A   1      37.763  32.093  29.472  1.00  0.00     0.261 C 
BRANCH   4   5
ATOM      5  O   UNL A   1      37.188  31.040  28.683  1.00  0.00    -0.460 OA
BRANCH   5   6
ATOM      6  C   UNL A   1      37.705  29.814  28.412  1.00  0.00     0.338 C 
ATOM      7  O   UNL A   1      36.918  28.884  28.236  1.00  0.00    -0.246 OA
BRANCH   6   8
ATOM      8  C   UNL A   1      39.170  29.525  28.287  1.00  0.00     0.060 A 
ATOM      9  C   UNL A   1      40.062  29.402  29.350  1.00  0.00     0.016 A 
ATOM     10  C   UNL A   1      39.674  29.311  26.989  1.00  0.00     0.016 A 
ATOM     11  C   UNL A   1      41.423  29.209  29.136  1.00  0.00     0.010 A 
ATOM     12  C   UNL A   1      41.033  29.042  26.769  1.00  0.00     0.010 A 
ATOM     13  C   UNL A   1      41.924  29.029  27.846  1.00  0.00    -0.014 A 
BRANCH  13  14
ATOM     14  C   UNL A   1      43.392  28.927  27.677  1.00  0.00     0.031 A 
ATOM     15  C   UNL A   1      43.987  27.610  27.270  1.00  0.00     0.074 A 
ATOM     16  C   UNL A   1      44.143  30.046  27.678  1.00  0.00     0.049 A 
ATOM     17  N   UNL A   1      45.232  27.311  27.017  1.00  0.00    -0.248 NA
ATOM     18  C   UNL A   1      43.049  26.490  27.078  1.00  0.00     0.031 C 
ATOM     19  C   UNL A   1      43.626  31.395  27.905  1.00  0.00     0.029 A 
ATOM     20  N   UNL A   1      45.476  30.244  27.423  1.00  0.00    -0.354 N 
ATOM     21  C   UNL A   1      45.227  25.981  26.615  1.00  0.00     0.074 A 
ATOM     22  C   UNL A   1      43.861  25.516  26.692  1.00  0.00     0.031 C 
ATOM     23  C   UNL A   1      44.609  32.286  27.708  1.00  0.00     0.029 A 
ATOM     24  C   UNL A   1      45.854  31.569  27.454  1.00  0.00     0.049 A 
ATOM     25  H   UNL A   1      46.104  29.509  27.236  1.00  0.00     0.167 HD
ATOM     26  C   UNL A   1      46.269  25.226  26.200  1.00  0.00     0.037 A 
ATOM     27  C   UNL A   1      47.080  32.124  27.350  1.00  0.00     0.037 A 
ATOM     28  C   UNL A   1      47.626  25.700  26.147  1.00  0.00     0.049 A 
ATOM     29  C   UNL A   1      48.252  31.190  27.218  1.00  0.00     0.074 A 
ATOM     30  C   UNL A   1      48.773  25.008  25.805  1.00  0.00     0.029 A 
ATOM     31  N   UNL A   1      48.013  26.996  26.454  1.00  0.00    -0.354 N 
ATOM     32  N   UNL A   1      48.255  29.910  26.931  1.00  0.00    -0.248 NA
ATOM     33  C   UNL A   1      49.583  31.759  27.459  1.00  0.00     0.031 C 
ATOM     34  C   UNL A   1      49.862  25.880  25.939  1.00  0.00     0.029 A 
ATOM     35  C   UNL A   1      49.385  27.121  26.333  1.00  0.00     0.049 A 
ATOM     36  H   UNL A   1      47.401  27.720  26.719  1.00  0.00     0.167 HD
ATOM     37  C   UNL A   1      49.591  29.533  26.900  1.00  0.00     0.074 A 
ATOM     38  C   UNL A   1      50.365  30.715  27.221  1.00  0.00     0.031 C 
ATOM     39  C   UNL A   1      50.129  28.322  26.615  1.00  0.00     0.037 A 
BRANCH  26  40
ATOM     40  C   UNL A   1      45.973  23.811  25.801  1.00  0.00     0.058 A 
ATOM     41  C   UNL A   1      46.070  23.394  24.464  1.00  0.00     0.135 A 
ATOM     42  C   UNL A   1      45.578  22.866  26.758  1.00  0.00     0.135 A 
ATOM     43  F   UNL A   1      46.416  24.268  23.505  1.00  0.00    -0.206 F 
ATOM     44  C   UNL A   1      45.766  22.089  24.088  1.00  0.00     0.059 A 
ATOM     45  C   UNL A   1      45.284  21.552  26.407  1.00  0.00     0.059 A 
ATOM     46  F   UNL A   1      45.458  23.220  28.047  1.00  0.00    -0.206 F 
ATOM     47  C   UNL A   1      45.369  21.176  25.066  1.00  0.00     0.060 A 
BRANCH  47  48
ATOM     48  S   UNL A   1      44.963  19.491  24.561  1.00  0.00     0.124 S 
ATOM     49  O   UNL A   1      43.798  19.210  25.395  1.00  0.00    -0.237 OA
ATOM     50  O   UNL A   1      44.698  19.647  23.135  1.00  0.00    -0.237 OA
ATOM     51  O   UNL A   1      46.168  18.737  24.894  1.00  0.00    -0.744 OA
ENDBRANCH  47  48
ENDBRANCH  26  40
BRANCH  27  52
ATOM     52  C   UNL A   1      47.293  33.593  27.515  1.00  0.00     0.058 A 
ATOM     53  C   UNL A   1      47.205  34.506  26.453  1.00  0.00     0.135 A 
ATOM     54  C   UNL A   1      47.677  34.105  28.758  1.00  0.00     0.135 A 
ATOM     55  F   UNL A   1      46.858  34.077  25.230  1.00  0.00    -0.206 F 
ATOM     56  C   UNL A   1      47.514  35.860  26.617  1.00  0.00     0.059 A 
ATOM     57  C   UNL A   1      47.945  35.450  28.958  1.00  0.00     0.059 A 
ATOM     58  F   UNL A   1      47.800  33.279  29.803  1.00  0.00    -0.206 F 
ATOM     59  C   UNL A   1      47.895  36.319  27.877  1.00  0.00     0.060 A 
BRANCH  59  60
ATOM     60  S   UNL A   1      48.331  38.050  28.147  1.00  0.00     0.124 S 
ATOM     61  O   UNL A   1      49.005  38.377  26.896  1.00  0.00    -0.237 OA
ATOM     62  O   UNL A   1      47.033  38.680  28.361  1.00  0.00    -0.237 OA
ATOM     63  O   UNL A   1      49.195  37.990  29.324  1.00  0.00    -0.744 OA
ENDBRANCH  59  60
ENDBRANCH  27  52
BRANCH  39  64
ATOM     64  C   UNL A   1      51.623  28.258  26.516  1.00  0.00     0.058 A 
ATOM     65  C   UNL A   1      52.301  28.506  25.314  1.00  0.00     0.135 A 
ATOM     66  C   UNL A   1      52.383  27.957  27.657  1.00  0.00     0.135 A 
ATOM     67  F   UNL A   1      51.615  28.783  24.195  1.00  0.00    -0.206 F 
ATOM     68  C   UNL A   1      53.688  28.435  25.242  1.00  0.00     0.059 A 
ATOM     69  C   UNL A   1      53.770  27.903  27.612  1.00  0.00     0.059 A 
ATOM     70  F   UNL A   1      51.775  27.720  28.831  1.00  0.00    -0.206 F 
ATOM     71  C   UNL A   1      54.414  28.129  26.396  1.00  0.00     0.060 A 
BRANCH  71  72
ATOM     72  S   UNL A   1      56.214  28.059  26.306  1.00  0.00     0.124 S 
ATOM     73  O   UNL A   1      56.534  27.237  27.467  1.00  0.00    -0.237 OA
ATOM     74  O   UNL A   1      56.443  27.437  25.005  1.00  0.00    -0.237 OA
ATOM     75  O   UNL A   1      56.610  29.461  26.399  1.00  0.00    -0.744 OA
ENDBRANCH  71  72
ENDBRANCH  39  64
ENDBRANCH  13  14
ENDBRANCH   6   8
ENDBRANCH   5   6
ENDBRANCH   4   5
ENDBRANCH   3   4
ENDBRANCH   2   3
ENDBRANCH   1   2
BRANCH   1  76
ATOM     76  C   UNL A   1      35.005  32.325  32.363  1.00  0.00     0.188 C 
BRANCH  76  77
ATOM     77  O   UNL A   1      35.596  33.390  33.115  1.00  0.00    -0.376 OA
BRANCH  77  78
ATOM     78  C   UNL A   1      34.704  34.263  33.807  1.00  0.00     0.202 C 
BRANCH  78  79
ATOM     79  C   UNL A   1      34.172  35.441  32.987  1.00  0.00     0.261 C 
BRANCH  79  80
ATOM     80  O   UNL A   1      33.165  35.052  32.036  1.00  0.00    -0.457 OA
BRANCH  80  81
ATOM     81  C   UNL A   1      32.930  35.966  31.045  1.00  0.00     0.376 C 
ATOM     82  O   UNL A   1      32.423  37.069  31.231  1.00  0.00    -0.242 OA
BRANCH  81  83
ATOM     83  C   UNL A   1      33.342  35.444  29.770  1.00  0.00     0.237 A 
ATOM     84  N   UNL A   1      32.814  34.381  29.195  1.00  0.00    -0.184 NA
ATOM     85  N   UNL A   1      34.326  35.923  28.956  1.00  0.00    -0.251 N 
ATOM     86  C   UNL A   1      33.546  34.224  28.053  1.00  0.00     0.268 A 
ATOM     87  N   UNL A   1      34.454  35.181  27.845  1.00  0.00    -0.132 NA
ATOM     88  H   UNL A   1      34.873  36.715  29.158  1.00  0.00     0.192 HD
BRANCH  86  89
ATOM     89  N   UNL A   1      33.522  33.110  27.213  1.00  0.00    -0.218 NA
ATOM     90  C   UNL A   1      32.691  32.208  27.627  1.00  0.00     0.123 C 
BRANCH  90  91
ATOM     91  C   UNL A   1      32.641  30.846  27.048  1.00  0.00    -0.000 A 
ATOM     92  C   UNL A   1      33.539  29.890  27.540  1.00  0.00     0.010 A 
ATOM     93  C   UNL A   1      31.868  30.574  25.916  1.00  0.00     0.095 A 
ATOM     94  C   UNL A   1      33.707  28.675  26.872  1.00  0.00     0.008 A 
ATOM     95  C   UNL A   1      32.072  29.367  25.230  1.00  0.00     0.270 A 
ATOM     96  C   UNL A   1      32.988  28.416  25.705  1.00  0.00     0.085 A 
BRANCH  95  97
ATOM     97  N   UNL A   1      31.379  29.126  23.959  1.00  0.00     0.062 N 
ATOM     98  O   UNL A   1      30.224  29.560  23.840  1.00  0.00    -0.258 OA
ATOM     99  O   UNL A   1      31.999  28.534  23.064  1.00  0.00    -0.258 OA
ENDBRANCH  95  97
ENDBRANCH  90  91
ENDBRANCH  86  89
ENDBRANCH  81  83
ENDBRANCH  80  81
ENDBRANCH  79  80
ENDBRANCH  78  79
ENDBRANCH  77  78
ENDBRANCH  76  77
ENDBRANCH   1  76
TORSDOF 23
ENDMDL
