MODEL 1
REMARK VINA RESULT:     -10.1      0.000      0.000
REMARK SMILES Cc1ccc(C[N@H+]2CCC[C@@H](C(=O)OCCOCCOCCOC(=O)c3ccc(-c4c5nc(c(-c6c(F)cc(S(=O)(=O)[O-])cc6F)c6ccc([nH]6)c(-c6c(F)cc(S(=O)(=O)[O-])cc6F)c6nc(c(-c7c(F)cc(S(=O)(=O)[O-])cc7F)c7ccc4[nH]7)C=C6)C=C5)cc3)C2)o1
REMARK SMILES IDX 19 1 18 2 17 3 16 4 15 5 14 6 12 7 13 8 11 9 7 10 8 11 92 12
REMARK SMILES IDX 9 14 10 15 6 16 5 17 1 18 2 19 3 20 93 21 4 22 20 23 21 24
REMARK SMILES IDX 22 25 23 26 24 27 25 28 26 29 27 30 91 31 28 32 90 33 29 34
REMARK SMILES IDX 30 35 31 36 84 37 32 38 89 39 83 40 85 41 33 42 88 43 82 44
REMARK SMILES IDX 81 45 34 47 68 48 47 49 67 50 48 51 51 52 66 53 86 54 49 55
REMARK SMILES IDX 50 56 65 58 87 59 52 60 35 61 36 62 45 63 37 64 38 65 44 66
REMARK SMILES IDX 46 67 39 68 40 69 41 70 42 71 43 72 69 73 70 74 79 75 71 76
REMARK SMILES IDX 72 77 78 78 80 79 73 80 74 81 75 82 76 83 77 84 53 85 54 86
REMARK SMILES IDX 63 87 55 88 56 89 62 90 64 91 57 92 58 93 59 94 60 95 61 96
REMARK H PARENT 7 13 85 46 51 57
REMARK Flexibility Score: inf
ROOT
ATOM      1  C   UNL A   1      40.302  21.408  26.967  1.00  0.00     0.188 C 
ENDROOT
BRANCH   1   2
ATOM      2  C   UNL A   1      39.321  22.159  26.041  1.00  0.00     0.188 C 
BRANCH   2   3
ATOM      3  O   UNL A   1      38.017  21.623  25.841  1.00  0.00    -0.376 OA
BRANCH   3   4
ATOM      4  C   UNL A   1      37.363  21.875  24.605  1.00  0.00     0.202 C 
BRANCH   4   5
ATOM      5  C   UNL A   1      36.826  23.288  24.313  1.00  0.00     0.261 C 
BRANCH   5   6
ATOM      6  O   UNL A   1      35.586  23.374  23.568  1.00  0.00    -0.463 OA
BRANCH   6   7
ATOM      7  C   UNL A   1      34.564  23.993  24.218  1.00  0.00     0.314 C 
ATOM      8  O   UNL A   1      34.377  25.205  24.155  1.00  0.00    -0.252 OA
BRANCH   7   9
ATOM      9  C   UNL A   1      33.698  23.076  25.099  1.00  0.00     0.154 C 
ATOM     10  N   UNL A   1      32.724  20.753  24.920  1.00  0.00    -0.328 N 
ATOM     11  C   UNL A   1      33.346  20.326  26.175  1.00  0.00     0.262 C 
ATOM     12  C   UNL A   1      33.512  21.803  24.261  1.00  0.00     0.278 C 
ATOM     13  H   UNL A   1      31.814  21.139  25.166  1.00  0.00     0.348 HD
ATOM     14  C   UNL A   1      33.467  21.519  27.120  1.00  0.00     0.062 C 
ATOM     15  C   UNL A   1      34.240  22.675  26.478  1.00  0.00     0.027 C 
BRANCH  10  16
ATOM     16  C   UNL A   1      32.490  19.620  23.993  1.00  0.00     0.338 C 
BRANCH  16  17
ATOM     17  C   UNL A   1      33.174  18.332  24.327  1.00  0.00     0.158 A 
ATOM     18  C   UNL A   1      32.550  15.055  25.604  1.00  0.00     0.087 C 
ATOM     19  C   UNL A   1      33.211  16.262  25.069  1.00  0.00     0.101 A 
ATOM     20  C   UNL A   1      34.496  16.553  24.671  1.00  0.00     0.046 A 
ATOM     21  O   UNL A   1      32.416  17.352  24.898  1.00  0.00    -0.460 OA
ATOM     22  C   UNL A   1      34.474  17.889  24.195  1.00  0.00     0.052 A 
ENDBRANCH  16  17
ENDBRANCH  10  16
ENDBRANCH   7   9
ENDBRANCH   6   7
ENDBRANCH   5   6
ENDBRANCH   4   5
ENDBRANCH   3   4
ENDBRANCH   2   3
ENDBRANCH   1   2
BRANCH   1  23
ATOM     23  O   UNL A   1      41.167  20.539  26.271  1.00  0.00    -0.376 OA
BRANCH  23  24
ATOM     24  C   UNL A   1      42.551  20.792  26.354  1.00  0.00     0.202 C 
BRANCH  24  25
ATOM     25  C   UNL A   1      43.033  22.140  25.795  1.00  0.00     0.261 C 
BRANCH  25  26
ATOM     26  O   UNL A   1      42.836  23.298  26.629  1.00  0.00    -0.460 OA
BRANCH  26  27
ATOM     27  C   UNL A   1      42.877  24.509  26.025  1.00  0.00     0.338 C 
ATOM     28  O   UNL A   1      43.082  24.719  24.837  1.00  0.00    -0.246 OA
BRANCH  27  29
ATOM     29  C   UNL A   1      42.407  25.536  26.987  1.00  0.00     0.060 A 
ATOM     30  C   UNL A   1      42.966  26.822  26.943  1.00  0.00     0.016 A 
ATOM     31  C   UNL A   1      41.432  25.232  27.938  1.00  0.00     0.016 A 
ATOM     32  C   UNL A   1      42.570  27.798  27.865  1.00  0.00     0.010 A 
ATOM     33  C   UNL A   1      41.055  26.204  28.875  1.00  0.00     0.010 A 
ATOM     34  C   UNL A   1      41.642  27.483  28.865  1.00  0.00    -0.014 A 
BRANCH  34  35
ATOM     35  C   UNL A   1      41.418  28.408  30.011  1.00  0.00     0.031 A 
ATOM     36  C   UNL A   1      42.283  28.258  31.235  1.00  0.00     0.074 A 
ATOM     37  C   UNL A   1      40.463  29.357  29.987  1.00  0.00     0.049 A 
ATOM     38  N   UNL A   1      42.206  28.867  32.390  1.00  0.00    -0.248 NA
ATOM     39  C   UNL A   1      43.378  27.279  31.141  1.00  0.00     0.031 C 
ATOM     40  C   UNL A   1      39.584  29.644  28.857  1.00  0.00     0.029 A 
ATOM     41  N   UNL A   1      40.063  30.244  30.960  1.00  0.00    -0.354 N 
ATOM     42  C   UNL A   1      43.229  28.336  33.167  1.00  0.00     0.074 A 
ATOM     43  C   UNL A   1      43.895  27.336  32.360  1.00  0.00     0.031 C 
ATOM     44  C   UNL A   1      38.733  30.622  29.210  1.00  0.00     0.029 A 
ATOM     45  C   UNL A   1      38.982  31.012  30.596  1.00  0.00     0.049 A 
ATOM     46  H   UNL A   1      40.509  30.322  31.834  1.00  0.00     0.167 HD
ATOM     47  C   UNL A   1      43.583  28.651  34.435  1.00  0.00     0.037 A 
ATOM     48  C   UNL A   1      38.256  31.905  31.303  1.00  0.00     0.037 A 
ATOM     49  C   UNL A   1      42.917  29.642  35.241  1.00  0.00     0.049 A 
ATOM     50  C   UNL A   1      38.620  32.189  32.740  1.00  0.00     0.074 A 
ATOM     51  C   UNL A   1      43.215  30.040  36.532  1.00  0.00     0.029 A 
ATOM     52  N   UNL A   1      41.813  30.381  34.842  1.00  0.00    -0.354 N 
ATOM     53  N   UNL A   1      39.598  31.690  33.457  1.00  0.00    -0.248 NA
ATOM     54  C   UNL A   1      37.779  33.156  33.462  1.00  0.00     0.031 C 
ATOM     55  C   UNL A   1      42.256  30.975  36.936  1.00  0.00     0.029 A 
ATOM     56  C   UNL A   1      41.401  31.211  35.871  1.00  0.00     0.049 A 
ATOM     57  H   UNL A   1      41.386  30.325  33.957  1.00  0.00     0.167 HD
ATOM     58  C   UNL A   1      39.509  32.304  34.705  1.00  0.00     0.074 A 
ATOM     59  C   UNL A   1      38.388  33.218  34.640  1.00  0.00     0.031 C 
ATOM     60  C   UNL A   1      40.288  32.126  35.801  1.00  0.00     0.037 A 
BRANCH  47  61
ATOM     61  C   UNL A   1      44.725  27.883  35.047  1.00  0.00     0.058 A 
ATOM     62  C   UNL A   1      46.052  28.337  34.970  1.00  0.00     0.135 A 
ATOM     63  C   UNL A   1      44.483  26.684  35.737  1.00  0.00     0.135 A 
ATOM     64  F   UNL A   1      46.343  29.467  34.307  1.00  0.00    -0.206 F 
ATOM     65  C   UNL A   1      47.101  27.611  35.525  1.00  0.00     0.059 A 
ATOM     66  C   UNL A   1      45.513  25.959  36.328  1.00  0.00     0.059 A 
ATOM     67  F   UNL A   1      43.234  26.204  35.841  1.00  0.00    -0.206 F 
ATOM     68  C   UNL A   1      46.821  26.422  36.201  1.00  0.00     0.060 A 
BRANCH  68  69
ATOM     69  S   UNL A   1      48.196  25.489  36.907  1.00  0.00     0.124 S 
ATOM     70  O   UNL A   1      48.981  26.552  37.526  1.00  0.00    -0.237 OA
ATOM     71  O   UNL A   1      47.517  24.584  37.828  1.00  0.00    -0.237 OA
ATOM     72  O   UNL A   1      48.809  24.853  35.744  1.00  0.00    -0.744 OA
ENDBRANCH  68  69
ENDBRANCH  47  61
BRANCH  48  73
ATOM     73  C   UNL A   1      37.096  32.592  30.669  1.00  0.00     0.058 A 
ATOM     74  C   UNL A   1      35.784  32.136  30.870  1.00  0.00     0.135 A 
ATOM     75  C   UNL A   1      37.274  33.716  29.845  1.00  0.00     0.135 A 
ATOM     76  F   UNL A   1      35.560  31.057  31.637  1.00  0.00    -0.206 F 
ATOM     77  C   UNL A   1      34.693  32.759  30.273  1.00  0.00     0.059 A 
ATOM     78  C   UNL A   1      36.196  34.375  29.261  1.00  0.00     0.059 A 
ATOM     79  F   UNL A   1      38.506  34.198  29.622  1.00  0.00    -0.206 F 
ATOM     80  C   UNL A   1      34.909  33.884  29.475  1.00  0.00     0.060 A 
BRANCH  80  81
ATOM     81  S   UNL A   1      33.480  34.721  28.754  1.00  0.00     0.124 S 
ATOM     82  O   UNL A   1      34.091  35.929  28.211  1.00  0.00    -0.237 OA
ATOM     83  O   UNL A   1      33.019  33.742  27.775  1.00  0.00    -0.237 OA
ATOM     84  O   UNL A   1      32.595  34.920  29.898  1.00  0.00    -0.744 OA
ENDBRANCH  80  81
ENDBRANCH  48  73
BRANCH  60  85
ATOM     85  C   UNL A   1      39.991  32.966  37.018  1.00  0.00     0.058 A 
ATOM     86  C   UNL A   1      40.735  34.113  37.332  1.00  0.00     0.135 A 
ATOM     87  C   UNL A   1      38.903  32.647  37.849  1.00  0.00     0.135 A 
ATOM     88  F   UNL A   1      41.789  34.464  36.577  1.00  0.00    -0.206 F 
ATOM     89  C   UNL A   1      40.429  34.899  38.440  1.00  0.00     0.059 A 
ATOM     90  C   UNL A   1      38.559  33.436  38.943  1.00  0.00     0.059 A 
ATOM     91  F   UNL A   1      38.147  31.568  37.591  1.00  0.00    -0.206 F 
ATOM     92  C   UNL A   1      39.336  34.554  39.238  1.00  0.00     0.060 A 
BRANCH  92  93
ATOM     93  S   UNL A   1      38.929  35.603  40.651  1.00  0.00     0.124 S 
ATOM     94  O   UNL A   1      37.797  34.888  41.232  1.00  0.00    -0.237 OA
ATOM     95  O   UNL A   1      40.164  35.574  41.427  1.00  0.00    -0.237 OA
ATOM     96  O   UNL A   1      38.610  36.890  40.040  1.00  0.00    -0.744 OA
ENDBRANCH  92  93
ENDBRANCH  60  85
ENDBRANCH  34  35
ENDBRANCH  27  29
ENDBRANCH  26  27
ENDBRANCH  25  26
ENDBRANCH  24  25
ENDBRANCH  23  24
ENDBRANCH   1  23
TORSDOF 22
ENDMDL
MODEL 2
REMARK VINA RESULT:     -10.0      1.772      8.688
REMARK SMILES Cc1ccc(C[N@H+]2CCC[C@@H](C(=O)OCCOCCOCCOC(=O)c3ccc(-c4c5nc(c(-c6c(F)cc(S(=O)(=O)[O-])cc6F)c6ccc([nH]6)c(-c6c(F)cc(S(=O)(=O)[O-])cc6F)c6nc(c(-c7c(F)cc(S(=O)(=O)[O-])cc7F)c7ccc4[nH]7)C=C6)C=C5)cc3)C2)o1
REMARK SMILES IDX 19 1 18 2 17 3 16 4 15 5 14 6 12 7 13 8 11 9 7 10 8 11 92 12
REMARK SMILES IDX 9 14 10 15 6 16 5 17 1 18 2 19 3 20 93 21 4 22 20 23 21 24
REMARK SMILES IDX 22 25 23 26 24 27 25 28 26 29 27 30 91 31 28 32 90 33 29 34
REMARK SMILES IDX 30 35 31 36 84 37 32 38 89 39 83 40 85 41 33 42 88 43 82 44
REMARK SMILES IDX 81 45 34 47 68 48 47 49 67 50 48 51 51 52 66 53 86 54 49 55
REMARK SMILES IDX 50 56 65 58 87 59 52 60 35 61 36 62 45 63 37 64 38 65 44 66
REMARK SMILES IDX 46 67 39 68 40 69 41 70 42 71 43 72 69 73 70 74 79 75 71 76
REMARK SMILES IDX 72 77 78 78 80 79 73 80 74 81 75 82 76 83 77 84 53 85 54 86
REMARK SMILES IDX 63 87 55 88 56 89 62 90 64 91 57 92 58 93 59 94 60 95 61 96
REMARK H PARENT 7 13 85 46 51 57
REMARK Flexibility Score: inf
ROOT
ATOM      1  C   UNL A   1      45.901  21.137  25.002  1.00  0.00     0.188 C 
ENDROOT
BRANCH   1   2
ATOM      2  C   UNL A   1      44.796  20.183  24.501  1.00  0.00     0.188 C 
BRANCH   2   3
ATOM      3  O   UNL A   1      44.490  19.023  25.268  1.00  0.00    -0.376 OA
BRANCH   3   4
ATOM      4  C   UNL A   1      43.233  18.957  25.925  1.00  0.00     0.202 C 
BRANCH   4   5
ATOM      5  C   UNL A   1      42.231  20.113  25.751  1.00  0.00     0.261 C 
BRANCH   5   6
ATOM      6  O   UNL A   1      41.148  20.189  26.711  1.00  0.00    -0.463 OA
BRANCH   6   7
ATOM      7  C   UNL A   1      40.867  21.440  27.166  1.00  0.00     0.314 C 
ATOM      8  O   UNL A   1      41.323  21.879  28.218  1.00  0.00    -0.252 OA
BRANCH   7   9
ATOM      9  C   UNL A   1      39.875  22.242  26.305  1.00  0.00     0.154 C 
ATOM     10  N   UNL A   1      37.624  21.827  25.240  1.00  0.00    -0.328 N 
ATOM     11  C   UNL A   1      37.026  22.990  25.898  1.00  0.00     0.262 C 
ATOM     12  C   UNL A   1      38.722  21.265  26.037  1.00  0.00     0.278 C 
ATOM     13  H   UNL A   1      38.005  22.161  24.356  1.00  0.00     0.348 HD
ATOM     14  C   UNL A   1      38.089  24.067  26.103  1.00  0.00     0.062 C 
ATOM     15  C   UNL A   1      39.291  23.536  26.890  1.00  0.00     0.027 C 
BRANCH  10  16
ATOM     16  C   UNL A   1      36.621  20.781  24.925  1.00  0.00     0.338 C 
BRANCH  16  17
ATOM     17  C   UNL A   1      35.223  21.250  24.674  1.00  0.00     0.158 A 
ATOM     18  C   UNL A   1      33.310  23.424  22.584  1.00  0.00     0.087 C 
ATOM     19  C   UNL A   1      33.715  22.457  23.624  1.00  0.00     0.101 A 
ATOM     20  C   UNL A   1      33.029  21.694  24.542  1.00  0.00     0.046 A 
ATOM     21  O   UNL A   1      35.049  22.218  23.729  1.00  0.00    -0.460 OA
ATOM     22  C   UNL A   1      34.002  20.918  25.223  1.00  0.00     0.052 A 
ENDBRANCH  16  17
ENDBRANCH  10  16
ENDBRANCH   7   9
ENDBRANCH   6   7
ENDBRANCH   5   6
ENDBRANCH   4   5
ENDBRANCH   3   4
ENDBRANCH   2   3
ENDBRANCH   1   2
BRANCH   1  23
ATOM     23  O   UNL A   1      45.426  22.432  25.295  1.00  0.00    -0.376 OA
BRANCH  23  24
ATOM     24  C   UNL A   1      44.067  22.701  25.038  1.00  0.00     0.202 C 
BRANCH  24  25
ATOM     25  C   UNL A   1      43.645  24.179  25.073  1.00  0.00     0.261 C 
BRANCH  25  26
ATOM     26  O   UNL A   1      42.727  24.568  26.113  1.00  0.00    -0.460 OA
BRANCH  26  27
ATOM     27  C   UNL A   1      42.130  25.776  25.989  1.00  0.00     0.338 C 
ATOM     28  O   UNL A   1      41.564  26.206  24.993  1.00  0.00    -0.246 OA
BRANCH  27  29
ATOM     29  C   UNL A   1      42.069  26.415  27.327  1.00  0.00     0.060 A 
ATOM     30  C   UNL A   1      41.147  25.939  28.272  1.00  0.00     0.016 A 
ATOM     31  C   UNL A   1      42.905  27.486  27.646  1.00  0.00     0.016 A 
ATOM     32  C   UNL A   1      41.042  26.550  29.527  1.00  0.00     0.010 A 
ATOM     33  C   UNL A   1      42.780  28.110  28.894  1.00  0.00     0.010 A 
ATOM     34  C   UNL A   1      41.829  27.668  29.832  1.00  0.00    -0.014 A 
BRANCH  34  35
ATOM     35  C   UNL A   1      41.540  28.493  31.038  1.00  0.00     0.031 A 
ATOM     36  C   UNL A   1      40.398  29.474  30.980  1.00  0.00     0.074 A 
ATOM     37  C   UNL A   1      42.272  28.395  32.164  1.00  0.00     0.049 A 
ATOM     38  N   UNL A   1      40.025  30.371  31.855  1.00  0.00    -0.248 NA
ATOM     39  C   UNL A   1      39.574  29.440  29.761  1.00  0.00     0.031 C 
ATOM     40  C   UNL A   1      43.374  27.461  32.376  1.00  0.00     0.029 A 
ATOM     41  N   UNL A   1      42.205  29.111  33.336  1.00  0.00    -0.354 N 
ATOM     42  C   UNL A   1      38.934  31.021  31.290  1.00  0.00     0.074 A 
ATOM     43  C   UNL A   1      38.723  30.432  29.985  1.00  0.00     0.031 C 
ATOM     44  C   UNL A   1      43.895  27.679  33.596  1.00  0.00     0.029 A 
ATOM     45  C   UNL A   1      43.188  28.784  34.241  1.00  0.00     0.049 A 
ATOM     46  H   UNL A   1      41.518  29.795  33.512  1.00  0.00     0.167 HD
ATOM     47  C   UNL A   1      38.176  32.016  31.808  1.00  0.00     0.037 A 
ATOM     48  C   UNL A   1      43.504  29.327  35.435  1.00  0.00     0.037 A 
ATOM     49  C   UNL A   1      38.389  32.607  33.104  1.00  0.00     0.049 A 
ATOM     50  C   UNL A   1      42.693  30.485  35.965  1.00  0.00     0.074 A 
ATOM     51  C   UNL A   1      37.662  33.610  33.721  1.00  0.00     0.029 A 
ATOM     52  N   UNL A   1      39.408  32.260  33.979  1.00  0.00    -0.354 N 
ATOM     53  N   UNL A   1      41.656  31.080  35.426  1.00  0.00    -0.248 NA
ATOM     54  C   UNL A   1      43.099  31.046  37.262  1.00  0.00     0.031 C 
ATOM     55  C   UNL A   1      38.277  33.913  34.940  1.00  0.00     0.029 A 
ATOM     56  C   UNL A   1      39.347  33.050  35.116  1.00  0.00     0.049 A 
ATOM     57  H   UNL A   1      40.077  31.557  33.816  1.00  0.00     0.167 HD
ATOM     58  C   UNL A   1      41.266  32.064  36.332  1.00  0.00     0.074 A 
ATOM     59  C   UNL A   1      42.173  31.977  37.457  1.00  0.00     0.031 C 
ATOM     60  C   UNL A   1      40.248  32.956  36.238  1.00  0.00     0.037 A 
BRANCH  47  61
ATOM     61  C   UNL A   1      37.064  32.559  30.950  1.00  0.00     0.058 A 
ATOM     62  C   UNL A   1      37.302  33.500  29.934  1.00  0.00     0.135 A 
ATOM     63  C   UNL A   1      35.744  32.117  31.136  1.00  0.00     0.135 A 
ATOM     64  F   UNL A   1      38.540  33.971  29.723  1.00  0.00    -0.206 F 
ATOM     65  C   UNL A   1      36.265  34.008  29.158  1.00  0.00     0.059 A 
ATOM     66  C   UNL A   1      34.697  32.587  30.350  1.00  0.00     0.059 A 
ATOM     67  F   UNL A   1      35.461  31.219  32.093  1.00  0.00    -0.206 F 
ATOM     68  C   UNL A   1      34.965  33.545  29.375  1.00  0.00     0.060 A 
BRANCH  68  69
ATOM     69  S   UNL A   1      33.631  34.222  28.364  1.00  0.00     0.124 S 
ATOM     70  O   UNL A   1      34.329  35.266  27.622  1.00  0.00    -0.237 OA
ATOM     71  O   UNL A   1      33.212  33.062  27.585  1.00  0.00    -0.237 OA
ATOM     72  O   UNL A   1      32.663  34.695  29.351  1.00  0.00    -0.744 OA
ENDBRANCH  68  69
ENDBRANCH  47  61
BRANCH  48  73
ATOM     73  C   UNL A   1      44.654  28.792  36.217  1.00  0.00     0.058 A 
ATOM     74  C   UNL A   1      44.493  27.711  37.097  1.00  0.00     0.135 A 
ATOM     75  C   UNL A   1      45.937  29.353  36.105  1.00  0.00     0.135 A 
ATOM     76  F   UNL A   1      43.285  27.147  37.253  1.00  0.00    -0.206 F 
ATOM     77  C   UNL A   1      45.556  27.211  37.844  1.00  0.00     0.059 A 
ATOM     78  C   UNL A   1      47.022  28.852  36.818  1.00  0.00     0.059 A 
ATOM     79  F   UNL A   1      46.149  30.386  35.274  1.00  0.00    -0.206 F 
ATOM     80  C   UNL A   1      46.819  27.785  37.692  1.00  0.00     0.060 A 
BRANCH  80  81
ATOM     81  S   UNL A   1      48.203  27.089  38.620  1.00  0.00     0.124 S 
ATOM     82  O   UNL A   1      49.333  27.815  38.051  1.00  0.00    -0.237 OA
ATOM     83  O   UNL A   1      47.849  27.433  39.994  1.00  0.00    -0.237 OA
ATOM     84  O   UNL A   1      48.140  25.666  38.301  1.00  0.00    -0.744 OA
ENDBRANCH  80  81
ENDBRANCH  48  73
BRANCH  60  85
ATOM     85  C   UNL A   1      40.023  33.889  37.400  1.00  0.00     0.058 A 
ATOM     86  C   UNL A   1      40.665  35.133  37.493  1.00  0.00     0.135 A 
ATOM     87  C   UNL A   1      39.102  33.555  38.408  1.00  0.00     0.135 A 
ATOM     88  F   UNL A   1      41.559  35.504  36.563  1.00  0.00    -0.206 F 
ATOM     89  C   UNL A   1      40.422  36.001  38.555  1.00  0.00     0.059 A 
ATOM     90  C   UNL A   1      38.820  34.421  39.461  1.00  0.00     0.059 A 
ATOM     91  F   UNL A   1      38.448  32.383  38.366  1.00  0.00    -0.206 F 
ATOM     92  C   UNL A   1      39.494  35.637  39.532  1.00  0.00     0.060 A 
BRANCH  92  93
ATOM     93  S   UNL A   1      39.163  36.788  40.885  1.00  0.00     0.124 S 
ATOM     94  O   UNL A   1      40.514  37.163  41.289  1.00  0.00    -0.237 OA
ATOM     95  O   UNL A   1      38.386  37.831  40.223  1.00  0.00    -0.237 OA
ATOM     96  O   UNL A   1      38.422  35.979  41.848  1.00  0.00    -0.744 OA
ENDBRANCH  92  93
ENDBRANCH  60  85
ENDBRANCH  34  35
ENDBRANCH  27  29
ENDBRANCH  26  27
ENDBRANCH  25  26
ENDBRANCH  24  25
ENDBRANCH  23  24
ENDBRANCH   1  23
TORSDOF 22
ENDMDL
MODEL 3
REMARK VINA RESULT:     -10.0      2.230      9.175
REMARK SMILES Cc1ccc(C[N@H+]2CCC[C@@H](C(=O)OCCOCCOCCOC(=O)c3ccc(-c4c5nc(c(-c6c(F)cc(S(=O)(=O)[O-])cc6F)c6ccc([nH]6)c(-c6c(F)cc(S(=O)(=O)[O-])cc6F)c6nc(c(-c7c(F)cc(S(=O)(=O)[O-])cc7F)c7ccc4[nH]7)C=C6)C=C5)cc3)C2)o1
REMARK SMILES IDX 19 1 18 2 17 3 16 4 15 5 14 6 12 7 13 8 11 9 7 10 8 11 92 12
REMARK SMILES IDX 9 14 10 15 6 16 5 17 1 18 2 19 3 20 93 21 4 22 20 23 21 24
REMARK SMILES IDX 22 25 23 26 24 27 25 28 26 29 27 30 91 31 28 32 90 33 29 34
REMARK SMILES IDX 30 35 31 36 84 37 32 38 89 39 83 40 85 41 33 42 88 43 82 44
REMARK SMILES IDX 81 45 34 47 68 48 47 49 67 50 48 51 51 52 66 53 86 54 49 55
REMARK SMILES IDX 50 56 65 58 87 59 52 60 35 61 36 62 45 63 37 64 38 65 44 66
REMARK SMILES IDX 46 67 39 68 40 69 41 70 42 71 43 72 69 73 70 74 79 75 71 76
REMARK SMILES IDX 72 77 78 78 80 79 73 80 74 81 75 82 76 83 77 84 53 85 54 86
REMARK SMILES IDX 63 87 55 88 56 89 62 90 64 91 57 92 58 93 59 94 60 95 61 96
REMARK H PARENT 7 13 85 46 51 57
REMARK Flexibility Score: inf
ROOT
ATOM      1  C   UNL A   1      37.846  21.829  25.163  1.00  0.00     0.188 C 
ENDROOT
BRANCH   1   2
ATOM      2  C   UNL A   1      36.426  21.580  25.715  1.00  0.00     0.188 C 
BRANCH   2   3
ATOM      3  O   UNL A   1      35.343  21.463  24.798  1.00  0.00    -0.376 OA
BRANCH   3   4
ATOM      4  C   UNL A   1      34.151  22.190  25.060  1.00  0.00     0.202 C 
BRANCH   4   5
ATOM      5  C   UNL A   1      33.011  21.510  25.839  1.00  0.00     0.261 C 
BRANCH   5   6
ATOM      6  O   UNL A   1      31.695  22.105  25.724  1.00  0.00    -0.463 OA
BRANCH   6   7
ATOM      7  C   UNL A   1      31.560  23.327  26.306  1.00  0.00     0.314 C 
ATOM      8  O   UNL A   1      31.617  23.491  27.521  1.00  0.00    -0.252 OA
BRANCH   7   9
ATOM      9  C   UNL A   1      31.256  24.483  25.337  1.00  0.00     0.154 C 
ATOM     10  N   UNL A   1      32.428  26.583  24.569  1.00  0.00    -0.328 N 
ATOM     11  C   UNL A   1      32.321  26.204  23.159  1.00  0.00     0.262 C 
ATOM     12  C   UNL A   1      32.481  25.402  25.440  1.00  0.00     0.278 C 
ATOM     13  H   UNL A   1      31.584  27.110  24.791  1.00  0.00     0.348 HD
ATOM     14  C   UNL A   1      31.057  25.375  22.944  1.00  0.00     0.062 C 
ATOM     15  C   UNL A   1      31.022  24.146  23.858  1.00  0.00     0.027 C 
BRANCH  10  16
ATOM     16  C   UNL A   1      33.587  27.472  24.827  1.00  0.00     0.338 C 
BRANCH  16  17
ATOM     17  C   UNL A   1      33.351  28.625  25.750  1.00  0.00     0.158 A 
ATOM     18  C   UNL A   1      31.277  31.498  26.203  1.00  0.00     0.087 C 
ATOM     19  C   UNL A   1      32.315  30.461  26.375  1.00  0.00     0.101 A 
ATOM     20  C   UNL A   1      33.244  30.189  27.354  1.00  0.00     0.046 A 
ATOM     21  O   UNL A   1      32.405  29.536  25.383  1.00  0.00    -0.460 OA
ATOM     22  C   UNL A   1      33.915  29.007  26.950  1.00  0.00     0.052 A 
ENDBRANCH  16  17
ENDBRANCH  10  16
ENDBRANCH   7   9
ENDBRANCH   6   7
ENDBRANCH   5   6
ENDBRANCH   4   5
ENDBRANCH   3   4
ENDBRANCH   2   3
ENDBRANCH   1   2
BRANCH   1  23
ATOM     23  O   UNL A   1      38.864  21.351  26.014  1.00  0.00    -0.376 OA
BRANCH  23  24
ATOM     24  C   UNL A   1      40.057  22.096  26.086  1.00  0.00     0.202 C 
BRANCH  24  25
ATOM     25  C   UNL A   1      40.044  23.319  27.016  1.00  0.00     0.261 C 
BRANCH  25  26
ATOM     26  O   UNL A   1      39.555  24.554  26.460  1.00  0.00    -0.460 OA
BRANCH  26  27
ATOM     27  C   UNL A   1      40.434  25.578  26.360  1.00  0.00     0.338 C 
ATOM     28  O   UNL A   1      40.948  25.995  25.330  1.00  0.00    -0.246 OA
BRANCH  27  29
ATOM     29  C   UNL A   1      40.509  26.269  27.671  1.00  0.00     0.060 A 
ATOM     30  C   UNL A   1      39.474  26.087  28.601  1.00  0.00     0.016 A 
ATOM     31  C   UNL A   1      41.585  27.102  27.980  1.00  0.00     0.016 A 
ATOM     32  C   UNL A   1      39.499  26.759  29.829  1.00  0.00     0.010 A 
ATOM     33  C   UNL A   1      41.596  27.792  29.200  1.00  0.00     0.010 A 
ATOM     34  C   UNL A   1      40.541  27.649  30.120  1.00  0.00    -0.014 A 
BRANCH  34  35
ATOM     35  C   UNL A   1      40.445  28.573  31.285  1.00  0.00     0.031 A 
ATOM     36  C   UNL A   1      39.453  29.705  31.225  1.00  0.00     0.074 A 
ATOM     37  C   UNL A   1      41.223  28.432  32.375  1.00  0.00     0.049 A 
ATOM     38  N   UNL A   1      39.265  30.693  32.060  1.00  0.00    -0.248 NA
ATOM     39  C   UNL A   1      38.560  29.724  30.055  1.00  0.00     0.031 C 
ATOM     40  C   UNL A   1      42.193  27.361  32.588  1.00  0.00     0.029 A 
ATOM     41  N   UNL A   1      41.330  29.213  33.501  1.00  0.00    -0.354 N 
ATOM     42  C   UNL A   1      38.245  31.463  31.512  1.00  0.00     0.074 A 
ATOM     43  C   UNL A   1      37.874  30.839  30.260  1.00  0.00     0.031 C 
ATOM     44  C   UNL A   1      42.813  27.567  33.763  1.00  0.00     0.029 A 
ATOM     45  C   UNL A   1      42.310  28.797  34.372  1.00  0.00     0.049 A 
ATOM     46  H   UNL A   1      40.759  29.998  33.669  1.00  0.00     0.167 HD
ATOM     47  C   UNL A   1      37.669  32.584  32.005  1.00  0.00     0.037 A 
ATOM     48  C   UNL A   1      42.771  29.353  35.512  1.00  0.00     0.037 A 
ATOM     49  C   UNL A   1      38.042  33.209  33.249  1.00  0.00     0.049 A 
ATOM     50  C   UNL A   1      42.167  30.644  36.009  1.00  0.00     0.074 A 
ATOM     51  C   UNL A   1      37.504  34.339  33.838  1.00  0.00     0.029 A 
ATOM     52  N   UNL A   1      39.053  32.766  34.089  1.00  0.00    -0.354 N 
ATOM     53  N   UNL A   1      41.194  31.353  35.489  1.00  0.00    -0.248 NA
ATOM     54  C   UNL A   1      42.726  31.211  37.245  1.00  0.00     0.031 C 
ATOM     55  C   UNL A   1      38.229  34.616  35.001  1.00  0.00     0.029 A 
ATOM     56  C   UNL A   1      39.174  33.618  35.175  1.00  0.00     0.049 A 
ATOM     57  H   UNL A   1      39.604  31.965  33.937  1.00  0.00     0.167 HD
ATOM     58  C   UNL A   1      41.004  32.432  36.350  1.00  0.00     0.074 A 
ATOM     59  C   UNL A   1      41.956  32.275  37.429  1.00  0.00     0.031 C 
ATOM     60  C   UNL A   1      40.119  33.455  36.253  1.00  0.00     0.037 A 
BRANCH  47  61
ATOM     61  C   UNL A   1      36.596  33.235  31.174  1.00  0.00     0.058 A 
ATOM     62  C   UNL A   1      36.899  34.001  30.036  1.00  0.00     0.135 A 
ATOM     63  C   UNL A   1      35.242  33.075  31.512  1.00  0.00     0.135 A 
ATOM     64  F   UNL A   1      38.176  34.203  29.676  1.00  0.00    -0.206 F 
ATOM     65  C   UNL A   1      35.900  34.612  29.284  1.00  0.00     0.059 A 
ATOM     66  C   UNL A   1      34.225  33.649  30.756  1.00  0.00     0.059 A 
ATOM     67  F   UNL A   1      34.895  32.353  32.589  1.00  0.00    -0.206 F 
ATOM     68  C   UNL A   1      34.566  34.431  29.653  1.00  0.00     0.060 A 
BRANCH  68  69
ATOM     69  S   UNL A   1      33.284  35.239  28.672  1.00  0.00     0.124 S 
ATOM     70  O   UNL A   1      34.084  36.055  27.765  1.00  0.00    -0.237 OA
ATOM     71  O   UNL A   1      32.597  34.104  28.064  1.00  0.00    -0.237 OA
ATOM     72  O   UNL A   1      32.511  35.979  29.665  1.00  0.00    -0.744 OA
ENDBRANCH  68  69
ENDBRANCH  47  61
BRANCH  48  73
ATOM     73  C   UNL A   1      43.880  28.701  36.265  1.00  0.00     0.058 A 
ATOM     74  C   UNL A   1      45.193  29.191  36.193  1.00  0.00     0.135 A 
ATOM     75  C   UNL A   1      43.651  27.572  37.069  1.00  0.00     0.135 A 
ATOM     76  F   UNL A   1      45.468  30.259  35.427  1.00  0.00    -0.206 F 
ATOM     77  C   UNL A   1      46.239  28.584  36.880  1.00  0.00     0.059 A 
ATOM     78  C   UNL A   1      44.675  26.965  37.790  1.00  0.00     0.059 A 
ATOM     79  F   UNL A   1      42.413  27.064  37.179  1.00  0.00    -0.206 F 
ATOM     80  C   UNL A   1      45.969  27.474  37.682  1.00  0.00     0.060 A 
BRANCH  80  81
ATOM     81  S   UNL A   1      47.324  26.730  38.616  1.00  0.00     0.124 S 
ATOM     82  O   UNL A   1      47.625  27.780  39.583  1.00  0.00    -0.237 OA
ATOM     83  O   UNL A   1      46.696  25.527  39.153  1.00  0.00    -0.237 OA
ATOM     84  O   UNL A   1      48.345  26.497  37.598  1.00  0.00    -0.744 OA
ENDBRANCH  80  81
ENDBRANCH  48  73
BRANCH  60  85
ATOM     85  C   UNL A   1      40.100  34.474  37.364  1.00  0.00     0.058 A 
ATOM     86  C   UNL A   1      40.830  35.670  37.292  1.00  0.00     0.135 A 
ATOM     87  C   UNL A   1      39.288  34.274  38.494  1.00  0.00     0.135 A 
ATOM     88  F   UNL A   1      41.627  35.914  36.239  1.00  0.00    -0.206 F 
ATOM     89  C   UNL A   1      40.776  36.619  38.310  1.00  0.00     0.059 A 
ATOM     90  C   UNL A   1      39.195  35.223  39.508  1.00  0.00     0.059 A 
ATOM     91  F   UNL A   1      38.558  33.153  38.612  1.00  0.00    -0.206 F 
ATOM     92  C   UNL A   1      39.952  36.387  39.413  1.00  0.00     0.060 A 
BRANCH  92  93
ATOM     93  S   UNL A   1      39.866  37.643  40.709  1.00  0.00     0.124 S 
ATOM     94  O   UNL A   1      41.266  38.036  40.832  1.00  0.00    -0.237 OA
ATOM     95  O   UNL A   1      38.976  38.638  40.120  1.00  0.00    -0.237 OA
ATOM     96  O   UNL A   1      39.316  36.917  41.851  1.00  0.00    -0.744 OA
ENDBRANCH  92  93
ENDBRANCH  60  85
ENDBRANCH  34  35
ENDBRANCH  27  29
ENDBRANCH  26  27
ENDBRANCH  25  26
ENDBRANCH  24  25
ENDBRANCH  23  24
ENDBRANCH   1  23
TORSDOF 22
ENDMDL
