MODEL 1
REMARK VINA RESULT:     -11.1      0.000      0.000
REMARK SMILES O=C(OCCOCCOCCOC(=O)c1ccccc1Nc1cccc(S(F)(F)(F)(F)F)c1)c1ccc(-c2c3nc(c(-c4c(F)cc(S(=O)(=O)[O-])cc4F)c4ccc([nH]4)c(-c4c(F)cc(S(=O)(=O)[O-])cc4F)c4nc(c(-c5c(F)cc(S(=O)(=O)[O-])cc5F)c5ccc2[nH]5)C=C4)C=C3)cc1
REMARK SMILES IDX 7 1 6 2 5 3 4 4 3 5 2 6 1 7 34 8 35 9 99 10 36 11 98 12
REMARK SMILES IDX 37 13 38 14 39 15 92 16 40 17 97 18 91 19 93 20 41 21 96 22
REMARK SMILES IDX 90 23 89 24 42 26 76 27 55 28 75 29 56 30 59 31 74 32 94 33
REMARK SMILES IDX 57 34 58 35 73 37 95 38 60 39 43 40 44 41 53 42 45 43 46 44
REMARK SMILES IDX 52 45 54 46 47 47 48 48 49 49 50 50 51 51 77 52 78 53 87 54
REMARK SMILES IDX 79 55 80 56 86 57 88 58 81 59 82 60 83 61 84 62 85 63 61 64
REMARK SMILES IDX 62 65 71 66 63 67 64 68 70 69 72 70 65 71 66 72 67 73 68 74
REMARK SMILES IDX 69 75 8 76 9 77 10 78 11 79 12 80 13 81 14 82 15 83 16 84
REMARK SMILES IDX 20 85 17 86 19 87 18 88 21 89 22 91 23 92 33 93 24 94 26 95
REMARK SMILES IDX 25 96 27 97 28 98 29 99 30 100 31 101 32 102
REMARK H PARENT 93 25 59 36 21 90
REMARK Flexibility Score: inf
ROOT
ATOM      1  C   UNL A   1      40.822  21.836  26.227  1.00  0.00     0.188 C 
ENDROOT
BRANCH   1   2
ATOM      2  O   UNL A   1      41.949  21.830  25.364  1.00  0.00    -0.376 OA
BRANCH   2   3
ATOM      3  C   UNL A   1      43.136  21.939  26.136  1.00  0.00     0.202 C 
BRANCH   3   4
ATOM      4  C   UNL A   1      43.180  23.300  26.810  1.00  0.00     0.261 C 
BRANCH   4   5
ATOM      5  O   UNL A   1      43.060  24.319  25.828  1.00  0.00    -0.460 OA
BRANCH   5   6
ATOM      6  C   UNL A   1      42.085  25.340  25.980  1.00  0.00     0.338 C 
ATOM      7  O   UNL A   1      41.270  25.586  25.036  1.00  0.00    -0.246 OA
BRANCH   6   8
ATOM      8  C   UNL A   1      42.016  26.140  27.271  1.00  0.00     0.060 A 
ATOM      9  C   UNL A   1      41.051  25.766  28.191  1.00  0.00     0.016 A 
ATOM     10  C   UNL A   1      42.758  27.226  27.453  1.00  0.00     0.016 A 
ATOM     11  C   UNL A   1      40.741  26.772  29.138  1.00  0.00     0.010 A 
ATOM     12  C   UNL A   1      42.484  28.096  28.480  1.00  0.00     0.010 A 
ATOM     13  C   UNL A   1      41.504  27.819  29.393  1.00  0.00    -0.014 A 
BRANCH  13  14
ATOM     14  C   UNL A   1      41.303  28.673  30.635  1.00  0.00     0.031 A 
ATOM     15  C   UNL A   1      42.164  28.567  31.727  1.00  0.00     0.074 A 
ATOM     16  C   UNL A   1      40.284  29.606  30.540  1.00  0.00     0.049 A 
ATOM     17  N   UNL A   1      42.190  29.331  32.821  1.00  0.00    -0.248 NA
ATOM     18  C   UNL A   1      43.225  27.556  31.846  1.00  0.00     0.031 C 
ATOM     19  C   UNL A   1      39.416  29.724  29.437  1.00  0.00     0.029 A 
ATOM     20  N   UNL A   1      39.926  30.563  31.463  1.00  0.00    -0.354 N 
ATOM     21  C   UNL A   1      43.169  28.935  33.637  1.00  0.00     0.074 A 
ATOM     22  C   UNL A   1      43.845  27.784  33.025  1.00  0.00     0.031 C 
ATOM     23  C   UNL A   1      38.541  30.731  29.696  1.00  0.00     0.029 A 
ATOM     24  C   UNL A   1      38.848  31.259  30.965  1.00  0.00     0.049 A 
ATOM     25  H   UNL A   1      40.366  30.722  32.329  1.00  0.00     0.167 HD
ATOM     26  C   UNL A   1      43.525  29.490  34.867  1.00  0.00     0.037 A 
ATOM     27  C   UNL A   1      38.154  32.297  31.569  1.00  0.00     0.037 A 
ATOM     28  C   UNL A   1      42.859  30.556  35.451  1.00  0.00     0.049 A 
ATOM     29  C   UNL A   1      38.474  32.815  32.826  1.00  0.00     0.074 A 
ATOM     30  C   UNL A   1      43.211  31.132  36.687  1.00  0.00     0.029 A 
ATOM     31  N   UNL A   1      41.765  31.236  34.964  1.00  0.00    -0.354 N 
ATOM     32  N   UNL A   1      39.478  32.444  33.624  1.00  0.00    -0.248 NA
ATOM     33  C   UNL A   1      37.728  33.892  33.489  1.00  0.00     0.031 C 
ATOM     34  C   UNL A   1      42.334  32.140  36.946  1.00  0.00     0.029 A 
ATOM     35  C   UNL A   1      41.421  32.209  35.877  1.00  0.00     0.049 A 
ATOM     36  H   UNL A   1      41.307  31.057  34.110  1.00  0.00     0.167 HD
ATOM     37  C   UNL A   1      39.476  33.182  34.736  1.00  0.00     0.074 A 
ATOM     38  C   UNL A   1      38.346  34.118  34.669  1.00  0.00     0.031 C 
ATOM     39  C   UNL A   1      40.374  33.114  35.802  1.00  0.00     0.037 A 
BRANCH  26  40
ATOM     40  C   UNL A   1      44.710  28.892  35.608  1.00  0.00     0.058 A 
ATOM     41  C   UNL A   1      45.946  29.447  35.318  1.00  0.00     0.135 A 
ATOM     42  C   UNL A   1      44.577  27.953  36.538  1.00  0.00     0.135 A 
ATOM     43  F   UNL A   1      46.094  30.549  34.589  1.00  0.00    -0.206 F 
ATOM     44  C   UNL A   1      47.038  28.732  35.867  1.00  0.00     0.059 A 
ATOM     45  C   UNL A   1      45.683  27.396  37.131  1.00  0.00     0.059 A 
ATOM     46  F   UNL A   1      43.363  27.551  36.898  1.00  0.00    -0.206 F 
ATOM     47  C   UNL A   1      46.941  27.853  36.847  1.00  0.00     0.060 A 
BRANCH  47  48
ATOM     48  S   UNL A   1      48.392  27.286  37.767  1.00  0.00     0.124 S 
ATOM     49  O   UNL A   1      49.617  28.099  37.338  1.00  0.00    -0.237 OA
ATOM     50  O   UNL A   1      48.154  27.477  39.266  1.00  0.00    -0.237 OA
ATOM     51  O   UNL A   1      48.664  25.630  37.439  1.00  0.00    -0.744 OA
ENDBRANCH  47  48
ENDBRANCH  26  40
BRANCH  27  52
ATOM     52  C   UNL A   1      36.980  32.905  30.820  1.00  0.00     0.058 A 
ATOM     53  C   UNL A   1      37.170  33.842  29.818  1.00  0.00     0.135 A 
ATOM     54  C   UNL A   1      35.761  32.572  31.231  1.00  0.00     0.135 A 
ATOM     55  F   UNL A   1      38.335  34.022  29.203  1.00  0.00    -0.206 F 
ATOM     56  C   UNL A   1      36.010  34.592  29.507  1.00  0.00     0.059 A 
ATOM     57  C   UNL A   1      34.660  33.260  30.781  1.00  0.00     0.059 A 
ATOM     58  F   UNL A   1      35.606  31.564  32.083  1.00  0.00    -0.206 F 
ATOM     59  C   UNL A   1      34.780  34.239  29.835  1.00  0.00     0.060 A 
BRANCH  59  60
ATOM     60  S   UNL A   1      33.331  35.011  29.072  1.00  0.00     0.124 S 
ATOM     61  O   UNL A   1      32.277  35.291  30.146  1.00  0.00    -0.237 OA
ATOM     62  O   UNL A   1      33.744  36.327  28.409  1.00  0.00    -0.237 OA
ATOM     63  O   UNL A   1      32.679  33.958  27.893  1.00  0.00    -0.744 OA
ENDBRANCH  59  60
ENDBRANCH  27  52
BRANCH  39  64
ATOM     64  C   UNL A   1      40.192  34.091  36.951  1.00  0.00     0.058 A 
ATOM     65  C   UNL A   1      39.304  33.741  37.955  1.00  0.00     0.135 A 
ATOM     66  C   UNL A   1      40.800  35.273  36.951  1.00  0.00     0.135 A 
ATOM     67  F   UNL A   1      38.871  32.497  38.138  1.00  0.00    -0.206 F 
ATOM     68  C   UNL A   1      38.899  34.827  38.767  1.00  0.00     0.059 A 
ATOM     69  C   UNL A   1      40.449  36.240  37.861  1.00  0.00     0.059 A 
ATOM     70  F   UNL A   1      41.758  35.520  36.061  1.00  0.00    -0.206 F 
ATOM     71  C   UNL A   1      39.535  35.982  38.844  1.00  0.00     0.060 A 
BRANCH  71  72
ATOM     72  S   UNL A   1      39.211  37.161  40.179  1.00  0.00     0.124 S 
ATOM     73  O   UNL A   1      38.543  36.436  41.349  1.00  0.00    -0.237 OA
ATOM     74  O   UNL A   1      40.532  37.776  40.647  1.00  0.00    -0.237 OA
ATOM     75  O   UNL A   1      38.176  38.397  39.609  1.00  0.00    -0.744 OA
ENDBRANCH  71  72
ENDBRANCH  39  64
ENDBRANCH  13  14
ENDBRANCH   6   8
ENDBRANCH   5   6
ENDBRANCH   4   5
ENDBRANCH   3   4
ENDBRANCH   2   3
ENDBRANCH   1   2
BRANCH   1  76
ATOM     76  C   UNL A   1      40.372  20.406  26.482  1.00  0.00     0.188 C 
BRANCH  76  77
ATOM     77  O   UNL A   1      39.254  20.107  25.659  1.00  0.00    -0.376 OA
BRANCH  77  78
ATOM     78  C   UNL A   1      38.477  21.281  25.471  1.00  0.00     0.202 C 
BRANCH  78  79
ATOM     79  C   UNL A   1      37.035  20.894  25.186  1.00  0.00     0.261 C 
BRANCH  79  80
ATOM     80  O   UNL A   1      36.431  21.888  24.371  1.00  0.00    -0.460 OA
BRANCH  80  81
ATOM     81  C   UNL A   1      35.529  22.824  24.945  1.00  0.00     0.340 C 
ATOM     82  O   UNL A   1      35.759  23.302  26.099  1.00  0.00    -0.246 OA
BRANCH  81  83
ATOM     83  C   UNL A   1      34.290  23.254  24.176  1.00  0.00     0.083 A 
ATOM     84  C   UNL A   1      34.296  24.412  23.416  1.00  0.00     0.018 A 
ATOM     85  C   UNL A   1      33.168  22.580  24.396  1.00  0.00     0.053 A 
ATOM     86  C   UNL A   1      33.007  24.940  23.167  1.00  0.00     0.001 A 
ATOM     87  C   UNL A   1      31.955  23.094  24.005  1.00  0.00     0.027 A 
ATOM     88  C   UNL A   1      31.881  24.264  23.301  1.00  0.00     0.002 A 
BRANCH  85  89
ATOM     89  N   UNL A   1      33.223  21.272  25.063  1.00  0.00    -0.355 N 
ATOM     90  H   UNL A   1      33.280  21.222  26.045  1.00  0.00     0.167 HD
BRANCH  89  91
ATOM     91  C   UNL A   1      33.191  20.037  24.266  1.00  0.00     0.040 A 
ATOM     92  C   UNL A   1      32.432  19.995  23.108  1.00  0.00     0.026 A 
ATOM     93  C   UNL A   1      33.886  18.981  24.673  1.00  0.00     0.050 A 
ATOM     94  C   UNL A   1      32.241  18.690  22.595  1.00  0.00     0.004 A 
ATOM     95  C   UNL A   1      33.752  17.770  24.040  1.00  0.00     0.109 A 
ATOM     96  C   UNL A   1      32.972  17.641  22.924  1.00  0.00     0.024 A 
BRANCH  95  97
ATOM     97  S   UNL A   1      34.620  16.322  24.693  1.00  0.00     0.310 S 
ATOM     98  F   UNL A   1      34.026  16.705  26.113  1.00  0.00    -0.094 F 
ATOM     99  F   UNL A   1      35.895  17.166  25.074  1.00  0.00    -0.094 F 
ATOM    100  F   UNL A   1      35.226  15.053  25.358  1.00  0.00    -0.094 F 
ATOM    101  F   UNL A   1      33.279  15.531  24.427  1.00  0.00    -0.094 F 
ATOM    102  F   UNL A   1      33.946  17.630  24.116  1.00  0.00    -0.094 F 
ENDBRANCH  95  97
ENDBRANCH  89  91
ENDBRANCH  85  89
ENDBRANCH  81  83
ENDBRANCH  80  81
ENDBRANCH  79  80
ENDBRANCH  78  79
ENDBRANCH  77  78
ENDBRANCH  76  77
ENDBRANCH   1  76
TORSDOF 23
ENDMDL
MODEL 2
REMARK VINA RESULT:     -11.1      2.895      3.848
REMARK SMILES O=C(OCCOCCOCCOC(=O)c1ccccc1Nc1cccc(S(F)(F)(F)(F)F)c1)c1ccc(-c2c3nc(c(-c4c(F)cc(S(=O)(=O)[O-])cc4F)c4ccc([nH]4)c(-c4c(F)cc(S(=O)(=O)[O-])cc4F)c4nc(c(-c5c(F)cc(S(=O)(=O)[O-])cc5F)c5ccc2[nH]5)C=C4)C=C3)cc1
REMARK SMILES IDX 7 1 6 2 5 3 4 4 3 5 2 6 1 7 34 8 35 9 99 10 36 11 98 12
REMARK SMILES IDX 37 13 38 14 39 15 92 16 40 17 97 18 91 19 93 20 41 21 96 22
REMARK SMILES IDX 90 23 89 24 42 26 76 27 55 28 75 29 56 30 59 31 74 32 94 33
REMARK SMILES IDX 57 34 58 35 73 37 95 38 60 39 43 40 44 41 53 42 45 43 46 44
REMARK SMILES IDX 52 45 54 46 47 47 48 48 49 49 50 50 51 51 77 52 78 53 87 54
REMARK SMILES IDX 79 55 80 56 86 57 88 58 81 59 82 60 83 61 84 62 85 63 61 64
REMARK SMILES IDX 62 65 71 66 63 67 64 68 70 69 72 70 65 71 66 72 67 73 68 74
REMARK SMILES IDX 69 75 8 76 9 77 10 78 11 79 12 80 13 81 14 82 15 83 16 84
REMARK SMILES IDX 20 85 17 86 19 87 18 88 21 89 22 91 23 92 33 93 24 94 26 95
REMARK SMILES IDX 25 96 27 97 28 98 29 99 30 100 31 101 32 102
REMARK H PARENT 93 25 59 36 21 90
REMARK Flexibility Score: inf
ROOT
ATOM      1  C   UNL A   1      41.113  22.102  26.167  1.00  0.00     0.188 C 
ENDROOT
BRANCH   1   2
ATOM      2  O   UNL A   1      42.405  22.216  25.589  1.00  0.00    -0.376 OA
BRANCH   2   3
ATOM      3  C   UNL A   1      43.386  22.203  26.617  1.00  0.00     0.202 C 
BRANCH   3   4
ATOM      4  C   UNL A   1      43.710  23.631  27.026  1.00  0.00     0.261 C 
BRANCH   4   5
ATOM      5  O   UNL A   1      43.488  24.500  25.925  1.00  0.00    -0.460 OA
BRANCH   5   6
ATOM      6  C   UNL A   1      42.525  25.539  26.025  1.00  0.00     0.338 C 
ATOM      7  O   UNL A   1      41.824  25.855  25.013  1.00  0.00    -0.246 OA
BRANCH   6   8
ATOM      8  C   UNL A   1      42.333  26.274  27.342  1.00  0.00     0.060 A 
ATOM      9  C   UNL A   1      41.292  25.850  28.152  1.00  0.00     0.016 A 
ATOM     10  C   UNL A   1      43.044  27.354  27.642  1.00  0.00     0.016 A 
ATOM     11  C   UNL A   1      40.889  26.807  29.114  1.00  0.00     0.010 A 
ATOM     12  C   UNL A   1      42.670  28.171  28.682  1.00  0.00     0.010 A 
ATOM     13  C   UNL A   1      41.615  27.845  29.488  1.00  0.00    -0.014 A 
BRANCH  13  14
ATOM     14  C   UNL A   1      41.295  28.635  30.746  1.00  0.00     0.031 A 
ATOM     15  C   UNL A   1      42.063  28.489  31.902  1.00  0.00     0.074 A 
ATOM     16  C   UNL A   1      40.271  29.557  30.608  1.00  0.00     0.049 A 
ATOM     17  N   UNL A   1      41.983  29.201  33.028  1.00  0.00    -0.248 NA
ATOM     18  C   UNL A   1      43.129  27.489  32.063  1.00  0.00     0.031 C 
ATOM     19  C   UNL A   1      39.496  29.716  29.442  1.00  0.00     0.029 A 
ATOM     20  N   UNL A   1      39.820  30.464  31.542  1.00  0.00    -0.354 N 
ATOM     21  C   UNL A   1      42.898  28.780  33.905  1.00  0.00     0.074 A 
ATOM     22  C   UNL A   1      43.643  27.669  33.299  1.00  0.00     0.031 C 
ATOM     23  C   UNL A   1      38.585  30.696  29.673  1.00  0.00     0.029 A 
ATOM     24  C   UNL A   1      38.774  31.168  30.986  1.00  0.00     0.049 A 
ATOM     25  H   UNL A   1      40.182  30.588  32.448  1.00  0.00     0.167 HD
ATOM     26  C   UNL A   1      43.139  29.281  35.185  1.00  0.00     0.037 A 
ATOM     27  C   UNL A   1      38.014  32.165  31.576  1.00  0.00     0.037 A 
ATOM     28  C   UNL A   1      42.407  30.308  35.759  1.00  0.00     0.049 A 
ATOM     29  C   UNL A   1      38.217  32.627  32.879  1.00  0.00     0.074 A 
ATOM     30  C   UNL A   1      42.643  30.830  37.045  1.00  0.00     0.029 A 
ATOM     31  N   UNL A   1      41.345  30.995  35.213  1.00  0.00    -0.354 N 
ATOM     32  N   UNL A   1      39.157  32.233  33.741  1.00  0.00    -0.248 NA
ATOM     33  C   UNL A   1      37.399  33.661  33.525  1.00  0.00     0.031 C 
ATOM     34  C   UNL A   1      41.730  31.812  37.276  1.00  0.00     0.029 A 
ATOM     35  C   UNL A   1      40.909  31.919  36.138  1.00  0.00     0.049 A 
ATOM     36  H   UNL A   1      40.964  30.851  34.316  1.00  0.00     0.167 HD
ATOM     37  C   UNL A   1      39.049  32.917  34.881  1.00  0.00     0.074 A 
ATOM     38  C   UNL A   1      37.911  33.839  34.762  1.00  0.00     0.031 C 
ATOM     39  C   UNL A   1      39.855  32.811  36.016  1.00  0.00     0.037 A 
BRANCH  26  40
ATOM     40  C   UNL A   1      44.268  28.666  35.995  1.00  0.00     0.058 A 
ATOM     41  C   UNL A   1      43.917  27.601  36.808  1.00  0.00     0.135 A 
ATOM     42  C   UNL A   1      45.531  29.060  35.882  1.00  0.00     0.135 A 
ATOM     43  F   UNL A   1      42.725  27.014  36.762  1.00  0.00    -0.206 F 
ATOM     44  C   UNL A   1      44.944  27.193  37.694  1.00  0.00     0.059 A 
ATOM     45  C   UNL A   1      46.506  28.521  36.686  1.00  0.00     0.059 A 
ATOM     46  F   UNL A   1      45.854  29.984  34.983  1.00  0.00    -0.206 F 
ATOM     47  C   UNL A   1      46.219  27.506  37.556  1.00  0.00     0.060 A 
BRANCH  47  48
ATOM     48  S   UNL A   1      47.518  26.636  38.468  1.00  0.00     0.124 S 
ATOM     49  O   UNL A   1      48.559  27.644  38.960  1.00  0.00    -0.237 OA
ATOM     50  O   UNL A   1      46.903  25.913  39.668  1.00  0.00    -0.237 OA
ATOM     51  O   UNL A   1      48.270  25.495  37.440  1.00  0.00    -0.744 OA
ENDBRANCH  47  48
ENDBRANCH  26  40
BRANCH  27  52
ATOM     52  C   UNL A   1      36.895  32.792  30.760  1.00  0.00     0.058 A 
ATOM     53  C   UNL A   1      37.152  33.775  29.819  1.00  0.00     0.135 A 
ATOM     54  C   UNL A   1      35.653  32.426  31.053  1.00  0.00     0.135 A 
ATOM     55  F   UNL A   1      38.361  33.996  29.312  1.00  0.00    -0.206 F 
ATOM     56  C   UNL A   1      36.010  34.524  29.445  1.00  0.00     0.059 A 
ATOM     57  C   UNL A   1      34.582  33.119  30.543  1.00  0.00     0.059 A 
ATOM     58  F   UNL A   1      35.444  31.378  31.845  1.00  0.00    -0.206 F 
ATOM     59  C   UNL A   1      34.764  34.141  29.654  1.00  0.00     0.060 A 
BRANCH  59  60
ATOM     60  S   UNL A   1      33.370  34.928  28.808  1.00  0.00     0.124 S 
ATOM     61  O   UNL A   1      32.339  35.388  29.841  1.00  0.00    -0.237 OA
ATOM     62  O   UNL A   1      33.872  36.138  28.016  1.00  0.00    -0.237 OA
ATOM     63  O   UNL A   1      32.646  33.808  27.739  1.00  0.00    -0.744 OA
ENDBRANCH  59  60
ENDBRANCH  27  52
BRANCH  39  64
ATOM     64  C   UNL A   1      39.560  33.730  37.189  1.00  0.00     0.058 A 
ATOM     65  C   UNL A   1      40.237  34.937  37.243  1.00  0.00     0.135 A 
ATOM     66  C   UNL A   1      38.745  33.354  38.169  1.00  0.00     0.135 A 
ATOM     67  F   UNL A   1      40.855  35.468  36.192  1.00  0.00    -0.206 F 
ATOM     68  C   UNL A   1      40.213  35.553  38.516  1.00  0.00     0.059 A 
ATOM     69  C   UNL A   1      38.670  34.080  39.334  1.00  0.00     0.059 A 
ATOM     70  F   UNL A   1      37.995  32.266  38.021  1.00  0.00    -0.206 F 
ATOM     71  C   UNL A   1      39.359  35.251  39.478  1.00  0.00     0.060 A 
BRANCH  71  72
ATOM     72  S   UNL A   1      39.115  36.332  40.910  1.00  0.00     0.124 S 
ATOM     73  O   UNL A   1      38.040  35.735  41.821  1.00  0.00    -0.237 OA
ATOM     74  O   UNL A   1      40.429  36.456  41.683  1.00  0.00    -0.237 OA
ATOM     75  O   UNL A   1      38.616  37.878  40.378  1.00  0.00    -0.744 OA
ENDBRANCH  71  72
ENDBRANCH  39  64
ENDBRANCH  13  14
ENDBRANCH   6   8
ENDBRANCH   5   6
ENDBRANCH   4   5
ENDBRANCH   3   4
ENDBRANCH   2   3
ENDBRANCH   1   2
BRANCH   1  76
ATOM     76  C   UNL A   1      40.787  20.635  26.394  1.00  0.00     0.188 C 
BRANCH  76  77
ATOM     77  O   UNL A   1      39.518  20.338  25.828  1.00  0.00    -0.376 OA
BRANCH  77  78
ATOM     78  C   UNL A   1      38.829  21.549  25.551  1.00  0.00     0.202 C 
BRANCH  78  79
ATOM     79  C   UNL A   1      37.362  21.249  25.292  1.00  0.00     0.261 C 
BRANCH  79  80
ATOM     80  O   UNL A   1      36.826  22.230  24.416  1.00  0.00    -0.460 OA
BRANCH  80  81
ATOM     81  C   UNL A   1      35.617  22.897  24.751  1.00  0.00     0.340 C 
ATOM     82  O   UNL A   1      35.647  23.941  25.476  1.00  0.00    -0.246 OA
BRANCH  81  83
ATOM     83  C   UNL A   1      34.289  22.363  24.242  1.00  0.00     0.083 A 
ATOM     84  C   UNL A   1      33.854  21.096  24.595  1.00  0.00     0.018 A 
ATOM     85  C   UNL A   1      33.653  23.078  23.322  1.00  0.00     0.053 A 
ATOM     86  C   UNL A   1      32.898  20.550  23.706  1.00  0.00     0.001 A 
ATOM     87  C   UNL A   1      32.636  22.521  22.583  1.00  0.00     0.027 A 
ATOM     88  C   UNL A   1      32.194  21.253  22.838  1.00  0.00     0.002 A 
BRANCH  85  89
ATOM     89  N   UNL A   1      34.039  24.477  23.092  1.00  0.00    -0.355 N 
ATOM     90  H   UNL A   1      34.924  24.688  22.715  1.00  0.00     0.167 HD
BRANCH  89  91
ATOM     91  C   UNL A   1      33.103  25.562  23.421  1.00  0.00     0.040 A 
ATOM     92  C   UNL A   1      32.427  26.211  22.401  1.00  0.00     0.026 A 
ATOM     93  C   UNL A   1      32.926  25.905  24.691  1.00  0.00     0.050 A 
ATOM     94  C   UNL A   1      31.796  27.411  22.804  1.00  0.00     0.004 A 
ATOM     95  C   UNL A   1      32.184  27.014  25.019  1.00  0.00     0.109 A 
ATOM     96  C   UNL A   1      31.536  27.737  24.057  1.00  0.00     0.024 A 
BRANCH  95  97
ATOM     97  S   UNL A   1      32.062  27.525  26.752  1.00  0.00     0.310 S 
ATOM     98  F   UNL A   1      31.470  28.898  26.222  1.00  0.00    -0.094 F 
ATOM     99  F   UNL A   1      33.483  28.206  26.728  1.00  0.00    -0.094 F 
ATOM    100  F   UNL A   1      31.807  28.042  28.196  1.00  0.00    -0.094 F 
ATOM    101  F   UNL A   1      30.590  26.955  26.704  1.00  0.00    -0.094 F 
ATOM    102  F   UNL A   1      32.264  27.090  25.245  1.00  0.00    -0.094 F 
ENDBRANCH  95  97
ENDBRANCH  89  91
ENDBRANCH  85  89
ENDBRANCH  81  83
ENDBRANCH  80  81
ENDBRANCH  79  80
ENDBRANCH  78  79
ENDBRANCH  77  78
ENDBRANCH  76  77
ENDBRANCH   1  76
TORSDOF 23
ENDMDL
MODEL 3
REMARK VINA RESULT:     -11.0      3.335      8.952
REMARK SMILES O=C(OCCOCCOCCOC(=O)c1ccccc1Nc1cccc(S(F)(F)(F)(F)F)c1)c1ccc(-c2c3nc(c(-c4c(F)cc(S(=O)(=O)[O-])cc4F)c4ccc([nH]4)c(-c4c(F)cc(S(=O)(=O)[O-])cc4F)c4nc(c(-c5c(F)cc(S(=O)(=O)[O-])cc5F)c5ccc2[nH]5)C=C4)C=C3)cc1
REMARK SMILES IDX 7 1 6 2 5 3 4 4 3 5 2 6 1 7 34 8 35 9 99 10 36 11 98 12
REMARK SMILES IDX 37 13 38 14 39 15 92 16 40 17 97 18 91 19 93 20 41 21 96 22
REMARK SMILES IDX 90 23 89 24 42 26 76 27 55 28 75 29 56 30 59 31 74 32 94 33
REMARK SMILES IDX 57 34 58 35 73 37 95 38 60 39 43 40 44 41 53 42 45 43 46 44
REMARK SMILES IDX 52 45 54 46 47 47 48 48 49 49 50 50 51 51 77 52 78 53 87 54
REMARK SMILES IDX 79 55 80 56 86 57 88 58 81 59 82 60 83 61 84 62 85 63 61 64
REMARK SMILES IDX 62 65 71 66 63 67 64 68 70 69 72 70 65 71 66 72 67 73 68 74
REMARK SMILES IDX 69 75 8 76 9 77 10 78 11 79 12 80 13 81 14 82 15 83 16 84
REMARK SMILES IDX 20 85 17 86 19 87 18 88 21 89 22 91 23 92 33 93 24 94 26 95
REMARK SMILES IDX 25 96 27 97 28 98 29 99 30 100 31 101 32 102
REMARK H PARENT 93 25 59 36 21 90
REMARK Flexibility Score: inf
ROOT
ATOM      1  C   UNL A   1      30.924  29.158  23.787  1.00  0.00     0.188 C 
ENDROOT
BRANCH   1   2
ATOM      2  O   UNL A   1      32.037  29.703  24.481  1.00  0.00    -0.376 OA
BRANCH   2   3
ATOM      3  C   UNL A   1      31.613  30.189  25.746  1.00  0.00     0.202 C 
BRANCH   3   4
ATOM      4  C   UNL A   1      32.374  29.467  26.846  1.00  0.00     0.261 C 
BRANCH   4   5
ATOM      5  O   UNL A   1      33.769  29.563  26.598  1.00  0.00    -0.460 OA
BRANCH   5   6
ATOM      6  C   UNL A   1      34.581  30.392  27.416  1.00  0.00     0.338 C 
ATOM      7  O   UNL A   1      34.202  31.572  27.699  1.00  0.00    -0.246 OA
BRANCH   6   8
ATOM      8  C   UNL A   1      35.903  29.868  27.955  1.00  0.00     0.060 A 
ATOM      9  C   UNL A   1      35.893  29.329  29.231  1.00  0.00     0.016 A 
ATOM     10  C   UNL A   1      37.038  30.039  27.287  1.00  0.00     0.016 A 
ATOM     11  C   UNL A   1      37.170  29.267  29.837  1.00  0.00     0.010 A 
ATOM     12  C   UNL A   1      38.249  29.829  27.902  1.00  0.00     0.010 A 
ATOM     13  C   UNL A   1      38.314  29.353  29.182  1.00  0.00    -0.014 A 
BRANCH  13  14
ATOM     14  C   UNL A   1      39.633  28.945  29.818  1.00  0.00     0.031 A 
ATOM     15  C   UNL A   1      40.375  27.876  29.313  1.00  0.00     0.074 A 
ATOM     16  C   UNL A   1      40.064  29.770  30.843  1.00  0.00     0.049 A 
ATOM     17  N   UNL A   1      41.597  27.487  29.681  1.00  0.00    -0.248 NA
ATOM     18  C   UNL A   1      39.906  26.978  28.247  1.00  0.00     0.031 C 
ATOM     19  C   UNL A   1      39.325  30.856  31.353  1.00  0.00     0.029 A 
ATOM     20  N   UNL A   1      41.248  29.700  31.543  1.00  0.00    -0.354 N 
ATOM     21  C   UNL A   1      41.985  26.436  28.955  1.00  0.00     0.074 A 
ATOM     22  C   UNL A   1      40.900  26.089  28.027  1.00  0.00     0.031 C 
ATOM     23  C   UNL A   1      40.048  31.425  32.352  1.00  0.00     0.029 A 
ATOM     24  C   UNL A   1      41.251  30.706  32.484  1.00  0.00     0.049 A 
ATOM     25  H   UNL A   1      41.968  29.046  31.395  1.00  0.00     0.167 HD
ATOM     26  C   UNL A   1      43.200  25.754  29.031  1.00  0.00     0.037 A 
ATOM     27  C   UNL A   1      42.236  30.994  33.416  1.00  0.00     0.037 A 
ATOM     28  C   UNL A   1      44.203  26.070  29.934  1.00  0.00     0.049 A 
ATOM     29  C   UNL A   1      43.428  30.275  33.531  1.00  0.00     0.074 A 
ATOM     30  C   UNL A   1      45.438  25.398  30.017  1.00  0.00     0.029 A 
ATOM     31  N   UNL A   1      44.196  27.059  30.891  1.00  0.00    -0.354 N 
ATOM     32  N   UNL A   1      43.832  29.249  32.779  1.00  0.00    -0.248 NA
ATOM     33  C   UNL A   1      44.465  30.551  34.534  1.00  0.00     0.031 C 
ATOM     34  C   UNL A   1      46.161  25.968  31.018  1.00  0.00     0.029 A 
ATOM     35  C   UNL A   1      45.390  27.005  31.576  1.00  0.00     0.049 A 
ATOM     36  H   UNL A   1      43.463  27.696  31.058  1.00  0.00     0.167 HD
ATOM     37  C   UNL A   1      45.037  28.835  33.176  1.00  0.00     0.074 A 
ATOM     38  C   UNL A   1      45.457  29.661  34.315  1.00  0.00     0.031 C 
ATOM     39  C   UNL A   1      45.803  27.803  32.632  1.00  0.00     0.037 A 
BRANCH  26  40
ATOM     40  C   UNL A   1      43.437  24.601  28.070  1.00  0.00     0.058 A 
ATOM     41  C   UNL A   1      44.179  24.901  26.939  1.00  0.00     0.135 A 
ATOM     42  C   UNL A   1      43.035  23.361  28.322  1.00  0.00     0.135 A 
ATOM     43  F   UNL A   1      44.813  26.058  26.772  1.00  0.00    -0.206 F 
ATOM     44  C   UNL A   1      44.202  23.862  25.977  1.00  0.00     0.059 A 
ATOM     45  C   UNL A   1      43.212  22.366  27.391  1.00  0.00     0.059 A 
ATOM     46  F   UNL A   1      42.456  23.080  29.485  1.00  0.00    -0.206 F 
ATOM     47  C   UNL A   1      43.884  22.605  26.224  1.00  0.00     0.060 A 
BRANCH  47  48
ATOM     48  S   UNL A   1      44.317  21.270  25.082  1.00  0.00     0.124 S 
ATOM     49  O   UNL A   1      45.728  20.766  25.397  1.00  0.00    -0.237 OA
ATOM     50  O   UNL A   1      43.319  20.120  25.238  1.00  0.00    -0.237 OA
ATOM     51  O   UNL A   1      44.265  21.854  23.475  1.00  0.00    -0.744 OA
ENDBRANCH  47  48
ENDBRANCH  26  40
BRANCH  27  52
ATOM     52  C   UNL A   1      42.006  32.157  34.366  1.00  0.00     0.058 A 
ATOM     53  C   UNL A   1      41.205  32.025  35.489  1.00  0.00     0.135 A 
ATOM     54  C   UNL A   1      42.526  33.331  34.025  1.00  0.00     0.135 A 
ATOM     55  F   UNL A   1      40.874  30.847  36.009  1.00  0.00    -0.206 F 
ATOM     56  C   UNL A   1      40.771  33.258  36.032  1.00  0.00     0.059 A 
ATOM     57  C   UNL A   1      42.160  34.477  34.689  1.00  0.00     0.059 A 
ATOM     58  F   UNL A   1      43.410  33.396  33.034  1.00  0.00    -0.206 F 
ATOM     59  C   UNL A   1      41.325  34.428  35.770  1.00  0.00     0.060 A 
BRANCH  59  60
ATOM     60  S   UNL A   1      40.997  35.888  36.788  1.00  0.00     0.124 S 
ATOM     61  O   UNL A   1      39.741  36.596  36.275  1.00  0.00    -0.237 OA
ATOM     62  O   UNL A   1      40.782  35.458  38.241  1.00  0.00    -0.237 OA
ATOM     63  O   UNL A   1      42.330  36.955  36.701  1.00  0.00    -0.744 OA
ENDBRANCH  59  60
ENDBRANCH  27  52
BRANCH  39  64
ATOM     64  C   UNL A   1      47.173  27.539  33.233  1.00  0.00     0.058 A 
ATOM     65  C   UNL A   1      48.251  28.219  32.691  1.00  0.00     0.135 A 
ATOM     66  C   UNL A   1      47.342  26.628  34.185  1.00  0.00     0.135 A 
ATOM     67  F   UNL A   1      48.117  29.302  31.931  1.00  0.00    -0.206 F 
ATOM     68  C   UNL A   1      49.508  27.658  33.020  1.00  0.00     0.059 A 
ATOM     69  C   UNL A   1      48.603  26.225  34.552  1.00  0.00     0.059 A 
ATOM     70  F   UNL A   1      46.280  26.102  34.790  1.00  0.00    -0.206 F 
ATOM     71  C   UNL A   1      49.713  26.813  34.014  1.00  0.00     0.060 A 
BRANCH  71  72
ATOM     72  S   UNL A   1      51.378  26.453  34.630  1.00  0.00     0.124 S 
ATOM     73  O   UNL A   1      52.002  27.732  35.191  1.00  0.00    -0.237 OA
ATOM     74  O   UNL A   1      51.294  25.399  35.736  1.00  0.00    -0.237 OA
ATOM     75  O   UNL A   1      52.344  25.861  33.350  1.00  0.00    -0.744 OA
ENDBRANCH  71  72
ENDBRANCH  39  64
ENDBRANCH  13  14
ENDBRANCH   6   8
ENDBRANCH   5   6
ENDBRANCH   4   5
ENDBRANCH   3   4
ENDBRANCH   2   3
ENDBRANCH   1   2
BRANCH   1  76
ATOM     76  C   UNL A   1      30.883  27.653  23.998  1.00  0.00     0.188 C 
BRANCH  76  77
ATOM     77  O   UNL A   1      29.538  27.238  24.191  1.00  0.00    -0.376 OA
BRANCH  77  78
ATOM     78  C   UNL A   1      29.519  25.894  24.650  1.00  0.00     0.202 C 
BRANCH  78  79
ATOM     79  C   UNL A   1      30.062  25.835  26.068  1.00  0.00     0.261 C 
BRANCH  79  80
ATOM     80  O   UNL A   1      30.320  24.484  26.420  1.00  0.00    -0.460 OA
BRANCH  80  81
ATOM     81  C   UNL A   1      31.656  24.048  26.632  1.00  0.00     0.340 C 
ATOM     82  O   UNL A   1      31.919  23.243  27.579  1.00  0.00    -0.246 OA
BRANCH  81  83
ATOM     83  C   UNL A   1      32.769  24.544  25.724  1.00  0.00     0.083 A 
ATOM     84  C   UNL A   1      33.324  25.801  25.905  1.00  0.00     0.018 A 
ATOM     85  C   UNL A   1      33.066  23.808  24.660  1.00  0.00     0.053 A 
ATOM     86  C   UNL A   1      33.964  26.317  24.754  1.00  0.00     0.001 A 
ATOM     87  C   UNL A   1      33.812  24.333  23.631  1.00  0.00     0.027 A 
ATOM     88  C   UNL A   1      34.342  25.591  23.718  1.00  0.00     0.002 A 
BRANCH  85  89
ATOM     89  N   UNL A   1      32.594  22.419  24.580  1.00  0.00    -0.355 N 
ATOM     90  H   UNL A   1      31.643  22.231  24.404  1.00  0.00     0.167 HD
BRANCH  89  91
ATOM     91  C   UNL A   1      33.540  21.309  24.763  1.00  0.00     0.040 A 
ATOM     92  C   UNL A   1      34.844  21.582  25.143  1.00  0.00     0.026 A 
ATOM     93  C   UNL A   1      33.130  20.063  24.556  1.00  0.00     0.050 A 
ATOM     94  C   UNL A   1      35.725  20.484  24.998  1.00  0.00     0.004 A 
ATOM     95  C   UNL A   1      34.025  19.021  24.562  1.00  0.00     0.109 A 
ATOM     96  C   UNL A   1      35.341  19.226  24.872  1.00  0.00     0.024 A 
BRANCH  95  97
ATOM     97  S   UNL A   1      33.455  17.352  24.157  1.00  0.00     0.310 S 
ATOM     98  F   UNL A   1      34.842  16.827  24.720  1.00  0.00    -0.094 F 
ATOM     99  F   UNL A   1      34.126  17.389  22.731  1.00  0.00    -0.094 F 
ATOM    100  F   UNL A   1      33.044  15.866  23.956  1.00  0.00    -0.094 F 
ATOM    101  F   UNL A   1      32.913  17.293  25.639  1.00  0.00    -0.094 F 
ATOM    102  F   UNL A   1      33.966  18.825  24.417  1.00  0.00    -0.094 F 
ENDBRANCH  95  97
ENDBRANCH  89  91
ENDBRANCH  85  89
ENDBRANCH  81  83
ENDBRANCH  80  81
ENDBRANCH  79  80
ENDBRANCH  78  79
ENDBRANCH  77  78
ENDBRANCH  76  77
ENDBRANCH   1  76
TORSDOF 23
ENDMDL
