MODEL 1
REMARK VINA RESULT:      -9.5      0.000      0.000
REMARK SMILES CCC[NH2+][C@]1(C(=O)OCCOCCOCCOC(=O)c2ccc(-c3c4nc(c(-c5c(F)cc(S(=O)(=O)[O-])cc5F)c5ccc([nH]5)c(-c5c(F)cc(S(=O)(=O)[O-])cc5F)c5nc(c(-c6c(F)cc(S(=O)(=O)[O-])cc6F)c6ccc3[nH]6)C=C5)C=C4)cc2)CC[C@@H](Sc2nnc(C)n2C)C1
REMARK SMILES IDX 12 1 11 2 10 3 9 4 8 5 6 6 7 7 5 8 86 9 97 10 87 11 88 12
REMARK SMILES IDX 4 13 3 16 2 17 1 18 89 19 90 20 91 21 95 22 92 23 93 24
REMARK SMILES IDX 96 25 94 26 13 27 14 28 15 29 16 30 17 31 18 32 19 33 20 34
REMARK SMILES IDX 21 35 85 36 22 37 84 38 23 39 24 40 25 41 78 42 26 43 83 44
REMARK SMILES IDX 77 45 79 46 27 47 82 48 76 49 75 50 28 52 62 53 41 54 61 55
REMARK SMILES IDX 42 56 45 57 60 58 80 59 43 60 44 61 59 63 81 64 46 65 29 66
REMARK SMILES IDX 30 67 39 68 31 69 32 70 38 71 40 72 33 73 34 74 35 75 36 76
REMARK SMILES IDX 37 77 63 78 64 79 73 80 65 81 66 82 72 83 74 84 67 85 68 86
REMARK SMILES IDX 69 87 70 88 71 89 47 90 48 91 57 92 49 93 50 94 56 95 58 96
REMARK SMILES IDX 51 97 52 98 53 99 54 100 55 101
REMARK H PARENT 4 14 4 15 79 51 45 62
REMARK Flexibility Score: inf
ROOT
ATOM      1  C   UNL A   1      36.803  23.158  25.307  1.00  0.00     0.188 C 
ENDROOT
BRANCH   1   2
ATOM      2  O   UNL A   1      35.672  23.467  24.497  1.00  0.00    -0.376 OA
BRANCH   2   3
ATOM      3  C   UNL A   1      34.402  23.583  25.114  1.00  0.00     0.202 C 
BRANCH   3   4
ATOM      4  C   UNL A   1      34.256  24.707  26.133  1.00  0.00     0.261 C 
BRANCH   4   5
ATOM      5  O   UNL A   1      33.059  25.479  25.959  1.00  0.00    -0.459 OA
BRANCH   5   6
ATOM      6  C   UNL A   1      31.887  24.818  26.178  1.00  0.00     0.368 C 
ATOM      7  O   UNL A   1      31.661  24.128  27.168  1.00  0.00    -0.245 OA
BRANCH   6   8
ATOM      8  C   UNL A   1      30.893  24.983  25.003  1.00  0.00     0.195 C 
ATOM      9  C   UNL A   1      29.575  25.612  25.509  1.00  0.00     0.082 C 
ATOM     10  C   UNL A   1      31.442  26.106  24.093  1.00  0.00     0.096 C 
ATOM     11  C   UNL A   1      29.017  26.367  24.308  1.00  0.00     0.022 C 
ATOM     12  C   UNL A   1      30.245  26.891  23.561  1.00  0.00     0.062 C 
BRANCH   8  13
ATOM     13  N   UNL A   1      30.573  23.683  24.350  1.00  0.00    -0.332 N 
ATOM     14  H   UNL A   1      30.681  22.948  25.050  1.00  0.00     0.347 HD
ATOM     15  H   UNL A   1      29.624  23.784  23.991  1.00  0.00     0.347 HD
BRANCH  13  16
ATOM     16  C   UNL A   1      31.395  23.322  23.195  1.00  0.00     0.261 C 
BRANCH  16  17
ATOM     17  C   UNL A   1      32.052  21.947  23.367  1.00  0.00     0.058 C 
ATOM     18  C   UNL A   1      31.858  21.014  22.181  1.00  0.00     0.010 C 
ENDBRANCH  16  17
ENDBRANCH  13  16
ENDBRANCH   8  13
BRANCH  12  19
ATOM     19  S   UNL A   1      30.531  28.699  23.692  1.00  0.00    -0.082 SA
BRANCH  19  20
ATOM     20  C   UNL A   1      32.122  28.772  24.362  1.00  0.00     0.191 A 
ATOM     21  N   UNL A   1      33.221  28.921  23.661  1.00  0.00    -0.123 NA
ATOM     22  N   UNL A   1      32.429  28.734  25.696  1.00  0.00    -0.309 N 
ATOM     23  N   UNL A   1      34.270  29.028  24.540  1.00  0.00    -0.135 NA
ATOM     24  C   UNL A   1      33.790  28.934  25.762  1.00  0.00     0.130 A 
ATOM     25  C   UNL A   1      31.558  28.582  26.835  1.00  0.00     0.154 C 
ATOM     26  C   UNL A   1      34.567  29.035  27.017  1.00  0.00     0.090 C 
ENDBRANCH  19  20
ENDBRANCH  12  19
ENDBRANCH   6   8
ENDBRANCH   5   6
ENDBRANCH   4   5
ENDBRANCH   3   4
ENDBRANCH   2   3
ENDBRANCH   1   2
BRANCH   1  27
ATOM     27  C   UNL A   1      37.346  21.714  25.333  1.00  0.00     0.188 C 
BRANCH  27  28
ATOM     28  O   UNL A   1      38.647  21.495  25.876  1.00  0.00    -0.376 OA
BRANCH  28  29
ATOM     29  C   UNL A   1      39.409  22.646  26.232  1.00  0.00     0.202 C 
BRANCH  29  30
ATOM     30  C   UNL A   1      40.715  22.322  26.946  1.00  0.00     0.261 C 
BRANCH  30  31
ATOM     31  O   UNL A   1      41.035  23.405  27.833  1.00  0.00    -0.460 OA
BRANCH  31  32
ATOM     32  C   UNL A   1      41.589  24.477  27.241  1.00  0.00     0.338 C 
ATOM     33  O   UNL A   1      42.329  24.477  26.265  1.00  0.00    -0.246 OA
BRANCH  32  34
ATOM     34  C   UNL A   1      41.136  25.697  27.928  1.00  0.00     0.060 A 
ATOM     35  C   UNL A   1      41.974  26.816  27.971  1.00  0.00     0.016 A 
ATOM     36  C   UNL A   1      39.959  25.667  28.674  1.00  0.00     0.016 A 
ATOM     37  C   UNL A   1      41.687  27.860  28.849  1.00  0.00     0.010 A 
ATOM     38  C   UNL A   1      39.661  26.731  29.532  1.00  0.00     0.010 A 
ATOM     39  C   UNL A   1      40.567  27.797  29.684  1.00  0.00    -0.014 A 
BRANCH  39  40
ATOM     40  C   UNL A   1      40.500  28.674  30.886  1.00  0.00     0.031 A 
ATOM     41  C   UNL A   1      39.426  29.733  30.936  1.00  0.00     0.074 A 
ATOM     42  C   UNL A   1      41.292  28.496  31.959  1.00  0.00     0.049 A 
ATOM     43  N   UNL A   1      39.254  30.709  31.789  1.00  0.00    -0.248 NA
ATOM     44  C   UNL A   1      38.410  29.680  29.872  1.00  0.00     0.031 C 
ATOM     45  C   UNL A   1      42.298  27.447  32.108  1.00  0.00     0.029 A 
ATOM     46  N   UNL A   1      41.362  29.201  33.136  1.00  0.00    -0.354 N 
ATOM     47  C   UNL A   1      38.157  31.427  31.324  1.00  0.00     0.074 A 
ATOM     48  C   UNL A   1      37.699  30.768  30.122  1.00  0.00     0.031 C 
ATOM     49  C   UNL A   1      42.880  27.572  33.313  1.00  0.00     0.029 A 
ATOM     50  C   UNL A   1      42.333  28.745  33.995  1.00  0.00     0.049 A 
ATOM     51  H   UNL A   1      40.772  29.961  33.344  1.00  0.00     0.167 HD
ATOM     52  C   UNL A   1      37.586  32.540  31.845  1.00  0.00     0.037 A 
ATOM     53  C   UNL A   1      42.757  29.237  35.177  1.00  0.00     0.037 A 
ATOM     54  C   UNL A   1      38.003  33.166  33.069  1.00  0.00     0.049 A 
ATOM     55  C   UNL A   1      42.122  30.482  35.740  1.00  0.00     0.074 A 
ATOM     56  C   UNL A   1      37.510  34.313  33.665  1.00  0.00     0.029 A 
ATOM     57  N   UNL A   1      39.004  32.683  33.899  1.00  0.00    -0.354 N 
ATOM     58  N   UNL A   1      41.153  31.213  35.241  1.00  0.00    -0.248 NA
ATOM     59  C   UNL A   1      42.648  30.977  37.020  1.00  0.00     0.031 C 
ATOM     60  C   UNL A   1      38.229  34.535  34.847  1.00  0.00     0.029 A 
ATOM     61  C   UNL A   1      39.145  33.507  35.003  1.00  0.00     0.049 A 
ATOM     62  H   UNL A   1      39.536  31.873  33.728  1.00  0.00     0.167 HD
ATOM     63  C   UNL A   1      40.950  32.250  36.148  1.00  0.00     0.074 A 
ATOM     64  C   UNL A   1      41.882  32.040  37.236  1.00  0.00     0.031 C 
ATOM     65  C   UNL A   1      40.076  33.285  36.080  1.00  0.00     0.037 A 
BRANCH  52  66
ATOM     66  C   UNL A   1      36.496  33.179  31.033  1.00  0.00     0.058 A 
ATOM     67  C   UNL A   1      36.762  33.925  29.874  1.00  0.00     0.135 A 
ATOM     68  C   UNL A   1      35.163  33.091  31.465  1.00  0.00     0.135 A 
ATOM     69  F   UNL A   1      38.023  34.061  29.433  1.00  0.00    -0.206 F 
ATOM     70  C   UNL A   1      35.751  34.606  29.202  1.00  0.00     0.059 A 
ATOM     71  C   UNL A   1      34.133  33.741  30.795  1.00  0.00     0.059 A 
ATOM     72  F   UNL A   1      34.855  32.391  32.568  1.00  0.00    -0.206 F 
ATOM     73  C   UNL A   1      34.442  34.521  29.680  1.00  0.00     0.060 A 
BRANCH  73  74
ATOM     74  S   UNL A   1      33.144  35.457  28.846  1.00  0.00     0.124 S 
ATOM     75  O   UNL A   1      33.931  36.399  28.055  1.00  0.00    -0.237 OA
ATOM     76  O   UNL A   1      32.445  34.425  28.088  1.00  0.00    -0.237 OA
ATOM     77  O   UNL A   1      32.387  36.040  29.949  1.00  0.00    -0.744 OA
ENDBRANCH  73  74
ENDBRANCH  52  66
BRANCH  53  78
ATOM     78  C   UNL A   1      43.875  28.563  35.889  1.00  0.00     0.058 A 
ATOM     79  C   UNL A   1      43.641  27.508  36.781  1.00  0.00     0.135 A 
ATOM     80  C   UNL A   1      45.208  28.944  35.658  1.00  0.00     0.135 A 
ATOM     81  F   UNL A   1      42.384  27.122  37.047  1.00  0.00    -0.206 F 
ATOM     82  C   UNL A   1      44.688  26.844  37.412  1.00  0.00     0.059 A 
ATOM     83  C   UNL A   1      46.271  28.278  36.257  1.00  0.00     0.059 A 
ATOM     84  F   UNL A   1      45.484  29.946  34.810  1.00  0.00    -0.206 F 
ATOM     85  C   UNL A   1      46.002  27.229  37.135  1.00  0.00     0.060 A 
BRANCH  85  86
ATOM     86  S   UNL A   1      47.359  26.293  37.871  1.00  0.00     0.124 S 
ATOM     87  O   UNL A   1      46.914  24.920  37.668  1.00  0.00    -0.237 OA
ATOM     88  O   UNL A   1      48.501  26.720  37.069  1.00  0.00    -0.237 OA
ATOM     89  O   UNL A   1      47.370  26.757  39.256  1.00  0.00    -0.744 OA
ENDBRANCH  85  86
ENDBRANCH  53  78
BRANCH  65  90
ATOM     90  C   UNL A   1      40.068  34.260  37.225  1.00  0.00     0.058 A 
ATOM     91  C   UNL A   1      39.268  34.055  38.361  1.00  0.00     0.135 A 
ATOM     92  C   UNL A   1      40.902  35.389  37.204  1.00  0.00     0.135 A 
ATOM     93  F   UNL A   1      38.452  32.991  38.429  1.00  0.00    -0.206 F 
ATOM     94  C   UNL A   1      39.276  34.950  39.426  1.00  0.00     0.059 A 
ATOM     95  C   UNL A   1      40.942  36.286  38.268  1.00  0.00     0.059 A 
ATOM     96  F   UNL A   1      41.695  35.624  36.148  1.00  0.00    -0.206 F 
ATOM     97  C   UNL A   1      40.114  36.066  39.369  1.00  0.00     0.060 A 
BRANCH  97  98
ATOM     98  S   UNL A   1      40.133  37.214  40.763  1.00  0.00     0.124 S 
ATOM     99  O   UNL A   1      38.897  36.857  41.452  1.00  0.00    -0.237 OA
ATOM    100  O   UNL A   1      41.370  36.856  41.451  1.00  0.00    -0.237 OA
ATOM    101  O   UNL A   1      40.139  38.525  40.121  1.00  0.00    -0.744 OA
ENDBRANCH  97  98
ENDBRANCH  65  90
ENDBRANCH  39  40
ENDBRANCH  32  34
ENDBRANCH  31  32
ENDBRANCH  30  31
ENDBRANCH  29  30
ENDBRANCH  28  29
ENDBRANCH  27  28
ENDBRANCH   1  27
TORSDOF 25
ENDMDL
MODEL 2
REMARK VINA RESULT:      -9.4      1.633      2.764
REMARK SMILES CCC[NH2+][C@]1(C(=O)OCCOCCOCCOC(=O)c2ccc(-c3c4nc(c(-c5c(F)cc(S(=O)(=O)[O-])cc5F)c5ccc([nH]5)c(-c5c(F)cc(S(=O)(=O)[O-])cc5F)c5nc(c(-c6c(F)cc(S(=O)(=O)[O-])cc6F)c6ccc3[nH]6)C=C5)C=C4)cc2)CC[C@@H](Sc2nnc(C)n2C)C1
REMARK SMILES IDX 12 1 11 2 10 3 9 4 8 5 6 6 7 7 5 8 86 9 97 10 87 11 88 12
REMARK SMILES IDX 4 13 3 16 2 17 1 18 89 19 90 20 91 21 95 22 92 23 93 24
REMARK SMILES IDX 96 25 94 26 13 27 14 28 15 29 16 30 17 31 18 32 19 33 20 34
REMARK SMILES IDX 21 35 85 36 22 37 84 38 23 39 24 40 25 41 78 42 26 43 83 44
REMARK SMILES IDX 77 45 79 46 27 47 82 48 76 49 75 50 28 52 62 53 41 54 61 55
REMARK SMILES IDX 42 56 45 57 60 58 80 59 43 60 44 61 59 63 81 64 46 65 29 66
REMARK SMILES IDX 30 67 39 68 31 69 32 70 38 71 40 72 33 73 34 74 35 75 36 76
REMARK SMILES IDX 37 77 63 78 64 79 73 80 65 81 66 82 72 83 74 84 67 85 68 86
REMARK SMILES IDX 69 87 70 88 71 89 47 90 48 91 57 92 49 93 50 94 56 95 58 96
REMARK SMILES IDX 51 97 52 98 53 99 54 100 55 101
REMARK H PARENT 4 14 4 15 79 51 45 62
REMARK Flexibility Score: inf
ROOT
ATOM      1  C   UNL A   1      40.020  21.396  26.776  1.00  0.00     0.188 C 
ENDROOT
BRANCH   1   2
ATOM      2  O   UNL A   1      38.960  21.880  25.956  1.00  0.00    -0.376 OA
BRANCH   2   3
ATOM      3  C   UNL A   1      38.554  23.230  26.092  1.00  0.00     0.202 C 
BRANCH   3   4
ATOM      4  C   UNL A   1      37.135  23.549  25.637  1.00  0.00     0.261 C 
BRANCH   4   5
ATOM      5  O   UNL A   1      36.498  22.457  24.960  1.00  0.00    -0.459 OA
BRANCH   5   6
ATOM      6  C   UNL A   1      35.426  22.783  24.182  1.00  0.00     0.368 C 
ATOM      7  O   UNL A   1      35.487  23.516  23.200  1.00  0.00    -0.245 OA
BRANCH   6   8
ATOM      8  C   UNL A   1      34.108  22.173  24.717  1.00  0.00     0.195 C 
ATOM      9  C   UNL A   1      33.459  23.131  25.742  1.00  0.00     0.082 C 
ATOM     10  C   UNL A   1      33.081  22.215  23.562  1.00  0.00     0.096 C 
ATOM     11  C   UNL A   1      31.964  22.851  25.646  1.00  0.00     0.022 C 
ATOM     12  C   UNL A   1      31.715  22.518  24.173  1.00  0.00     0.062 C 
BRANCH   8  13
ATOM     13  N   UNL A   1      34.325  20.855  25.377  1.00  0.00    -0.332 N 
ATOM     14  H   UNL A   1      35.110  20.400  24.911  1.00  0.00     0.347 HD
ATOM     15  H   UNL A   1      34.487  21.066  26.361  1.00  0.00     0.347 HD
BRANCH  13  16
ATOM     16  C   UNL A   1      33.194  19.929  25.353  1.00  0.00     0.261 C 
BRANCH  16  17
ATOM     17  C   UNL A   1      33.513  18.657  24.558  1.00  0.00     0.058 C 
ATOM     18  C   UNL A   1      32.556  18.389  23.405  1.00  0.00     0.010 C 
ENDBRANCH  16  17
ENDBRANCH  13  16
ENDBRANCH   8  13
BRANCH  12  19
ATOM     19  S   UNL A   1      30.833  23.810  23.215  1.00  0.00    -0.082 SA
BRANCH  19  20
ATOM     20  C   UNL A   1      32.088  24.958  22.905  1.00  0.00     0.191 A 
ATOM     21  N   UNL A   1      32.844  24.966  21.833  1.00  0.00    -0.123 NA
ATOM     22  N   UNL A   1      32.413  26.019  23.706  1.00  0.00    -0.309 N 
ATOM     23  N   UNL A   1      33.655  26.072  21.898  1.00  0.00    -0.135 NA
ATOM     24  C   UNL A   1      33.381  26.713  23.015  1.00  0.00     0.130 A 
ATOM     25  C   UNL A   1      31.860  26.415  24.978  1.00  0.00     0.154 C 
ATOM     26  C   UNL A   1      33.995  27.981  23.467  1.00  0.00     0.090 C 
ENDBRANCH  19  20
ENDBRANCH  12  19
ENDBRANCH   6   8
ENDBRANCH   5   6
ENDBRANCH   4   5
ENDBRANCH   3   4
ENDBRANCH   2   3
ENDBRANCH   1   2
BRANCH   1  27
ATOM     27  C   UNL A   1      41.437  21.258  26.181  1.00  0.00     0.188 C 
BRANCH  27  28
ATOM     28  O   UNL A   1      42.470  22.094  26.703  1.00  0.00    -0.376 OA
BRANCH  28  29
ATOM     29  C   UNL A   1      43.559  22.403  25.837  1.00  0.00     0.202 C 
BRANCH  29  30
ATOM     30  C   UNL A   1      43.287  23.571  24.898  1.00  0.00     0.261 C 
BRANCH  30  31
ATOM     31  O   UNL A   1      42.497  24.547  25.595  1.00  0.00    -0.460 OA
BRANCH  31  32
ATOM     32  C   UNL A   1      43.080  25.750  25.735  1.00  0.00     0.338 C 
ATOM     33  O   UNL A   1      44.087  26.150  25.165  1.00  0.00    -0.246 OA
BRANCH  32  34
ATOM     34  C   UNL A   1      42.290  26.564  26.672  1.00  0.00     0.060 A 
ATOM     35  C   UNL A   1      42.500  27.945  26.734  1.00  0.00     0.016 A 
ATOM     36  C   UNL A   1      41.470  25.933  27.607  1.00  0.00     0.016 A 
ATOM     37  C   UNL A   1      41.978  28.677  27.800  1.00  0.00     0.010 A 
ATOM     38  C   UNL A   1      40.924  26.677  28.658  1.00  0.00     0.010 A 
ATOM     39  C   UNL A   1      41.243  28.039  28.805  1.00  0.00    -0.014 A 
BRANCH  39  40
ATOM     40  C   UNL A   1      41.061  28.716  30.119  1.00  0.00     0.031 A 
ATOM     41  C   UNL A   1      39.895  29.660  30.279  1.00  0.00     0.074 A 
ATOM     42  C   UNL A   1      41.834  28.446  31.187  1.00  0.00     0.049 A 
ATOM     43  N   UNL A   1      39.610  30.478  31.259  1.00  0.00    -0.248 NA
ATOM     44  C   UNL A   1      38.920  29.683  29.176  1.00  0.00     0.031 C 
ATOM     45  C   UNL A   1      42.925  27.476  31.223  1.00  0.00     0.029 A 
ATOM     46  N   UNL A   1      41.805  28.968  32.458  1.00  0.00    -0.354 N 
ATOM     47  C   UNL A   1      38.467  31.162  30.859  1.00  0.00     0.074 A 
ATOM     48  C   UNL A   1      38.106  30.656  29.554  1.00  0.00     0.031 C 
ATOM     49  C   UNL A   1      43.458  27.466  32.457  1.00  0.00     0.029 A 
ATOM     50  C   UNL A   1      42.786  28.472  33.281  1.00  0.00     0.049 A 
ATOM     51  H   UNL A   1      41.142  29.635  32.750  1.00  0.00     0.167 HD
ATOM     52  C   UNL A   1      37.783  32.131  31.513  1.00  0.00     0.037 A 
ATOM     53  C   UNL A   1      43.130  28.813  34.539  1.00  0.00     0.037 A 
ATOM     54  C   UNL A   1      38.105  32.598  32.833  1.00  0.00     0.049 A 
ATOM     55  C   UNL A   1      42.368  29.900  35.252  1.00  0.00     0.074 A 
ATOM     56  C   UNL A   1      37.492  33.596  33.571  1.00  0.00     0.029 A 
ATOM     57  N   UNL A   1      39.120  32.082  33.625  1.00  0.00    -0.354 N 
ATOM     58  N   UNL A   1      41.352  30.613  34.826  1.00  0.00    -0.248 NA
ATOM     59  C   UNL A   1      42.808  30.239  36.613  1.00  0.00     0.031 C 
ATOM     60  C   UNL A   1      38.152  33.697  34.802  1.00  0.00     0.029 A 
ATOM     61  C   UNL A   1      39.152  32.738  34.844  1.00  0.00     0.049 A 
ATOM     62  H   UNL A   1      39.728  31.355  33.359  1.00  0.00     0.167 HD
ATOM     63  C   UNL A   1      41.029  31.480  35.866  1.00  0.00     0.074 A 
ATOM     64  C   UNL A   1      41.944  31.188  36.951  1.00  0.00     0.031 C 
ATOM     65  C   UNL A   1      40.068  32.436  35.915  1.00  0.00     0.037 A 
BRANCH  52  66
ATOM     66  C   UNL A   1      36.663  32.790  30.758  1.00  0.00     0.058 A 
ATOM     67  C   UNL A   1      36.896  33.710  29.724  1.00  0.00     0.135 A 
ATOM     68  C   UNL A   1      35.332  32.539  31.126  1.00  0.00     0.135 A 
ATOM     69  F   UNL A   1      38.152  34.005  29.351  1.00  0.00    -0.206 F 
ATOM     70  C   UNL A   1      35.850  34.397  29.116  1.00  0.00     0.059 A 
ATOM     71  C   UNL A   1      34.269  33.194  30.515  1.00  0.00     0.059 A 
ATOM     72  F   UNL A   1      35.056  31.669  32.110  1.00  0.00    -0.206 F 
ATOM     73  C   UNL A   1      34.540  34.144  29.531  1.00  0.00     0.060 A 
BRANCH  73  74
ATOM     74  S   UNL A   1      33.191  35.084  28.788  1.00  0.00     0.124 S 
ATOM     75  O   UNL A   1      33.885  36.295  28.358  1.00  0.00    -0.237 OA
ATOM     76  O   UNL A   1      32.740  34.201  27.718  1.00  0.00    -0.237 OA
ATOM     77  O   UNL A   1      32.251  35.256  29.891  1.00  0.00    -0.744 OA
ENDBRANCH  73  74
ENDBRANCH  52  66
BRANCH  53  78
ATOM     78  C   UNL A   1      44.282  28.137  35.191  1.00  0.00     0.058 A 
ATOM     79  C   UNL A   1      45.587  28.631  35.057  1.00  0.00     0.135 A 
ATOM     80  C   UNL A   1      44.090  27.001  35.993  1.00  0.00     0.135 A 
ATOM     81  F   UNL A   1      45.823  29.703  34.287  1.00  0.00    -0.206 F 
ATOM     82  C   UNL A   1      46.661  28.029  35.705  1.00  0.00     0.059 A 
ATOM     83  C   UNL A   1      45.143  26.398  36.671  1.00  0.00     0.059 A 
ATOM     84  F   UNL A   1      42.858  26.493  36.156  1.00  0.00    -0.206 F 
ATOM     85  C   UNL A   1      46.428  26.919  36.520  1.00  0.00     0.060 A 
BRANCH  85  86
ATOM     86  S   UNL A   1      47.807  26.209  37.444  1.00  0.00     0.124 S 
ATOM     87  O   UNL A   1      47.672  26.876  38.733  1.00  0.00    -0.237 OA
ATOM     88  O   UNL A   1      47.492  24.784  37.425  1.00  0.00    -0.237 OA
ATOM     89  O   UNL A   1      48.972  26.594  36.650  1.00  0.00    -0.744 OA
ENDBRANCH  85  86
ENDBRANCH  53  78
BRANCH  65  90
ATOM     90  C   UNL A   1      39.937  33.222  37.190  1.00  0.00     0.058 A 
ATOM     91  C   UNL A   1      40.744  34.341  37.450  1.00  0.00     0.135 A 
ATOM     92  C   UNL A   1      38.963  32.880  38.142  1.00  0.00     0.135 A 
ATOM     93  F   UNL A   1      41.691  34.710  36.574  1.00  0.00    -0.206 F 
ATOM     94  C   UNL A   1      40.608  35.078  38.623  1.00  0.00     0.059 A 
ATOM     95  C   UNL A   1      38.795  33.615  39.311  1.00  0.00     0.059 A 
ATOM     96  F   UNL A   1      38.157  31.827  37.935  1.00  0.00    -0.206 F 
ATOM     97  C   UNL A   1      39.632  34.705  39.550  1.00  0.00     0.060 A 
BRANCH  97  98
ATOM     98  S   UNL A   1      39.449  35.676  41.062  1.00  0.00     0.124 S 
ATOM     99  O   UNL A   1      38.650  36.802  40.589  1.00  0.00    -0.237 OA
ATOM    100  O   UNL A   1      38.766  34.745  41.956  1.00  0.00    -0.237 OA
ATOM    101  O   UNL A   1      40.825  35.992  41.430  1.00  0.00    -0.744 OA
ENDBRANCH  97  98
ENDBRANCH  65  90
ENDBRANCH  39  40
ENDBRANCH  32  34
ENDBRANCH  31  32
ENDBRANCH  30  31
ENDBRANCH  29  30
ENDBRANCH  28  29
ENDBRANCH  27  28
ENDBRANCH   1  27
TORSDOF 25
ENDMDL
MODEL 3
REMARK VINA RESULT:      -9.1      6.515     12.162
REMARK SMILES CCC[NH2+][C@]1(C(=O)OCCOCCOCCOC(=O)c2ccc(-c3c4nc(c(-c5c(F)cc(S(=O)(=O)[O-])cc5F)c5ccc([nH]5)c(-c5c(F)cc(S(=O)(=O)[O-])cc5F)c5nc(c(-c6c(F)cc(S(=O)(=O)[O-])cc6F)c6ccc3[nH]6)C=C5)C=C4)cc2)CC[C@@H](Sc2nnc(C)n2C)C1
REMARK SMILES IDX 12 1 11 2 10 3 9 4 8 5 6 6 7 7 5 8 86 9 97 10 87 11 88 12
REMARK SMILES IDX 4 13 3 16 2 17 1 18 89 19 90 20 91 21 95 22 92 23 93 24
REMARK SMILES IDX 96 25 94 26 13 27 14 28 15 29 16 30 17 31 18 32 19 33 20 34
REMARK SMILES IDX 21 35 85 36 22 37 84 38 23 39 24 40 25 41 78 42 26 43 83 44
REMARK SMILES IDX 77 45 79 46 27 47 82 48 76 49 75 50 28 52 62 53 41 54 61 55
REMARK SMILES IDX 42 56 45 57 60 58 80 59 43 60 44 61 59 63 81 64 46 65 29 66
REMARK SMILES IDX 30 67 39 68 31 69 32 70 38 71 40 72 33 73 34 74 35 75 36 76
REMARK SMILES IDX 37 77 63 78 64 79 73 80 65 81 66 82 72 83 74 84 67 85 68 86
REMARK SMILES IDX 69 87 70 88 71 89 47 90 48 91 57 92 49 93 50 94 56 95 58 96
REMARK SMILES IDX 51 97 52 98 53 99 54 100 55 101
REMARK H PARENT 4 14 4 15 79 51 45 62
REMARK Flexibility Score: inf
ROOT
ATOM      1  C   UNL A   1      33.708  33.595  28.800  1.00  0.00     0.188 C 
ENDROOT
BRANCH   1   2
ATOM      2  O   UNL A   1      33.962  32.608  27.806  1.00  0.00    -0.376 OA
BRANCH   2   3
ATOM      3  C   UNL A   1      33.191  31.419  27.811  1.00  0.00     0.202 C 
BRANCH   3   4
ATOM      4  C   UNL A   1      33.775  30.242  27.040  1.00  0.00     0.261 C 
BRANCH   4   5
ATOM      5  O   UNL A   1      32.777  29.362  26.505  1.00  0.00    -0.459 OA
BRANCH   5   6
ATOM      6  C   UNL A   1      31.948  29.902  25.566  1.00  0.00     0.368 C 
ATOM      7  O   UNL A   1      31.332  30.954  25.716  1.00  0.00    -0.245 OA
BRANCH   6   8
ATOM      8  C   UNL A   1      31.821  29.005  24.312  1.00  0.00     0.195 C 
ATOM      9  C   UNL A   1      33.215  28.493  23.883  1.00  0.00     0.082 C 
ATOM     10  C   UNL A   1      31.132  27.694  24.754  1.00  0.00     0.096 C 
ATOM     11  C   UNL A   1      32.946  27.157  23.200  1.00  0.00     0.022 C 
ATOM     12  C   UNL A   1      31.760  26.554  23.956  1.00  0.00     0.062 C 
BRANCH   8  13
ATOM     13  N   UNL A   1      31.213  29.731  23.162  1.00  0.00    -0.332 N 
ATOM     14  H   UNL A   1      31.303  30.731  23.342  1.00  0.00     0.347 HD
ATOM     15  H   UNL A   1      31.718  29.407  22.336  1.00  0.00     0.347 HD
BRANCH  13  16
ATOM     16  C   UNL A   1      29.803  29.451  22.896  1.00  0.00     0.261 C 
BRANCH  16  17
ATOM     17  C   UNL A   1      29.264  30.285  21.727  1.00  0.00     0.058 C 
ATOM     18  C   UNL A   1      28.635  31.606  22.145  1.00  0.00     0.010 C 
ENDBRANCH  16  17
ENDBRANCH  13  16
ENDBRANCH   8  13
BRANCH  12  19
ATOM     19  S   UNL A   1      32.164  25.131  25.043  1.00  0.00    -0.082 SA
BRANCH  19  20
ATOM     20  C   UNL A   1      33.240  24.207  24.054  1.00  0.00     0.191 A 
ATOM     21  N   UNL A   1      32.947  23.749  22.860  1.00  0.00    -0.123 NA
ATOM     22  N   UNL A   1      34.532  23.884  24.367  1.00  0.00    -0.309 N 
ATOM     23  N   UNL A   1      34.072  23.149  22.351  1.00  0.00    -0.135 NA
ATOM     24  C   UNL A   1      35.029  23.248  23.251  1.00  0.00     0.130 A 
ATOM     25  C   UNL A   1      35.288  24.169  25.562  1.00  0.00     0.154 C 
ATOM     26  C   UNL A   1      36.421  22.770  23.102  1.00  0.00     0.090 C 
ENDBRANCH  19  20
ENDBRANCH  12  19
ENDBRANCH   6   8
ENDBRANCH   5   6
ENDBRANCH   4   5
ENDBRANCH   3   4
ENDBRANCH   2   3
ENDBRANCH   1   2
BRANCH   1  27
ATOM     27  C   UNL A   1      34.867  34.480  29.305  1.00  0.00     0.188 C 
BRANCH  27  28
ATOM     28  O   UNL A   1      36.202  34.089  28.984  1.00  0.00    -0.376 OA
BRANCH  28  29
ATOM     29  C   UNL A   1      37.178  34.188  30.017  1.00  0.00     0.202 C 
BRANCH  29  30
ATOM     30  C   UNL A   1      36.843  33.374  31.260  1.00  0.00     0.261 C 
BRANCH  30  31
ATOM     31  O   UNL A   1      37.648  32.185  31.263  1.00  0.00    -0.460 OA
BRANCH  31  32
ATOM     32  C   UNL A   1      37.142  31.158  30.560  1.00  0.00     0.338 C 
ATOM     33  O   UNL A   1      35.968  30.981  30.258  1.00  0.00    -0.246 OA
BRANCH  32  34
ATOM     34  C   UNL A   1      38.237  30.262  30.155  1.00  0.00     0.060 A 
ATOM     35  C   UNL A   1      39.230  29.924  31.079  1.00  0.00     0.016 A 
ATOM     36  C   UNL A   1      38.369  29.903  28.814  1.00  0.00     0.016 A 
ATOM     37  C   UNL A   1      40.409  29.324  30.638  1.00  0.00     0.010 A 
ATOM     38  C   UNL A   1      39.541  29.274  28.382  1.00  0.00     0.010 A 
ATOM     39  C   UNL A   1      40.603  29.055  29.279  1.00  0.00    -0.014 A 
BRANCH  39  40
ATOM     40  C   UNL A   1      41.982  28.822  28.769  1.00  0.00     0.031 A 
ATOM     41  C   UNL A   1      42.315  27.461  28.209  1.00  0.00     0.074 A 
ATOM     42  C   UNL A   1      42.905  29.799  28.701  1.00  0.00     0.049 A 
ATOM     43  N   UNL A   1      43.470  26.965  27.849  1.00  0.00    -0.248 NA
ATOM     44  C   UNL A   1      41.184  26.534  28.037  1.00  0.00     0.031 C 
ATOM     45  C   UNL A   1      42.700  31.190  29.096  1.00  0.00     0.029 A 
ATOM     46  N   UNL A   1      44.206  29.761  28.262  1.00  0.00    -0.354 N 
ATOM     47  C   UNL A   1      43.215  25.648  27.477  1.00  0.00     0.074 A 
ATOM     48  C   UNL A   1      41.796  25.428  27.646  1.00  0.00     0.031 C 
ATOM     49  C   UNL A   1      43.834  31.877  28.873  1.00  0.00     0.029 A 
ATOM     50  C   UNL A   1      44.864  30.961  28.379  1.00  0.00     0.049 A 
ATOM     51  H   UNL A   1      44.628  28.949  27.898  1.00  0.00     0.167 HD
ATOM     52  C   UNL A   1      44.083  24.704  27.043  1.00  0.00     0.037 A 
ATOM     53  C   UNL A   1      46.154  31.280  28.151  1.00  0.00     0.037 A 
ATOM     54  C   UNL A   1      45.484  24.934  26.820  1.00  0.00     0.049 A 
ATOM     55  C   UNL A   1      47.113  30.218  27.679  1.00  0.00     0.074 A 
ATOM     56  C   UNL A   1      46.454  24.036  26.411  1.00  0.00     0.029 A 
ATOM     57  N   UNL A   1      46.114  26.161  26.970  1.00  0.00    -0.354 N 
ATOM     58  N   UNL A   1      46.884  28.950  27.429  1.00  0.00    -0.248 NA
ATOM     59  C   UNL A   1      48.509  30.627  27.471  1.00  0.00     0.031 C 
ATOM     60  C   UNL A   1      47.676  24.717  26.333  1.00  0.00     0.029 A 
ATOM     61  C   UNL A   1      47.458  26.046  26.661  1.00  0.00     0.049 A 
ATOM     62  H   UNL A   1      45.669  26.992  27.254  1.00  0.00     0.167 HD
ATOM     63  C   UNL A   1      48.104  28.412  27.030  1.00  0.00     0.074 A 
ATOM     64  C   UNL A   1      49.064  29.496  27.051  1.00  0.00     0.031 C 
ATOM     65  C   UNL A   1      48.403  27.135  26.685  1.00  0.00     0.037 A 
BRANCH  52  66
ATOM     66  C   UNL A   1      43.533  23.319  26.857  1.00  0.00     0.058 A 
ATOM     67  C   UNL A   1      43.202  22.491  27.941  1.00  0.00     0.135 A 
ATOM     68  C   UNL A   1      43.395  22.792  25.563  1.00  0.00     0.135 A 
ATOM     69  F   UNL A   1      43.341  22.938  29.200  1.00  0.00    -0.206 F 
ATOM     70  C   UNL A   1      42.805  21.171  27.751  1.00  0.00     0.059 A 
ATOM     71  C   UNL A   1      42.975  21.484  25.347  1.00  0.00     0.059 A 
ATOM     72  F   UNL A   1      43.699  23.541  24.492  1.00  0.00    -0.206 F 
ATOM     73  C   UNL A   1      42.710  20.672  26.449  1.00  0.00     0.060 A 
BRANCH  73  74
ATOM     74  S   UNL A   1      42.259  18.942  26.208  1.00  0.00     0.124 S 
ATOM     75  O   UNL A   1      40.869  19.064  25.776  1.00  0.00    -0.237 OA
ATOM     76  O   UNL A   1      43.203  18.506  25.185  1.00  0.00    -0.237 OA
ATOM     77  O   UNL A   1      42.457  18.353  27.529  1.00  0.00    -0.744 OA
ENDBRANCH  73  74
ENDBRANCH  52  66
BRANCH  53  78
ATOM     78  C   UNL A   1      46.620  32.668  28.407  1.00  0.00     0.058 A 
ATOM     79  C   UNL A   1      47.105  33.054  29.664  1.00  0.00     0.135 A 
ATOM     80  C   UNL A   1      46.621  33.627  27.381  1.00  0.00     0.135 A 
ATOM     81  F   UNL A   1      47.107  32.178  30.680  1.00  0.00    -0.206 F 
ATOM     82  C   UNL A   1      47.588  34.339  29.893  1.00  0.00     0.059 A 
ATOM     83  C   UNL A   1      47.122  34.909  27.579  1.00  0.00     0.059 A 
ATOM     84  F   UNL A   1      46.170  33.305  26.158  1.00  0.00    -0.206 F 
ATOM     85  C   UNL A   1      47.602  35.257  28.841  1.00  0.00     0.060 A 
BRANCH  85  86
ATOM     86  S   UNL A   1      48.330  36.887  29.115  1.00  0.00     0.124 S 
ATOM     87  O   UNL A   1      47.583  37.705  28.168  1.00  0.00    -0.237 OA
ATOM     88  O   UNL A   1      48.043  37.120  30.527  1.00  0.00    -0.237 OA
ATOM     89  O   UNL A   1      49.741  36.678  28.798  1.00  0.00    -0.744 OA
ENDBRANCH  85  86
ENDBRANCH  53  78
BRANCH  65  90
ATOM     90  C   UNL A   1      49.820  26.840  26.279  1.00  0.00     0.058 A 
ATOM     91  C   UNL A   1      50.252  26.986  24.951  1.00  0.00     0.135 A 
ATOM     92  C   UNL A   1      50.769  26.451  27.238  1.00  0.00     0.135 A 
ATOM     93  F   UNL A   1      49.383  27.354  23.995  1.00  0.00    -0.206 F 
ATOM     94  C   UNL A   1      51.569  26.730  24.582  1.00  0.00     0.059 A 
ATOM     95  C   UNL A   1      52.097  26.210  26.896  1.00  0.00     0.059 A 
ATOM     96  F   UNL A   1      50.412  26.310  28.524  1.00  0.00    -0.206 F 
ATOM     97  C   UNL A   1      52.484  26.338  25.562  1.00  0.00     0.060 A 
BRANCH  97  98
ATOM     98  S   UNL A   1      54.196  26.025  25.080  1.00  0.00     0.124 S 
ATOM     99  O   UNL A   1      54.915  26.411  26.290  1.00  0.00    -0.237 OA
ATOM    100  O   UNL A   1      54.185  24.597  24.778  1.00  0.00    -0.237 OA
ATOM    101  O   UNL A   1      54.389  26.900  23.928  1.00  0.00    -0.744 OA
ENDBRANCH  97  98
ENDBRANCH  65  90
ENDBRANCH  39  40
ENDBRANCH  32  34
ENDBRANCH  31  32
ENDBRANCH  30  31
ENDBRANCH  29  30
ENDBRANCH  28  29
ENDBRANCH  27  28
ENDBRANCH   1  27
TORSDOF 25
ENDMDL
