MODEL 1
REMARK VINA RESULT:     -10.5      0.000      0.000
REMARK SMILES O=C(OCCOCCOCCOC(=O)[C@H]1C[C@H]2CCCC[C@@H]2[N@@H+]1C1CCS(=O)(=O)CC1)c1ccc(-c2c3nc(c(-c4c(F)cc(S(=O)(=O)[O-])cc4F)c4ccc([nH]4)c(-c4c(F)cc(S(=O)(=O)[O-])cc4F)c4nc(c(-c5c(F)cc(S(=O)(=O)[O-])cc5F)c5ccc2[nH]5)C=C4)C=C3)cc1
REMARK SMILES IDX 7 1 6 2 5 3 4 4 3 5 2 6 1 7 32 8 33 9 97 10 34 11 96 12
REMARK SMILES IDX 35 13 36 14 37 15 90 16 38 17 95 18 89 19 91 20 39 21 94 22
REMARK SMILES IDX 88 23 87 24 40 26 74 27 53 28 73 29 54 30 57 31 72 32 92 33
REMARK SMILES IDX 55 34 56 35 71 37 93 38 58 39 41 40 42 41 51 42 43 43 44 44
REMARK SMILES IDX 50 45 52 46 45 47 46 48 47 49 48 50 49 51 75 52 76 53 85 54
REMARK SMILES IDX 77 55 78 56 84 57 86 58 79 59 80 60 81 61 82 62 83 63 59 64
REMARK SMILES IDX 60 65 69 66 61 67 62 68 68 69 70 70 63 71 64 72 65 73 66 74
REMARK SMILES IDX 67 75 8 76 9 77 10 78 11 79 12 80 13 81 14 82 15 83 16 84
REMARK SMILES IDX 23 85 17 86 22 87 18 89 21 90 19 91 20 92 24 93 25 94 31 95
REMARK SMILES IDX 26 96 30 97 27 98 28 99 29 100
REMARK H PARENT 91 25 57 36 23 88
REMARK Flexibility Score: inf
ROOT
ATOM      1  C   UNL A   1      31.959  28.379  24.806  1.00  0.00     0.188 C 
ENDROOT
BRANCH   1   2
ATOM      2  O   UNL A   1      31.512  29.721  24.621  1.00  0.00    -0.376 OA
BRANCH   2   3
ATOM      3  C   UNL A   1      31.448  30.484  25.830  1.00  0.00     0.202 C 
BRANCH   3   4
ATOM      4  C   UNL A   1      32.290  29.966  27.015  1.00  0.00     0.261 C 
BRANCH   4   5
ATOM      5  O   UNL A   1      33.692  30.297  26.942  1.00  0.00    -0.460 OA
BRANCH   5   6
ATOM      6  C   UNL A   1      34.503  30.775  27.920  1.00  0.00     0.338 C 
ATOM      7  O   UNL A   1      34.106  31.707  28.620  1.00  0.00    -0.246 OA
BRANCH   6   8
ATOM      8  C   UNL A   1      35.856  30.219  28.196  1.00  0.00     0.060 A 
ATOM      9  C   UNL A   1      36.275  29.757  29.440  1.00  0.00     0.016 A 
ATOM     10  C   UNL A   1      36.743  30.091  27.117  1.00  0.00     0.016 A 
ATOM     11  C   UNL A   1      37.572  29.335  29.663  1.00  0.00     0.010 A 
ATOM     12  C   UNL A   1      38.026  29.570  27.311  1.00  0.00     0.010 A 
ATOM     13  C   UNL A   1      38.462  29.230  28.601  1.00  0.00    -0.014 A 
BRANCH  13  14
ATOM     14  C   UNL A   1      39.872  28.903  28.891  1.00  0.00     0.031 A 
ATOM     15  C   UNL A   1      40.707  29.944  29.561  1.00  0.00     0.074 A 
ATOM     16  C   UNL A   1      40.358  27.659  28.710  1.00  0.00     0.049 A 
ATOM     17  N   UNL A   1      41.961  29.887  29.906  1.00  0.00    -0.248 NA
ATOM     18  C   UNL A   1      40.027  31.194  29.939  1.00  0.00     0.031 C 
ATOM     19  C   UNL A   1      39.555  26.507  28.315  1.00  0.00     0.029 A 
ATOM     20  N   UNL A   1      41.616  27.136  28.867  1.00  0.00    -0.354 N 
ATOM     21  C   UNL A   1      42.219  31.087  30.549  1.00  0.00     0.074 A 
ATOM     22  C   UNL A   1      41.011  31.877  30.498  1.00  0.00     0.031 C 
ATOM     23  C   UNL A   1      40.343  25.427  28.235  1.00  0.00     0.029 A 
ATOM     24  C   UNL A   1      41.707  25.815  28.494  1.00  0.00     0.049 A 
ATOM     25  H   UNL A   1      42.378  27.655  29.213  1.00  0.00     0.167 HD
ATOM     26  C   UNL A   1      43.364  31.472  31.153  1.00  0.00     0.037 A 
ATOM     27  C   UNL A   1      42.758  24.989  28.355  1.00  0.00     0.037 A 
ATOM     28  C   UNL A   1      44.549  30.660  31.180  1.00  0.00     0.049 A 
ATOM     29  C   UNL A   1      44.072  25.510  28.832  1.00  0.00     0.074 A 
ATOM     30  C   UNL A   1      45.791  30.965  31.700  1.00  0.00     0.029 A 
ATOM     31  N   UNL A   1      44.637  29.375  30.652  1.00  0.00    -0.354 N 
ATOM     32  N   UNL A   1      44.323  26.676  29.378  1.00  0.00    -0.248 NA
ATOM     33  C   UNL A   1      45.226  24.616  28.731  1.00  0.00     0.031 C 
ATOM     34  C   UNL A   1      46.647  29.892  31.428  1.00  0.00     0.029 A 
ATOM     35  C   UNL A   1      45.924  28.889  30.797  1.00  0.00     0.049 A 
ATOM     36  H   UNL A   1      43.892  28.884  30.235  1.00  0.00     0.167 HD
ATOM     37  C   UNL A   1      45.655  26.639  29.745  1.00  0.00     0.074 A 
ATOM     38  C   UNL A   1      46.156  25.335  29.346  1.00  0.00     0.031 C 
ATOM     39  C   UNL A   1      46.388  27.589  30.373  1.00  0.00     0.037 A 
BRANCH  26  40
ATOM     40  C   UNL A   1      43.374  32.852  31.742  1.00  0.00     0.058 A 
ATOM     41  C   UNL A   1      43.678  33.991  30.977  1.00  0.00     0.135 A 
ATOM     42  C   UNL A   1      43.158  33.022  33.117  1.00  0.00     0.135 A 
ATOM     43  F   UNL A   1      43.942  33.876  29.666  1.00  0.00    -0.206 F 
ATOM     44  C   UNL A   1      43.806  35.246  31.565  1.00  0.00     0.059 A 
ATOM     45  C   UNL A   1      43.252  34.272  33.720  1.00  0.00     0.059 A 
ATOM     46  F   UNL A   1      42.890  31.963  33.896  1.00  0.00    -0.206 F 
ATOM     47  C   UNL A   1      43.597  35.374  32.939  1.00  0.00     0.060 A 
BRANCH  47  48
ATOM     48  S   UNL A   1      43.796  36.999  33.695  1.00  0.00     0.124 S 
ATOM     49  O   UNL A   1      44.972  36.788  34.533  1.00  0.00    -0.237 OA
ATOM     50  O   UNL A   1      43.992  37.860  32.533  1.00  0.00    -0.237 OA
ATOM     51  O   UNL A   1      42.541  37.196  34.414  1.00  0.00    -0.744 OA
ENDBRANCH  47  48
ENDBRANCH  26  40
BRANCH  27  52
ATOM     52  C   UNL A   1      42.594  23.625  27.768  1.00  0.00     0.058 A 
ATOM     53  C   UNL A   1      42.529  22.479  28.572  1.00  0.00     0.135 A 
ATOM     54  C   UNL A   1      42.479  23.441  26.376  1.00  0.00     0.135 A 
ATOM     55  F   UNL A   1      42.607  22.594  29.906  1.00  0.00    -0.206 F 
ATOM     56  C   UNL A   1      42.405  21.203  28.024  1.00  0.00     0.059 A 
ATOM     57  C   UNL A   1      42.333  22.178  25.804  1.00  0.00     0.059 A 
ATOM     58  F   UNL A   1      42.494  24.504  25.555  1.00  0.00    -0.206 F 
ATOM     59  C   UNL A   1      42.318  21.062  26.637  1.00  0.00     0.060 A 
BRANCH  59  60
ATOM     60  S   UNL A   1      42.224  19.392  25.948  1.00  0.00     0.124 S 
ATOM     61  O   UNL A   1      40.810  19.307  25.588  1.00  0.00    -0.237 OA
ATOM     62  O   UNL A   1      43.154  19.467  24.827  1.00  0.00    -0.237 OA
ATOM     63  O   UNL A   1      42.629  18.533  27.056  1.00  0.00    -0.744 OA
ENDBRANCH  59  60
ENDBRANCH  27  52
BRANCH  39  64
ATOM     64  C   UNL A   1      47.804  27.224  30.689  1.00  0.00     0.058 A 
ATOM     65  C   UNL A   1      48.853  27.517  29.805  1.00  0.00     0.135 A 
ATOM     66  C   UNL A   1      48.111  26.594  31.904  1.00  0.00     0.135 A 
ATOM     67  F   UNL A   1      48.599  28.105  28.625  1.00  0.00    -0.206 F 
ATOM     68  C   UNL A   1      50.161  27.169  30.105  1.00  0.00     0.059 A 
ATOM     69  C   UNL A   1      49.418  26.270  32.240  1.00  0.00     0.059 A 
ATOM     70  F   UNL A   1      47.137  26.298  32.781  1.00  0.00    -0.206 F 
ATOM     71  C   UNL A   1      50.433  26.550  31.326  1.00  0.00     0.060 A 
BRANCH  71  72
ATOM     72  S   UNL A   1      52.144  26.141  31.719  1.00  0.00     0.124 S 
ATOM     73  O   UNL A   1      52.427  27.079  32.800  1.00  0.00    -0.237 OA
ATOM     74  O   UNL A   1      52.046  24.736  32.105  1.00  0.00    -0.237 OA
ATOM     75  O   UNL A   1      52.848  26.394  30.466  1.00  0.00    -0.744 OA
ENDBRANCH  71  72
ENDBRANCH  39  64
ENDBRANCH  13  14
ENDBRANCH   6   8
ENDBRANCH   5   6
ENDBRANCH   4   5
ENDBRANCH   3   4
ENDBRANCH   2   3
ENDBRANCH   1   2
BRANCH   1  76
ATOM     76  C   UNL A   1      30.941  27.301  24.449  1.00  0.00     0.188 C 
BRANCH  76  77
ATOM     77  O   UNL A   1      31.387  25.960  24.332  1.00  0.00    -0.376 OA
BRANCH  77  78
ATOM     78  C   UNL A   1      31.716  25.492  23.030  1.00  0.00     0.202 C 
BRANCH  78  79
ATOM     79  C   UNL A   1      32.514  24.183  22.849  1.00  0.00     0.261 C 
BRANCH  79  80
ATOM     80  O   UNL A   1      32.556  23.253  23.948  1.00  0.00    -0.459 OA
BRANCH  80  81
ATOM     81  C   UNL A   1      32.520  21.944  23.577  1.00  0.00     0.365 C 
ATOM     82  O   UNL A   1      32.086  21.558  22.492  1.00  0.00    -0.245 OA
BRANCH  81  83
ATOM     83  C   UNL A   1      33.050  20.935  24.599  1.00  0.00     0.296 C 
ATOM     84  C   UNL A   1      32.071  19.779  24.810  1.00  0.00     0.087 C 
ATOM     85  N   UNL A   1      34.383  20.322  24.346  1.00  0.00    -0.318 N 
ATOM     86  C   UNL A   1      32.982  18.668  25.285  1.00  0.00     0.054 C 
ATOM     87  C   UNL A   1      34.186  18.849  24.369  1.00  0.00     0.188 C 
ATOM     88  H   UNL A   1      34.709  20.619  23.426  1.00  0.00     0.349 HD
ATOM     89  C   UNL A   1      32.414  17.260  25.214  1.00  0.00     0.010 C 
ATOM     90  C   UNL A   1      35.294  17.853  24.755  1.00  0.00     0.065 C 
ATOM     91  C   UNL A   1      33.495  16.246  25.592  1.00  0.00     0.001 C 
ATOM     92  C   UNL A   1      34.760  16.412  24.744  1.00  0.00     0.006 C 
BRANCH  85  93
ATOM     93  C   UNL A   1      35.527  20.835  25.122  1.00  0.00     0.186 C 
ATOM     94  C   UNL A   1      36.487  21.678  24.262  1.00  0.00     0.081 C 
ATOM     95  C   UNL A   1      35.313  21.500  26.499  1.00  0.00     0.081 C 
ATOM     96  C   UNL A   1      36.101  23.113  23.993  1.00  0.00     0.143 C 
ATOM     97  C   UNL A   1      34.839  22.938  26.510  1.00  0.00     0.143 C 
ATOM     98  S   UNL A   1      35.824  24.016  25.497  1.00  0.00     0.150 S 
ATOM     99  O   UNL A   1      35.002  25.161  25.163  1.00  0.00    -0.229 OA
ATOM    100  O   UNL A   1      37.109  24.155  26.149  1.00  0.00    -0.229 OA
ENDBRANCH  85  93
ENDBRANCH  81  83
ENDBRANCH  80  81
ENDBRANCH  79  80
ENDBRANCH  78  79
ENDBRANCH  77  78
ENDBRANCH  76  77
ENDBRANCH   1  76
TORSDOF 21
ENDMDL
MODEL 2
REMARK VINA RESULT:     -10.4      4.463     10.101
REMARK SMILES O=C(OCCOCCOCCOC(=O)[C@H]1C[C@H]2CCCC[C@@H]2[N@@H+]1C1CCS(=O)(=O)CC1)c1ccc(-c2c3nc(c(-c4c(F)cc(S(=O)(=O)[O-])cc4F)c4ccc([nH]4)c(-c4c(F)cc(S(=O)(=O)[O-])cc4F)c4nc(c(-c5c(F)cc(S(=O)(=O)[O-])cc5F)c5ccc2[nH]5)C=C4)C=C3)cc1
REMARK SMILES IDX 7 1 6 2 5 3 4 4 3 5 2 6 1 7 32 8 33 9 97 10 34 11 96 12
REMARK SMILES IDX 35 13 36 14 37 15 90 16 38 17 95 18 89 19 91 20 39 21 94 22
REMARK SMILES IDX 88 23 87 24 40 26 74 27 53 28 73 29 54 30 57 31 72 32 92 33
REMARK SMILES IDX 55 34 56 35 71 37 93 38 58 39 41 40 42 41 51 42 43 43 44 44
REMARK SMILES IDX 50 45 52 46 45 47 46 48 47 49 48 50 49 51 75 52 76 53 85 54
REMARK SMILES IDX 77 55 78 56 84 57 86 58 79 59 80 60 81 61 82 62 83 63 59 64
REMARK SMILES IDX 60 65 69 66 61 67 62 68 68 69 70 70 63 71 64 72 65 73 66 74
REMARK SMILES IDX 67 75 8 76 9 77 10 78 11 79 12 80 13 81 14 82 15 83 16 84
REMARK SMILES IDX 23 85 17 86 22 87 18 89 21 90 19 91 20 92 24 93 25 94 31 95
REMARK SMILES IDX 26 96 30 97 27 98 28 99 29 100
REMARK H PARENT 91 25 57 36 23 88
REMARK Flexibility Score: inf
ROOT
ATOM      1  C   UNL A   1      41.152  21.567  27.514  1.00  0.00     0.188 C 
ENDROOT
BRANCH   1   2
ATOM      2  O   UNL A   1      42.533  21.331  27.248  1.00  0.00    -0.376 OA
BRANCH   2   3
ATOM      3  C   UNL A   1      42.975  21.829  25.981  1.00  0.00     0.202 C 
BRANCH   3   4
ATOM      4  C   UNL A   1      44.036  22.950  26.016  1.00  0.00     0.261 C 
BRANCH   4   5
ATOM      5  O   UNL A   1      43.702  24.061  26.873  1.00  0.00    -0.460 OA
BRANCH   5   6
ATOM      6  C   UNL A   1      42.894  25.120  26.613  1.00  0.00     0.338 C 
ATOM      7  O   UNL A   1      42.442  25.258  25.476  1.00  0.00    -0.246 OA
BRANCH   6   8
ATOM      8  C   UNL A   1      42.518  26.126  27.644  1.00  0.00     0.060 A 
ATOM      9  C   UNL A   1      43.194  27.324  27.853  1.00  0.00     0.016 A 
ATOM     10  C   UNL A   1      41.370  25.880  28.410  1.00  0.00     0.016 A 
ATOM     11  C   UNL A   1      42.859  28.181  28.885  1.00  0.00     0.010 A 
ATOM     12  C   UNL A   1      40.962  26.791  29.391  1.00  0.00     0.010 A 
ATOM     13  C   UNL A   1      41.736  27.928  29.662  1.00  0.00    -0.014 A 
BRANCH  13  14
ATOM     14  C   UNL A   1      41.481  28.788  30.836  1.00  0.00     0.031 A 
ATOM     15  C   UNL A   1      40.364  29.775  30.749  1.00  0.00     0.074 A 
ATOM     16  C   UNL A   1      42.120  28.590  32.005  1.00  0.00     0.049 A 
ATOM     17  N   UNL A   1      39.960  30.631  31.643  1.00  0.00    -0.248 NA
ATOM     18  C   UNL A   1      39.563  29.759  29.514  1.00  0.00     0.031 C 
ATOM     19  C   UNL A   1      43.032  27.483  32.273  1.00  0.00     0.029 A 
ATOM     20  N   UNL A   1      42.081  29.268  33.196  1.00  0.00    -0.354 N 
ATOM     21  C   UNL A   1      38.854  31.250  31.084  1.00  0.00     0.074 A 
ATOM     22  C   UNL A   1      38.681  30.714  29.754  1.00  0.00     0.031 C 
ATOM     23  C   UNL A   1      43.484  27.577  33.530  1.00  0.00     0.029 A 
ATOM     24  C   UNL A   1      42.962  28.778  34.133  1.00  0.00     0.049 A 
ATOM     25  H   UNL A   1      41.482  30.031  33.364  1.00  0.00     0.167 HD
ATOM     26  C   UNL A   1      38.042  32.165  31.655  1.00  0.00     0.037 A 
ATOM     27  C   UNL A   1      43.337  29.231  35.341  1.00  0.00     0.037 A 
ATOM     28  C   UNL A   1      38.248  32.679  32.981  1.00  0.00     0.049 A 
ATOM     29  C   UNL A   1      42.566  30.392  35.876  1.00  0.00     0.074 A 
ATOM     30  C   UNL A   1      37.536  33.657  33.646  1.00  0.00     0.029 A 
ATOM     31  N   UNL A   1      39.254  32.255  33.844  1.00  0.00    -0.354 N 
ATOM     32  N   UNL A   1      41.562  31.019  35.310  1.00  0.00    -0.248 NA
ATOM     33  C   UNL A   1      42.925  30.880  37.208  1.00  0.00     0.031 C 
ATOM     34  C   UNL A   1      38.152  33.870  34.885  1.00  0.00     0.029 A 
ATOM     35  C   UNL A   1      39.208  32.980  35.021  1.00  0.00     0.049 A 
ATOM     36  H   UNL A   1      39.905  31.542  33.645  1.00  0.00     0.167 HD
ATOM     37  C   UNL A   1      41.124  31.941  36.241  1.00  0.00     0.074 A 
ATOM     38  C   UNL A   1      41.983  31.793  37.404  1.00  0.00     0.031 C 
ATOM     39  C   UNL A   1      40.091  32.812  36.150  1.00  0.00     0.037 A 
BRANCH  26  40
ATOM     40  C   UNL A   1      36.932  32.697  30.797  1.00  0.00     0.058 A 
ATOM     41  C   UNL A   1      37.143  33.700  29.835  1.00  0.00     0.135 A 
ATOM     42  C   UNL A   1      35.618  32.253  31.005  1.00  0.00     0.135 A 
ATOM     43  F   UNL A   1      38.374  34.196  29.631  1.00  0.00    -0.206 F 
ATOM     44  C   UNL A   1      36.083  34.270  29.137  1.00  0.00     0.059 A 
ATOM     45  C   UNL A   1      34.547  32.788  30.298  1.00  0.00     0.059 A 
ATOM     46  F   UNL A   1      35.360  31.315  31.930  1.00  0.00    -0.206 F 
ATOM     47  C   UNL A   1      34.787  33.810  29.381  1.00  0.00     0.060 A 
BRANCH  47  48
ATOM     48  S   UNL A   1      33.417  34.578  28.494  1.00  0.00     0.124 S 
ATOM     49  O   UNL A   1      34.101  35.646  27.771  1.00  0.00    -0.237 OA
ATOM     50  O   UNL A   1      32.919  33.477  27.677  1.00  0.00    -0.237 OA
ATOM     51  O   UNL A   1      32.525  35.017  29.563  1.00  0.00    -0.744 OA
ENDBRANCH  47  48
ENDBRANCH  26  40
BRANCH  27  52
ATOM     52  C   UNL A   1      44.452  28.584  36.095  1.00  0.00     0.058 A 
ATOM     53  C   UNL A   1      44.222  27.542  37.003  1.00  0.00     0.135 A 
ATOM     54  C   UNL A   1      45.788  28.989  35.906  1.00  0.00     0.135 A 
ATOM     55  F   UNL A   1      42.972  27.096  37.205  1.00  0.00    -0.206 F 
ATOM     56  C   UNL A   1      45.258  26.957  37.729  1.00  0.00     0.059 A 
ATOM     57  C   UNL A   1      46.845  28.406  36.604  1.00  0.00     0.059 A 
ATOM     58  F   UNL A   1      46.078  29.956  35.020  1.00  0.00    -0.206 F 
ATOM     59  C   UNL A   1      46.567  27.403  37.529  1.00  0.00     0.060 A 
BRANCH  59  60
ATOM     60  S   UNL A   1      47.885  26.674  38.531  1.00  0.00     0.124 S 
ATOM     61  O   UNL A   1      47.200  26.470  39.805  1.00  0.00    -0.237 OA
ATOM     62  O   UNL A   1      48.202  25.459  37.787  1.00  0.00    -0.237 OA
ATOM     63  O   UNL A   1      48.922  27.701  38.546  1.00  0.00    -0.744 OA
ENDBRANCH  59  60
ENDBRANCH  27  52
BRANCH  39  64
ATOM     64  C   UNL A   1      39.828  33.648  37.363  1.00  0.00     0.058 A 
ATOM     65  C   UNL A   1      40.489  34.867  37.573  1.00  0.00     0.135 A 
ATOM     66  C   UNL A   1      38.883  33.229  38.312  1.00  0.00     0.135 A 
ATOM     67  F   UNL A   1      41.413  35.296  36.697  1.00  0.00    -0.206 F 
ATOM     68  C   UNL A   1      40.243  35.632  38.703  1.00  0.00     0.059 A 
ATOM     69  C   UNL A   1      38.594  33.996  39.431  1.00  0.00     0.059 A 
ATOM     70  F   UNL A   1      38.224  32.070  38.147  1.00  0.00    -0.206 F 
ATOM     71  C   UNL A   1      39.291  35.189  39.624  1.00  0.00     0.060 A 
BRANCH  71  72
ATOM     72  S   UNL A   1      38.951  36.214  41.067  1.00  0.00     0.124 S 
ATOM     73  O   UNL A   1      40.228  36.161  41.769  1.00  0.00    -0.237 OA
ATOM     74  O   UNL A   1      38.610  37.498  40.461  1.00  0.00    -0.237 OA
ATOM     75  O   UNL A   1      37.843  35.522  41.719  1.00  0.00    -0.744 OA
ENDBRANCH  71  72
ENDBRANCH  39  64
ENDBRANCH  13  14
ENDBRANCH   6   8
ENDBRANCH   5   6
ENDBRANCH   4   5
ENDBRANCH   3   4
ENDBRANCH   2   3
ENDBRANCH   1   2
BRANCH   1  76
ATOM     76  C   UNL A   1      40.386  22.267  26.396  1.00  0.00     0.188 C 
BRANCH  76  77
ATOM     77  O   UNL A   1      38.983  22.419  26.528  1.00  0.00    -0.376 OA
BRANCH  77  78
ATOM     78  C   UNL A   1      38.167  21.872  25.500  1.00  0.00     0.202 C 
BRANCH  78  79
ATOM     79  C   UNL A   1      36.714  22.359  25.314  1.00  0.00     0.261 C 
BRANCH  79  80
ATOM     80  O   UNL A   1      36.501  23.687  24.800  1.00  0.00    -0.459 OA
BRANCH  80  81
ATOM     81  C   UNL A   1      35.360  23.831  24.072  1.00  0.00     0.365 C 
ATOM     82  O   UNL A   1      35.291  23.603  22.865  1.00  0.00    -0.245 OA
BRANCH  81  83
ATOM     83  C   UNL A   1      34.125  24.313  24.838  1.00  0.00     0.296 C 
ATOM     84  C   UNL A   1      34.274  25.766  25.293  1.00  0.00     0.087 C 
ATOM     85  N   UNL A   1      32.803  24.215  24.158  1.00  0.00    -0.318 N 
ATOM     86  C   UNL A   1      32.835  26.214  25.416  1.00  0.00     0.054 C 
ATOM     87  C   UNL A   1      32.210  25.578  24.180  1.00  0.00     0.188 C 
ATOM     88  H   UNL A   1      32.952  23.912  23.196  1.00  0.00     0.349 HD
ATOM     89  C   UNL A   1      32.604  27.716  25.467  1.00  0.00     0.010 C 
ATOM     90  C   UNL A   1      30.694  25.841  24.162  1.00  0.00     0.065 C 
ATOM     91  C   UNL A   1      31.102  28.009  25.449  1.00  0.00     0.001 C 
ATOM     92  C   UNL A   1      30.402  27.347  24.258  1.00  0.00     0.006 C 
BRANCH  85  93
ATOM     93  C   UNL A   1      31.910  23.114  24.563  1.00  0.00     0.186 C 
ATOM     94  C   UNL A   1      31.766  22.044  23.463  1.00  0.00     0.081 C 
ATOM     95  C   UNL A   1      32.054  22.446  25.948  1.00  0.00     0.081 C 
ATOM     96  C   UNL A   1      32.871  21.023  23.338  1.00  0.00     0.143 C 
ATOM     97  C   UNL A   1      33.161  21.426  26.114  1.00  0.00     0.143 C 
ATOM     98  S   UNL A   1      33.153  20.163  24.865  1.00  0.00     0.150 S 
ATOM     99  O   UNL A   1      34.491  19.611  24.804  1.00  0.00    -0.229 OA
ATOM    100  O   UNL A   1      31.990  19.334  25.104  1.00  0.00    -0.229 OA
ENDBRANCH  85  93
ENDBRANCH  81  83
ENDBRANCH  80  81
ENDBRANCH  79  80
ENDBRANCH  78  79
ENDBRANCH  77  78
ENDBRANCH  76  77
ENDBRANCH   1  76
TORSDOF 21
ENDMDL
MODEL 3
REMARK VINA RESULT:     -10.4      3.713      9.235
REMARK SMILES O=C(OCCOCCOCCOC(=O)[C@H]1C[C@H]2CCCC[C@@H]2[N@@H+]1C1CCS(=O)(=O)CC1)c1ccc(-c2c3nc(c(-c4c(F)cc(S(=O)(=O)[O-])cc4F)c4ccc([nH]4)c(-c4c(F)cc(S(=O)(=O)[O-])cc4F)c4nc(c(-c5c(F)cc(S(=O)(=O)[O-])cc5F)c5ccc2[nH]5)C=C4)C=C3)cc1
REMARK SMILES IDX 7 1 6 2 5 3 4 4 3 5 2 6 1 7 32 8 33 9 97 10 34 11 96 12
REMARK SMILES IDX 35 13 36 14 37 15 90 16 38 17 95 18 89 19 91 20 39 21 94 22
REMARK SMILES IDX 88 23 87 24 40 26 74 27 53 28 73 29 54 30 57 31 72 32 92 33
REMARK SMILES IDX 55 34 56 35 71 37 93 38 58 39 41 40 42 41 51 42 43 43 44 44
REMARK SMILES IDX 50 45 52 46 45 47 46 48 47 49 48 50 49 51 75 52 76 53 85 54
REMARK SMILES IDX 77 55 78 56 84 57 86 58 79 59 80 60 81 61 82 62 83 63 59 64
REMARK SMILES IDX 60 65 69 66 61 67 62 68 68 69 70 70 63 71 64 72 65 73 66 74
REMARK SMILES IDX 67 75 8 76 9 77 10 78 11 79 12 80 13 81 14 82 15 83 16 84
REMARK SMILES IDX 23 85 17 86 22 87 18 89 21 90 19 91 20 92 24 93 25 94 31 95
REMARK SMILES IDX 26 96 30 97 27 98 28 99 29 100
REMARK H PARENT 91 25 57 36 23 88
REMARK Flexibility Score: inf
ROOT
ATOM      1  C   UNL A   1      41.152  21.499  26.981  1.00  0.00     0.188 C 
ENDROOT
BRANCH   1   2
ATOM      2  O   UNL A   1      41.503  20.458  26.072  1.00  0.00    -0.376 OA
BRANCH   2   3
ATOM      3  C   UNL A   1      42.090  19.313  26.698  1.00  0.00     0.202 C 
BRANCH   3   4
ATOM      4  C   UNL A   1      43.031  18.458  25.820  1.00  0.00     0.261 C 
BRANCH   4   5
ATOM      5  O   UNL A   1      43.485  19.113  24.618  1.00  0.00    -0.460 OA
BRANCH   5   6
ATOM      6  C   UNL A   1      44.612  19.844  24.425  1.00  0.00     0.338 C 
ATOM      7  O   UNL A   1      45.580  19.313  23.880  1.00  0.00    -0.246 OA
BRANCH   6   8
ATOM      8  C   UNL A   1      44.734  21.270  24.837  1.00  0.00     0.060 A 
ATOM      9  C   UNL A   1      44.545  22.351  23.982  1.00  0.00     0.016 A 
ATOM     10  C   UNL A   1      44.993  21.541  26.188  1.00  0.00     0.016 A 
ATOM     11  C   UNL A   1      44.761  23.654  24.393  1.00  0.00     0.010 A 
ATOM     12  C   UNL A   1      45.113  22.860  26.637  1.00  0.00     0.010 A 
ATOM     13  C   UNL A   1      45.041  23.925  25.726  1.00  0.00    -0.014 A 
BRANCH  13  14
ATOM     14  C   UNL A   1      45.394  25.307  26.107  1.00  0.00     0.031 A 
ATOM     15  C   UNL A   1      44.300  26.199  26.595  1.00  0.00     0.074 A 
ATOM     16  C   UNL A   1      46.677  25.714  26.170  1.00  0.00     0.049 A 
ATOM     17  N   UNL A   1      44.369  27.442  26.977  1.00  0.00    -0.248 NA
ATOM     18  C   UNL A   1      42.963  25.596  26.719  1.00  0.00     0.031 C 
ATOM     19  C   UNL A   1      47.832  24.843  25.973  1.00  0.00     0.029 A 
ATOM     20  N   UNL A   1      47.238  26.932  26.452  1.00  0.00    -0.354 N 
ATOM     21  C   UNL A   1      43.090  27.768  27.395  1.00  0.00     0.074 A 
ATOM     22  C   UNL A   1      42.250  26.615  27.169  1.00  0.00     0.031 C 
ATOM     23  C   UNL A   1      48.954  25.560  26.112  1.00  0.00     0.029 A 
ATOM     24  C   UNL A   1      48.609  26.943  26.331  1.00  0.00     0.049 A 
ATOM     25  H   UNL A   1      46.713  27.722  26.716  1.00  0.00     0.167 HD
ATOM     26  C   UNL A   1      42.670  28.927  27.947  1.00  0.00     0.037 A 
ATOM     27  C   UNL A   1      49.510  27.939  26.372  1.00  0.00     0.037 A 
ATOM     28  C   UNL A   1      43.535  30.056  28.152  1.00  0.00     0.049 A 
ATOM     29  C   UNL A   1      48.990  29.278  26.779  1.00  0.00     0.074 A 
ATOM     30  C   UNL A   1      43.215  31.308  28.639  1.00  0.00     0.029 A 
ATOM     31  N   UNL A   1      44.898  30.068  27.871  1.00  0.00    -0.354 N 
ATOM     32  N   UNL A   1      47.761  29.597  27.108  1.00  0.00    -0.248 NA
ATOM     33  C   UNL A   1      49.957  30.373  26.873  1.00  0.00     0.031 C 
ATOM     34  C   UNL A   1      44.371  32.096  28.591  1.00  0.00     0.029 A 
ATOM     35  C   UNL A   1      45.426  31.318  28.136  1.00  0.00     0.049 A 
ATOM     36  H   UNL A   1      45.410  29.298  27.533  1.00  0.00     0.167 HD
ATOM     37  C   UNL A   1      47.811  30.918  27.508  1.00  0.00     0.074 A 
ATOM     38  C   UNL A   1      49.195  31.339  27.369  1.00  0.00     0.031 C 
ATOM     39  C   UNL A   1      46.808  31.703  27.970  1.00  0.00     0.037 A 
BRANCH  26  40
ATOM     40  C   UNL A   1      41.209  29.018  28.272  1.00  0.00     0.058 A 
ATOM     41  C   UNL A   1      40.230  29.205  27.280  1.00  0.00     0.135 A 
ATOM     42  C   UNL A   1      40.792  29.005  29.611  1.00  0.00     0.135 A 
ATOM     43  F   UNL A   1      40.581  29.274  25.987  1.00  0.00    -0.206 F 
ATOM     44  C   UNL A   1      38.895  29.413  27.610  1.00  0.00     0.059 A 
ATOM     45  C   UNL A   1      39.458  29.182  29.962  1.00  0.00     0.059 A 
ATOM     46  F   UNL A   1      41.691  28.856  30.597  1.00  0.00    -0.206 F 
ATOM     47  C   UNL A   1      38.520  29.405  28.955  1.00  0.00     0.060 A 
BRANCH  47  48
ATOM     48  S   UNL A   1      36.792  29.708  29.372  1.00  0.00     0.124 S 
ATOM     49  O   UNL A   1      36.655  28.953  30.614  1.00  0.00    -0.237 OA
ATOM     50  O   UNL A   1      36.755  31.161  29.506  1.00  0.00    -0.237 OA
ATOM     51  O   UNL A   1      36.067  29.167  28.226  1.00  0.00    -0.744 OA
ENDBRANCH  47  48
ENDBRANCH  26  40
BRANCH  27  52
ATOM     52  C   UNL A   1      50.946  27.696  26.042  1.00  0.00     0.058 A 
ATOM     53  C   UNL A   1      51.434  27.821  24.734  1.00  0.00     0.135 A 
ATOM     54  C   UNL A   1      51.873  27.346  27.044  1.00  0.00     0.135 A 
ATOM     55  F   UNL A   1      50.603  28.177  23.743  1.00  0.00    -0.206 F 
ATOM     56  C   UNL A   1      52.768  27.566  24.421  1.00  0.00     0.059 A 
ATOM     57  C   UNL A   1      53.217  27.106  26.759  1.00  0.00     0.059 A 
ATOM     58  F   UNL A   1      51.474  27.249  28.323  1.00  0.00    -0.206 F 
ATOM     59  C   UNL A   1      53.651  27.198  25.439  1.00  0.00     0.060 A 
BRANCH  59  60
ATOM     60  S   UNL A   1      55.360  26.809  24.995  1.00  0.00     0.124 S 
ATOM     61  O   UNL A   1      55.575  25.567  25.735  1.00  0.00    -0.237 OA
ATOM     62  O   UNL A   1      55.279  26.670  23.545  1.00  0.00    -0.237 OA
ATOM     63  O   UNL A   1      56.118  27.956  25.484  1.00  0.00    -0.744 OA
ENDBRANCH  59  60
ENDBRANCH  27  52
BRANCH  39  64
ATOM     64  C   UNL A   1      47.194  33.087  28.384  1.00  0.00     0.058 A 
ATOM     65  C   UNL A   1      47.159  34.160  27.481  1.00  0.00     0.135 A 
ATOM     66  C   UNL A   1      47.582  33.342  29.708  1.00  0.00     0.135 A 
ATOM     67  F   UNL A   1      46.811  33.957  26.201  1.00  0.00    -0.206 F 
ATOM     68  C   UNL A   1      47.525  35.440  27.872  1.00  0.00     0.059 A 
ATOM     69  C   UNL A   1      47.917  34.620  30.130  1.00  0.00     0.059 A 
ATOM     70  F   UNL A   1      47.625  32.343  30.606  1.00  0.00    -0.206 F 
ATOM     71  C   UNL A   1      47.898  35.659  29.200  1.00  0.00     0.060 A 
BRANCH  71  72
ATOM     72  S   UNL A   1      48.331  37.335  29.705  1.00  0.00     0.124 S 
ATOM     73  O   UNL A   1      49.788  37.266  29.724  1.00  0.00    -0.237 OA
ATOM     74  O   UNL A   1      47.746  38.140  28.636  1.00  0.00    -0.237 OA
ATOM     75  O   UNL A   1      47.689  37.471  31.008  1.00  0.00    -0.744 OA
ENDBRANCH  71  72
ENDBRANCH  39  64
ENDBRANCH  13  14
ENDBRANCH   6   8
ENDBRANCH   5   6
ENDBRANCH   4   5
ENDBRANCH   3   4
ENDBRANCH   2   3
ENDBRANCH   1   2
BRANCH   1  76
ATOM     76  C   UNL A   1      39.819  22.186  26.698  1.00  0.00     0.188 C 
BRANCH  76  77
ATOM     77  O   UNL A   1      38.952  21.610  25.735  1.00  0.00    -0.376 OA
BRANCH  77  78
ATOM     78  C   UNL A   1      37.644  22.155  25.624  1.00  0.00     0.202 C 
BRANCH  78  79
ATOM     79  C   UNL A   1      36.865  22.053  24.295  1.00  0.00     0.261 C 
BRANCH  79  80
ATOM     80  O   UNL A   1      36.515  23.273  23.614  1.00  0.00    -0.459 OA
BRANCH  80  81
ATOM     81  C   UNL A   1      35.178  23.464  23.456  1.00  0.00     0.365 C 
ATOM     82  O   UNL A   1      34.593  23.314  22.383  1.00  0.00    -0.245 OA
BRANCH  81  83
ATOM     83  C   UNL A   1      34.403  23.895  24.703  1.00  0.00     0.296 C 
ATOM     84  C   UNL A   1      34.798  25.302  25.155  1.00  0.00     0.087 C 
ATOM     85  N   UNL A   1      32.914  23.873  24.640  1.00  0.00    -0.318 N 
ATOM     86  C   UNL A   1      33.567  25.758  25.905  1.00  0.00     0.054 C 
ATOM     87  C   UNL A   1      32.452  25.237  25.007  1.00  0.00     0.188 C 
ATOM     88  H   UNL A   1      32.632  23.651  23.686  1.00  0.00     0.349 HD
ATOM     89  C   UNL A   1      33.451  27.253  26.155  1.00  0.00     0.010 C 
ATOM     90  C   UNL A   1      31.083  25.521  25.650  1.00  0.00     0.065 C 
ATOM     91  C   UNL A   1      32.096  27.567  26.794  1.00  0.00     0.001 C 
ATOM     92  C   UNL A   1      30.930  27.018  25.967  1.00  0.00     0.006 C 
BRANCH  85  93
ATOM     93  C   UNL A   1      32.222  22.754  25.304  1.00  0.00     0.186 C 
ATOM     94  C   UNL A   1      31.736  21.689  24.302  1.00  0.00     0.081 C 
ATOM     95  C   UNL A   1      32.827  22.079  26.555  1.00  0.00     0.081 C 
ATOM     96  C   UNL A   1      32.752  20.689  23.804  1.00  0.00     0.143 C 
ATOM     97  C   UNL A   1      33.941  21.077  26.332  1.00  0.00     0.143 C 
ATOM     98  S   UNL A   1      33.537  19.823  25.141  1.00  0.00     0.150 S 
ATOM     99  O   UNL A   1      34.787  19.295  24.633  1.00  0.00    -0.229 OA
ATOM    100  O   UNL A   1      32.531  18.972  25.742  1.00  0.00    -0.229 OA
ENDBRANCH  85  93
ENDBRANCH  81  83
ENDBRANCH  80  81
ENDBRANCH  79  80
ENDBRANCH  78  79
ENDBRANCH  77  78
ENDBRANCH  76  77
ENDBRANCH   1  76
TORSDOF 21
ENDMDL
