MODEL 1
REMARK VINA RESULT:      -7.5      0.000      0.000
REMARK SMILES O=C(OCCOCCOCCOC(=O)[C@@H](Cc1ccccc1)N1C(=O)/C(=C/c2ccncc2)SC1=S)c1ccc(-c2c3nc(c(-c4c(F)cc(S(=O)(=O)[O-])cc4F)c4ccc([nH]4)c(-c4c(F)cc(S(=O)(=O)[O-])cc4F)c4nc(c(-c5c(F)cc(S(=O)(=O)[O-])cc5F)c5ccc2[nH]5)C=C4)C=C3)cc1
REMARK SMILES IDX 7 1 6 2 5 3 4 4 3 5 2 6 1 7 37 8 38 9 102 10 39 11 101 12
REMARK SMILES IDX 40 13 41 14 42 15 95 16 43 17 100 18 94 19 96 20 44 21 99 22
REMARK SMILES IDX 93 23 92 24 45 26 79 27 58 28 78 29 59 30 62 31 77 32 97 33
REMARK SMILES IDX 60 34 61 35 76 37 98 38 63 39 46 40 47 41 56 42 48 43 49 44
REMARK SMILES IDX 55 45 57 46 50 47 51 48 52 49 53 50 54 51 80 52 81 53 90 54
REMARK SMILES IDX 82 55 83 56 89 57 91 58 84 59 85 60 86 61 87 62 88 63 64 64
REMARK SMILES IDX 65 65 74 66 66 67 67 68 73 69 75 70 68 71 69 72 70 73 71 74
REMARK SMILES IDX 72 75 8 76 9 77 10 78 11 79 12 80 13 81 14 82 15 83 16 84
REMARK SMILES IDX 17 85 18 86 22 87 19 88 21 89 20 90 23 91 24 92 35 93 25 94
REMARK SMILES IDX 26 95 34 96 36 97 27 98 28 99 29 100 33 101 30 102 32 103
REMARK SMILES IDX 31 104
REMARK H PARENT 96 25 62 36
REMARK Flexibility Score: inf
ROOT
ATOM      1  C   UNL A   1      48.323  39.518  35.151  1.00  0.00     0.188 C 
ENDROOT
BRANCH   1   2
ATOM      2  O   UNL A   1      48.983  38.540  34.342  1.00  0.00    -0.376 OA
BRANCH   2   3
ATOM      3  C   UNL A   1      48.585  38.561  32.970  1.00  0.00     0.202 C 
BRANCH   3   4
ATOM      4  C   UNL A   1      48.398  37.199  32.274  1.00  0.00     0.261 C 
BRANCH   4   5
ATOM      5  O   UNL A   1      48.615  37.189  30.851  1.00  0.00    -0.460 OA
BRANCH   5   6
ATOM      6  C   UNL A   1      47.800  36.878  29.816  1.00  0.00     0.338 C 
ATOM      7  O   UNL A   1      47.219  37.810  29.257  1.00  0.00    -0.246 OA
BRANCH   6   8
ATOM      8  C   UNL A   1      47.523  35.492  29.318  1.00  0.00     0.060 A 
ATOM      9  C   UNL A   1      47.243  35.148  28.001  1.00  0.00     0.016 A 
ATOM     10  C   UNL A   1      47.546  34.448  30.273  1.00  0.00     0.016 A 
ATOM     11  C   UNL A   1      46.952  33.831  27.651  1.00  0.00     0.010 A 
ATOM     12  C   UNL A   1      47.254  33.119  29.928  1.00  0.00     0.010 A 
ATOM     13  C   UNL A   1      46.931  32.812  28.610  1.00  0.00    -0.014 A 
BRANCH  13  14
ATOM     14  C   UNL A   1      46.354  31.521  28.174  1.00  0.00     0.031 A 
ATOM     15  C   UNL A   1      47.324  30.426  27.850  1.00  0.00     0.074 A 
ATOM     16  C   UNL A   1      45.039  31.274  28.307  1.00  0.00     0.049 A 
ATOM     17  N   UNL A   1      47.105  29.151  27.704  1.00  0.00    -0.248 NA
ATOM     18  C   UNL A   1      48.729  30.829  27.657  1.00  0.00     0.031 C 
ATOM     19  C   UNL A   1      44.023  32.282  28.590  1.00  0.00     0.029 A 
ATOM     20  N   UNL A   1      44.351  30.086  28.367  1.00  0.00    -0.354 N 
ATOM     21  C   UNL A   1      48.324  28.609  27.322  1.00  0.00     0.074 A 
ATOM     22  C   UNL A   1      49.299  29.675  27.345  1.00  0.00     0.031 C 
ATOM     23  C   UNL A   1      42.901  31.662  28.995  1.00  0.00     0.029 A 
ATOM     24  C   UNL A   1      43.085  30.218  28.906  1.00  0.00     0.049 A 
ATOM     25  H   UNL A   1      44.723  29.228  28.059  1.00  0.00     0.167 HD
ATOM     26  C   UNL A   1      48.574  27.346  26.913  1.00  0.00     0.037 A 
ATOM     27  C   UNL A   1      42.204  29.274  29.301  1.00  0.00     0.037 A 
ATOM     28  C   UNL A   1      47.563  26.326  26.861  1.00  0.00     0.049 A 
ATOM     29  C   UNL A   1      42.540  27.844  28.948  1.00  0.00     0.074 A 
ATOM     30  C   UNL A   1      47.645  25.050  26.334  1.00  0.00     0.029 A 
ATOM     31  N   UNL A   1      46.275  26.476  27.357  1.00  0.00    -0.354 N 
ATOM     32  N   UNL A   1      43.672  27.348  28.502  1.00  0.00    -0.248 NA
ATOM     33  C   UNL A   1      41.453  26.859  29.055  1.00  0.00     0.031 C 
ATOM     34  C   UNL A   1      46.391  24.446  26.472  1.00  0.00     0.029 A 
ATOM     35  C   UNL A   1      45.549  25.320  27.143  1.00  0.00     0.049 A 
ATOM     36  H   UNL A   1      45.929  27.287  27.795  1.00  0.00     0.167 HD
ATOM     37  C   UNL A   1      43.407  26.017  28.200  1.00  0.00     0.074 A 
ATOM     38  C   UNL A   1      42.046  25.756  28.623  1.00  0.00     0.031 C 
ATOM     39  C   UNL A   1      44.189  25.106  27.570  1.00  0.00     0.037 A 
BRANCH  26  40
ATOM     40  C   UNL A   1      49.936  27.065  26.354  1.00  0.00     0.058 A 
ATOM     41  C   UNL A   1      50.274  27.328  25.020  1.00  0.00     0.135 A 
ATOM     42  C   UNL A   1      50.918  26.495  27.182  1.00  0.00     0.135 A 
ATOM     43  F   UNL A   1      49.357  27.824  24.173  1.00  0.00    -0.206 F 
ATOM     44  C   UNL A   1      51.540  27.032  24.523  1.00  0.00     0.059 A 
ATOM     45  C   UNL A   1      52.196  26.214  26.715  1.00  0.00     0.059 A 
ATOM     46  F   UNL A   1      50.633  26.193  28.459  1.00  0.00    -0.206 F 
ATOM     47  C   UNL A   1      52.496  26.481  25.381  1.00  0.00     0.060 A 
BRANCH  47  48
ATOM     48  S   UNL A   1      54.140  26.129  24.729  1.00  0.00     0.124 S 
ATOM     49  O   UNL A   1      53.838  25.779  23.344  1.00  0.00    -0.237 OA
ATOM     50  O   UNL A   1      54.828  27.401  24.925  1.00  0.00    -0.237 OA
ATOM     51  O   UNL A   1      54.611  25.028  25.565  1.00  0.00    -0.744 OA
ENDBRANCH  47  48
ENDBRANCH  26  40
BRANCH  27  52
ATOM     52  C   UNL A   1      40.897  29.600  29.957  1.00  0.00     0.058 A 
ATOM     53  C   UNL A   1      39.723  29.789  29.200  1.00  0.00     0.135 A 
ATOM     54  C   UNL A   1      40.805  29.842  31.337  1.00  0.00     0.135 A 
ATOM     55  F   UNL A   1      39.739  29.584  27.873  1.00  0.00    -0.206 F 
ATOM     56  C   UNL A   1      38.543  30.266  29.770  1.00  0.00     0.059 A 
ATOM     57  C   UNL A   1      39.624  30.259  31.938  1.00  0.00     0.059 A 
ATOM     58  F   UNL A   1      41.883  29.702  32.123  1.00  0.00    -0.206 F 
ATOM     59  C   UNL A   1      38.512  30.514  31.141  1.00  0.00     0.060 A 
BRANCH  59  60
ATOM     60  S   UNL A   1      37.049  31.228  31.917  1.00  0.00     0.124 S 
ATOM     61  O   UNL A   1      36.895  32.466  31.160  1.00  0.00    -0.237 OA
ATOM     62  O   UNL A   1      36.030  30.212  31.677  1.00  0.00    -0.237 OA
ATOM     63  O   UNL A   1      37.484  31.379  33.302  1.00  0.00    -0.744 OA
ENDBRANCH  59  60
ENDBRANCH  27  52
BRANCH  39  64
ATOM     64  C   UNL A   1      43.574  23.768  27.278  1.00  0.00     0.058 A 
ATOM     65  C   UNL A   1      43.244  23.386  25.967  1.00  0.00     0.135 A 
ATOM     66  C   UNL A   1      43.361  22.842  28.309  1.00  0.00     0.135 A 
ATOM     67  F   UNL A   1      43.431  24.238  24.946  1.00  0.00    -0.206 F 
ATOM     68  C   UNL A   1      42.690  22.142  25.693  1.00  0.00     0.059 A 
ATOM     69  C   UNL A   1      42.837  21.581  28.054  1.00  0.00     0.059 A 
ATOM     70  F   UNL A   1      43.675  23.156  29.576  1.00  0.00    -0.206 F 
ATOM     71  C   UNL A   1      42.491  21.246  26.745  1.00  0.00     0.060 A 
BRANCH  71  72
ATOM     72  S   UNL A   1      41.789  19.626  26.377  1.00  0.00     0.124 S 
ATOM     73  O   UNL A   1      42.255  18.839  27.512  1.00  0.00    -0.237 OA
ATOM     74  O   UNL A   1      40.356  19.907  26.343  1.00  0.00    -0.237 OA
ATOM     75  O   UNL A   1      42.383  19.284  25.088  1.00  0.00    -0.744 OA
ENDBRANCH  71  72
ENDBRANCH  39  64
ENDBRANCH  13  14
ENDBRANCH   6   8
ENDBRANCH   5   6
ENDBRANCH   4   5
ENDBRANCH   3   4
ENDBRANCH   2   3
ENDBRANCH   1   2
BRANCH   1  76
ATOM     76  C   UNL A   1      46.798  39.450  35.087  1.00  0.00     0.188 C 
BRANCH  76  77
ATOM     77  O   UNL A   1      46.151  40.654  34.678  1.00  0.00    -0.376 OA
BRANCH  77  78
ATOM     78  C   UNL A   1      45.150  40.546  33.666  1.00  0.00     0.202 C 
BRANCH  78  79
ATOM     79  C   UNL A   1      45.505  41.202  32.336  1.00  0.00     0.261 C 
BRANCH  79  80
ATOM     80  O   UNL A   1      44.379  41.138  31.456  1.00  0.00    -0.462 OA
BRANCH  80  81
ATOM     81  C   UNL A   1      44.474  41.734  30.248  1.00  0.00     0.329 C 
ATOM     82  O   UNL A   1      44.347  42.937  30.040  1.00  0.00    -0.250 OA
BRANCH  81  83
ATOM     83  C   UNL A   1      44.698  40.704  29.139  1.00  0.00     0.206 C 
BRANCH  83  84
ATOM     84  C   UNL A   1      43.620  39.620  28.936  1.00  0.00     0.073 C 
BRANCH  84  85
ATOM     85  C   UNL A   1      43.831  38.171  29.330  1.00  0.00    -0.045 A 
ATOM     86  C   UNL A   1      44.058  37.864  30.674  1.00  0.00     0.004 A 
ATOM     87  C   UNL A   1      43.668  37.089  28.466  1.00  0.00     0.004 A 
ATOM     88  C   UNL A   1      44.097  36.559  31.163  1.00  0.00     0.000 A 
ATOM     89  C   UNL A   1      43.742  35.769  28.932  1.00  0.00     0.000 A 
ATOM     90  C   UNL A   1      43.944  35.504  30.284  1.00  0.00     0.000 A 
ENDBRANCH  84  85
ENDBRANCH  83  84
BRANCH  83  91
ATOM     91  N   UNL A   1      45.155  41.387  27.924  1.00  0.00    -0.278 N 
ATOM     92  C   UNL A   1      44.211  41.692  26.958  1.00  0.00     0.267 C 
ATOM     93  C   UNL A   1      46.458  41.740  27.640  1.00  0.00     0.149 C 
ATOM     94  O   UNL A   1      43.018  41.449  27.007  1.00  0.00    -0.268 OA
ATOM     95  C   UNL A   1      44.844  42.440  25.852  1.00  0.00     0.081 C 
ATOM     96  S   UNL A   1      46.542  42.448  26.027  1.00  0.00    -0.054 SA
ATOM     97  S   UNL A   1      47.799  41.580  28.620  1.00  0.00    -0.052 S 
ATOM     98  C   UNL A   1      44.068  43.014  24.929  1.00  0.00     0.029 C 
BRANCH  98  99
ATOM     99  C   UNL A   1      44.510  43.677  23.711  1.00  0.00    -0.021 A 
ATOM    100  C   UNL A   1      44.641  45.063  23.720  1.00  0.00     0.028 A 
ATOM    101  C   UNL A   1      44.872  42.958  22.577  1.00  0.00     0.028 A 
ATOM    102  C   UNL A   1      45.187  45.671  22.606  1.00  0.00     0.111 A 
ATOM    103  C   UNL A   1      45.408  43.663  21.513  1.00  0.00     0.111 A 
ATOM    104  N   UNL A   1      45.624  44.993  21.521  1.00  0.00    -0.265 NA
ENDBRANCH  98  99
ENDBRANCH  83  91
ENDBRANCH  81  83
ENDBRANCH  80  81
ENDBRANCH  79  80
ENDBRANCH  78  79
ENDBRANCH  77  78
ENDBRANCH  76  77
ENDBRANCH   1  76
TORSDOF 24
ENDMDL
MODEL 2
REMARK VINA RESULT:      -7.4      3.387      9.919
REMARK SMILES O=C(OCCOCCOCCOC(=O)[C@@H](Cc1ccccc1)N1C(=O)/C(=C/c2ccncc2)SC1=S)c1ccc(-c2c3nc(c(-c4c(F)cc(S(=O)(=O)[O-])cc4F)c4ccc([nH]4)c(-c4c(F)cc(S(=O)(=O)[O-])cc4F)c4nc(c(-c5c(F)cc(S(=O)(=O)[O-])cc5F)c5ccc2[nH]5)C=C4)C=C3)cc1
REMARK SMILES IDX 7 1 6 2 5 3 4 4 3 5 2 6 1 7 37 8 38 9 102 10 39 11 101 12
REMARK SMILES IDX 40 13 41 14 42 15 95 16 43 17 100 18 94 19 96 20 44 21 99 22
REMARK SMILES IDX 93 23 92 24 45 26 79 27 58 28 78 29 59 30 62 31 77 32 97 33
REMARK SMILES IDX 60 34 61 35 76 37 98 38 63 39 46 40 47 41 56 42 48 43 49 44
REMARK SMILES IDX 55 45 57 46 50 47 51 48 52 49 53 50 54 51 80 52 81 53 90 54
REMARK SMILES IDX 82 55 83 56 89 57 91 58 84 59 85 60 86 61 87 62 88 63 64 64
REMARK SMILES IDX 65 65 74 66 66 67 67 68 73 69 75 70 68 71 69 72 70 73 71 74
REMARK SMILES IDX 72 75 8 76 9 77 10 78 11 79 12 80 13 81 14 82 15 83 16 84
REMARK SMILES IDX 17 85 18 86 22 87 19 88 21 89 20 90 23 91 24 92 35 93 25 94
REMARK SMILES IDX 26 95 34 96 36 97 27 98 28 99 29 100 33 101 30 102 32 103
REMARK SMILES IDX 31 104
REMARK H PARENT 96 25 62 36
REMARK Flexibility Score: inf
ROOT
ATOM      1  C   UNL A   1      44.880  41.606  25.789  1.00  0.00     0.188 C 
ENDROOT
BRANCH   1   2
ATOM      2  O   UNL A   1      45.832  40.726  25.182  1.00  0.00    -0.376 OA
BRANCH   2   3
ATOM      3  C   UNL A   1      46.198  39.615  26.003  1.00  0.00     0.202 C 
BRANCH   3   4
ATOM      4  C   UNL A   1      47.073  38.525  25.355  1.00  0.00     0.261 C 
BRANCH   4   5
ATOM      5  O   UNL A   1      48.074  37.939  26.206  1.00  0.00    -0.460 OA
BRANCH   5   6
ATOM      6  C   UNL A   1      47.995  37.369  27.432  1.00  0.00     0.338 C 
ATOM      7  O   UNL A   1      48.507  37.979  28.372  1.00  0.00    -0.246 OA
BRANCH   6   8
ATOM      8  C   UNL A   1      47.364  36.042  27.730  1.00  0.00     0.060 A 
ATOM      9  C   UNL A   1      47.736  35.184  28.758  1.00  0.00     0.016 A 
ATOM     10  C   UNL A   1      46.303  35.631  26.889  1.00  0.00     0.016 A 
ATOM     11  C   UNL A   1      47.113  33.948  28.919  1.00  0.00     0.010 A 
ATOM     12  C   UNL A   1      45.671  34.387  27.045  1.00  0.00     0.010 A 
ATOM     13  C   UNL A   1      46.096  33.529  28.054  1.00  0.00    -0.014 A 
BRANCH  13  14
ATOM     14  C   UNL A   1      45.701  32.106  28.158  1.00  0.00     0.031 A 
ATOM     15  C   UNL A   1      44.311  31.827  28.643  1.00  0.00     0.074 A 
ATOM     16  C   UNL A   1      46.457  31.140  27.607  1.00  0.00     0.049 A 
ATOM     17  N   UNL A   1      43.625  30.722  28.582  1.00  0.00    -0.248 NA
ATOM     18  C   UNL A   1      43.606  32.946  29.295  1.00  0.00     0.031 C 
ATOM     19  C   UNL A   1      47.826  31.315  27.137  1.00  0.00     0.029 A 
ATOM     20  N   UNL A   1      46.134  29.862  27.217  1.00  0.00    -0.354 N 
ATOM     21  C   UNL A   1      42.442  30.985  29.256  1.00  0.00     0.074 A 
ATOM     22  C   UNL A   1      42.462  32.378  29.642  1.00  0.00     0.031 C 
ATOM     23  C   UNL A   1      48.149  30.274  26.348  1.00  0.00     0.029 A 
ATOM     24  C   UNL A   1      47.050  29.316  26.337  1.00  0.00     0.049 A 
ATOM     25  H   UNL A   1      45.333  29.384  27.532  1.00  0.00     0.167 HD
ATOM     26  C   UNL A   1      41.468  30.109  29.588  1.00  0.00     0.037 A 
ATOM     27  C   UNL A   1      46.980  28.188  25.597  1.00  0.00     0.037 A 
ATOM     28  C   UNL A   1      41.509  28.719  29.224  1.00  0.00     0.049 A 
ATOM     29  C   UNL A   1      45.822  27.260  25.883  1.00  0.00     0.074 A 
ATOM     30  C   UNL A   1      40.666  27.696  29.613  1.00  0.00     0.029 A 
ATOM     31  N   UNL A   1      42.459  28.160  28.379  1.00  0.00    -0.354 N 
ATOM     32  N   UNL A   1      44.742  27.484  26.597  1.00  0.00    -0.248 NA
ATOM     33  C   UNL A   1      45.917  25.893  25.349  1.00  0.00     0.031 C 
ATOM     34  C   UNL A   1      41.134  26.509  29.039  1.00  0.00     0.029 A 
ATOM     35  C   UNL A   1      42.228  26.805  28.241  1.00  0.00     0.049 A 
ATOM     36  H   UNL A   1      43.190  28.656  27.944  1.00  0.00     0.167 HD
ATOM     37  C   UNL A   1      44.075  26.266  26.663  1.00  0.00     0.074 A 
ATOM     38  C   UNL A   1      44.809  25.342  25.822  1.00  0.00     0.031 C 
ATOM     39  C   UNL A   1      42.993  25.917  27.402  1.00  0.00     0.037 A 
BRANCH  26  40
ATOM     40  C   UNL A   1      40.386  30.602  30.500  1.00  0.00     0.058 A 
ATOM     41  C   UNL A   1      39.150  31.061  30.027  1.00  0.00     0.135 A 
ATOM     42  C   UNL A   1      40.612  30.632  31.887  1.00  0.00     0.135 A 
ATOM     43  F   UNL A   1      38.902  31.102  28.707  1.00  0.00    -0.206 F 
ATOM     44  C   UNL A   1      38.174  31.538  30.897  1.00  0.00     0.059 A 
ATOM     45  C   UNL A   1      39.643  31.079  32.777  1.00  0.00     0.059 A 
ATOM     46  F   UNL A   1      41.792  30.234  32.388  1.00  0.00    -0.206 F 
ATOM     47  C   UNL A   1      38.429  31.537  32.271  1.00  0.00     0.060 A 
BRANCH  47  48
ATOM     48  S   UNL A   1      37.143  32.131  33.388  1.00  0.00     0.124 S 
ATOM     49  O   UNL A   1      35.969  31.421  32.887  1.00  0.00    -0.237 OA
ATOM     50  O   UNL A   1      37.640  31.697  34.689  1.00  0.00    -0.237 OA
ATOM     51  O   UNL A   1      37.141  33.575  33.169  1.00  0.00    -0.744 OA
ENDBRANCH  47  48
ENDBRANCH  26  40
BRANCH  27  52
ATOM     52  C   UNL A   1      48.037  27.790  24.613  1.00  0.00     0.058 A 
ATOM     53  C   UNL A   1      49.315  27.373  25.039  1.00  0.00     0.135 A 
ATOM     54  C   UNL A   1      47.844  27.921  23.229  1.00  0.00     0.135 A 
ATOM     55  F   UNL A   1      49.575  27.234  26.348  1.00  0.00    -0.206 F 
ATOM     56  C   UNL A   1      50.364  27.172  24.142  1.00  0.00     0.059 A 
ATOM     57  C   UNL A   1      48.857  27.667  22.312  1.00  0.00     0.059 A 
ATOM     58  F   UNL A   1      46.662  28.332  22.746  1.00  0.00    -0.206 F 
ATOM     59  C   UNL A   1      50.126  27.339  22.780  1.00  0.00     0.060 A 
BRANCH  59  60
ATOM     60  S   UNL A   1      51.467  27.193  21.582  1.00  0.00     0.124 S 
ATOM     61  O   UNL A   1      52.244  26.097  22.151  1.00  0.00    -0.237 OA
ATOM     62  O   UNL A   1      50.760  26.888  20.344  1.00  0.00    -0.237 OA
ATOM     63  O   UNL A   1      52.082  28.514  21.655  1.00  0.00    -0.744 OA
ENDBRANCH  59  60
ENDBRANCH  27  52
BRANCH  39  64
ATOM     64  C   UNL A   1      42.571  24.477  27.352  1.00  0.00     0.058 A 
ATOM     65  C   UNL A   1      41.468  24.065  26.586  1.00  0.00     0.135 A 
ATOM     66  C   UNL A   1      43.306  23.497  28.033  1.00  0.00     0.135 A 
ATOM     67  F   UNL A   1      40.734  24.968  25.915  1.00  0.00    -0.206 F 
ATOM     68  C   UNL A   1      41.086  22.731  26.526  1.00  0.00     0.059 A 
ATOM     69  C   UNL A   1      42.961  22.153  27.962  1.00  0.00     0.059 A 
ATOM     70  F   UNL A   1      44.377  23.840  28.765  1.00  0.00    -0.206 F 
ATOM     71  C   UNL A   1      41.841  21.781  27.218  1.00  0.00     0.060 A 
BRANCH  71  72
ATOM     72  S   UNL A   1      41.348  20.049  27.119  1.00  0.00     0.124 S 
ATOM     73  O   UNL A   1      40.714  19.850  28.417  1.00  0.00    -0.237 OA
ATOM     74  O   UNL A   1      40.453  20.045  25.966  1.00  0.00    -0.237 OA
ATOM     75  O   UNL A   1      42.613  19.347  26.923  1.00  0.00    -0.744 OA
ENDBRANCH  71  72
ENDBRANCH  39  64
ENDBRANCH  13  14
ENDBRANCH   6   8
ENDBRANCH   5   6
ENDBRANCH   4   5
ENDBRANCH   3   4
ENDBRANCH   2   3
ENDBRANCH   1   2
BRANCH   1  76
ATOM     76  C   UNL A   1      45.329  43.065  25.841  1.00  0.00     0.188 C 
BRANCH  76  77
ATOM     77  O   UNL A   1      46.549  43.352  25.159  1.00  0.00    -0.376 OA
BRANCH  77  78
ATOM     78  C   UNL A   1      46.540  44.439  24.234  1.00  0.00     0.202 C 
BRANCH  78  79
ATOM     79  C   UNL A   1      45.188  44.724  23.588  1.00  0.00     0.261 C 
BRANCH  79  80
ATOM     80  O   UNL A   1      45.387  45.368  22.327  1.00  0.00    -0.462 OA
BRANCH  80  81
ATOM     81  C   UNL A   1      44.814  44.825  21.231  1.00  0.00     0.329 C 
ATOM     82  O   UNL A   1      43.856  44.058  21.239  1.00  0.00    -0.250 OA
BRANCH  81  83
ATOM     83  C   UNL A   1      45.556  45.238  19.957  1.00  0.00     0.206 C 
BRANCH  83  84
ATOM     84  C   UNL A   1      45.023  46.458  19.179  1.00  0.00     0.073 C 
BRANCH  84  85
ATOM     85  C   UNL A   1      43.800  46.388  18.284  1.00  0.00    -0.045 A 
ATOM     86  C   UNL A   1      43.528  47.459  17.428  1.00  0.00     0.004 A 
ATOM     87  C   UNL A   1      42.996  45.258  18.139  1.00  0.00     0.004 A 
ATOM     88  C   UNL A   1      42.532  47.422  16.453  1.00  0.00     0.000 A 
ATOM     89  C   UNL A   1      41.965  45.217  17.189  1.00  0.00     0.000 A 
ATOM     90  C   UNL A   1      41.741  46.295  16.338  1.00  0.00     0.000 A 
ENDBRANCH  84  85
ENDBRANCH  83  84
BRANCH  83  91
ATOM     91  N   UNL A   1      47.001  45.221  20.207  1.00  0.00    -0.278 N 
ATOM     92  C   UNL A   1      47.673  44.022  20.041  1.00  0.00     0.267 C 
ATOM     93  C   UNL A   1      47.760  46.296  20.619  1.00  0.00     0.149 C 
ATOM     94  O   UNL A   1      47.187  42.957  19.703  1.00  0.00    -0.268 OA
ATOM     95  C   UNL A   1      49.121  44.220  20.262  1.00  0.00     0.081 C 
ATOM     96  S   UNL A   1      49.425  45.780  20.885  1.00  0.00    -0.054 SA
ATOM     97  S   UNL A   1      47.266  47.876  20.834  1.00  0.00    -0.052 S 
ATOM     98  C   UNL A   1      49.967  43.239  19.938  1.00  0.00     0.029 C 
BRANCH  98  99
ATOM     99  C   UNL A   1      51.399  43.204  20.199  1.00  0.00    -0.021 A 
ATOM    100  C   UNL A   1      52.227  42.574  19.275  1.00  0.00     0.028 A 
ATOM    101  C   UNL A   1      51.957  43.844  21.301  1.00  0.00     0.028 A 
ATOM    102  C   UNL A   1      53.593  42.661  19.461  1.00  0.00     0.111 A 
ATOM    103  C   UNL A   1      53.338  43.872  21.396  1.00  0.00     0.111 A 
ATOM    104  N   UNL A   1      54.169  43.345  20.476  1.00  0.00    -0.265 NA
ENDBRANCH  98  99
ENDBRANCH  83  91
ENDBRANCH  81  83
ENDBRANCH  80  81
ENDBRANCH  79  80
ENDBRANCH  78  79
ENDBRANCH  77  78
ENDBRANCH  76  77
ENDBRANCH   1  76
TORSDOF 24
ENDMDL
MODEL 3
REMARK VINA RESULT:      -7.4      7.426     13.808
REMARK SMILES O=C(OCCOCCOCCOC(=O)[C@@H](Cc1ccccc1)N1C(=O)/C(=C/c2ccncc2)SC1=S)c1ccc(-c2c3nc(c(-c4c(F)cc(S(=O)(=O)[O-])cc4F)c4ccc([nH]4)c(-c4c(F)cc(S(=O)(=O)[O-])cc4F)c4nc(c(-c5c(F)cc(S(=O)(=O)[O-])cc5F)c5ccc2[nH]5)C=C4)C=C3)cc1
REMARK SMILES IDX 7 1 6 2 5 3 4 4 3 5 2 6 1 7 37 8 38 9 102 10 39 11 101 12
REMARK SMILES IDX 40 13 41 14 42 15 95 16 43 17 100 18 94 19 96 20 44 21 99 22
REMARK SMILES IDX 93 23 92 24 45 26 79 27 58 28 78 29 59 30 62 31 77 32 97 33
REMARK SMILES IDX 60 34 61 35 76 37 98 38 63 39 46 40 47 41 56 42 48 43 49 44
REMARK SMILES IDX 55 45 57 46 50 47 51 48 52 49 53 50 54 51 80 52 81 53 90 54
REMARK SMILES IDX 82 55 83 56 89 57 91 58 84 59 85 60 86 61 87 62 88 63 64 64
REMARK SMILES IDX 65 65 74 66 66 67 67 68 73 69 75 70 68 71 69 72 70 73 71 74
REMARK SMILES IDX 72 75 8 76 9 77 10 78 11 79 12 80 13 81 14 82 15 83 16 84
REMARK SMILES IDX 17 85 18 86 22 87 19 88 21 89 20 90 23 91 24 92 35 93 25 94
REMARK SMILES IDX 26 95 34 96 36 97 27 98 28 99 29 100 33 101 30 102 32 103
REMARK SMILES IDX 31 104
REMARK H PARENT 96 25 62 36
REMARK Flexibility Score: inf
ROOT
ATOM      1  C   UNL A   1      46.095  25.495  32.752  1.00  0.00     0.188 C 
ENDROOT
BRANCH   1   2
ATOM      2  O   UNL A   1      47.193  24.797  33.347  1.00  0.00    -0.376 OA
BRANCH   2   3
ATOM      3  C   UNL A   1      47.083  24.645  34.763  1.00  0.00     0.202 C 
BRANCH   3   4
ATOM      4  C   UNL A   1      48.374  24.815  35.588  1.00  0.00     0.261 C 
BRANCH   4   5
ATOM      5  O   UNL A   1      48.203  25.349  36.913  1.00  0.00    -0.460 OA
BRANCH   5   6
ATOM      6  C   UNL A   1      47.830  26.575  37.351  1.00  0.00     0.338 C 
ATOM      7  O   UNL A   1      48.562  27.126  38.176  1.00  0.00    -0.246 OA
BRANCH   6   8
ATOM      8  C   UNL A   1      46.586  27.302  36.937  1.00  0.00     0.060 A 
ATOM      9  C   UNL A   1      45.296  26.998  37.354  1.00  0.00     0.016 A 
ATOM     10  C   UNL A   1      46.742  28.386  36.040  1.00  0.00     0.016 A 
ATOM     11  C   UNL A   1      44.201  27.710  36.870  1.00  0.00     0.010 A 
ATOM     12  C   UNL A   1      45.643  29.107  35.547  1.00  0.00     0.010 A 
ATOM     13  C   UNL A   1      44.360  28.750  35.948  1.00  0.00    -0.014 A 
BRANCH  13  14
ATOM     14  C   UNL A   1      43.120  29.247  35.310  1.00  0.00     0.031 A 
ATOM     15  C   UNL A   1      42.552  30.524  35.848  1.00  0.00     0.074 A 
ATOM     16  C   UNL A   1      42.681  28.718  34.154  1.00  0.00     0.049 A 
ATOM     17  N   UNL A   1      41.654  31.309  35.325  1.00  0.00    -0.248 NA
ATOM     18  C   UNL A   1      43.060  30.969  37.159  1.00  0.00     0.031 C 
ATOM     19  C   UNL A   1      43.156  27.467  33.573  1.00  0.00     0.029 A 
ATOM     20  N   UNL A   1      41.847  29.234  33.191  1.00  0.00    -0.354 N 
ATOM     21  C   UNL A   1      41.428  32.295  36.275  1.00  0.00     0.074 A 
ATOM     22  C   UNL A   1      42.345  32.063  37.367  1.00  0.00     0.031 C 
ATOM     23  C   UNL A   1      42.773  27.417  32.285  1.00  0.00     0.029 A 
ATOM     24  C   UNL A   1      41.948  28.579  31.978  1.00  0.00     0.049 A 
ATOM     25  H   UNL A   1      41.240  29.993  33.349  1.00  0.00     0.167 HD
ATOM     26  C   UNL A   1      40.479  33.256  36.258  1.00  0.00     0.037 A 
ATOM     27  C   UNL A   1      41.449  28.908  30.767  1.00  0.00     0.037 A 
ATOM     28  C   UNL A   1      39.555  33.424  35.170  1.00  0.00     0.049 A 
ATOM     29  C   UNL A   1      40.475  30.063  30.726  1.00  0.00     0.074 A 
ATOM     30  C   UNL A   1      38.457  34.259  35.086  1.00  0.00     0.029 A 
ATOM     31  N   UNL A   1      39.626  32.728  33.970  1.00  0.00    -0.354 N 
ATOM     32  N   UNL A   1      40.200  30.943  31.661  1.00  0.00    -0.248 NA
ATOM     33  C   UNL A   1      39.669  30.211  29.505  1.00  0.00     0.031 C 
ATOM     34  C   UNL A   1      37.838  34.035  33.851  1.00  0.00     0.029 A 
ATOM     35  C   UNL A   1      38.588  33.110  33.141  1.00  0.00     0.049 A 
ATOM     36  H   UNL A   1      40.314  32.061  33.743  1.00  0.00     0.167 HD
ATOM     37  C   UNL A   1      39.137  31.694  31.171  1.00  0.00     0.074 A 
ATOM     38  C   UNL A   1      38.898  31.242  29.815  1.00  0.00     0.031 C 
ATOM     39  C   UNL A   1      38.379  32.626  31.800  1.00  0.00     0.037 A 
BRANCH  26  40
ATOM     40  C   UNL A   1      40.308  34.071  37.503  1.00  0.00     0.058 A 
ATOM     41  C   UNL A   1      41.047  35.237  37.751  1.00  0.00     0.135 A 
ATOM     42  C   UNL A   1      39.392  33.653  38.484  1.00  0.00     0.135 A 
ATOM     43  F   UNL A   1      41.972  35.652  36.870  1.00  0.00    -0.206 F 
ATOM     44  C   UNL A   1      40.885  35.959  38.929  1.00  0.00     0.059 A 
ATOM     45  C   UNL A   1      39.196  34.371  39.657  1.00  0.00     0.059 A 
ATOM     46  F   UNL A   1      38.685  32.525  38.310  1.00  0.00    -0.206 F 
ATOM     47  C   UNL A   1      39.953  35.521  39.873  1.00  0.00     0.060 A 
BRANCH  47  48
ATOM     48  S   UNL A   1      39.736  36.484  41.383  1.00  0.00     0.124 S 
ATOM     49  O   UNL A   1      40.950  37.294  41.391  1.00  0.00    -0.237 OA
ATOM     50  O   UNL A   1      38.495  37.203  41.114  1.00  0.00    -0.237 OA
ATOM     51  O   UNL A   1      39.654  35.467  42.428  1.00  0.00    -0.744 OA
ENDBRANCH  47  48
ENDBRANCH  26  40
BRANCH  27  52
ATOM     52  C   UNL A   1      41.736  28.123  29.524  1.00  0.00     0.058 A 
ATOM     53  C   UNL A   1      42.904  28.349  28.766  1.00  0.00     0.135 A 
ATOM     54  C   UNL A   1      40.808  27.211  28.997  1.00  0.00     0.135 A 
ATOM     55  F   UNL A   1      43.832  29.215  29.205  1.00  0.00    -0.206 F 
ATOM     56  C   UNL A   1      43.102  27.760  27.518  1.00  0.00     0.059 A 
ATOM     57  C   UNL A   1      41.012  26.565  27.784  1.00  0.00     0.059 A 
ATOM     58  F   UNL A   1      39.664  26.956  29.648  1.00  0.00    -0.206 F 
ATOM     59  C   UNL A   1      42.138  26.880  27.030  1.00  0.00     0.060 A 
BRANCH  59  60
ATOM     60  S   UNL A   1      42.289  26.168  25.379  1.00  0.00     0.124 S 
ATOM     61  O   UNL A   1      42.545  27.358  24.574  1.00  0.00    -0.237 OA
ATOM     62  O   UNL A   1      43.415  25.253  25.526  1.00  0.00    -0.237 OA
ATOM     63  O   UNL A   1      40.983  25.546  25.197  1.00  0.00    -0.744 OA
ENDBRANCH  59  60
ENDBRANCH  27  52
BRANCH  39  64
ATOM     64  C   UNL A   1      37.213  33.182  31.037  1.00  0.00     0.058 A 
ATOM     65  C   UNL A   1      37.394  34.119  30.006  1.00  0.00     0.135 A 
ATOM     66  C   UNL A   1      35.910  32.738  31.303  1.00  0.00     0.135 A 
ATOM     67  F   UNL A   1      38.624  34.574  29.714  1.00  0.00    -0.206 F 
ATOM     68  C   UNL A   1      36.317  34.623  29.287  1.00  0.00     0.059 A 
ATOM     69  C   UNL A   1      34.822  33.204  30.577  1.00  0.00     0.059 A 
ATOM     70  F   UNL A   1      35.689  31.832  32.268  1.00  0.00    -0.206 F 
ATOM     71  C   UNL A   1      35.034  34.158  29.581  1.00  0.00     0.060 A 
BRANCH  71  72
ATOM     72  S   UNL A   1      33.645  34.805  28.630  1.00  0.00     0.124 S 
ATOM     73  O   UNL A   1      34.234  34.936  27.302  1.00  0.00    -0.237 OA
ATOM     74  O   UNL A   1      32.645  33.751  28.780  1.00  0.00    -0.237 OA
ATOM     75  O   UNL A   1      33.327  36.061  29.304  1.00  0.00    -0.744 OA
ENDBRANCH  71  72
ENDBRANCH  39  64
ENDBRANCH  13  14
ENDBRANCH   6   8
ENDBRANCH   5   6
ENDBRANCH   4   5
ENDBRANCH   3   4
ENDBRANCH   2   3
ENDBRANCH   1   2
BRANCH   1  76
ATOM     76  C   UNL A   1      46.486  26.815  32.089  1.00  0.00     0.188 C 
BRANCH  76  77
ATOM     77  O   UNL A   1      47.640  26.759  31.252  1.00  0.00    -0.376 OA
BRANCH  77  78
ATOM     78  C   UNL A   1      47.429  26.490  29.866  1.00  0.00     0.202 C 
BRANCH  78  79
ATOM     79  C   UNL A   1      48.106  27.466  28.909  1.00  0.00     0.261 C 
BRANCH  79  80
ATOM     80  O   UNL A   1      47.805  27.099  27.560  1.00  0.00    -0.462 OA
BRANCH  80  81
ATOM     81  C   UNL A   1      48.694  27.417  26.595  1.00  0.00     0.329 C 
ATOM     82  O   UNL A   1      49.397  28.423  26.583  1.00  0.00    -0.250 OA
BRANCH  81  83
ATOM     83  C   UNL A   1      48.675  26.385  25.464  1.00  0.00     0.206 C 
BRANCH  83  84
ATOM     84  C   UNL A   1      47.302  25.877  24.978  1.00  0.00     0.073 C 
BRANCH  84  85
ATOM     85  C   UNL A   1      46.829  24.454  25.206  1.00  0.00    -0.045 A 
ATOM     86  C   UNL A   1      46.335  24.101  26.464  1.00  0.00     0.004 A 
ATOM     87  C   UNL A   1      46.709  23.495  24.200  1.00  0.00     0.004 A 
ATOM     88  C   UNL A   1      45.725  22.876  26.727  1.00  0.00     0.000 A 
ATOM     89  C   UNL A   1      46.132  22.243  24.456  1.00  0.00     0.000 A 
ATOM     90  C   UNL A   1      45.628  21.938  25.717  1.00  0.00     0.000 A 
ENDBRANCH  84  85
ENDBRANCH  83  84
BRANCH  83  91
ATOM     91  N   UNL A   1      49.612  26.796  24.414  1.00  0.00    -0.278 N 
ATOM     92  C   UNL A   1      49.110  27.508  23.338  1.00  0.00     0.267 C 
ATOM     93  C   UNL A   1      50.963  26.518  24.385  1.00  0.00     0.149 C 
ATOM     94  O   UNL A   1      47.949  27.837  23.164  1.00  0.00    -0.268 OA
ATOM     95  C   UNL A   1      50.209  27.896  22.430  1.00  0.00     0.081 C 
ATOM     96  S   UNL A   1      51.663  27.125  22.885  1.00  0.00    -0.054 SA
ATOM     97  S   UNL A   1      51.875  25.753  25.555  1.00  0.00    -0.052 S 
ATOM     98  C   UNL A   1      49.964  28.769  21.450  1.00  0.00     0.029 C 
BRANCH  98  99
ATOM     99  C   UNL A   1      50.882  29.169  20.393  1.00  0.00    -0.021 A 
ATOM    100  C   UNL A   1      51.162  30.523  20.234  1.00  0.00     0.028 A 
ATOM    101  C   UNL A   1      51.532  28.233  19.596  1.00  0.00     0.028 A 
ATOM    102  C   UNL A   1      52.132  30.883  19.318  1.00  0.00     0.111 A 
ATOM    103  C   UNL A   1      52.487  28.697  18.708  1.00  0.00     0.111 A 
ATOM    104  N   UNL A   1      52.840  29.992  18.588  1.00  0.00    -0.265 NA
ENDBRANCH  98  99
ENDBRANCH  83  91
ENDBRANCH  81  83
ENDBRANCH  80  81
ENDBRANCH  79  80
ENDBRANCH  78  79
ENDBRANCH  77  78
ENDBRANCH  76  77
ENDBRANCH   1  76
TORSDOF 24
ENDMDL
