MODEL 1
REMARK VINA RESULT:     -10.3      0.000      0.000
REMARK SMILES Cc1cc2c(c(C)c1Br)C=C(C(=O)OCCOCCOCCOC(=O)c1ccc(-c3c4nc(c(-c5c(F)cc(S(=O)(=O)[O-])cc5F)c5ccc([nH]5)c(-c5c(F)cc(S(=O)(=O)[O-])cc5F)c5nc(c(-c6c(F)cc(S(=O)(=O)[O-])cc6F)c6ccc3[nH]6)C=C5)C=C4)cc1)[C@@H](C(F)(F)F)O2
REMARK SMILES IDX 19 1 18 2 17 3 16 4 15 5 14 6 12 7 13 8 11 9 1 10 2 11 3 12
REMARK SMILES IDX 8 13 4 14 6 15 9 16 5 17 97 18 7 19 10 20 92 21 93 22 94 23
REMARK SMILES IDX 95 24 96 25 20 26 21 27 22 28 23 29 24 30 25 31 26 32 27 33
REMARK SMILES IDX 91 34 28 35 90 36 29 37 30 38 31 39 84 40 32 41 89 42 83 43
REMARK SMILES IDX 85 44 33 45 88 46 82 47 81 48 34 50 68 51 47 52 67 53 48 54
REMARK SMILES IDX 51 55 66 56 86 57 49 58 50 59 65 61 87 62 52 63 35 64 36 65
REMARK SMILES IDX 45 66 37 67 38 68 44 69 46 70 39 71 40 72 41 73 42 74 43 75
REMARK SMILES IDX 69 76 70 77 79 78 71 79 72 80 78 81 80 82 73 83 74 84 75 85
REMARK SMILES IDX 76 86 77 87 53 88 54 89 63 90 55 91 56 92 62 93 64 94 57 95
REMARK SMILES IDX 58 96 59 97 60 98 61 99
REMARK H PARENT 85 49 51 60
REMARK Flexibility Score: inf
ROOT
ATOM      1  C   UNL A   1      33.872  33.108  27.822  1.00  0.00     0.188 C 
ENDROOT
BRANCH   1   2
ATOM      2  C   UNL A   1      33.668  31.590  27.619  1.00  0.00     0.188 C 
BRANCH   2   3
ATOM      3  O   UNL A   1      34.859  30.911  27.296  1.00  0.00    -0.376 OA
BRANCH   3   4
ATOM      4  C   UNL A   1      34.893  29.497  27.266  1.00  0.00     0.202 C 
BRANCH   4   5
ATOM      5  C   UNL A   1      33.633  28.615  27.196  1.00  0.00     0.261 C 
BRANCH   5   6
ATOM      6  O   UNL A   1      32.849  28.685  26.002  1.00  0.00    -0.460 OA
BRANCH   6   7
ATOM      7  C   UNL A   1      33.314  28.003  24.932  1.00  0.00     0.338 C 
ATOM      8  O   UNL A   1      33.978  28.452  24.013  1.00  0.00    -0.246 OA
BRANCH   7   9
ATOM      9  C   UNL A   1      32.982  26.573  25.102  1.00  0.00     0.087 C 
ATOM     10  C   UNL A   1      32.552  20.120  25.064  1.00  0.00     0.046 C 
ATOM     11  C   UNL A   1      33.015  21.546  25.219  1.00  0.00    -0.033 A 
ATOM     12  C   UNL A   1      32.033  22.540  25.307  1.00  0.00     0.051 A 
ATOM     13  C   UNL A   1      34.372  21.931  25.197  1.00  0.00     0.024 A 
ATOM     14  C   UNL A   1      32.376  23.890  25.323  1.00  0.00     0.128 A 
ATOM     15  C   UNL A   1      34.742  23.299  25.270  1.00  0.00    -0.026 A 
ATOM     16  Br  UNL A   1      35.706  20.571  25.004  1.00  0.00    -0.050 Br
ATOM     17  C   UNL A   1      33.718  24.282  25.268  1.00  0.00     0.021 A 
ATOM     18  O   UNL A   1      31.316  24.747  25.383  1.00  0.00    -0.475 OA
ATOM     19  C   UNL A   1      36.188  23.739  25.330  1.00  0.00     0.046 C 
ATOM     20  C   UNL A   1      34.005  25.711  25.142  1.00  0.00     0.027 C 
ATOM     21  C   UNL A   1      31.542  26.172  25.246  1.00  0.00     0.316 C 
BRANCH  21  22
ATOM     22  C   UNL A   1      30.665  26.685  24.094  1.00  0.00     0.430 C 
ATOM     23  F   UNL A   1      29.503  25.990  24.013  1.00  0.00    -0.167 F 
ATOM     24  F   UNL A   1      30.322  27.985  24.260  1.00  0.00    -0.167 F 
ATOM     25  F   UNL A   1      31.281  26.580  22.895  1.00  0.00    -0.167 F 
ENDBRANCH  21  22
ENDBRANCH   7   9
ENDBRANCH   6   7
ENDBRANCH   5   6
ENDBRANCH   4   5
ENDBRANCH   3   4
ENDBRANCH   2   3
ENDBRANCH   1   2
BRANCH   1  26
ATOM     26  O   UNL A   1      34.907  33.570  28.684  1.00  0.00    -0.376 OA
BRANCH  26  27
ATOM     27  C   UNL A   1      34.655  33.645  30.085  1.00  0.00     0.202 C 
BRANCH  27  28
ATOM     28  C   UNL A   1      35.016  32.453  30.982  1.00  0.00     0.261 C 
BRANCH  28  29
ATOM     29  O   UNL A   1      35.977  31.544  30.420  1.00  0.00    -0.460 OA
BRANCH  29  30
ATOM     30  C   UNL A   1      36.649  30.779  31.318  1.00  0.00     0.338 C 
ATOM     31  O   UNL A   1      36.284  30.463  32.437  1.00  0.00    -0.246 OA
BRANCH  30  32
ATOM     32  C   UNL A   1      37.843  30.201  30.670  1.00  0.00     0.060 A 
ATOM     33  C   UNL A   1      38.791  29.560  31.480  1.00  0.00     0.016 A 
ATOM     34  C   UNL A   1      38.048  30.319  29.295  1.00  0.00     0.016 A 
ATOM     35  C   UNL A   1      39.953  29.038  30.914  1.00  0.00     0.010 A 
ATOM     36  C   UNL A   1      39.229  29.820  28.734  1.00  0.00     0.010 A 
ATOM     37  C   UNL A   1      40.194  29.195  29.543  1.00  0.00    -0.014 A 
BRANCH  37  38
ATOM     38  C   UNL A   1      41.522  28.840  28.990  1.00  0.00     0.031 A 
ATOM     39  C   UNL A   1      42.580  29.906  28.914  1.00  0.00     0.074 A 
ATOM     40  C   UNL A   1      41.796  27.582  28.600  1.00  0.00     0.049 A 
ATOM     41  N   UNL A   1      43.803  29.826  28.460  1.00  0.00    -0.248 NA
ATOM     42  C   UNL A   1      42.209  31.238  29.422  1.00  0.00     0.031 C 
ATOM     43  C   UNL A   1      40.869  26.452  28.673  1.00  0.00     0.029 A 
ATOM     44  N   UNL A   1      42.939  27.044  28.062  1.00  0.00    -0.354 N 
ATOM     45  C   UNL A   1      44.355  31.088  28.645  1.00  0.00     0.074 A 
ATOM     46  C   UNL A   1      43.323  31.926  29.216  1.00  0.00     0.031 C 
ATOM     47  C   UNL A   1      41.482  25.354  28.195  1.00  0.00     0.029 A 
ATOM     48  C   UNL A   1      42.832  25.708  27.755  1.00  0.00     0.049 A 
ATOM     49  H   UNL A   1      43.759  27.566  27.910  1.00  0.00     0.167 HD
ATOM     50  C   UNL A   1      45.614  31.506  28.376  1.00  0.00     0.037 A 
ATOM     51  C   UNL A   1      43.717  24.874  27.174  1.00  0.00     0.037 A 
ATOM     52  C   UNL A   1      46.633  30.678  27.789  1.00  0.00     0.049 A 
ATOM     53  C   UNL A   1      45.079  25.393  26.784  1.00  0.00     0.074 A 
ATOM     54  C   UNL A   1      47.932  31.020  27.458  1.00  0.00     0.029 A 
ATOM     55  N   UNL A   1      46.467  29.346  27.441  1.00  0.00    -0.354 N 
ATOM     56  N   UNL A   1      45.588  26.589  26.965  1.00  0.00    -0.248 NA
ATOM     57  C   UNL A   1      45.985  24.453  26.106  1.00  0.00     0.031 C 
ATOM     58  C   UNL A   1      48.540  29.906  26.871  1.00  0.00     0.029 A 
ATOM     59  C   UNL A   1      47.635  28.856  26.882  1.00  0.00     0.049 A 
ATOM     60  H   UNL A   1      45.642  28.826  27.572  1.00  0.00     0.167 HD
ATOM     61  C   UNL A   1      46.882  26.533  26.456  1.00  0.00     0.074 A 
ATOM     62  C   UNL A   1      47.079  25.187  25.959  1.00  0.00     0.031 C 
ATOM     63  C   UNL A   1      47.823  27.508  26.408  1.00  0.00     0.037 A 
BRANCH  50  64
ATOM     64  C   UNL A   1      45.962  32.928  28.710  1.00  0.00     0.058 A 
ATOM     65  C   UNL A   1      46.566  33.264  29.932  1.00  0.00     0.135 A 
ATOM     66  C   UNL A   1      45.745  33.957  27.779  1.00  0.00     0.135 A 
ATOM     67  F   UNL A   1      46.776  32.321  30.864  1.00  0.00    -0.206 F 
ATOM     68  C   UNL A   1      46.935  34.573  30.224  1.00  0.00     0.059 A 
ATOM     69  C   UNL A   1      46.126  35.269  28.041  1.00  0.00     0.059 A 
ATOM     70  F   UNL A   1      45.165  33.689  26.599  1.00  0.00    -0.206 F 
ATOM     71  C   UNL A   1      46.715  35.568  29.269  1.00  0.00     0.060 A 
BRANCH  71  72
ATOM     72  S   UNL A   1      47.224  37.256  29.656  1.00  0.00     0.124 S 
ATOM     73  O   UNL A   1      47.076  37.279  31.108  1.00  0.00    -0.237 OA
ATOM     74  O   UNL A   1      48.596  37.287  29.159  1.00  0.00    -0.237 OA
ATOM     75  O   UNL A   1      46.272  38.078  28.916  1.00  0.00    -0.744 OA
ENDBRANCH  71  72
ENDBRANCH  50  64
BRANCH  51  76
ATOM     76  C   UNL A   1      43.352  23.454  26.925  1.00  0.00     0.058 A 
ATOM     77  C   UNL A   1      43.014  23.011  25.637  1.00  0.00     0.135 A 
ATOM     78  C   UNL A   1      43.321  22.514  27.967  1.00  0.00     0.135 A 
ATOM     79  F   UNL A   1      43.016  23.875  24.610  1.00  0.00    -0.206 F 
ATOM     80  C   UNL A   1      42.644  21.692  25.393  1.00  0.00     0.059 A 
ATOM     81  C   UNL A   1      42.979  21.184  27.744  1.00  0.00     0.059 A 
ATOM     82  F   UNL A   1      43.643  22.885  29.216  1.00  0.00    -0.206 F 
ATOM     83  C   UNL A   1      42.632  20.785  26.453  1.00  0.00     0.060 A 
BRANCH  83  84
ATOM     84  S   UNL A   1      42.189  19.067  26.117  1.00  0.00     0.124 S 
ATOM     85  O   UNL A   1      40.782  19.193  25.754  1.00  0.00    -0.237 OA
ATOM     86  O   UNL A   1      43.101  18.724  25.030  1.00  0.00    -0.237 OA
ATOM     87  O   UNL A   1      42.456  18.396  27.385  1.00  0.00    -0.744 OA
ENDBRANCH  83  84
ENDBRANCH  51  76
BRANCH  63  88
ATOM     88  C   UNL A   1      49.170  27.164  25.834  1.00  0.00     0.058 A 
ATOM     89  C   UNL A   1      49.444  27.302  24.466  1.00  0.00     0.135 A 
ATOM     90  C   UNL A   1      50.228  26.796  26.683  1.00  0.00     0.135 A 
ATOM     91  F   UNL A   1      48.466  27.645  23.612  1.00  0.00    -0.206 F 
ATOM     92  C   UNL A   1      50.721  27.085  23.957  1.00  0.00     0.059 A 
ATOM     93  C   UNL A   1      51.517  26.597  26.199  1.00  0.00     0.059 A 
ATOM     94  F   UNL A   1      50.021  26.662  28.002  1.00  0.00    -0.206 F 
ATOM     95  C   UNL A   1      51.753  26.742  24.832  1.00  0.00     0.060 A 
BRANCH  95  96
ATOM     96  S   UNL A   1      53.418  26.535  24.165  1.00  0.00     0.124 S 
ATOM     97  O   UNL A   1      53.186  25.585  23.081  1.00  0.00    -0.237 OA
ATOM     98  O   UNL A   1      53.760  27.894  23.754  1.00  0.00    -0.237 OA
ATOM     99  O   UNL A   1      54.179  26.019  25.299  1.00  0.00    -0.744 OA
ENDBRANCH  95  96
ENDBRANCH  63  88
ENDBRANCH  37  38
ENDBRANCH  30  32
ENDBRANCH  29  30
ENDBRANCH  28  29
ENDBRANCH  27  28
ENDBRANCH  26  27
ENDBRANCH   1  26
TORSDOF 21
ENDMDL
MODEL 2
REMARK VINA RESULT:     -10.3      5.996      8.759
REMARK SMILES Cc1cc2c(c(C)c1Br)C=C(C(=O)OCCOCCOCCOC(=O)c1ccc(-c3c4nc(c(-c5c(F)cc(S(=O)(=O)[O-])cc5F)c5ccc([nH]5)c(-c5c(F)cc(S(=O)(=O)[O-])cc5F)c5nc(c(-c6c(F)cc(S(=O)(=O)[O-])cc6F)c6ccc3[nH]6)C=C5)C=C4)cc1)[C@@H](C(F)(F)F)O2
REMARK SMILES IDX 19 1 18 2 17 3 16 4 15 5 14 6 12 7 13 8 11 9 1 10 2 11 3 12
REMARK SMILES IDX 8 13 4 14 6 15 9 16 5 17 97 18 7 19 10 20 92 21 93 22 94 23
REMARK SMILES IDX 95 24 96 25 20 26 21 27 22 28 23 29 24 30 25 31 26 32 27 33
REMARK SMILES IDX 91 34 28 35 90 36 29 37 30 38 31 39 84 40 32 41 89 42 83 43
REMARK SMILES IDX 85 44 33 45 88 46 82 47 81 48 34 50 68 51 47 52 67 53 48 54
REMARK SMILES IDX 51 55 66 56 86 57 49 58 50 59 65 61 87 62 52 63 35 64 36 65
REMARK SMILES IDX 45 66 37 67 38 68 44 69 46 70 39 71 40 72 41 73 42 74 43 75
REMARK SMILES IDX 69 76 70 77 79 78 71 79 72 80 78 81 80 82 73 83 74 84 75 85
REMARK SMILES IDX 76 86 77 87 53 88 54 89 63 90 55 91 56 92 62 93 64 94 57 95
REMARK SMILES IDX 58 96 59 97 60 98 61 99
REMARK H PARENT 85 49 51 60
REMARK Flexibility Score: inf
ROOT
ATOM      1  C   UNL A   1      33.112  35.990  28.826  1.00  0.00     0.188 C 
ENDROOT
BRANCH   1   2
ATOM      2  C   UNL A   1      33.110  36.523  30.276  1.00  0.00     0.188 C 
BRANCH   2   3
ATOM      3  O   UNL A   1      33.605  35.589  31.208  1.00  0.00    -0.376 OA
BRANCH   3   4
ATOM      4  C   UNL A   1      33.367  35.762  32.592  1.00  0.00     0.202 C 
BRANCH   4   5
ATOM      5  C   UNL A   1      34.487  35.864  33.643  1.00  0.00     0.261 C 
BRANCH   5   6
ATOM      6  O   UNL A   1      34.827  34.671  34.355  1.00  0.00    -0.460 OA
BRANCH   6   7
ATOM      7  C   UNL A   1      35.456  33.705  33.651  1.00  0.00     0.338 C 
ATOM      8  O   UNL A   1      34.939  32.742  33.110  1.00  0.00    -0.246 OA
BRANCH   7   9
ATOM      9  C   UNL A   1      36.887  34.056  33.540  1.00  0.00     0.087 C 
ATOM     10  C   UNL A   1      43.147  34.739  32.065  1.00  0.00     0.046 C 
ATOM     11  C   UNL A   1      41.642  34.696  32.030  1.00  0.00    -0.033 A 
ATOM     12  C   UNL A   1      40.963  34.776  33.253  1.00  0.00     0.051 A 
ATOM     13  C   UNL A   1      40.895  34.500  30.850  1.00  0.00     0.024 A 
ATOM     14  C   UNL A   1      39.580  34.616  33.319  1.00  0.00     0.128 A 
ATOM     15  C   UNL A   1      39.481  34.392  30.892  1.00  0.00    -0.026 A 
ATOM     16  Br  UNL A   1      41.836  34.321  29.192  1.00  0.00    -0.050 Br
ATOM     17  C   UNL A   1      38.836  34.388  32.156  1.00  0.00     0.021 A 
ATOM     18  O   UNL A   1      39.058  34.690  34.577  1.00  0.00    -0.475 OA
ATOM     19  C   UNL A   1      38.646  34.263  29.637  1.00  0.00     0.046 C 
ATOM     20  C   UNL A   1      37.412  34.085  32.309  1.00  0.00     0.027 C 
ATOM     21  C   UNL A   1      37.657  34.383  34.787  1.00  0.00     0.316 C 
BRANCH  21  22
ATOM     22  C   UNL A   1      37.565  33.276  35.847  1.00  0.00     0.430 C 
ATOM     23  F   UNL A   1      37.510  32.048  35.272  1.00  0.00    -0.167 F 
ATOM     24  F   UNL A   1      38.646  33.266  36.664  1.00  0.00    -0.167 F 
ATOM     25  F   UNL A   1      36.469  33.404  36.628  1.00  0.00    -0.167 F 
ENDBRANCH  21  22
ENDBRANCH   7   9
ENDBRANCH   6   7
ENDBRANCH   5   6
ENDBRANCH   4   5
ENDBRANCH   3   4
ENDBRANCH   2   3
ENDBRANCH   1   2
BRANCH   1  26
ATOM     26  O   UNL A   1      32.542  34.716  28.543  1.00  0.00    -0.376 OA
BRANCH  26  27
ATOM     27  C   UNL A   1      33.379  33.685  28.027  1.00  0.00     0.202 C 
BRANCH  27  28
ATOM     28  C   UNL A   1      34.762  33.452  28.653  1.00  0.00     0.261 C 
BRANCH  28  29
ATOM     29  O   UNL A   1      34.871  32.261  29.448  1.00  0.00    -0.460 OA
BRANCH  29  30
ATOM     30  C   UNL A   1      35.025  31.107  28.749  1.00  0.00     0.338 C 
ATOM     31  O   UNL A   1      34.285  30.662  27.889  1.00  0.00    -0.246 OA
BRANCH  30  32
ATOM     32  C   UNL A   1      36.352  30.532  29.043  1.00  0.00     0.060 A 
ATOM     33  C   UNL A   1      36.438  29.523  30.013  1.00  0.00     0.016 A 
ATOM     34  C   UNL A   1      37.501  31.000  28.405  1.00  0.00     0.016 A 
ATOM     35  C   UNL A   1      37.677  28.983  30.351  1.00  0.00     0.010 A 
ATOM     36  C   UNL A   1      38.747  30.477  28.766  1.00  0.00     0.010 A 
ATOM     37  C   UNL A   1      38.842  29.480  29.753  1.00  0.00    -0.014 A 
BRANCH  37  38
ATOM     38  C   UNL A   1      40.165  29.063  30.274  1.00  0.00     0.031 A 
ATOM     39  C   UNL A   1      40.706  29.748  31.499  1.00  0.00     0.074 A 
ATOM     40  C   UNL A   1      40.855  28.065  29.693  1.00  0.00     0.049 A 
ATOM     41  N   UNL A   1      41.839  29.554  32.121  1.00  0.00    -0.248 NA
ATOM     42  C   UNL A   1      39.853  30.784  32.104  1.00  0.00     0.031 C 
ATOM     43  C   UNL A   1      40.410  27.292  28.533  1.00  0.00     0.029 A 
ATOM     44  N   UNL A   1      42.081  27.530  30.002  1.00  0.00    -0.354 N 
ATOM     45  C   UNL A   1      41.829  30.428  33.201  1.00  0.00     0.074 A 
ATOM     46  C   UNL A   1      40.595  31.181  33.129  1.00  0.00     0.031 C 
ATOM     47  C   UNL A   1      41.354  26.384  28.227  1.00  0.00     0.029 A 
ATOM     48  C   UNL A   1      42.479  26.527  29.150  1.00  0.00     0.049 A 
ATOM     49  H   UNL A   1      42.624  27.836  30.763  1.00  0.00     0.167 HD
ATOM     50  C   UNL A   1      42.757  30.580  34.175  1.00  0.00     0.037 A 
ATOM     51  C   UNL A   1      43.627  25.821  29.113  1.00  0.00     0.037 A 
ATOM     52  C   UNL A   1      43.992  29.846  34.234  1.00  0.00     0.049 A 
ATOM     53  C   UNL A   1      44.694  26.085  30.146  1.00  0.00     0.074 A 
ATOM     54  C   UNL A   1      45.008  29.947  35.169  1.00  0.00     0.029 A 
ATOM     55  N   UNL A   1      44.384  28.880  33.320  1.00  0.00    -0.354 N 
ATOM     56  N   UNL A   1      44.670  26.914  31.162  1.00  0.00    -0.248 NA
ATOM     57  C   UNL A   1      45.946  25.321  30.025  1.00  0.00     0.031 C 
ATOM     58  C   UNL A   1      46.031  29.071  34.798  1.00  0.00     0.029 A 
ATOM     59  C   UNL A   1      45.634  28.389  33.659  1.00  0.00     0.049 A 
ATOM     60  H   UNL A   1      43.853  28.586  32.545  1.00  0.00     0.167 HD
ATOM     61  C   UNL A   1      45.886  26.747  31.819  1.00  0.00     0.074 A 
ATOM     62  C   UNL A   1      46.622  25.738  31.087  1.00  0.00     0.031 C 
ATOM     63  C   UNL A   1      46.347  27.371  32.931  1.00  0.00     0.037 A 
BRANCH  50  64
ATOM     64  C   UNL A   1      42.477  31.584  35.255  1.00  0.00     0.058 A 
ATOM     65  C   UNL A   1      41.564  31.309  36.286  1.00  0.00     0.135 A 
ATOM     66  C   UNL A   1      43.166  32.807  35.295  1.00  0.00     0.135 A 
ATOM     67  F   UNL A   1      40.864  30.163  36.282  1.00  0.00    -0.206 F 
ATOM     68  C   UNL A   1      41.339  32.216  37.317  1.00  0.00     0.059 A 
ATOM     69  C   UNL A   1      42.973  33.719  36.329  1.00  0.00     0.059 A 
ATOM     70  F   UNL A   1      44.043  33.119  34.330  1.00  0.00    -0.206 F 
ATOM     71  C   UNL A   1      42.052  33.416  37.331  1.00  0.00     0.060 A 
BRANCH  71  72
ATOM     72  S   UNL A   1      41.764  34.569  38.690  1.00  0.00     0.124 S 
ATOM     73  O   UNL A   1      41.001  33.740  39.619  1.00  0.00    -0.237 OA
ATOM     74  O   UNL A   1      43.122  34.902  39.107  1.00  0.00    -0.237 OA
ATOM     75  O   UNL A   1      41.018  35.656  38.064  1.00  0.00    -0.744 OA
ENDBRANCH  71  72
ENDBRANCH  50  64
BRANCH  51  76
ATOM     76  C   UNL A   1      43.833  24.787  28.063  1.00  0.00     0.058 A 
ATOM     77  C   UNL A   1      44.469  25.104  26.853  1.00  0.00     0.135 A 
ATOM     78  C   UNL A   1      43.389  23.468  28.240  1.00  0.00     0.135 A 
ATOM     79  F   UNL A   1      44.899  26.356  26.631  1.00  0.00    -0.206 F 
ATOM     80  C   UNL A   1      44.645  24.156  25.851  1.00  0.00     0.059 A 
ATOM     81  C   UNL A   1      43.575  22.495  27.263  1.00  0.00     0.059 A 
ATOM     82  F   UNL A   1      42.781  23.111  29.382  1.00  0.00    -0.206 F 
ATOM     83  C   UNL A   1      44.197  22.852  26.067  1.00  0.00     0.060 A 
BRANCH  83  84
ATOM     84  S   UNL A   1      44.466  21.620  24.774  1.00  0.00     0.124 S 
ATOM     85  O   UNL A   1      45.839  21.209  25.042  1.00  0.00    -0.237 OA
ATOM     86  O   UNL A   1      43.433  20.633  25.074  1.00  0.00    -0.237 OA
ATOM     87  O   UNL A   1      44.262  22.375  23.542  1.00  0.00    -0.744 OA
ENDBRANCH  83  84
ENDBRANCH  51  76
BRANCH  63  88
ATOM     88  C   UNL A   1      47.696  26.966  33.460  1.00  0.00     0.058 A 
ATOM     89  C   UNL A   1      48.868  27.632  33.073  1.00  0.00     0.135 A 
ATOM     90  C   UNL A   1      47.800  25.972  34.448  1.00  0.00     0.135 A 
ATOM     91  F   UNL A   1      48.823  28.586  32.129  1.00  0.00    -0.206 F 
ATOM     92  C   UNL A   1      50.099  27.325  33.646  1.00  0.00     0.059 A 
ATOM     93  C   UNL A   1      49.016  25.667  35.051  1.00  0.00     0.059 A 
ATOM     94  F   UNL A   1      46.707  25.314  34.861  1.00  0.00    -0.206 F 
ATOM     95  C   UNL A   1      50.161  26.348  34.640  1.00  0.00     0.060 A 
BRANCH  95  96
ATOM     96  S   UNL A   1      51.754  26.013  35.424  1.00  0.00     0.124 S 
ATOM     97  O   UNL A   1      51.486  26.389  36.809  1.00  0.00    -0.237 OA
ATOM     98  O   UNL A   1      51.928  24.584  35.177  1.00  0.00    -0.237 OA
ATOM     99  O   UNL A   1      52.678  26.885  34.706  1.00  0.00    -0.744 OA
ENDBRANCH  95  96
ENDBRANCH  63  88
ENDBRANCH  37  38
ENDBRANCH  30  32
ENDBRANCH  29  30
ENDBRANCH  28  29
ENDBRANCH  27  28
ENDBRANCH  26  27
ENDBRANCH   1  26
TORSDOF 21
ENDMDL
MODEL 3
REMARK VINA RESULT:     -10.1      4.477      7.056
REMARK SMILES Cc1cc2c(c(C)c1Br)C=C(C(=O)OCCOCCOCCOC(=O)c1ccc(-c3c4nc(c(-c5c(F)cc(S(=O)(=O)[O-])cc5F)c5ccc([nH]5)c(-c5c(F)cc(S(=O)(=O)[O-])cc5F)c5nc(c(-c6c(F)cc(S(=O)(=O)[O-])cc6F)c6ccc3[nH]6)C=C5)C=C4)cc1)[C@@H](C(F)(F)F)O2
REMARK SMILES IDX 19 1 18 2 17 3 16 4 15 5 14 6 12 7 13 8 11 9 1 10 2 11 3 12
REMARK SMILES IDX 8 13 4 14 6 15 9 16 5 17 97 18 7 19 10 20 92 21 93 22 94 23
REMARK SMILES IDX 95 24 96 25 20 26 21 27 22 28 23 29 24 30 25 31 26 32 27 33
REMARK SMILES IDX 91 34 28 35 90 36 29 37 30 38 31 39 84 40 32 41 89 42 83 43
REMARK SMILES IDX 85 44 33 45 88 46 82 47 81 48 34 50 68 51 47 52 67 53 48 54
REMARK SMILES IDX 51 55 66 56 86 57 49 58 50 59 65 61 87 62 52 63 35 64 36 65
REMARK SMILES IDX 45 66 37 67 38 68 44 69 46 70 39 71 40 72 41 73 42 74 43 75
REMARK SMILES IDX 69 76 70 77 79 78 71 79 72 80 78 81 80 82 73 83 74 84 75 85
REMARK SMILES IDX 76 86 77 87 53 88 54 89 63 90 55 91 56 92 62 93 64 94 57 95
REMARK SMILES IDX 58 96 59 97 60 98 61 99
REMARK H PARENT 85 49 51 60
REMARK Flexibility Score: inf
ROOT
ATOM      1  C   UNL A   1      33.616  34.882  28.832  1.00  0.00     0.188 C 
ENDROOT
BRANCH   1   2
ATOM      2  C   UNL A   1      33.145  35.504  30.166  1.00  0.00     0.188 C 
BRANCH   2   3
ATOM      3  O   UNL A   1      33.542  34.757  31.293  1.00  0.00    -0.376 OA
BRANCH   3   4
ATOM      4  C   UNL A   1      34.913  34.606  31.606  1.00  0.00     0.202 C 
BRANCH   4   5
ATOM      5  C   UNL A   1      35.848  33.616  30.886  1.00  0.00     0.261 C 
BRANCH   5   6
ATOM      6  O   UNL A   1      37.012  33.181  31.594  1.00  0.00    -0.460 OA
BRANCH   6   7
ATOM      7  C   UNL A   1      36.861  32.117  32.412  1.00  0.00     0.338 C 
ATOM      8  O   UNL A   1      35.907  31.358  32.453  1.00  0.00    -0.246 OA
BRANCH   7   9
ATOM      9  C   UNL A   1      38.101  31.942  33.196  1.00  0.00     0.087 C 
ATOM     10  C   UNL A   1      43.115  29.947  36.760  1.00  0.00     0.046 C 
ATOM     11  C   UNL A   1      42.072  30.121  35.688  1.00  0.00    -0.033 A 
ATOM     12  C   UNL A   1      41.430  31.362  35.603  1.00  0.00     0.051 A 
ATOM     13  C   UNL A   1      41.656  29.082  34.829  1.00  0.00     0.024 A 
ATOM     14  C   UNL A   1      40.366  31.564  34.726  1.00  0.00     0.128 A 
ATOM     15  C   UNL A   1      40.614  29.286  33.890  1.00  0.00    -0.026 A 
ATOM     16  Br  UNL A   1      42.490  27.367  35.000  1.00  0.00    -0.050 Br
ATOM     17  C   UNL A   1      39.927  30.528  33.894  1.00  0.00     0.021 A 
ATOM     18  O   UNL A   1      39.819  32.813  34.770  1.00  0.00    -0.475 OA
ATOM     19  C   UNL A   1      40.201  28.217  32.900  1.00  0.00     0.046 C 
ATOM     20  C   UNL A   1      38.718  30.758  33.102  1.00  0.00     0.027 C 
ATOM     21  C   UNL A   1      38.611  33.090  34.019  1.00  0.00     0.316 C 
BRANCH  21  22
ATOM     22  C   UNL A   1      37.557  33.634  34.995  1.00  0.00     0.430 C 
ATOM     23  F   UNL A   1      36.782  34.578  34.404  1.00  0.00    -0.167 F 
ATOM     24  F   UNL A   1      36.716  32.663  35.424  1.00  0.00    -0.167 F 
ATOM     25  F   UNL A   1      38.114  34.198  36.089  1.00  0.00    -0.167 F 
ENDBRANCH  21  22
ENDBRANCH   7   9
ENDBRANCH   6   7
ENDBRANCH   5   6
ENDBRANCH   4   5
ENDBRANCH   3   4
ENDBRANCH   2   3
ENDBRANCH   1   2
BRANCH   1  26
ATOM     26  O   UNL A   1      32.661  34.299  27.952  1.00  0.00    -0.376 OA
BRANCH  26  27
ATOM     27  C   UNL A   1      32.788  32.920  27.614  1.00  0.00     0.202 C 
BRANCH  27  28
ATOM     28  C   UNL A   1      34.160  32.239  27.724  1.00  0.00     0.261 C 
BRANCH  28  29
ATOM     29  O   UNL A   1      34.202  31.108  28.610  1.00  0.00    -0.460 OA
BRANCH  29  30
ATOM     30  C   UNL A   1      34.660  29.955  28.058  1.00  0.00     0.338 C 
ATOM     31  O   UNL A   1      34.068  29.219  27.288  1.00  0.00    -0.246 OA
BRANCH  30  32
ATOM     32  C   UNL A   1      36.093  29.797  28.377  1.00  0.00     0.060 A 
ATOM     33  C   UNL A   1      37.026  29.985  27.347  1.00  0.00     0.016 A 
ATOM     34  C   UNL A   1      36.513  29.433  29.656  1.00  0.00     0.016 A 
ATOM     35  C   UNL A   1      38.386  29.804  27.595  1.00  0.00     0.010 A 
ATOM     36  C   UNL A   1      37.876  29.223  29.896  1.00  0.00     0.010 A 
ATOM     37  C   UNL A   1      38.815  29.389  28.863  1.00  0.00    -0.014 A 
BRANCH  37  38
ATOM     38  C   UNL A   1      40.227  28.984  29.058  1.00  0.00     0.031 A 
ATOM     39  C   UNL A   1      41.184  29.973  29.664  1.00  0.00     0.074 A 
ATOM     40  C   UNL A   1      40.641  27.744  28.740  1.00  0.00     0.049 A 
ATOM     41  N   UNL A   1      42.459  29.840  29.917  1.00  0.00    -0.248 NA
ATOM     42  C   UNL A   1      40.627  31.283  30.039  1.00  0.00     0.031 C 
ATOM     43  C   UNL A   1      39.795  26.683  28.194  1.00  0.00     0.029 A 
ATOM     44  N   UNL A   1      41.885  27.169  28.831  1.00  0.00    -0.354 N 
ATOM     45  C   UNL A   1      42.854  31.039  30.498  1.00  0.00     0.074 A 
ATOM     46  C   UNL A   1      41.693  31.902  30.526  1.00  0.00     0.031 C 
ATOM     47  C   UNL A   1      40.547  25.585  27.996  1.00  0.00     0.029 A 
ATOM     48  C   UNL A   1      41.930  25.872  28.374  1.00  0.00     0.049 A 
ATOM     49  H   UNL A   1      42.670  27.640  29.190  1.00  0.00     0.167 HD
ATOM     50  C   UNL A   1      44.072  31.384  30.979  1.00  0.00     0.037 A 
ATOM     51  C   UNL A   1      42.972  25.025  28.262  1.00  0.00     0.037 A 
ATOM     52  C   UNL A   1      45.229  30.533  30.933  1.00  0.00     0.049 A 
ATOM     53  C   UNL A   1      44.343  25.473  28.705  1.00  0.00     0.074 A 
ATOM     54  C   UNL A   1      46.513  30.804  31.374  1.00  0.00     0.029 A 
ATOM     55  N   UNL A   1      45.248  29.249  30.410  1.00  0.00    -0.354 N 
ATOM     56  N   UNL A   1      44.702  26.609  29.254  1.00  0.00    -0.248 NA
ATOM     57  C   UNL A   1      45.452  24.525  28.511  1.00  0.00     0.031 C 
ATOM     58  C   UNL A   1      47.317  29.699  31.081  1.00  0.00     0.029 A 
ATOM     59  C   UNL A   1      46.524  28.720  30.502  1.00  0.00     0.049 A 
ATOM     60  H   UNL A   1      44.469  28.782  30.031  1.00  0.00     0.167 HD
ATOM     61  C   UNL A   1      46.067  26.500  29.500  1.00  0.00     0.074 A 
ATOM     62  C   UNL A   1      46.472  25.187  29.042  1.00  0.00     0.031 C 
ATOM     63  C   UNL A   1      46.908  27.404  30.058  1.00  0.00     0.037 A 
BRANCH  50  64
ATOM     64  C   UNL A   1      44.217  32.746  31.595  1.00  0.00     0.058 A 
ATOM     65  C   UNL A   1      43.995  32.954  32.965  1.00  0.00     0.135 A 
ATOM     66  C   UNL A   1      44.637  33.841  30.822  1.00  0.00     0.135 A 
ATOM     67  F   UNL A   1      43.572  31.945  33.743  1.00  0.00    -0.206 F 
ATOM     68  C   UNL A   1      44.177  34.204  33.548  1.00  0.00     0.059 A 
ATOM     69  C   UNL A   1      44.847  35.094  31.389  1.00  0.00     0.059 A 
ATOM     70  F   UNL A   1      44.856  33.695  29.507  1.00  0.00    -0.206 F 
ATOM     71  C   UNL A   1      44.608  35.267  32.751  1.00  0.00     0.060 A 
BRANCH  71  72
ATOM     72  S   UNL A   1      44.864  36.874  33.532  1.00  0.00     0.124 S 
ATOM     73  O   UNL A   1      45.953  37.419  32.728  1.00  0.00    -0.237 OA
ATOM     74  O   UNL A   1      43.564  37.514  33.355  1.00  0.00    -0.237 OA
ATOM     75  O   UNL A   1      45.210  36.534  34.908  1.00  0.00    -0.744 OA
ENDBRANCH  71  72
ENDBRANCH  50  64
BRANCH  51  76
ATOM     76  C   UNL A   1      42.768  23.659  27.709  1.00  0.00     0.058 A 
ATOM     77  C   UNL A   1      42.589  22.556  28.557  1.00  0.00     0.135 A 
ATOM     78  C   UNL A   1      42.761  23.426  26.325  1.00  0.00     0.135 A 
ATOM     79  F   UNL A   1      42.601  22.727  29.888  1.00  0.00    -0.206 F 
ATOM     80  C   UNL A   1      42.424  21.269  28.056  1.00  0.00     0.059 A 
ATOM     81  C   UNL A   1      42.574  22.152  25.798  1.00  0.00     0.059 A 
ATOM     82  F   UNL A   1      42.922  24.448  25.470  1.00  0.00    -0.206 F 
ATOM     83  C   UNL A   1      42.415  21.077  26.673  1.00  0.00     0.060 A 
BRANCH  83  84
ATOM     84  S   UNL A   1      42.161  19.408  26.033  1.00  0.00     0.124 S 
ATOM     85  O   UNL A   1      43.006  19.417  24.845  1.00  0.00    -0.237 OA
ATOM     86  O   UNL A   1      42.627  18.582  27.143  1.00  0.00    -0.237 OA
ATOM     87  O   UNL A   1      40.723  19.358  25.786  1.00  0.00    -0.744 OA
ENDBRANCH  83  84
ENDBRANCH  51  76
BRANCH  63  88
ATOM     88  C   UNL A   1      48.348  27.009  30.248  1.00  0.00     0.058 A 
ATOM     89  C   UNL A   1      49.319  27.279  29.273  1.00  0.00     0.135 A 
ATOM     90  C   UNL A   1      48.775  26.452  31.465  1.00  0.00     0.135 A 
ATOM     91  F   UNL A   1      48.962  27.805  28.090  1.00  0.00    -0.206 F 
ATOM     92  C   UNL A   1      50.665  27.009  29.497  1.00  0.00     0.059 A 
ATOM     93  C   UNL A   1      50.119  26.196  31.719  1.00  0.00     0.059 A 
ATOM     94  F   UNL A   1      47.886  26.186  32.434  1.00  0.00    -0.206 F 
ATOM     95  C   UNL A   1      51.057  26.476  30.726  1.00  0.00     0.060 A 
BRANCH  95  96
ATOM     96  S   UNL A   1      52.816  26.199  31.028  1.00  0.00     0.124 S 
ATOM     97  O   UNL A   1      52.806  24.869  31.629  1.00  0.00    -0.237 OA
ATOM     98  O   UNL A   1      53.378  26.281  29.682  1.00  0.00    -0.237 OA
ATOM     99  O   UNL A   1      53.185  27.290  31.924  1.00  0.00    -0.744 OA
ENDBRANCH  95  96
ENDBRANCH  63  88
ENDBRANCH  37  38
ENDBRANCH  30  32
ENDBRANCH  29  30
ENDBRANCH  28  29
ENDBRANCH  27  28
ENDBRANCH  26  27
ENDBRANCH   1  26
TORSDOF 21
ENDMDL
