MODEL 1
REMARK VINA RESULT:     -11.0      0.000      0.000
REMARK SMILES O=C(Nc1ccc(O)cc1C(=O)OCCOCCOCCOC(=O)c1ccc(-c2c3nc(c(-c4c(F)cc(S(=O)(=O)[O-])cc4F)c4ccc([nH]4)c(-c4c(F)cc(S(=O)(=O)[O-])cc4F)c4nc(c(-c5c(F)cc(S(=O)(=O)[O-])cc5F)c5ccc2[nH]5)C=C4)C=C3)cc1)c1ccc(Br)nc1
REMARK SMILES IDX 18 1 17 2 16 3 15 4 14 5 13 6 11 7 12 8 10 9 4 10 5 11 6 12
REMARK SMILES IDX 9 13 7 14 3 15 1 16 2 17 91 19 92 20 97 21 93 22 96 23 94 24
REMARK SMILES IDX 95 25 8 26 19 28 20 29 21 30 22 31 23 32 24 33 25 34 26 35
REMARK SMILES IDX 90 36 27 37 89 38 28 39 29 40 30 41 83 42 31 43 88 44 82 45
REMARK SMILES IDX 84 46 32 47 87 48 81 49 80 50 33 52 67 53 46 54 66 55 47 56
REMARK SMILES IDX 50 57 65 58 85 59 48 60 49 61 64 63 86 64 51 65 34 66 35 67
REMARK SMILES IDX 44 68 36 69 37 70 43 71 45 72 38 73 39 74 40 75 41 76 42 77
REMARK SMILES IDX 68 78 69 79 78 80 70 81 71 82 77 83 79 84 72 85 73 86 74 87
REMARK SMILES IDX 75 88 76 89 52 90 53 91 62 92 54 93 55 94 61 95 63 96 56 97
REMARK SMILES IDX 57 98 58 99 59 100 60 101
REMARK H PARENT 3 18 8 27 84 51 50 62
REMARK Flexibility Score: inf
ROOT
ATOM      1  C   UNL A   1      34.373  33.961  29.316  1.00  0.00     0.188 C 
ENDROOT
BRANCH   1   2
ATOM      2  C   UNL A   1      35.450  33.260  28.466  1.00  0.00     0.188 C 
BRANCH   2   3
ATOM      3  O   UNL A   1      35.041  32.232  27.569  1.00  0.00    -0.376 OA
BRANCH   3   4
ATOM      4  C   UNL A   1      33.689  31.778  27.604  1.00  0.00     0.202 C 
BRANCH   4   5
ATOM      5  C   UNL A   1      33.433  30.268  27.550  1.00  0.00     0.261 C 
BRANCH   5   6
ATOM      6  O   UNL A   1      32.287  29.933  26.743  1.00  0.00    -0.460 OA
BRANCH   6   7
ATOM      7  C   UNL A   1      31.926  28.628  26.780  1.00  0.00     0.340 C 
ATOM      8  O   UNL A   1      31.875  27.923  27.778  1.00  0.00    -0.246 OA
BRANCH   7   9
ATOM      9  C   UNL A   1      31.447  28.164  25.456  1.00  0.00     0.087 A 
ATOM     10  C   UNL A   1      30.800  26.934  25.212  1.00  0.00     0.056 A 
ATOM     11  C   UNL A   1      30.260  26.729  23.932  1.00  0.00     0.031 A 
ATOM     12  C   UNL A   1      30.521  27.609  22.878  1.00  0.00     0.048 A 
ATOM     13  C   UNL A   1      31.704  29.049  24.394  1.00  0.00     0.064 A 
ATOM     14  C   UNL A   1      31.280  28.741  23.110  1.00  0.00     0.116 A 
BRANCH  10  15
ATOM     15  N   UNL A   1      30.703  25.953  26.229  1.00  0.00    -0.321 N 
ATOM     16  O   UNL A   1      30.945  23.945  27.252  1.00  0.00    -0.269 OA
ATOM     17  C   UNL A   1      31.350  24.746  26.411  1.00  0.00     0.257 C 
ATOM     18  H   UNL A   1      30.055  26.171  26.936  1.00  0.00     0.170 HD
BRANCH  17  19
ATOM     19  C   UNL A   1      32.558  24.386  25.649  1.00  0.00     0.058 A 
ATOM     20  C   UNL A   1      33.748  25.084  25.857  1.00  0.00     0.018 A 
ATOM     21  C   UNL A   1      32.555  23.355  24.718  1.00  0.00     0.126 A 
ATOM     22  C   UNL A   1      34.903  24.673  25.192  1.00  0.00     0.037 A 
ATOM     23  N   UNL A   1      33.667  22.928  24.072  1.00  0.00    -0.249 NA
ATOM     24  C   UNL A   1      34.818  23.587  24.328  1.00  0.00     0.106 A 
ATOM     25  Br  UNL A   1      36.398  22.967  23.483  1.00  0.00    -0.029 Br
ENDBRANCH  17  19
ENDBRANCH  10  15
BRANCH  14  26
ATOM     26  O   UNL A   1      31.622  29.590  22.107  1.00  0.00    -0.508 OA
ATOM     27  H   UNL A   1      32.113  29.275  21.373  1.00  0.00     0.293 HD
ENDBRANCH  14  26
ENDBRANCH   7   9
ENDBRANCH   6   7
ENDBRANCH   5   6
ENDBRANCH   4   5
ENDBRANCH   3   4
ENDBRANCH   2   3
ENDBRANCH   1   2
BRANCH   1  28
ATOM     28  O   UNL A   1      34.090  33.337  30.546  1.00  0.00    -0.376 OA
BRANCH  28  29
ATOM     29  C   UNL A   1      34.995  33.457  31.631  1.00  0.00     0.202 C 
BRANCH  29  30
ATOM     30  C   UNL A   1      35.678  32.272  32.343  1.00  0.00     0.261 C 
BRANCH  30  31
ATOM     31  O   UNL A   1      36.914  31.788  31.819  1.00  0.00    -0.460 OA
BRANCH  31  32
ATOM     32  C   UNL A   1      36.842  30.787  30.912  1.00  0.00     0.338 C 
ATOM     33  O   UNL A   1      35.834  30.293  30.444  1.00  0.00    -0.246 OA
BRANCH  32  34
ATOM     34  C   UNL A   1      38.216  30.521  30.438  1.00  0.00     0.060 A 
ATOM     35  C   UNL A   1      38.443  30.391  29.063  1.00  0.00     0.016 A 
ATOM     36  C   UNL A   1      39.271  30.410  31.348  1.00  0.00     0.016 A 
ATOM     37  C   UNL A   1      39.731  30.124  28.595  1.00  0.00     0.010 A 
ATOM     38  C   UNL A   1      40.555  30.121  30.878  1.00  0.00     0.010 A 
ATOM     39  C   UNL A   1      40.785  29.951  29.502  1.00  0.00    -0.014 A 
BRANCH  39  40
ATOM     40  C   UNL A   1      42.088  29.426  29.031  1.00  0.00     0.031 A 
ATOM     41  C   UNL A   1      43.244  30.380  28.908  1.00  0.00     0.074 A 
ATOM     42  C   UNL A   1      42.245  28.127  28.720  1.00  0.00     0.049 A 
ATOM     43  N   UNL A   1      44.458  30.161  28.477  1.00  0.00    -0.248 NA
ATOM     44  C   UNL A   1      42.990  31.769  29.325  1.00  0.00     0.031 C 
ATOM     45  C   UNL A   1      41.207  27.103  28.821  1.00  0.00     0.029 A 
ATOM     46  N   UNL A   1      43.339  27.454  28.239  1.00  0.00    -0.354 N 
ATOM     47  C   UNL A   1      45.117  31.380  28.577  1.00  0.00     0.074 A 
ATOM     48  C   UNL A   1      44.158  32.342  29.076  1.00  0.00     0.031 C 
ATOM     49  C   UNL A   1      41.709  25.932  28.389  1.00  0.00     0.029 A 
ATOM     50  C   UNL A   1      43.094  26.131  27.962  1.00  0.00     0.049 A 
ATOM     51  H   UNL A   1      44.217  27.879  28.104  1.00  0.00     0.167 HD
ATOM     52  C   UNL A   1      46.408  31.671  28.290  1.00  0.00     0.037 A 
ATOM     53  C   UNL A   1      43.889  25.196  27.404  1.00  0.00     0.037 A 
ATOM     54  C   UNL A   1      47.353  30.719  27.770  1.00  0.00     0.049 A 
ATOM     55  C   UNL A   1      45.304  25.555  27.028  1.00  0.00     0.074 A 
ATOM     56  C   UNL A   1      48.683  30.916  27.442  1.00  0.00     0.029 A 
ATOM     57  N   UNL A   1      47.064  29.391  27.492  1.00  0.00    -0.354 N 
ATOM     58  N   UNL A   1      45.923  26.705  27.150  1.00  0.00    -0.248 NA
ATOM     59  C   UNL A   1      46.129  24.488  26.443  1.00  0.00     0.031 C 
ATOM     60  C   UNL A   1      49.188  29.716  26.929  1.00  0.00     0.029 A 
ATOM     61  C   UNL A   1      48.185  28.759  26.979  1.00  0.00     0.049 A 
ATOM     62  H   UNL A   1      46.192  28.961  27.638  1.00  0.00     0.167 HD
ATOM     63  C   UNL A   1      47.215  26.495  26.677  1.00  0.00     0.074 A 
ATOM     64  C   UNL A   1      47.291  25.105  26.276  1.00  0.00     0.031 C 
ATOM     65  C   UNL A   1      48.245  27.373  26.586  1.00  0.00     0.037 A 
BRANCH  52  66
ATOM     66  C   UNL A   1      46.854  33.089  28.511  1.00  0.00     0.058 A 
ATOM     67  C   UNL A   1      46.817  34.039  27.478  1.00  0.00     0.135 A 
ATOM     68  C   UNL A   1      47.332  33.501  29.765  1.00  0.00     0.135 A 
ATOM     69  F   UNL A   1      46.388  33.691  26.254  1.00  0.00    -0.206 F 
ATOM     70  C   UNL A   1      47.271  35.339  27.670  1.00  0.00     0.059 A 
ATOM     71  C   UNL A   1      47.769  34.803  29.986  1.00  0.00     0.059 A 
ATOM     72  F   UNL A   1      47.392  32.631  30.785  1.00  0.00    -0.206 F 
ATOM     73  C   UNL A   1      47.753  35.710  28.927  1.00  0.00     0.060 A 
BRANCH  73  74
ATOM     74  S   UNL A   1      48.362  37.393  29.157  1.00  0.00     0.124 S 
ATOM     75  O   UNL A   1      48.802  37.354  30.549  1.00  0.00    -0.237 OA
ATOM     76  O   UNL A   1      49.424  37.483  28.160  1.00  0.00    -0.237 OA
ATOM     77  O   UNL A   1      47.188  38.218  28.893  1.00  0.00    -0.744 OA
ENDBRANCH  73  74
ENDBRANCH  52  66
BRANCH  53  78
ATOM     78  C   UNL A   1      43.357  23.831  27.155  1.00  0.00     0.058 A 
ATOM     79  C   UNL A   1      42.961  23.427  25.872  1.00  0.00     0.135 A 
ATOM     80  C   UNL A   1      43.250  22.897  28.197  1.00  0.00     0.135 A 
ATOM     81  F   UNL A   1      43.031  24.289  24.847  1.00  0.00    -0.206 F 
ATOM     82  C   UNL A   1      42.472  22.147  25.630  1.00  0.00     0.059 A 
ATOM     83  C   UNL A   1      42.786  21.604  27.977  1.00  0.00     0.059 A 
ATOM     84  F   UNL A   1      43.624  23.233  29.442  1.00  0.00    -0.206 F 
ATOM     85  C   UNL A   1      42.392  21.240  26.690  1.00  0.00     0.060 A 
BRANCH  85  86
ATOM     86  S   UNL A   1      41.816  19.561  26.354  1.00  0.00     0.124 S 
ATOM     87  O   UNL A   1      42.256  18.856  27.552  1.00  0.00    -0.237 OA
ATOM     88  O   UNL A   1      40.374  19.752  26.219  1.00  0.00    -0.237 OA
ATOM     89  O   UNL A   1      42.512  19.208  25.121  1.00  0.00    -0.744 OA
ENDBRANCH  85  86
ENDBRANCH  53  78
BRANCH  65  90
ATOM     90  C   UNL A   1      49.554  26.856  26.057  1.00  0.00     0.058 A 
ATOM     91  C   UNL A   1      49.915  27.001  24.709  1.00  0.00     0.135 A 
ATOM     92  C   UNL A   1      50.486  26.263  26.925  1.00  0.00     0.135 A 
ATOM     93  F   UNL A   1      49.058  27.557  23.837  1.00  0.00    -0.206 F 
ATOM     94  C   UNL A   1      51.145  26.560  24.234  1.00  0.00     0.059 A 
ATOM     95  C   UNL A   1      51.733  25.836  26.476  1.00  0.00     0.059 A 
ATOM     96  F   UNL A   1      50.197  26.110  28.227  1.00  0.00    -0.206 F 
ATOM     97  C   UNL A   1      52.049  25.979  25.127  1.00  0.00     0.060 A 
BRANCH  97  98
ATOM     98  S   UNL A   1      53.659  25.444  24.508  1.00  0.00     0.124 S 
ATOM     99  O   UNL A   1      54.569  26.209  25.355  1.00  0.00    -0.237 OA
ATOM    100  O   UNL A   1      53.627  24.005  24.751  1.00  0.00    -0.237 OA
ATOM    101  O   UNL A   1      53.630  25.836  23.102  1.00  0.00    -0.744 OA
ENDBRANCH  97  98
ENDBRANCH  65  90
ENDBRANCH  39  40
ENDBRANCH  32  34
ENDBRANCH  31  32
ENDBRANCH  30  31
ENDBRANCH  29  30
ENDBRANCH  28  29
ENDBRANCH   1  28
TORSDOF 23
ENDMDL
MODEL 2
REMARK VINA RESULT:     -10.5      6.259     11.859
REMARK SMILES O=C(Nc1ccc(O)cc1C(=O)OCCOCCOCCOC(=O)c1ccc(-c2c3nc(c(-c4c(F)cc(S(=O)(=O)[O-])cc4F)c4ccc([nH]4)c(-c4c(F)cc(S(=O)(=O)[O-])cc4F)c4nc(c(-c5c(F)cc(S(=O)(=O)[O-])cc5F)c5ccc2[nH]5)C=C4)C=C3)cc1)c1ccc(Br)nc1
REMARK SMILES IDX 18 1 17 2 16 3 15 4 14 5 13 6 11 7 12 8 10 9 4 10 5 11 6 12
REMARK SMILES IDX 9 13 7 14 3 15 1 16 2 17 91 19 92 20 97 21 93 22 96 23 94 24
REMARK SMILES IDX 95 25 8 26 19 28 20 29 21 30 22 31 23 32 24 33 25 34 26 35
REMARK SMILES IDX 90 36 27 37 89 38 28 39 29 40 30 41 83 42 31 43 88 44 82 45
REMARK SMILES IDX 84 46 32 47 87 48 81 49 80 50 33 52 67 53 46 54 66 55 47 56
REMARK SMILES IDX 50 57 65 58 85 59 48 60 49 61 64 63 86 64 51 65 34 66 35 67
REMARK SMILES IDX 44 68 36 69 37 70 43 71 45 72 38 73 39 74 40 75 41 76 42 77
REMARK SMILES IDX 68 78 69 79 78 80 70 81 71 82 77 83 79 84 72 85 73 86 74 87
REMARK SMILES IDX 75 88 76 89 52 90 53 91 62 92 54 93 55 94 61 95 63 96 56 97
REMARK SMILES IDX 57 98 58 99 59 100 60 101
REMARK H PARENT 3 18 8 27 84 51 50 62
REMARK Flexibility Score: inf
ROOT
ATOM      1  C   UNL A   1      38.193  23.735  26.120  1.00  0.00     0.188 C 
ENDROOT
BRANCH   1   2
ATOM      2  C   UNL A   1      37.029  23.324  25.197  1.00  0.00     0.188 C 
BRANCH   2   3
ATOM      3  O   UNL A   1      35.792  22.948  25.794  1.00  0.00    -0.376 OA
BRANCH   3   4
ATOM      4  C   UNL A   1      35.518  21.565  26.009  1.00  0.00     0.202 C 
BRANCH   4   5
ATOM      5  C   UNL A   1      34.666  20.828  24.969  1.00  0.00     0.261 C 
BRANCH   5   6
ATOM      6  O   UNL A   1      34.033  21.729  24.040  1.00  0.00    -0.460 OA
BRANCH   6   7
ATOM      7  C   UNL A   1      32.700  21.545  23.885  1.00  0.00     0.340 C 
ATOM      8  O   UNL A   1      32.163  20.586  23.350  1.00  0.00    -0.246 OA
BRANCH   7   9
ATOM      9  C   UNL A   1      31.927  22.599  24.584  1.00  0.00     0.087 A 
ATOM     10  C   UNL A   1      31.836  23.947  24.175  1.00  0.00     0.056 A 
ATOM     11  C   UNL A   1      30.925  24.770  24.853  1.00  0.00     0.031 A 
ATOM     12  C   UNL A   1      30.275  24.342  26.015  1.00  0.00     0.048 A 
ATOM     13  C   UNL A   1      31.269  22.171  25.751  1.00  0.00     0.064 A 
ATOM     14  C   UNL A   1      30.490  23.057  26.478  1.00  0.00     0.116 A 
BRANCH  10  15
ATOM     15  N   UNL A   1      32.640  24.436  23.116  1.00  0.00    -0.321 N 
ATOM     16  O   UNL A   1      33.658  25.944  21.764  1.00  0.00    -0.269 OA
ATOM     17  C   UNL A   1      33.175  25.685  22.865  1.00  0.00     0.257 C 
ATOM     18  H   UNL A   1      32.858  23.762  22.434  1.00  0.00     0.170 HD
BRANCH  17  19
ATOM     19  C   UNL A   1      33.230  26.732  23.900  1.00  0.00     0.058 A 
ATOM     20  C   UNL A   1      33.912  26.499  25.094  1.00  0.00     0.018 A 
ATOM     21  C   UNL A   1      32.618  27.967  23.723  1.00  0.00     0.126 A 
ATOM     22  C   UNL A   1      34.027  27.532  26.024  1.00  0.00     0.037 A 
ATOM     23  N   UNL A   1      32.730  28.990  24.604  1.00  0.00    -0.249 NA
ATOM     24  C   UNL A   1      33.438  28.756  25.730  1.00  0.00     0.106 A 
ATOM     25  Br  UNL A   1      33.660  30.192  26.949  1.00  0.00    -0.029 Br
ENDBRANCH  17  19
ENDBRANCH  10  15
BRANCH  14  26
ATOM     26  O   UNL A   1      29.940  22.616  27.640  1.00  0.00    -0.508 OA
ATOM     27  H   UNL A   1      30.033  21.717  27.890  1.00  0.00     0.293 HD
ENDBRANCH  14  26
ENDBRANCH   7   9
ENDBRANCH   6   7
ENDBRANCH   5   6
ENDBRANCH   4   5
ENDBRANCH   3   4
ENDBRANCH   2   3
ENDBRANCH   1   2
BRANCH   1  28
ATOM     28  O   UNL A   1      38.820  22.670  26.793  1.00  0.00    -0.376 OA
BRANCH  28  29
ATOM     29  C   UNL A   1      39.805  21.892  26.133  1.00  0.00     0.202 C 
BRANCH  29  30
ATOM     30  C   UNL A   1      41.323  22.152  26.196  1.00  0.00     0.261 C 
BRANCH  30  31
ATOM     31  O   UNL A   1      41.799  23.174  27.072  1.00  0.00    -0.460 OA
BRANCH  31  32
ATOM     32  C   UNL A   1      42.185  24.337  26.500  1.00  0.00     0.338 C 
ATOM     33  O   UNL A   1      42.613  24.493  25.372  1.00  0.00    -0.246 OA
BRANCH  32  34
ATOM     34  C   UNL A   1      41.816  25.428  27.425  1.00  0.00     0.060 A 
ATOM     35  C   UNL A   1      42.588  26.595  27.436  1.00  0.00     0.016 A 
ATOM     36  C   UNL A   1      40.708  25.299  28.269  1.00  0.00     0.016 A 
ATOM     37  C   UNL A   1      42.267  27.632  28.314  1.00  0.00     0.010 A 
ATOM     38  C   UNL A   1      40.402  26.329  29.160  1.00  0.00     0.010 A 
ATOM     39  C   UNL A   1      41.195  27.489  29.205  1.00  0.00    -0.014 A 
BRANCH  39  40
ATOM     40  C   UNL A   1      41.006  28.471  30.299  1.00  0.00     0.031 A 
ATOM     41  C   UNL A   1      41.867  28.354  31.526  1.00  0.00     0.074 A 
ATOM     42  C   UNL A   1      40.089  29.450  30.205  1.00  0.00     0.049 A 
ATOM     43  N   UNL A   1      41.852  29.066  32.621  1.00  0.00    -0.248 NA
ATOM     44  C   UNL A   1      42.880  27.286  31.512  1.00  0.00     0.031 C 
ATOM     45  C   UNL A   1      39.212  29.680  29.059  1.00  0.00     0.029 A 
ATOM     46  N   UNL A   1      39.734  30.424  31.103  1.00  0.00    -0.354 N 
ATOM     47  C   UNL A   1      42.855  28.539  33.426  1.00  0.00     0.074 A 
ATOM     48  C   UNL A   1      43.436  27.426  32.706  1.00  0.00     0.031 C 
ATOM     49  C   UNL A   1      38.401  30.717  29.333  1.00  0.00     0.029 A 
ATOM     50  C   UNL A   1      38.686  31.207  30.681  1.00  0.00     0.049 A 
ATOM     51  H   UNL A   1      40.187  30.551  31.968  1.00  0.00     0.167 HD
ATOM     52  C   UNL A   1      43.264  28.951  34.650  1.00  0.00     0.037 A 
ATOM     53  C   UNL A   1      38.020  32.189  31.321  1.00  0.00     0.037 A 
ATOM     54  C   UNL A   1      42.669  30.042  35.374  1.00  0.00     0.049 A 
ATOM     55  C   UNL A   1      38.445  32.590  32.710  1.00  0.00     0.074 A 
ATOM     56  C   UNL A   1      43.007  30.534  36.622  1.00  0.00     0.029 A 
ATOM     57  N   UNL A   1      41.602  30.803  34.918  1.00  0.00    -0.354 N 
ATOM     58  N   UNL A   1      39.411  32.100  33.451  1.00  0.00    -0.248 NA
ATOM     59  C   UNL A   1      37.693  33.680  33.348  1.00  0.00     0.031 C 
ATOM     60  C   UNL A   1      42.119  31.570  36.937  1.00  0.00     0.029 A 
ATOM     61  C   UNL A   1      41.256  31.751  35.867  1.00  0.00     0.049 A 
ATOM     62  H   UNL A   1      41.156  30.687  34.049  1.00  0.00     0.167 HD
ATOM     63  C   UNL A   1      39.396  32.835  34.632  1.00  0.00     0.074 A 
ATOM     64  C   UNL A   1      38.332  33.810  34.503  1.00  0.00     0.031 C 
ATOM     65  C   UNL A   1      40.194  32.716  35.723  1.00  0.00     0.037 A 
BRANCH  52  66
ATOM     66  C   UNL A   1      44.394  28.192  35.283  1.00  0.00     0.058 A 
ATOM     67  C   UNL A   1      44.161  27.069  36.094  1.00  0.00     0.135 A 
ATOM     68  C   UNL A   1      45.725  28.594  35.086  1.00  0.00     0.135 A 
ATOM     69  F   UNL A   1      42.906  26.655  36.330  1.00  0.00    -0.206 F 
ATOM     70  C   UNL A   1      45.204  26.393  36.717  1.00  0.00     0.059 A 
ATOM     71  C   UNL A   1      46.786  27.918  35.680  1.00  0.00     0.059 A 
ATOM     72  F   UNL A   1      46.003  29.663  34.324  1.00  0.00    -0.206 F 
ATOM     73  C   UNL A   1      46.514  26.830  36.509  1.00  0.00     0.060 A 
BRANCH  73  74
ATOM     74  S   UNL A   1      47.858  25.959  37.342  1.00  0.00     0.124 S 
ATOM     75  O   UNL A   1      47.335  24.596  37.388  1.00  0.00    -0.237 OA
ATOM     76  O   UNL A   1      48.982  26.175  36.436  1.00  0.00    -0.237 OA
ATOM     77  O   UNL A   1      47.956  26.638  38.629  1.00  0.00    -0.744 OA
ENDBRANCH  73  74
ENDBRANCH  52  66
BRANCH  53  78
ATOM     78  C   UNL A   1      36.867  32.850  30.655  1.00  0.00     0.058 A 
ATOM     79  C   UNL A   1      37.055  33.919  29.767  1.00  0.00     0.135 A 
ATOM     80  C   UNL A   1      35.553  32.411  30.883  1.00  0.00     0.135 A 
ATOM     81  F   UNL A   1      38.291  34.382  29.528  1.00  0.00    -0.206 F 
ATOM     82  C   UNL A   1      35.980  34.534  29.132  1.00  0.00     0.059 A 
ATOM     83  C   UNL A   1      34.465  32.995  30.243  1.00  0.00     0.059 A 
ATOM     84  F   UNL A   1      35.322  31.386  31.719  1.00  0.00    -0.206 F 
ATOM     85  C   UNL A   1      34.688  34.062  29.374  1.00  0.00     0.060 A 
BRANCH  85  86
ATOM     86  S   UNL A   1      33.306  34.826  28.497  1.00  0.00     0.124 S 
ATOM     87  O   UNL A   1      32.528  35.377  29.600  1.00  0.00    -0.237 OA
ATOM     88  O   UNL A   1      33.983  35.799  27.645  1.00  0.00    -0.237 OA
ATOM     89  O   UNL A   1      32.696  33.704  27.791  1.00  0.00    -0.744 OA
ENDBRANCH  85  86
ENDBRANCH  53  78
BRANCH  65  90
ATOM     90  C   UNL A   1      39.969  33.677  36.857  1.00  0.00     0.058 A 
ATOM     91  C   UNL A   1      40.686  34.879  36.960  1.00  0.00     0.135 A 
ATOM     92  C   UNL A   1      38.980  33.420  37.820  1.00  0.00     0.135 A 
ATOM     93  F   UNL A   1      41.647  35.170  36.068  1.00  0.00    -0.206 F 
ATOM     94  C   UNL A   1      40.443  35.785  37.987  1.00  0.00     0.059 A 
ATOM     95  C   UNL A   1      38.703  34.323  38.843  1.00  0.00     0.059 A 
ATOM     96  F   UNL A   1      38.256  32.290  37.763  1.00  0.00    -0.206 F 
ATOM     97  C   UNL A   1      39.448  35.499  38.924  1.00  0.00     0.060 A 
BRANCH  97  98
ATOM     98  S   UNL A   1      39.114  36.698  40.231  1.00  0.00     0.124 S 
ATOM     99  O   UNL A   1      38.197  35.953  41.087  1.00  0.00    -0.237 OA
ATOM    100  O   UNL A   1      40.443  36.939  40.785  1.00  0.00    -0.237 OA
ATOM    101  O   UNL A   1      38.528  37.827  39.514  1.00  0.00    -0.744 OA
ENDBRANCH  97  98
ENDBRANCH  65  90
ENDBRANCH  39  40
ENDBRANCH  32  34
ENDBRANCH  31  32
ENDBRANCH  30  31
ENDBRANCH  29  30
ENDBRANCH  28  29
ENDBRANCH   1  28
TORSDOF 23
ENDMDL
MODEL 3
REMARK VINA RESULT:     -10.5      6.233     11.792
REMARK SMILES O=C(Nc1ccc(O)cc1C(=O)OCCOCCOCCOC(=O)c1ccc(-c2c3nc(c(-c4c(F)cc(S(=O)(=O)[O-])cc4F)c4ccc([nH]4)c(-c4c(F)cc(S(=O)(=O)[O-])cc4F)c4nc(c(-c5c(F)cc(S(=O)(=O)[O-])cc5F)c5ccc2[nH]5)C=C4)C=C3)cc1)c1ccc(Br)nc1
REMARK SMILES IDX 18 1 17 2 16 3 15 4 14 5 13 6 11 7 12 8 10 9 4 10 5 11 6 12
REMARK SMILES IDX 9 13 7 14 3 15 1 16 2 17 91 19 92 20 97 21 93 22 96 23 94 24
REMARK SMILES IDX 95 25 8 26 19 28 20 29 21 30 22 31 23 32 24 33 25 34 26 35
REMARK SMILES IDX 90 36 27 37 89 38 28 39 29 40 30 41 83 42 31 43 88 44 82 45
REMARK SMILES IDX 84 46 32 47 87 48 81 49 80 50 33 52 67 53 46 54 66 55 47 56
REMARK SMILES IDX 50 57 65 58 85 59 48 60 49 61 64 63 86 64 51 65 34 66 35 67
REMARK SMILES IDX 44 68 36 69 37 70 43 71 45 72 38 73 39 74 40 75 41 76 42 77
REMARK SMILES IDX 68 78 69 79 78 80 70 81 71 82 77 83 79 84 72 85 73 86 74 87
REMARK SMILES IDX 75 88 76 89 52 90 53 91 62 92 54 93 55 94 61 95 63 96 56 97
REMARK SMILES IDX 57 98 58 99 59 100 60 101
REMARK H PARENT 3 18 8 27 84 51 50 62
REMARK Flexibility Score: inf
ROOT
ATOM      1  C   UNL A   1      39.265  22.726  26.528  1.00  0.00     0.188 C 
ENDROOT
BRANCH   1   2
ATOM      2  C   UNL A   1      38.535  21.761  25.574  1.00  0.00     0.188 C 
BRANCH   2   3
ATOM      3  O   UNL A   1      37.134  21.570  25.747  1.00  0.00    -0.376 OA
BRANCH   3   4
ATOM      4  C   UNL A   1      36.227  22.485  25.133  1.00  0.00     0.202 C 
BRANCH   4   5
ATOM      5  C   UNL A   1      35.073  21.910  24.304  1.00  0.00     0.261 C 
BRANCH   5   6
ATOM      6  O   UNL A   1      34.428  22.911  23.493  1.00  0.00    -0.460 OA
BRANCH   6   7
ATOM      7  C   UNL A   1      33.079  22.955  23.609  1.00  0.00     0.340 C 
ATOM      8  O   UNL A   1      32.385  22.177  24.248  1.00  0.00    -0.246 OA
BRANCH   7   9
ATOM      9  C   UNL A   1      32.523  24.173  22.972  1.00  0.00     0.087 A 
ATOM     10  C   UNL A   1      31.590  25.048  23.567  1.00  0.00     0.056 A 
ATOM     11  C   UNL A   1      31.300  26.244  22.892  1.00  0.00     0.031 A 
ATOM     12  C   UNL A   1      31.755  26.479  21.590  1.00  0.00     0.048 A 
ATOM     13  C   UNL A   1      32.982  24.414  21.665  1.00  0.00     0.064 A 
ATOM     14  C   UNL A   1      32.556  25.538  20.972  1.00  0.00     0.116 A 
BRANCH  10  15
ATOM     15  N   UNL A   1      30.977  24.720  24.802  1.00  0.00    -0.321 N 
ATOM     16  O   UNL A   1      30.701  24.573  27.047  1.00  0.00    -0.269 OA
ATOM     17  C   UNL A   1      31.202  25.162  26.090  1.00  0.00     0.257 C 
ATOM     18  H   UNL A   1      30.257  24.054  24.726  1.00  0.00     0.170 HD
BRANCH  17  19
ATOM     19  C   UNL A   1      32.005  26.365  26.373  1.00  0.00     0.058 A 
ATOM     20  C   UNL A   1      31.405  27.484  26.950  1.00  0.00     0.018 A 
ATOM     21  C   UNL A   1      33.362  26.423  26.083  1.00  0.00     0.126 A 
ATOM     22  C   UNL A   1      32.198  28.581  27.291  1.00  0.00     0.037 A 
ATOM     23  N   UNL A   1      34.155  27.469  26.418  1.00  0.00    -0.249 NA
ATOM     24  C   UNL A   1      33.560  28.521  27.023  1.00  0.00     0.106 A 
ATOM     25  Br  UNL A   1      34.660  29.970  27.557  1.00  0.00    -0.029 Br
ENDBRANCH  17  19
ENDBRANCH  10  15
BRANCH  14  26
ATOM     26  O   UNL A   1      32.965  25.683  19.684  1.00  0.00    -0.508 OA
ATOM     27  H   UNL A   1      33.134  26.539  19.340  1.00  0.00     0.293 HD
ENDBRANCH  14  26
ENDBRANCH   7   9
ENDBRANCH   6   7
ENDBRANCH   5   6
ENDBRANCH   4   5
ENDBRANCH   3   4
ENDBRANCH   2   3
ENDBRANCH   1   2
BRANCH   1  28
ATOM     28  O   UNL A   1      40.240  22.125  27.347  1.00  0.00    -0.376 OA
BRANCH  28  29
ATOM     29  C   UNL A   1      41.489  21.737  26.799  1.00  0.00     0.202 C 
BRANCH  29  30
ATOM     30  C   UNL A   1      42.606  22.711  26.376  1.00  0.00     0.261 C 
BRANCH  30  31
ATOM     31  O   UNL A   1      42.786  23.908  27.134  1.00  0.00    -0.460 OA
BRANCH  31  32
ATOM     32  C   UNL A   1      42.454  25.070  26.528  1.00  0.00     0.338 C 
ATOM     33  O   UNL A   1      42.342  25.268  25.333  1.00  0.00    -0.246 OA
BRANCH  32  34
ATOM     34  C   UNL A   1      42.062  26.023  27.586  1.00  0.00     0.060 A 
ATOM     35  C   UNL A   1      42.828  27.180  27.772  1.00  0.00     0.016 A 
ATOM     36  C   UNL A   1      40.938  25.778  28.382  1.00  0.00     0.016 A 
ATOM     37  C   UNL A   1      42.484  28.086  28.777  1.00  0.00     0.010 A 
ATOM     38  C   UNL A   1      40.610  26.676  29.400  1.00  0.00     0.010 A 
ATOM     39  C   UNL A   1      41.396  27.819  29.619  1.00  0.00    -0.014 A 
BRANCH  39  40
ATOM     40  C   UNL A   1      41.181  28.643  30.832  1.00  0.00     0.031 A 
ATOM     41  C   UNL A   1      40.089  29.677  30.813  1.00  0.00     0.074 A 
ATOM     42  C   UNL A   1      41.937  28.476  31.931  1.00  0.00     0.049 A 
ATOM     43  N   UNL A   1      39.746  30.539  31.733  1.00  0.00    -0.248 NA
ATOM     44  C   UNL A   1      39.279  29.747  29.586  1.00  0.00     0.031 C 
ATOM     45  C   UNL A   1      43.007  27.492  32.079  1.00  0.00     0.029 A 
ATOM     46  N   UNL A   1      41.926  29.147  33.128  1.00  0.00    -0.354 N 
ATOM     47  C   UNL A   1      38.677  31.250  31.202  1.00  0.00     0.074 A 
ATOM     48  C   UNL A   1      38.450  30.742  29.866  1.00  0.00     0.031 C 
ATOM     49  C   UNL A   1      43.569  27.640  33.292  1.00  0.00     0.029 A 
ATOM     50  C   UNL A   1      42.912  28.742  33.995  1.00  0.00     0.049 A 
ATOM     51  H   UNL A   1      41.273  29.851  33.345  1.00  0.00     0.167 HD
ATOM     52  C   UNL A   1      37.942  32.231  31.778  1.00  0.00     0.037 A 
ATOM     53  C   UNL A   1      43.260  29.224  35.205  1.00  0.00     0.037 A 
ATOM     54  C   UNL A   1      38.185  32.751  33.097  1.00  0.00     0.049 A 
ATOM     55  C   UNL A   1      42.473  30.361  35.803  1.00  0.00     0.074 A 
ATOM     56  C   UNL A   1      37.500  33.748  33.769  1.00  0.00     0.029 A 
ATOM     57  N   UNL A   1      39.200  32.324  33.940  1.00  0.00    -0.354 N 
ATOM     58  N   UNL A   1      41.447  31.009  35.302  1.00  0.00    -0.248 NA
ATOM     59  C   UNL A   1      42.886  30.830  37.134  1.00  0.00     0.031 C 
ATOM     60  C   UNL A   1      38.126  33.950  35.005  1.00  0.00     0.029 A 
ATOM     61  C   UNL A   1      39.173  33.048  35.120  1.00  0.00     0.049 A 
ATOM     62  H   UNL A   1      39.845  31.611  33.730  1.00  0.00     0.167 HD
ATOM     63  C   UNL A   1      41.081  31.946  36.262  1.00  0.00     0.074 A 
ATOM     64  C   UNL A   1      41.988  31.775  37.379  1.00  0.00     0.031 C 
ATOM     65  C   UNL A   1      40.082  32.864  36.224  1.00  0.00     0.037 A 
BRANCH  52  66
ATOM     66  C   UNL A   1      36.824  32.815  30.963  1.00  0.00     0.058 A 
ATOM     67  C   UNL A   1      37.074  33.701  29.903  1.00  0.00     0.135 A 
ATOM     68  C   UNL A   1      35.487  32.493  31.247  1.00  0.00     0.135 A 
ATOM     69  F   UNL A   1      38.334  34.057  29.602  1.00  0.00    -0.206 F 
ATOM     70  C   UNL A   1      36.038  34.277  29.177  1.00  0.00     0.059 A 
ATOM     71  C   UNL A   1      34.435  33.038  30.519  1.00  0.00     0.059 A 
ATOM     72  F   UNL A   1      35.193  31.654  32.253  1.00  0.00    -0.206 F 
ATOM     73  C   UNL A   1      34.720  33.945  29.497  1.00  0.00     0.060 A 
BRANCH  73  74
ATOM     74  S   UNL A   1      33.382  34.716  28.563  1.00  0.00     0.124 S 
ATOM     75  O   UNL A   1      32.438  35.045  29.627  1.00  0.00    -0.237 OA
ATOM     76  O   UNL A   1      34.050  35.852  27.936  1.00  0.00    -0.237 OA
ATOM     77  O   UNL A   1      32.955  33.662  27.649  1.00  0.00    -0.744 OA
ENDBRANCH  73  74
ENDBRANCH  52  66
BRANCH  53  78
ATOM     78  C   UNL A   1      44.421  28.638  35.924  1.00  0.00     0.058 A 
ATOM     79  C   UNL A   1      45.721  29.122  35.723  1.00  0.00     0.135 A 
ATOM     80  C   UNL A   1      44.247  27.591  36.843  1.00  0.00     0.135 A 
ATOM     81  F   UNL A   1      45.939  30.113  34.846  1.00  0.00    -0.206 F 
ATOM     82  C   UNL A   1      46.811  28.586  36.403  1.00  0.00     0.059 A 
ATOM     83  C   UNL A   1      45.316  27.053  37.551  1.00  0.00     0.059 A 
ATOM     84  F   UNL A   1      43.020  27.098  37.076  1.00  0.00    -0.206 F 
ATOM     85  C   UNL A   1      46.597  27.552  37.318  1.00  0.00     0.060 A 
BRANCH  85  86
ATOM     86  S   UNL A   1      48.008  26.905  38.241  1.00  0.00     0.124 S 
ATOM     87  O   UNL A   1      47.410  26.640  39.544  1.00  0.00    -0.237 OA
ATOM     88  O   UNL A   1      48.376  25.729  37.457  1.00  0.00    -0.237 OA
ATOM     89  O   UNL A   1      48.969  28.002  38.198  1.00  0.00    -0.744 OA
ENDBRANCH  85  86
ENDBRANCH  53  78
BRANCH  65  90
ATOM     90  C   UNL A   1      39.895  33.738  37.433  1.00  0.00     0.058 A 
ATOM     91  C   UNL A   1      40.523  34.988  37.545  1.00  0.00     0.135 A 
ATOM     92  C   UNL A   1      39.028  33.346  38.466  1.00  0.00     0.135 A 
ATOM     93  F   UNL A   1      41.365  35.408  36.588  1.00  0.00    -0.206 F 
ATOM     94  C   UNL A   1      40.311  35.812  38.645  1.00  0.00     0.059 A 
ATOM     95  C   UNL A   1      38.783  34.164  39.565  1.00  0.00     0.059 A 
ATOM     96  F   UNL A   1      38.392  32.164  38.404  1.00  0.00    -0.206 F 
ATOM     97  C   UNL A   1      39.438  35.391  39.651  1.00  0.00     0.060 A 
BRANCH  97  98
ATOM     98  S   UNL A   1      39.141  36.484  41.057  1.00  0.00     0.124 S 
ATOM     99  O   UNL A   1      38.026  35.815  41.720  1.00  0.00    -0.237 OA
ATOM    100  O   UNL A   1      40.417  36.441  41.765  1.00  0.00    -0.237 OA
ATOM    101  O   UNL A   1      38.823  37.764  40.431  1.00  0.00    -0.744 OA
ENDBRANCH  97  98
ENDBRANCH  65  90
ENDBRANCH  39  40
ENDBRANCH  32  34
ENDBRANCH  31  32
ENDBRANCH  30  31
ENDBRANCH  29  30
ENDBRANCH  28  29
ENDBRANCH   1  28
TORSDOF 23
ENDMDL
