MODEL 1
REMARK VINA RESULT:      -9.5      0.000      0.000
REMARK SMILES O=C(CCCc1nc(-c2cccc(Cl)c2)no1)OCCOCCOCCOC(=O)c1ccc(-c2c3nc(c(-c4c(F)cc(S(=O)(=O)[O-])cc4F)c4ccc([nH]4)c(-c4c(F)cc(S(=O)(=O)[O-])cc4F)c4nc(c(-c5c(F)cc(S(=O)(=O)[O-])cc5F)c5ccc2[nH]5)C=C4)C=C3)cc1
REMARK SMILES IDX 22 1 21 2 20 3 19 4 18 5 2 6 1 7 3 8 4 9 5 10 6 11 7 12
REMARK SMILES IDX 17 13 8 14 16 15 9 16 10 17 15 18 11 19 13 20 12 21 14 22
REMARK SMILES IDX 23 23 24 24 25 25 26 26 27 27 28 28 29 29 30 30 31 31 95 32
REMARK SMILES IDX 32 33 94 34 33 35 34 36 35 37 88 38 36 39 93 40 87 41 89 42
REMARK SMILES IDX 37 43 92 44 86 45 85 46 38 48 72 49 51 50 71 51 52 52 55 53
REMARK SMILES IDX 70 54 90 55 53 56 54 57 69 59 91 60 56 61 39 62 40 63 49 64
REMARK SMILES IDX 41 65 42 66 48 67 50 68 43 69 44 70 45 71 46 72 47 73 73 74
REMARK SMILES IDX 74 75 83 76 75 77 76 78 82 79 84 80 77 81 78 82 79 83 80 84
REMARK SMILES IDX 81 85 57 86 58 87 67 88 59 89 60 90 66 91 68 92 61 93 62 94
REMARK SMILES IDX 63 95 64 96 65 97
REMARK H PARENT 89 47 55 58
REMARK Flexibility Score: inf
ROOT
ATOM      1  C   UNL A   1      31.967  25.749  26.498  1.00  0.00     0.188 C 
ENDROOT
BRANCH   1   2
ATOM      2  O   UNL A   1      30.581  25.655  26.800  1.00  0.00    -0.376 OA
BRANCH   2   3
ATOM      3  C   UNL A   1      29.795  25.060  25.774  1.00  0.00     0.202 C 
BRANCH   3   4
ATOM      4  C   UNL A   1      29.523  26.064  24.665  1.00  0.00     0.261 C 
BRANCH   4   5
ATOM      5  O   UNL A   1      29.944  25.572  23.380  1.00  0.00    -0.463 OA
BRANCH   5   6
ATOM      6  C   UNL A   1      31.139  25.867  22.818  1.00  0.00     0.305 C 
ATOM      7  O   UNL A   1      31.314  26.973  22.310  1.00  0.00    -0.252 OA
BRANCH   6   8
ATOM      8  C   UNL A   1      32.216  24.806  22.753  1.00  0.00     0.123 C 
BRANCH   8   9
ATOM      9  C   UNL A   1      31.879  23.515  23.505  1.00  0.00     0.022 C 
BRANCH   9  10
ATOM     10  C   UNL A   1      32.731  22.290  23.145  1.00  0.00     0.101 C 
BRANCH  10  11
ATOM     11  C   UNL A   1      34.185  22.498  23.374  1.00  0.00     0.226 A 
ATOM     12  N   UNL A   1      34.935  22.163  24.395  1.00  0.00    -0.191 NA
ATOM     13  O   UNL A   1      34.858  23.212  22.425  1.00  0.00    -0.339 OA
ATOM     14  C   UNL A   1      36.140  22.760  24.090  1.00  0.00     0.202 A 
ATOM     15  N   UNL A   1      36.151  23.398  22.908  1.00  0.00    -0.057 NA
BRANCH  14  16
ATOM     16  C   UNL A   1      37.286  22.683  24.979  1.00  0.00     0.024 A 
ATOM     17  C   UNL A   1      37.672  23.810  25.721  1.00  0.00     0.012 A 
ATOM     18  C   UNL A   1      38.021  21.496  25.105  1.00  0.00     0.032 A 
ATOM     19  C   UNL A   1      38.768  23.751  26.583  1.00  0.00     0.002 A 
ATOM     20  C   UNL A   1      39.121  21.448  25.961  1.00  0.00     0.041 A 
ATOM     21  C   UNL A   1      39.496  22.567  26.702  1.00  0.00     0.020 A 
ATOM     22  Cl  UNL A   1      40.031  19.993  26.100  1.00  0.00    -0.084 Cl
ENDBRANCH  14  16
ENDBRANCH  10  11
ENDBRANCH   9  10
ENDBRANCH   8   9
ENDBRANCH   6   8
ENDBRANCH   5   6
ENDBRANCH   4   5
ENDBRANCH   3   4
ENDBRANCH   2   3
ENDBRANCH   1   2
BRANCH   1  23
ATOM     23  C   UNL A   1      32.574  27.160  26.569  1.00  0.00     0.188 C 
BRANCH  23  24
ATOM     24  O   UNL A   1      32.113  28.140  25.646  1.00  0.00    -0.376 OA
BRANCH  24  25
ATOM     25  C   UNL A   1      32.033  29.499  26.075  1.00  0.00     0.202 C 
BRANCH  25  26
ATOM     26  C   UNL A   1      33.346  30.271  26.175  1.00  0.00     0.261 C 
BRANCH  26  27
ATOM     27  O   UNL A   1      33.591  30.732  27.517  1.00  0.00    -0.460 OA
BRANCH  27  28
ATOM     28  C   UNL A   1      34.736  31.432  27.676  1.00  0.00     0.338 C 
ATOM     29  O   UNL A   1      34.877  32.642  27.626  1.00  0.00    -0.246 OA
BRANCH  28  30
ATOM     30  C   UNL A   1      35.843  30.533  28.039  1.00  0.00     0.060 A 
ATOM     31  C   UNL A   1      35.760  29.848  29.257  1.00  0.00     0.016 A 
ATOM     32  C   UNL A   1      37.019  30.520  27.288  1.00  0.00     0.016 A 
ATOM     33  C   UNL A   1      36.885  29.203  29.767  1.00  0.00     0.010 A 
ATOM     34  C   UNL A   1      38.148  29.883  27.805  1.00  0.00     0.010 A 
ATOM     35  C   UNL A   1      38.099  29.272  29.070  1.00  0.00    -0.014 A 
BRANCH  35  36
ATOM     36  C   UNL A   1      39.362  28.904  29.751  1.00  0.00     0.031 A 
ATOM     37  C   UNL A   1      39.786  29.702  30.955  1.00  0.00     0.074 A 
ATOM     38  C   UNL A   1      40.121  27.890  29.305  1.00  0.00     0.049 A 
ATOM     39  N   UNL A   1      40.889  29.630  31.653  1.00  0.00    -0.248 NA
ATOM     40  C   UNL A   1      38.838  30.723  31.431  1.00  0.00     0.031 C 
ATOM     41  C   UNL A   1      39.793  27.023  28.175  1.00  0.00     0.029 A 
ATOM     42  N   UNL A   1      41.338  27.433  29.742  1.00  0.00    -0.354 N 
ATOM     43  C   UNL A   1      40.775  30.600  32.642  1.00  0.00     0.074 A 
ATOM     44  C   UNL A   1      39.504  31.262  32.443  1.00  0.00     0.031 C 
ATOM     45  C   UNL A   1      40.800  26.150  27.992  1.00  0.00     0.029 A 
ATOM     46  C   UNL A   1      41.854  26.421  28.971  1.00  0.00     0.049 A 
ATOM     47  H   UNL A   1      41.798  27.797  30.533  1.00  0.00     0.167 HD
ATOM     48  C   UNL A   1      41.650  30.912  33.627  1.00  0.00     0.037 A 
ATOM     49  C   UNL A   1      43.050  25.805  29.032  1.00  0.00     0.037 A 
ATOM     50  C   UNL A   1      42.916  30.255  33.817  1.00  0.00     0.049 A 
ATOM     51  C   UNL A   1      44.034  26.202  30.101  1.00  0.00     0.074 A 
ATOM     52  C   UNL A   1      43.873  30.491  34.788  1.00  0.00     0.029 A 
ATOM     53  N   UNL A   1      43.404  29.235  33.012  1.00  0.00    -0.354 N 
ATOM     54  N   UNL A   1      43.912  27.115  31.036  1.00  0.00    -0.248 NA
ATOM     55  C   UNL A   1      45.318  25.488  30.124  1.00  0.00     0.031 C 
ATOM     56  C   UNL A   1      44.957  29.638  34.547  1.00  0.00     0.029 A 
ATOM     57  C   UNL A   1      44.656  28.843  33.452  1.00  0.00     0.049 A 
ATOM     58  H   UNL A   1      42.930  28.849  32.241  1.00  0.00     0.167 HD
ATOM     59  C   UNL A   1      45.090  27.065  31.774  1.00  0.00     0.074 A 
ATOM     60  C   UNL A   1      45.912  26.032  31.178  1.00  0.00     0.031 C 
ATOM     61  C   UNL A   1      45.455  27.805  32.852  1.00  0.00     0.037 A 
BRANCH  48  62
ATOM     62  C   UNL A   1      41.275  32.035  34.553  1.00  0.00     0.058 A 
ATOM     63  C   UNL A   1      41.655  33.360  34.296  1.00  0.00     0.135 A 
ATOM     64  C   UNL A   1      40.521  31.780  35.710  1.00  0.00     0.135 A 
ATOM     65  F   UNL A   1      42.393  33.655  33.214  1.00  0.00    -0.206 F 
ATOM     66  C   UNL A   1      41.330  34.392  35.173  1.00  0.00     0.059 A 
ATOM     67  C   UNL A   1      40.164  32.799  36.587  1.00  0.00     0.059 A 
ATOM     68  F   UNL A   1      40.134  30.528  36.003  1.00  0.00    -0.206 F 
ATOM     69  C   UNL A   1      40.590  34.100  36.319  1.00  0.00     0.060 A 
BRANCH  69  70
ATOM     70  S   UNL A   1      40.187  35.443  37.456  1.00  0.00     0.124 S 
ATOM     71  O   UNL A   1      39.061  34.875  38.190  1.00  0.00    -0.237 OA
ATOM     72  O   UNL A   1      41.424  35.596  38.214  1.00  0.00    -0.237 OA
ATOM     73  O   UNL A   1      39.860  36.554  36.567  1.00  0.00    -0.744 OA
ENDBRANCH  69  70
ENDBRANCH  48  62
BRANCH  49  74
ATOM     74  C   UNL A   1      43.386  24.753  28.039  1.00  0.00     0.058 A 
ATOM     75  C   UNL A   1      44.062  25.068  26.851  1.00  0.00     0.135 A 
ATOM     76  C   UNL A   1      43.060  23.408  28.270  1.00  0.00     0.135 A 
ATOM     77  F   UNL A   1      44.384  26.341  26.581  1.00  0.00    -0.206 F 
ATOM     78  C   UNL A   1      44.399  24.087  25.924  1.00  0.00     0.059 A 
ATOM     79  C   UNL A   1      43.404  22.406  27.369  1.00  0.00     0.059 A 
ATOM     80  F   UNL A   1      42.422  23.055  29.397  1.00  0.00    -0.206 F 
ATOM     81  C   UNL A   1      44.070  22.757  26.194  1.00  0.00     0.060 A 
BRANCH  81  82
ATOM     82  S   UNL A   1      44.571  21.481  25.019  1.00  0.00     0.124 S 
ATOM     83  O   UNL A   1      44.491  22.200  23.753  1.00  0.00    -0.237 OA
ATOM     84  O   UNL A   1      45.915  21.146  25.481  1.00  0.00    -0.237 OA
ATOM     85  O   UNL A   1      43.571  20.435  25.216  1.00  0.00    -0.744 OA
ENDBRANCH  81  82
ENDBRANCH  49  74
BRANCH  61  86
ATOM     86  C   UNL A   1      46.784  27.501  33.484  1.00  0.00     0.058 A 
ATOM     87  C   UNL A   1      47.952  28.178  33.106  1.00  0.00     0.135 A 
ATOM     88  C   UNL A   1      46.873  26.569  34.531  1.00  0.00     0.135 A 
ATOM     89  F   UNL A   1      47.921  29.074  32.107  1.00  0.00    -0.206 F 
ATOM     90  C   UNL A   1      49.169  27.933  33.736  1.00  0.00     0.059 A 
ATOM     91  C   UNL A   1      48.074  26.324  35.189  1.00  0.00     0.059 A 
ATOM     92  F   UNL A   1      45.781  25.902  34.937  1.00  0.00    -0.206 F 
ATOM     93  C   UNL A   1      49.219  27.004  34.778  1.00  0.00     0.060 A 
BRANCH  93  94
ATOM     94  S   UNL A   1      50.792  26.727  35.619  1.00  0.00     0.124 S 
ATOM     95  O   UNL A   1      51.681  26.446  34.496  1.00  0.00    -0.237 OA
ATOM     96  O   UNL A   1      51.014  27.999  36.300  1.00  0.00    -0.237 OA
ATOM     97  O   UNL A   1      50.511  25.595  36.498  1.00  0.00    -0.744 OA
ENDBRANCH  93  94
ENDBRANCH  61  86
ENDBRANCH  35  36
ENDBRANCH  28  30
ENDBRANCH  27  28
ENDBRANCH  26  27
ENDBRANCH  25  26
ENDBRANCH  24  25
ENDBRANCH  23  24
ENDBRANCH   1  23
TORSDOF 24
ENDMDL
MODEL 2
REMARK VINA RESULT:      -9.4      2.292      3.947
REMARK SMILES O=C(CCCc1nc(-c2cccc(Cl)c2)no1)OCCOCCOCCOC(=O)c1ccc(-c2c3nc(c(-c4c(F)cc(S(=O)(=O)[O-])cc4F)c4ccc([nH]4)c(-c4c(F)cc(S(=O)(=O)[O-])cc4F)c4nc(c(-c5c(F)cc(S(=O)(=O)[O-])cc5F)c5ccc2[nH]5)C=C4)C=C3)cc1
REMARK SMILES IDX 22 1 21 2 20 3 19 4 18 5 2 6 1 7 3 8 4 9 5 10 6 11 7 12
REMARK SMILES IDX 17 13 8 14 16 15 9 16 10 17 15 18 11 19 13 20 12 21 14 22
REMARK SMILES IDX 23 23 24 24 25 25 26 26 27 27 28 28 29 29 30 30 31 31 95 32
REMARK SMILES IDX 32 33 94 34 33 35 34 36 35 37 88 38 36 39 93 40 87 41 89 42
REMARK SMILES IDX 37 43 92 44 86 45 85 46 38 48 72 49 51 50 71 51 52 52 55 53
REMARK SMILES IDX 70 54 90 55 53 56 54 57 69 59 91 60 56 61 39 62 40 63 49 64
REMARK SMILES IDX 41 65 42 66 48 67 50 68 43 69 44 70 45 71 46 72 47 73 73 74
REMARK SMILES IDX 74 75 83 76 75 77 76 78 82 79 84 80 77 81 78 82 79 83 80 84
REMARK SMILES IDX 81 85 57 86 58 87 67 88 59 89 60 90 66 91 68 92 61 93 62 94
REMARK SMILES IDX 63 95 64 96 65 97
REMARK H PARENT 89 47 55 58
REMARK Flexibility Score: inf
ROOT
ATOM      1  C   UNL A   1      33.894  27.783  25.176  1.00  0.00     0.188 C 
ENDROOT
BRANCH   1   2
ATOM      2  O   UNL A   1      34.334  26.570  24.580  1.00  0.00    -0.376 OA
BRANCH   2   3
ATOM      3  C   UNL A   1      34.050  25.403  25.344  1.00  0.00     0.202 C 
BRANCH   3   4
ATOM      4  C   UNL A   1      35.155  24.373  25.171  1.00  0.00     0.261 C 
BRANCH   4   5
ATOM      5  O   UNL A   1      34.675  23.172  24.542  1.00  0.00    -0.463 OA
BRANCH   5   6
ATOM      6  C   UNL A   1      34.408  22.028  25.214  1.00  0.00     0.305 C 
ATOM      7  O   UNL A   1      34.316  20.970  24.596  1.00  0.00    -0.252 OA
BRANCH   6   8
ATOM      8  C   UNL A   1      34.150  22.080  26.704  1.00  0.00     0.123 C 
BRANCH   8   9
ATOM      9  C   UNL A   1      32.680  22.282  27.084  1.00  0.00     0.022 C 
BRANCH   9  10
ATOM     10  C   UNL A   1      31.678  22.251  25.922  1.00  0.00     0.101 C 
BRANCH  10  11
ATOM     11  C   UNL A   1      31.008  23.558  25.690  1.00  0.00     0.226 A 
ATOM     12  N   UNL A   1      30.872  24.251  24.586  1.00  0.00    -0.191 NA
ATOM     13  O   UNL A   1      30.512  24.196  26.790  1.00  0.00    -0.339 OA
ATOM     14  C   UNL A   1      30.309  25.426  25.039  1.00  0.00     0.202 A 
ATOM     15  N   UNL A   1      30.062  25.442  26.359  1.00  0.00    -0.057 NA
BRANCH  14  16
ATOM     16  C   UNL A   1      30.007  26.532  24.146  1.00  0.00     0.024 A 
ATOM     17  C   UNL A   1      31.023  27.085  23.353  1.00  0.00     0.012 A 
ATOM     18  C   UNL A   1      28.711  27.061  24.068  1.00  0.00     0.032 A 
ATOM     19  C   UNL A   1      30.748  28.146  22.486  1.00  0.00     0.002 A 
ATOM     20  C   UNL A   1      28.446  28.126  23.207  1.00  0.00     0.041 A 
ATOM     21  C   UNL A   1      29.457  28.668  22.414  1.00  0.00     0.020 A 
ATOM     22  Cl  UNL A   1      26.858  28.783  23.125  1.00  0.00    -0.084 Cl
ENDBRANCH  14  16
ENDBRANCH  10  11
ENDBRANCH   9  10
ENDBRANCH   8   9
ENDBRANCH   6   8
ENDBRANCH   5   6
ENDBRANCH   4   5
ENDBRANCH   3   4
ENDBRANCH   2   3
ENDBRANCH   1   2
BRANCH   1  23
ATOM     23  C   UNL A   1      33.140  27.641  26.509  1.00  0.00     0.188 C 
BRANCH  23  24
ATOM     24  O   UNL A   1      31.918  28.353  26.671  1.00  0.00    -0.376 OA
BRANCH  24  25
ATOM     25  C   UNL A   1      31.830  29.685  26.166  1.00  0.00     0.202 C 
BRANCH  25  26
ATOM     26  C   UNL A   1      32.397  30.796  27.047  1.00  0.00     0.261 C 
BRANCH  26  27
ATOM     27  O   UNL A   1      33.815  30.955  26.855  1.00  0.00    -0.460 OA
BRANCH  27  28
ATOM     28  C   UNL A   1      34.463  31.549  27.882  1.00  0.00     0.338 C 
ATOM     29  O   UNL A   1      34.020  32.383  28.653  1.00  0.00    -0.246 OA
BRANCH  28  30
ATOM     30  C   UNL A   1      35.808  30.975  28.043  1.00  0.00     0.060 A 
ATOM     31  C   UNL A   1      35.917  29.586  28.181  1.00  0.00     0.016 A 
ATOM     32  C   UNL A   1      36.911  31.804  28.250  1.00  0.00     0.016 A 
ATOM     33  C   UNL A   1      37.120  29.024  28.601  1.00  0.00     0.010 A 
ATOM     34  C   UNL A   1      38.114  31.240  28.681  1.00  0.00     0.010 A 
ATOM     35  C   UNL A   1      38.204  29.857  28.911  1.00  0.00    -0.014 A 
BRANCH  35  36
ATOM     36  C   UNL A   1      39.351  29.319  29.679  1.00  0.00     0.031 A 
ATOM     37  C   UNL A   1      39.718  29.984  30.980  1.00  0.00     0.074 A 
ATOM     38  C   UNL A   1      40.059  28.271  29.227  1.00  0.00     0.049 A 
ATOM     39  N   UNL A   1      40.731  29.754  31.772  1.00  0.00    -0.248 NA
ATOM     40  C   UNL A   1      38.821  31.055  31.443  1.00  0.00     0.031 C 
ATOM     41  C   UNL A   1      39.774  27.524  28.004  1.00  0.00     0.029 A 
ATOM     42  N   UNL A   1      41.178  27.667  29.742  1.00  0.00    -0.354 N 
ATOM     43  C   UNL A   1      40.602  30.657  32.822  1.00  0.00     0.074 A 
ATOM     44  C   UNL A   1      39.423  31.452  32.555  1.00  0.00     0.031 C 
ATOM     45  C   UNL A   1      40.712  26.573  27.849  1.00  0.00     0.029 A 
ATOM     46  C   UNL A   1      41.678  26.668  28.944  1.00  0.00     0.049 A 
ATOM     47  H   UNL A   1      41.583  27.926  30.600  1.00  0.00     0.167 HD
ATOM     48  C   UNL A   1      41.394  30.810  33.909  1.00  0.00     0.037 A 
ATOM     49  C   UNL A   1      42.801  25.935  29.070  1.00  0.00     0.037 A 
ATOM     50  C   UNL A   1      42.570  30.021  34.166  1.00  0.00     0.049 A 
ATOM     51  C   UNL A   1      43.700  26.157  30.258  1.00  0.00     0.074 A 
ATOM     52  C   UNL A   1      43.438  30.092  35.241  1.00  0.00     0.029 A 
ATOM     53  N   UNL A   1      43.045  29.019  33.332  1.00  0.00    -0.354 N 
ATOM     54  N   UNL A   1      43.563  27.007  31.249  1.00  0.00    -0.248 NA
ATOM     55  C   UNL A   1      44.906  25.321  30.347  1.00  0.00     0.031 C 
ATOM     56  C   UNL A   1      44.460  29.157  35.038  1.00  0.00     0.029 A 
ATOM     57  C   UNL A   1      44.205  28.476  33.858  1.00  0.00     0.049 A 
ATOM     58  H   UNL A   1      42.621  28.738  32.489  1.00  0.00     0.167 HD
ATOM     59  C   UNL A   1      44.649  26.790  32.090  1.00  0.00     0.074 A 
ATOM     60  C   UNL A   1      45.432  25.727  31.495  1.00  0.00     0.031 C 
ATOM     61  C   UNL A   1      44.965  27.411  33.255  1.00  0.00     0.037 A 
BRANCH  48  62
ATOM     62  C   UNL A   1      41.027  31.895  34.882  1.00  0.00     0.058 A 
ATOM     63  C   UNL A   1      40.018  31.715  35.840  1.00  0.00     0.135 A 
ATOM     64  C   UNL A   1      41.696  33.129  34.856  1.00  0.00     0.135 A 
ATOM     65  F   UNL A   1      39.335  30.561  35.895  1.00  0.00    -0.206 F 
ATOM     66  C   UNL A   1      39.662  32.734  36.719  1.00  0.00     0.059 A 
ATOM     67  C   UNL A   1      41.372  34.153  35.741  1.00  0.00     0.059 A 
ATOM     68  F   UNL A   1      42.667  33.353  33.956  1.00  0.00    -0.206 F 
ATOM     69  C   UNL A   1      40.341  33.952  36.657  1.00  0.00     0.060 A 
BRANCH  69  70
ATOM     70  S   UNL A   1      39.859  35.272  37.791  1.00  0.00     0.124 S 
ATOM     71  O   UNL A   1      41.087  35.459  38.556  1.00  0.00    -0.237 OA
ATOM     72  O   UNL A   1      39.507  36.357  36.882  1.00  0.00    -0.237 OA
ATOM     73  O   UNL A   1      38.741  34.692  38.530  1.00  0.00    -0.744 OA
ENDBRANCH  69  70
ENDBRANCH  48  62
BRANCH  49  74
ATOM     74  C   UNL A   1      43.143  24.930  28.032  1.00  0.00     0.058 A 
ATOM     75  C   UNL A   1      43.912  25.278  26.913  1.00  0.00     0.135 A 
ATOM     76  C   UNL A   1      42.727  23.595  28.151  1.00  0.00     0.135 A 
ATOM     77  F   UNL A   1      44.323  26.544  26.749  1.00  0.00    -0.206 F 
ATOM     78  C   UNL A   1      44.255  24.339  25.944  1.00  0.00     0.059 A 
ATOM     79  C   UNL A   1      43.074  22.633  27.208  1.00  0.00     0.059 A 
ATOM     80  F   UNL A   1      41.997  23.210  29.211  1.00  0.00    -0.206 F 
ATOM     81  C   UNL A   1      43.834  23.017  26.104  1.00  0.00     0.060 A 
BRANCH  81  82
ATOM     82  S   UNL A   1      44.340  21.790  24.879  1.00  0.00     0.124 S 
ATOM     83  O   UNL A   1      44.059  22.488  23.631  1.00  0.00    -0.237 OA
ATOM     84  O   UNL A   1      45.751  21.597  25.201  1.00  0.00    -0.237 OA
ATOM     85  O   UNL A   1      43.478  20.649  25.174  1.00  0.00    -0.744 OA
ENDBRANCH  81  82
ENDBRANCH  49  74
BRANCH  61  86
ATOM     86  C   UNL A   1      46.188  26.934  33.987  1.00  0.00     0.058 A 
ATOM     87  C   UNL A   1      47.454  27.489  33.747  1.00  0.00     0.135 A 
ATOM     88  C   UNL A   1      46.077  25.957  34.989  1.00  0.00     0.135 A 
ATOM     89  F   UNL A   1      47.613  28.422  32.795  1.00  0.00    -0.206 F 
ATOM     90  C   UNL A   1      48.572  27.083  34.468  1.00  0.00     0.059 A 
ATOM     91  C   UNL A   1      47.178  25.553  35.737  1.00  0.00     0.059 A 
ATOM     92  F   UNL A   1      44.886  25.402  35.264  1.00  0.00    -0.206 F 
ATOM     93  C   UNL A   1      48.423  26.115  35.463  1.00  0.00     0.060 A 
BRANCH  93  94
ATOM     94  S   UNL A   1      49.872  25.628  36.425  1.00  0.00     0.124 S 
ATOM     95  O   UNL A   1      50.953  25.882  35.479  1.00  0.00    -0.237 OA
ATOM     96  O   UNL A   1      49.808  26.531  37.571  1.00  0.00    -0.237 OA
ATOM     97  O   UNL A   1      49.620  24.223  36.730  1.00  0.00    -0.744 OA
ENDBRANCH  93  94
ENDBRANCH  61  86
ENDBRANCH  35  36
ENDBRANCH  28  30
ENDBRANCH  27  28
ENDBRANCH  26  27
ENDBRANCH  25  26
ENDBRANCH  24  25
ENDBRANCH  23  24
ENDBRANCH   1  23
TORSDOF 24
ENDMDL
MODEL 3
REMARK VINA RESULT:      -9.2      4.430      9.854
REMARK SMILES O=C(CCCc1nc(-c2cccc(Cl)c2)no1)OCCOCCOCCOC(=O)c1ccc(-c2c3nc(c(-c4c(F)cc(S(=O)(=O)[O-])cc4F)c4ccc([nH]4)c(-c4c(F)cc(S(=O)(=O)[O-])cc4F)c4nc(c(-c5c(F)cc(S(=O)(=O)[O-])cc5F)c5ccc2[nH]5)C=C4)C=C3)cc1
REMARK SMILES IDX 22 1 21 2 20 3 19 4 18 5 2 6 1 7 3 8 4 9 5 10 6 11 7 12
REMARK SMILES IDX 17 13 8 14 16 15 9 16 10 17 15 18 11 19 13 20 12 21 14 22
REMARK SMILES IDX 23 23 24 24 25 25 26 26 27 27 28 28 29 29 30 30 31 31 95 32
REMARK SMILES IDX 32 33 94 34 33 35 34 36 35 37 88 38 36 39 93 40 87 41 89 42
REMARK SMILES IDX 37 43 92 44 86 45 85 46 38 48 72 49 51 50 71 51 52 52 55 53
REMARK SMILES IDX 70 54 90 55 53 56 54 57 69 59 91 60 56 61 39 62 40 63 49 64
REMARK SMILES IDX 41 65 42 66 48 67 50 68 43 69 44 70 45 71 46 72 47 73 73 74
REMARK SMILES IDX 74 75 83 76 75 77 76 78 82 79 84 80 77 81 78 82 79 83 80 84
REMARK SMILES IDX 81 85 57 86 58 87 67 88 59 89 60 90 66 91 68 92 61 93 62 94
REMARK SMILES IDX 63 95 64 96 65 97
REMARK H PARENT 89 47 55 58
REMARK Flexibility Score: inf
ROOT
ATOM      1  C   UNL A   1      35.009  22.686  23.259  1.00  0.00     0.188 C 
ENDROOT
BRANCH   1   2
ATOM      2  O   UNL A   1      34.199  23.469  22.394  1.00  0.00    -0.376 OA
BRANCH   2   3
ATOM      3  C   UNL A   1      32.949  22.874  22.060  1.00  0.00     0.202 C 
BRANCH   3   4
ATOM      4  C   UNL A   1      31.894  23.242  23.092  1.00  0.00     0.261 C 
BRANCH   4   5
ATOM      5  O   UNL A   1      31.860  22.305  24.182  1.00  0.00    -0.463 OA
BRANCH   5   6
ATOM      6  C   UNL A   1      31.856  22.669  25.485  1.00  0.00     0.305 C 
ATOM      7  O   UNL A   1      32.905  22.639  26.126  1.00  0.00    -0.252 OA
BRANCH   6   8
ATOM      8  C   UNL A   1      30.549  23.031  26.156  1.00  0.00     0.123 C 
BRANCH   8   9
ATOM      9  C   UNL A   1      30.423  24.508  26.541  1.00  0.00     0.022 C 
BRANCH   9  10
ATOM     10  C   UNL A   1      30.088  25.472  25.394  1.00  0.00     0.101 C 
BRANCH  10  11
ATOM     11  C   UNL A   1      30.884  26.727  25.431  1.00  0.00     0.226 A 
ATOM     12  N   UNL A   1      31.869  27.078  26.221  1.00  0.00    -0.191 NA
ATOM     13  O   UNL A   1      30.507  27.717  24.571  1.00  0.00    -0.339 OA
ATOM     14  C   UNL A   1      32.079  28.395  25.871  1.00  0.00     0.202 A 
ATOM     15  N   UNL A   1      31.291  28.829  24.874  1.00  0.00    -0.057 NA
BRANCH  14  16
ATOM     16  C   UNL A   1      33.079  29.219  26.529  1.00  0.00     0.024 A 
ATOM     17  C   UNL A   1      34.336  28.678  26.837  1.00  0.00     0.012 A 
ATOM     18  C   UNL A   1      32.804  30.551  26.867  1.00  0.00     0.032 A 
ATOM     19  C   UNL A   1      35.309  29.459  27.465  1.00  0.00     0.002 A 
ATOM     20  C   UNL A   1      33.778  31.321  27.503  1.00  0.00     0.041 A 
ATOM     21  C   UNL A   1      35.028  30.783  27.801  1.00  0.00     0.020 A 
ATOM     22  Cl  UNL A   1      33.431  32.952  27.932  1.00  0.00    -0.084 Cl
ENDBRANCH  14  16
ENDBRANCH  10  11
ENDBRANCH   9  10
ENDBRANCH   8   9
ENDBRANCH   6   8
ENDBRANCH   5   6
ENDBRANCH   4   5
ENDBRANCH   3   4
ENDBRANCH   2   3
ENDBRANCH   1   2
BRANCH   1  23
ATOM     23  C   UNL A   1      36.345  23.319  23.683  1.00  0.00     0.188 C 
BRANCH  23  24
ATOM     24  O   UNL A   1      36.447  23.863  24.994  1.00  0.00    -0.376 OA
BRANCH  24  25
ATOM     25  C   UNL A   1      36.863  23.009  26.059  1.00  0.00     0.202 C 
BRANCH  25  26
ATOM     26  C   UNL A   1      37.786  21.849  25.694  1.00  0.00     0.261 C 
BRANCH  26  27
ATOM     27  O   UNL A   1      39.165  22.258  25.658  1.00  0.00    -0.460 OA
BRANCH  27  28
ATOM     28  C   UNL A   1      39.715  22.507  26.869  1.00  0.00     0.338 C 
ATOM     29  O   UNL A   1      40.229  21.703  27.626  1.00  0.00    -0.246 OA
BRANCH  28  30
ATOM     30  C   UNL A   1      39.717  23.952  27.145  1.00  0.00     0.060 A 
ATOM     31  C   UNL A   1      40.196  24.811  26.149  1.00  0.00     0.016 A 
ATOM     32  C   UNL A   1      39.438  24.427  28.427  1.00  0.00     0.016 A 
ATOM     33  C   UNL A   1      40.469  26.142  26.455  1.00  0.00     0.010 A 
ATOM     34  C   UNL A   1      39.722  25.759  28.735  1.00  0.00     0.010 A 
ATOM     35  C   UNL A   1      40.290  26.604  27.766  1.00  0.00    -0.014 A 
BRANCH  35  36
ATOM     36  C   UNL A   1      40.894  27.889  28.185  1.00  0.00     0.031 A 
ATOM     37  C   UNL A   1      42.388  28.048  28.077  1.00  0.00     0.074 A 
ATOM     38  C   UNL A   1      40.135  28.891  28.660  1.00  0.00     0.049 A 
ATOM     39  N   UNL A   1      43.147  29.037  28.468  1.00  0.00    -0.248 NA
ATOM     40  C   UNL A   1      43.120  26.937  27.447  1.00  0.00     0.031 C 
ATOM     41  C   UNL A   1      38.679  28.867  28.772  1.00  0.00     0.029 A 
ATOM     42  N   UNL A   1      40.495  30.119  29.154  1.00  0.00    -0.354 N 
ATOM     43  C   UNL A   1      44.447  28.666  28.144  1.00  0.00     0.074 A 
ATOM     44  C   UNL A   1      44.376  27.353  27.541  1.00  0.00     0.031 C 
ATOM     45  C   UNL A   1      38.268  30.021  29.327  1.00  0.00     0.029 A 
ATOM     46  C   UNL A   1      39.435  30.847  29.636  1.00  0.00     0.049 A 
ATOM     47  H   UNL A   1      41.423  30.446  29.163  1.00  0.00     0.167 HD
ATOM     48  C   UNL A   1      45.597  29.357  28.331  1.00  0.00     0.037 A 
ATOM     49  C   UNL A   1      39.416  32.031  30.278  1.00  0.00     0.037 A 
ATOM     50  C   UNL A   1      45.663  30.660  28.937  1.00  0.00     0.049 A 
ATOM     51  C   UNL A   1      40.709  32.761  30.527  1.00  0.00     0.074 A 
ATOM     52  C   UNL A   1      46.777  31.448  29.167  1.00  0.00     0.029 A 
ATOM     53  N   UNL A   1      44.567  31.364  29.415  1.00  0.00    -0.354 N 
ATOM     54  N   UNL A   1      41.932  32.404  30.208  1.00  0.00    -0.248 NA
ATOM     55  C   UNL A   1      40.624  34.052  31.223  1.00  0.00     0.031 C 
ATOM     56  C   UNL A   1      46.358  32.614  29.818  1.00  0.00     0.029 A 
ATOM     57  C   UNL A   1      44.979  32.570  29.956  1.00  0.00     0.049 A 
ATOM     58  H   UNL A   1      43.635  31.051  29.376  1.00  0.00     0.167 HD
ATOM     59  C   UNL A   1      42.756  33.438  30.639  1.00  0.00     0.074 A 
ATOM     60  C   UNL A   1      41.894  34.435  31.240  1.00  0.00     0.031 C 
ATOM     61  C   UNL A   1      44.104  33.554  30.541  1.00  0.00     0.037 A 
BRANCH  48  62
ATOM     62  C   UNL A   1      46.876  28.695  27.901  1.00  0.00     0.058 A 
ATOM     63  C   UNL A   1      47.631  27.907  28.782  1.00  0.00     0.135 A 
ATOM     64  C   UNL A   1      47.351  28.851  26.588  1.00  0.00     0.135 A 
ATOM     65  F   UNL A   1      47.231  27.742  30.054  1.00  0.00    -0.206 F 
ATOM     66  C   UNL A   1      48.830  27.321  28.388  1.00  0.00     0.059 A 
ATOM     67  C   UNL A   1      48.535  28.254  26.166  1.00  0.00     0.059 A 
ATOM     68  F   UNL A   1      46.667  29.598  25.707  1.00  0.00    -0.206 F 
ATOM     69  C   UNL A   1      49.277  27.506  27.079  1.00  0.00     0.060 A 
BRANCH  69  70
ATOM     70  S   UNL A   1      50.842  26.755  26.582  1.00  0.00     0.124 S 
ATOM     71  O   UNL A   1      50.607  25.352  26.906  1.00  0.00    -0.237 OA
ATOM     72  O   UNL A   1      50.908  27.074  25.160  1.00  0.00    -0.237 OA
ATOM     73  O   UNL A   1      51.825  27.436  27.419  1.00  0.00    -0.744 OA
ENDBRANCH  69  70
ENDBRANCH  48  62
BRANCH  49  74
ATOM     74  C   UNL A   1      38.121  32.594  30.742  1.00  0.00     0.058 A 
ATOM     75  C   UNL A   1      37.715  32.469  32.078  1.00  0.00     0.135 A 
ATOM     76  C   UNL A   1      37.277  33.289  29.862  1.00  0.00     0.135 A 
ATOM     77  F   UNL A   1      38.483  31.803  32.953  1.00  0.00    -0.206 F 
ATOM     78  C   UNL A   1      36.514  33.010  32.527  1.00  0.00     0.059 A 
ATOM     79  C   UNL A   1      36.082  33.857  30.291  1.00  0.00     0.059 A 
ATOM     80  F   UNL A   1      37.627  33.443  28.575  1.00  0.00    -0.206 F 
ATOM     81  C   UNL A   1      35.706  33.706  31.625  1.00  0.00     0.060 A 
BRANCH  81  82
ATOM     82  S   UNL A   1      34.182  34.464  32.230  1.00  0.00     0.124 S 
ATOM     83  O   UNL A   1      34.697  35.620  32.954  1.00  0.00    -0.237 OA
ATOM     84  O   UNL A   1      33.468  34.752  30.990  1.00  0.00    -0.237 OA
ATOM     85  O   UNL A   1      33.591  33.413  33.054  1.00  0.00    -0.744 OA
ENDBRANCH  81  82
ENDBRANCH  49  74
BRANCH  61  86
ATOM     86  C   UNL A   1      44.732  34.818  31.058  1.00  0.00     0.058 A 
ATOM     87  C   UNL A   1      45.220  34.915  32.369  1.00  0.00     0.135 A 
ATOM     88  C   UNL A   1      44.909  35.920  30.206  1.00  0.00     0.135 A 
ATOM     89  F   UNL A   1      45.070  33.892  33.224  1.00  0.00    -0.206 F 
ATOM     90  C   UNL A   1      45.852  36.069  32.824  1.00  0.00     0.059 A 
ATOM     91  C   UNL A   1      45.557  37.074  30.633  1.00  0.00     0.059 A 
ATOM     92  F   UNL A   1      44.470  35.873  28.939  1.00  0.00    -0.206 F 
ATOM     93  C   UNL A   1      46.017  37.143  31.947  1.00  0.00     0.060 A 
BRANCH  93  94
ATOM     94  S   UNL A   1      46.879  38.617  32.533  1.00  0.00     0.124 S 
ATOM     95  O   UNL A   1      48.014  38.678  31.617  1.00  0.00    -0.237 OA
ATOM     96  O   UNL A   1      45.872  39.660  32.364  1.00  0.00    -0.237 OA
ATOM     97  O   UNL A   1      47.206  38.291  33.918  1.00  0.00    -0.744 OA
ENDBRANCH  93  94
ENDBRANCH  61  86
ENDBRANCH  35  36
ENDBRANCH  28  30
ENDBRANCH  27  28
ENDBRANCH  26  27
ENDBRANCH  25  26
ENDBRANCH  24  25
ENDBRANCH  23  24
ENDBRANCH   1  23
TORSDOF 24
ENDMDL
