MODEL 1
REMARK VINA RESULT:      -8.8      0.000      0.000
REMARK SMILES CSc1nc(O)nc(C)c1C(=O)N1C[C@@H](O)C[C@@H]1C(=O)OCCOCCOCCOC(=O)c1ccc(-c2c3nc(c(-c4c(F)cc(S(=O)(=O)[O-])cc4F)c4ccc([nH]4)c(-c4c(F)cc(S(=O)(=O)[O-])cc4F)c4nc(c(-c5c(F)cc(S(=O)(=O)[O-])cc5F)c5ccc2[nH]5)C=C4)C=C3)cc1
REMARK SMILES IDX 25 1 24 2 23 3 22 4 21 5 19 6 20 7 18 8 13 9 14 10 15 11
REMARK SMILES IDX 17 12 11 13 12 14 10 15 3 16 4 17 5 18 8 19 7 20 9 21 2 22
REMARK SMILES IDX 1 23 6 24 16 26 26 28 27 29 28 30 29 31 30 32 31 33 32 34
REMARK SMILES IDX 33 35 34 36 98 37 35 38 97 39 36 40 37 41 38 42 91 43 39 44
REMARK SMILES IDX 96 45 90 46 92 47 40 48 95 49 89 50 88 51 41 53 75 54 54 55
REMARK SMILES IDX 74 56 55 57 58 58 73 59 93 60 56 61 57 62 72 64 94 65 59 66
REMARK SMILES IDX 42 67 43 68 52 69 44 70 45 71 51 72 53 73 46 74 47 75 48 76
REMARK SMILES IDX 49 77 50 78 76 79 77 80 86 81 78 82 79 83 85 84 87 85 80 86
REMARK SMILES IDX 81 87 82 88 83 89 84 90 60 91 61 92 70 93 62 94 63 95 69 96
REMARK SMILES IDX 71 97 64 98 65 99 66 100 67 101 68 102
REMARK H PARENT 6 25 16 27 92 52 58 63
REMARK Flexibility Score: inf
ROOT
ATOM      1  C   UNL A   1      34.043  34.895  32.237  1.00  0.00     0.188 C 
ENDROOT
BRANCH   1   2
ATOM      2  O   UNL A   1      33.871  33.534  32.599  1.00  0.00    -0.376 OA
BRANCH   2   3
ATOM      3  C   UNL A   1      34.782  32.569  32.081  1.00  0.00     0.202 C 
BRANCH   3   4
ATOM      4  C   UNL A   1      36.271  32.794  32.351  1.00  0.00     0.261 C 
BRANCH   4   5
ATOM      5  O   UNL A   1      36.910  31.607  32.871  1.00  0.00    -0.462 OA
BRANCH   5   6
ATOM      6  C   UNL A   1      37.361  31.724  34.144  1.00  0.00     0.329 C 
ATOM      7  O   UNL A   1      36.848  32.457  34.987  1.00  0.00    -0.250 OA
BRANCH   6   8
ATOM      8  C   UNL A   1      38.538  30.806  34.502  1.00  0.00     0.198 C 
ATOM      9  N   UNL A   1      39.907  31.216  34.906  1.00  0.00    -0.322 N 
ATOM     10  C   UNL A   1      40.708  30.031  34.628  1.00  0.00     0.152 C 
ATOM     11  C   UNL A   1      40.309  29.712  33.205  1.00  0.00     0.136 C 
ATOM     12  C   UNL A   1      38.793  29.894  33.264  1.00  0.00     0.071 C 
BRANCH   9  13
ATOM     13  C   UNL A   1      40.142  31.870  36.112  1.00  0.00     0.259 C 
ATOM     14  O   UNL A   1      39.486  31.589  37.111  1.00  0.00    -0.269 OA
BRANCH  13  15
ATOM     15  C   UNL A   1      41.099  33.037  36.132  1.00  0.00     0.093 A 
ATOM     16  C   UNL A   1      40.849  34.351  35.718  1.00  0.00     0.116 A 
ATOM     17  N   UNL A   1      41.774  35.339  35.794  1.00  0.00    -0.188 NA
ATOM     18  C   UNL A   1      42.961  35.005  36.260  1.00  0.00     0.315 A 
ATOM     19  C   UNL A   1      42.416  32.818  36.565  1.00  0.00     0.058 A 
ATOM     20  N   UNL A   1      43.360  33.797  36.629  1.00  0.00    -0.200 NA
ATOM     21  C   UNL A   1      42.956  31.464  36.929  1.00  0.00     0.068 C 
BRANCH  16  22
ATOM     22  S   UNL A   1      39.443  34.887  34.758  1.00  0.00    -0.109 SA
ATOM     23  C   UNL A   1      39.850  34.295  33.092  1.00  0.00     0.092 C 
ENDBRANCH  16  22
BRANCH  18  24
ATOM     24  O   UNL A   1      43.911  35.972  36.321  1.00  0.00    -0.479 OA
ATOM     25  H   UNL A   1      44.566  36.028  35.654  1.00  0.00     0.297 HD
ENDBRANCH  18  24
ENDBRANCH  13  15
ENDBRANCH   9  13
BRANCH  11  26
ATOM     26  O   UNL A   1      40.701  28.434  32.761  1.00  0.00    -0.391 OA
ATOM     27  H   UNL A   1      39.915  27.921  32.516  1.00  0.00     0.211 HD
ENDBRANCH  11  26
ENDBRANCH   6   8
ENDBRANCH   5   6
ENDBRANCH   4   5
ENDBRANCH   3   4
ENDBRANCH   2   3
ENDBRANCH   1   2
BRANCH   1  28
ATOM     28  C   UNL A   1      33.282  35.435  31.014  1.00  0.00     0.188 C 
BRANCH  28  29
ATOM     29  O   UNL A   1      33.117  34.616  29.882  1.00  0.00    -0.376 OA
BRANCH  29  30
ATOM     30  C   UNL A   1      34.122  34.545  28.886  1.00  0.00     0.202 C 
BRANCH  30  31
ATOM     31  C   UNL A   1      34.702  33.248  28.294  1.00  0.00     0.261 C 
BRANCH  31  32
ATOM     32  O   UNL A   1      34.411  32.027  28.972  1.00  0.00    -0.460 OA
BRANCH  32  33
ATOM     33  C   UNL A   1      34.459  30.904  28.228  1.00  0.00     0.338 C 
ATOM     34  O   UNL A   1      33.589  30.464  27.476  1.00  0.00    -0.246 OA
BRANCH  33  35
ATOM     35  C   UNL A   1      35.770  30.273  28.406  1.00  0.00     0.060 A 
ATOM     36  C   UNL A   1      36.179  29.847  29.677  1.00  0.00     0.016 A 
ATOM     37  C   UNL A   1      36.624  30.168  27.310  1.00  0.00     0.016 A 
ATOM     38  C   UNL A   1      37.448  29.306  29.857  1.00  0.00     0.010 A 
ATOM     39  C   UNL A   1      37.904  29.647  27.494  1.00  0.00     0.010 A 
ATOM     40  C   UNL A   1      38.326  29.234  28.770  1.00  0.00    -0.014 A 
BRANCH  40  41
ATOM     41  C   UNL A   1      39.744  28.881  28.985  1.00  0.00     0.031 A 
ATOM     42  C   UNL A   1      40.675  29.940  29.494  1.00  0.00     0.074 A 
ATOM     43  C   UNL A   1      40.188  27.643  28.716  1.00  0.00     0.049 A 
ATOM     44  N   UNL A   1      41.974  29.905  29.623  1.00  0.00    -0.248 NA
ATOM     45  C   UNL A   1      40.057  31.208  29.912  1.00  0.00     0.031 C 
ATOM     46  C   UNL A   1      39.354  26.520  28.290  1.00  0.00     0.029 A 
ATOM     47  N   UNL A   1      41.458  27.129  28.746  1.00  0.00    -0.354 N 
ATOM     48  C   UNL A   1      42.333  31.147  30.131  1.00  0.00     0.074 A 
ATOM     49  C   UNL A   1      41.116  31.919  30.272  1.00  0.00     0.031 C 
ATOM     50  C   UNL A   1      40.141  25.451  28.079  1.00  0.00     0.029 A 
ATOM     51  C   UNL A   1      41.534  25.830  28.311  1.00  0.00     0.049 A 
ATOM     52  H   UNL A   1      42.240  27.644  29.051  1.00  0.00     0.167 HD
ATOM     53  C   UNL A   1      43.567  31.600  30.448  1.00  0.00     0.037 A 
ATOM     54  C   UNL A   1      42.610  25.050  28.090  1.00  0.00     0.037 A 
ATOM     55  C   UNL A   1      44.771  30.830  30.281  1.00  0.00     0.049 A 
ATOM     56  C   UNL A   1      43.985  25.610  28.345  1.00  0.00     0.074 A 
ATOM     57  C   UNL A   1      46.075  31.198  30.553  1.00  0.00     0.029 A 
ATOM     58  N   UNL A   1      44.815  29.534  29.787  1.00  0.00    -0.354 N 
ATOM     59  N   UNL A   1      44.321  26.794  28.800  1.00  0.00    -0.248 NA
ATOM     60  C   UNL A   1      45.126  24.735  28.043  1.00  0.00     0.031 C 
ATOM     61  C   UNL A   1      46.912  30.141  30.181  1.00  0.00     0.029 A 
ATOM     62  C   UNL A   1      46.126  29.095  29.722  1.00  0.00     0.049 A 
ATOM     63  H   UNL A   1      44.028  29.003  29.522  1.00  0.00     0.167 HD
ATOM     64  C   UNL A   1      45.711  26.803  28.854  1.00  0.00     0.074 A 
ATOM     65  C   UNL A   1      46.152  25.502  28.391  1.00  0.00     0.031 C 
ATOM     66  C   UNL A   1      46.544  27.798  29.250  1.00  0.00     0.037 A 
BRANCH  53  67
ATOM     67  C   UNL A   1      43.671  33.007  30.965  1.00  0.00     0.058 A 
ATOM     68  C   UNL A   1      43.941  34.088  30.111  1.00  0.00     0.135 A 
ATOM     69  C   UNL A   1      43.502  33.277  32.332  1.00  0.00     0.135 A 
ATOM     70  F   UNL A   1      44.134  33.881  28.798  1.00  0.00    -0.206 F 
ATOM     71  C   UNL A   1      44.069  35.385  30.598  1.00  0.00     0.059 A 
ATOM     72  C   UNL A   1      43.602  34.569  32.838  1.00  0.00     0.059 A 
ATOM     73  F   UNL A   1      43.250  32.278  33.192  1.00  0.00    -0.206 F 
ATOM     74  C   UNL A   1      43.901  35.614  31.965  1.00  0.00     0.060 A 
BRANCH  74  75
ATOM     75  S   UNL A   1      44.086  37.300  32.585  1.00  0.00     0.124 S 
ATOM     76  O   UNL A   1      43.068  37.339  33.630  1.00  0.00    -0.237 OA
ATOM     77  O   UNL A   1      45.470  37.312  33.047  1.00  0.00    -0.237 OA
ATOM     78  O   UNL A   1      43.813  38.126  31.412  1.00  0.00    -0.744 OA
ENDBRANCH  74  75
ENDBRANCH  53  67
BRANCH  54  79
ATOM     79  C   UNL A   1      42.421  23.665  27.586  1.00  0.00     0.058 A 
ATOM     80  C   UNL A   1      42.404  23.397  26.211  1.00  0.00     0.135 A 
ATOM     81  C   UNL A   1      42.311  22.578  28.468  1.00  0.00     0.135 A 
ATOM     82  F   UNL A   1      42.492  24.406  25.330  1.00  0.00    -0.206 F 
ATOM     83  C   UNL A   1      42.297  22.098  25.725  1.00  0.00     0.059 A 
ATOM     84  C   UNL A   1      42.224  21.269  28.007  1.00  0.00     0.059 A 
ATOM     85  F   UNL A   1      42.328  22.784  29.795  1.00  0.00    -0.206 F 
ATOM     86  C   UNL A   1      42.221  21.039  26.631  1.00  0.00     0.060 A 
BRANCH  86  87
ATOM     87  S   UNL A   1      42.180  19.353  25.986  1.00  0.00     0.124 S 
ATOM     88  O   UNL A   1      42.720  18.593  27.107  1.00  0.00    -0.237 OA
ATOM     89  O   UNL A   1      40.758  19.166  25.715  1.00  0.00    -0.237 OA
ATOM     90  O   UNL A   1      43.032  19.424  24.803  1.00  0.00    -0.744 OA
ENDBRANCH  86  87
ENDBRANCH  54  79
BRANCH  66  91
ATOM     91  C   UNL A   1      48.021  27.520  29.216  1.00  0.00     0.058 A 
ATOM     92  C   UNL A   1      48.802  27.841  28.097  1.00  0.00     0.135 A 
ATOM     93  C   UNL A   1      48.674  27.006  30.349  1.00  0.00     0.135 A 
ATOM     94  F   UNL A   1      48.224  28.328  26.987  1.00  0.00    -0.206 F 
ATOM     95  C   UNL A   1      50.181  27.652  28.095  1.00  0.00     0.059 A 
ATOM     96  C   UNL A   1      50.055  26.831  30.378  1.00  0.00     0.059 A 
ATOM     97  F   UNL A   1      47.974  26.693  31.450  1.00  0.00    -0.206 F 
ATOM     98  C   UNL A   1      50.798  27.153  29.244  1.00  0.00     0.060 A 
BRANCH  98  99
ATOM     99  S   UNL A   1      52.594  26.964  29.245  1.00  0.00     0.124 S 
ATOM    100  O   UNL A   1      53.034  28.344  29.420  1.00  0.00    -0.237 OA
ATOM    101  O   UNL A   1      52.814  26.079  30.384  1.00  0.00    -0.237 OA
ATOM    102  O   UNL A   1      52.876  26.376  27.939  1.00  0.00    -0.744 OA
ENDBRANCH  98  99
ENDBRANCH  66  91
ENDBRANCH  40  41
ENDBRANCH  33  35
ENDBRANCH  32  33
ENDBRANCH  31  32
ENDBRANCH  30  31
ENDBRANCH  29  30
ENDBRANCH  28  29
ENDBRANCH   1  28
TORSDOF 25
ENDMDL
MODEL 2
REMARK VINA RESULT:      -8.7      4.281      8.144
REMARK SMILES CSc1nc(O)nc(C)c1C(=O)N1C[C@@H](O)C[C@@H]1C(=O)OCCOCCOCCOC(=O)c1ccc(-c2c3nc(c(-c4c(F)cc(S(=O)(=O)[O-])cc4F)c4ccc([nH]4)c(-c4c(F)cc(S(=O)(=O)[O-])cc4F)c4nc(c(-c5c(F)cc(S(=O)(=O)[O-])cc5F)c5ccc2[nH]5)C=C4)C=C3)cc1
REMARK SMILES IDX 25 1 24 2 23 3 22 4 21 5 19 6 20 7 18 8 13 9 14 10 15 11
REMARK SMILES IDX 17 12 11 13 12 14 10 15 3 16 4 17 5 18 8 19 7 20 9 21 2 22
REMARK SMILES IDX 1 23 6 24 16 26 26 28 27 29 28 30 29 31 30 32 31 33 32 34
REMARK SMILES IDX 33 35 34 36 98 37 35 38 97 39 36 40 37 41 38 42 91 43 39 44
REMARK SMILES IDX 96 45 90 46 92 47 40 48 95 49 89 50 88 51 41 53 75 54 54 55
REMARK SMILES IDX 74 56 55 57 58 58 73 59 93 60 56 61 57 62 72 64 94 65 59 66
REMARK SMILES IDX 42 67 43 68 52 69 44 70 45 71 51 72 53 73 46 74 47 75 48 76
REMARK SMILES IDX 49 77 50 78 76 79 77 80 86 81 78 82 79 83 85 84 87 85 80 86
REMARK SMILES IDX 81 87 82 88 83 89 84 90 60 91 61 92 70 93 62 94 63 95 69 96
REMARK SMILES IDX 71 97 64 98 65 99 66 100 67 101 68 102
REMARK H PARENT 6 25 16 27 92 52 58 63
REMARK Flexibility Score: inf
ROOT
ATOM      1  C   UNL A   1      31.852  28.107  26.881  1.00  0.00     0.188 C 
ENDROOT
BRANCH   1   2
ATOM      2  O   UNL A   1      31.757  27.400  25.654  1.00  0.00    -0.376 OA
BRANCH   2   3
ATOM      3  C   UNL A   1      32.494  26.191  25.505  1.00  0.00     0.202 C 
BRANCH   3   4
ATOM      4  C   UNL A   1      33.874  26.286  24.851  1.00  0.00     0.261 C 
BRANCH   4   5
ATOM      5  O   UNL A   1      34.665  25.100  25.087  1.00  0.00    -0.462 OA
BRANCH   5   6
ATOM      6  C   UNL A   1      34.875  24.337  23.986  1.00  0.00     0.329 C 
ATOM      7  O   UNL A   1      34.586  24.690  22.844  1.00  0.00    -0.250 OA
BRANCH   6   8
ATOM      8  C   UNL A   1      35.582  23.000  24.249  1.00  0.00     0.198 C 
ATOM      9  N   UNL A   1      35.275  22.016  25.318  1.00  0.00    -0.322 N 
ATOM     10  C   UNL A   1      36.506  21.244  25.427  1.00  0.00     0.152 C 
ATOM     11  C   UNL A   1      37.547  22.333  25.556  1.00  0.00     0.136 C 
ATOM     12  C   UNL A   1      37.088  23.324  24.487  1.00  0.00     0.071 C 
BRANCH   9  13
ATOM     13  C   UNL A   1      34.079  21.305  25.329  1.00  0.00     0.259 C 
ATOM     14  O   UNL A   1      34.028  20.165  24.876  1.00  0.00    -0.269 OA
BRANCH  13  15
ATOM     15  C   UNL A   1      32.816  22.013  25.753  1.00  0.00     0.093 A 
ATOM     16  C   UNL A   1      31.734  22.385  24.944  1.00  0.00     0.116 A 
ATOM     17  N   UNL A   1      30.629  23.004  25.427  1.00  0.00    -0.188 NA
ATOM     18  C   UNL A   1      30.617  23.276  26.717  1.00  0.00     0.315 A 
ATOM     19  C   UNL A   1      32.683  22.403  27.095  1.00  0.00     0.058 A 
ATOM     20  N   UNL A   1      31.586  23.042  27.589  1.00  0.00    -0.200 NA
ATOM     21  C   UNL A   1      33.768  22.234  28.120  1.00  0.00     0.068 C 
BRANCH  16  22
ATOM     22  S   UNL A   1      31.733  22.410  23.161  1.00  0.00    -0.109 SA
ATOM     23  C   UNL A   1      31.151  24.087  22.785  1.00  0.00     0.092 C 
ENDBRANCH  16  22
BRANCH  18  24
ATOM     24  O   UNL A   1      29.531  23.919  27.217  1.00  0.00    -0.479 OA
ATOM     25  H   UNL A   1      28.696  23.496  27.220  1.00  0.00     0.297 HD
ENDBRANCH  18  24
ENDBRANCH  13  15
ENDBRANCH   9  13
BRANCH  11  26
ATOM     26  O   UNL A   1      38.874  21.895  25.378  1.00  0.00    -0.391 OA
ATOM     27  H   UNL A   1      39.419  22.633  25.061  1.00  0.00     0.211 HD
ENDBRANCH  11  26
ENDBRANCH   6   8
ENDBRANCH   5   6
ENDBRANCH   4   5
ENDBRANCH   3   4
ENDBRANCH   2   3
ENDBRANCH   1   2
BRANCH   1  28
ATOM     28  C   UNL A   1      31.755  29.643  26.856  1.00  0.00     0.188 C 
BRANCH  28  29
ATOM     29  O   UNL A   1      32.887  30.404  26.518  1.00  0.00    -0.376 OA
BRANCH  29  30
ATOM     30  C   UNL A   1      33.734  30.931  27.524  1.00  0.00     0.202 C 
BRANCH  30  31
ATOM     31  C   UNL A   1      35.236  30.627  27.675  1.00  0.00     0.261 C 
BRANCH  31  32
ATOM     32  O   UNL A   1      35.642  29.869  28.814  1.00  0.00    -0.460 OA
BRANCH  32  33
ATOM     33  C   UNL A   1      36.373  30.526  29.738  1.00  0.00     0.338 C 
ATOM     34  O   UNL A   1      35.959  31.203  30.679  1.00  0.00    -0.246 OA
BRANCH  33  35
ATOM     35  C   UNL A   1      37.794  30.270  29.488  1.00  0.00     0.060 A 
ATOM     36  C   UNL A   1      38.246  30.021  28.184  1.00  0.00     0.016 A 
ATOM     37  C   UNL A   1      38.671  30.210  30.569  1.00  0.00     0.016 A 
ATOM     38  C   UNL A   1      39.584  29.716  27.955  1.00  0.00     0.010 A 
ATOM     39  C   UNL A   1      40.007  29.883  30.342  1.00  0.00     0.010 A 
ATOM     40  C   UNL A   1      40.462  29.615  29.039  1.00  0.00    -0.014 A 
BRANCH  40  41
ATOM     41  C   UNL A   1      41.821  29.071  28.844  1.00  0.00     0.031 A 
ATOM     42  C   UNL A   1      42.989  30.004  28.965  1.00  0.00     0.074 A 
ATOM     43  C   UNL A   1      42.001  27.773  28.552  1.00  0.00     0.049 A 
ATOM     44  N   UNL A   1      44.249  29.788  28.700  1.00  0.00    -0.248 NA
ATOM     45  C   UNL A   1      42.694  31.362  29.449  1.00  0.00     0.031 C 
ATOM     46  C   UNL A   1      40.943  26.767  28.486  1.00  0.00     0.029 A 
ATOM     47  N   UNL A   1      43.144  27.085  28.238  1.00  0.00    -0.354 N 
ATOM     48  C   UNL A   1      44.900  30.983  28.978  1.00  0.00     0.074 A 
ATOM     49  C   UNL A   1      43.893  31.926  29.417  1.00  0.00     0.031 C 
ATOM     50  C   UNL A   1      41.486  25.590  28.132  1.00  0.00     0.029 A 
ATOM     51  C   UNL A   1      42.919  25.773  27.904  1.00  0.00     0.049 A 
ATOM     52  H   UNL A   1      44.040  27.492  28.253  1.00  0.00     0.167 HD
ATOM     53  C   UNL A   1      46.218  31.266  28.873  1.00  0.00     0.037 A 
ATOM     54  C   UNL A   1      43.768  24.839  27.432  1.00  0.00     0.037 A 
ATOM     55  C   UNL A   1      47.205  30.326  28.412  1.00  0.00     0.049 A 
ATOM     56  C   UNL A   1      45.213  25.205  27.217  1.00  0.00     0.074 A 
ATOM     57  C   UNL A   1      48.565  30.513  28.250  1.00  0.00     0.029 A 
ATOM     58  N   UNL A   1      46.932  29.019  28.031  1.00  0.00    -0.354 N 
ATOM     59  N   UNL A   1      45.818  26.345  27.456  1.00  0.00    -0.248 NA
ATOM     60  C   UNL A   1      46.086  24.166  26.655  1.00  0.00     0.031 C 
ATOM     61  C   UNL A   1      49.107  29.334  27.727  1.00  0.00     0.029 A 
ATOM     62  C   UNL A   1      48.093  28.396  27.609  1.00  0.00     0.049 A 
ATOM     63  H   UNL A   1      46.042  28.598  28.057  1.00  0.00     0.167 HD
ATOM     64  C   UNL A   1      47.146  26.157  27.088  1.00  0.00     0.074 A 
ATOM     65  C   UNL A   1      47.257  24.790  26.618  1.00  0.00     0.031 C 
ATOM     66  C   UNL A   1      48.179  27.035  27.137  1.00  0.00     0.037 A 
BRANCH  53  67
ATOM     67  C   UNL A   1      46.652  32.661  29.222  1.00  0.00     0.058 A 
ATOM     68  C   UNL A   1      47.049  33.005  30.524  1.00  0.00     0.135 A 
ATOM     69  C   UNL A   1      46.667  33.668  28.243  1.00  0.00     0.135 A 
ATOM     70  F   UNL A   1      47.030  32.085  31.502  1.00  0.00    -0.206 F 
ATOM     71  C   UNL A   1      47.419  34.306  30.851  1.00  0.00     0.059 A 
ATOM     72  C   UNL A   1      47.055  34.969  28.542  1.00  0.00     0.059 A 
ATOM     73  F   UNL A   1      46.289  33.393  26.985  1.00  0.00    -0.206 F 
ATOM     74  C   UNL A   1      47.415  35.283  29.852  1.00  0.00     0.060 A 
BRANCH  74  75
ATOM     75  S   UNL A   1      47.881  36.969  30.295  1.00  0.00     0.124 S 
ATOM     76  O   UNL A   1      49.237  37.047  29.760  1.00  0.00    -0.237 OA
ATOM     77  O   UNL A   1      46.877  37.764  29.595  1.00  0.00    -0.237 OA
ATOM     78  O   UNL A   1      47.780  36.979  31.752  1.00  0.00    -0.744 OA
ENDBRANCH  74  75
ENDBRANCH  53  67
BRANCH  54  79
ATOM     79  C   UNL A   1      43.260  23.478  27.119  1.00  0.00     0.058 A 
ATOM     80  C   UNL A   1      43.038  23.082  25.793  1.00  0.00     0.135 A 
ATOM     81  C   UNL A   1      43.042  22.531  28.131  1.00  0.00     0.135 A 
ATOM     82  F   UNL A   1      43.220  23.957  24.792  1.00  0.00    -0.206 F 
ATOM     83  C   UNL A   1      42.630  21.790  25.479  1.00  0.00     0.059 A 
ATOM     84  C   UNL A   1      42.654  21.227  27.842  1.00  0.00     0.059 A 
ATOM     85  F   UNL A   1      43.247  22.862  29.417  1.00  0.00    -0.206 F 
ATOM     86  C   UNL A   1      42.453  20.866  26.510  1.00  0.00     0.060 A 
BRANCH  86  87
ATOM     87  S   UNL A   1      42.016  19.167  26.081  1.00  0.00     0.124 S 
ATOM     88  O   UNL A   1      40.583  19.281  25.838  1.00  0.00    -0.237 OA
ATOM     89  O   UNL A   1      42.846  18.929  24.904  1.00  0.00    -0.237 OA
ATOM     90  O   UNL A   1      42.397  18.410  27.270  1.00  0.00    -0.744 OA
ENDBRANCH  86  87
ENDBRANCH  54  79
BRANCH  66  91
ATOM     91  C   UNL A   1      49.527  26.548  26.682  1.00  0.00     0.058 A 
ATOM     92  C   UNL A   1      49.985  26.772  25.376  1.00  0.00     0.135 A 
ATOM     93  C   UNL A   1      50.400  25.925  27.589  1.00  0.00     0.135 A 
ATOM     94  F   UNL A   1      49.185  27.357  24.470  1.00  0.00    -0.206 F 
ATOM     95  C   UNL A   1      51.262  26.387  24.979  1.00  0.00     0.059 A 
ATOM     96  C   UNL A   1      51.690  25.552  27.220  1.00  0.00     0.059 A 
ATOM     97  F   UNL A   1      50.014  25.697  28.853  1.00  0.00    -0.206 F 
ATOM     98  C   UNL A   1      52.109  25.783  25.911  1.00  0.00     0.060 A 
BRANCH  98  99
ATOM     99  S   UNL A   1      53.781  25.337  25.396  1.00  0.00     0.124 S 
ATOM    100  O   UNL A   1      53.538  24.118  24.631  1.00  0.00    -0.237 OA
ATOM    101  O   UNL A   1      54.189  26.502  24.618  1.00  0.00    -0.237 OA
ATOM    102  O   UNL A   1      54.489  25.154  26.659  1.00  0.00    -0.744 OA
ENDBRANCH  98  99
ENDBRANCH  66  91
ENDBRANCH  40  41
ENDBRANCH  33  35
ENDBRANCH  32  33
ENDBRANCH  31  32
ENDBRANCH  30  31
ENDBRANCH  29  30
ENDBRANCH  28  29
ENDBRANCH   1  28
TORSDOF 25
ENDMDL
MODEL 3
REMARK VINA RESULT:      -8.4      4.198     11.157
REMARK SMILES CSc1nc(O)nc(C)c1C(=O)N1C[C@@H](O)C[C@@H]1C(=O)OCCOCCOCCOC(=O)c1ccc(-c2c3nc(c(-c4c(F)cc(S(=O)(=O)[O-])cc4F)c4ccc([nH]4)c(-c4c(F)cc(S(=O)(=O)[O-])cc4F)c4nc(c(-c5c(F)cc(S(=O)(=O)[O-])cc5F)c5ccc2[nH]5)C=C4)C=C3)cc1
REMARK SMILES IDX 25 1 24 2 23 3 22 4 21 5 19 6 20 7 18 8 13 9 14 10 15 11
REMARK SMILES IDX 17 12 11 13 12 14 10 15 3 16 4 17 5 18 8 19 7 20 9 21 2 22
REMARK SMILES IDX 1 23 6 24 16 26 26 28 27 29 28 30 29 31 30 32 31 33 32 34
REMARK SMILES IDX 33 35 34 36 98 37 35 38 97 39 36 40 37 41 38 42 91 43 39 44
REMARK SMILES IDX 96 45 90 46 92 47 40 48 95 49 89 50 88 51 41 53 75 54 54 55
REMARK SMILES IDX 74 56 55 57 58 58 73 59 93 60 56 61 57 62 72 64 94 65 59 66
REMARK SMILES IDX 42 67 43 68 52 69 44 70 45 71 51 72 53 73 46 74 47 75 48 76
REMARK SMILES IDX 49 77 50 78 76 79 77 80 86 81 78 82 79 83 85 84 87 85 80 86
REMARK SMILES IDX 81 87 82 88 83 89 84 90 60 91 61 92 70 93 62 94 63 95 69 96
REMARK SMILES IDX 71 97 64 98 65 99 66 100 67 101 68 102
REMARK H PARENT 6 25 16 27 92 52 58 63
REMARK Flexibility Score: inf
ROOT
ATOM      1  C   UNL A   1      33.938  32.431  28.022  1.00  0.00     0.188 C 
ENDROOT
BRANCH   1   2
ATOM      2  O   UNL A   1      32.761  31.993  27.361  1.00  0.00    -0.376 OA
BRANCH   2   3
ATOM      3  C   UNL A   1      32.528  30.594  27.236  1.00  0.00     0.202 C 
BRANCH   3   4
ATOM      4  C   UNL A   1      31.794  30.114  25.983  1.00  0.00     0.261 C 
BRANCH   4   5
ATOM      5  O   UNL A   1      31.421  28.721  26.077  1.00  0.00    -0.462 OA
BRANCH   5   6
ATOM      6  C   UNL A   1      32.363  27.855  25.629  1.00  0.00     0.329 C 
ATOM      7  O   UNL A   1      33.221  27.346  26.347  1.00  0.00    -0.250 OA
BRANCH   6   8
ATOM      8  C   UNL A   1      32.246  27.481  24.145  1.00  0.00     0.198 C 
ATOM      9  N   UNL A   1      32.469  26.145  23.535  1.00  0.00    -0.322 N 
ATOM     10  C   UNL A   1      32.730  26.455  22.135  1.00  0.00     0.152 C 
ATOM     11  C   UNL A   1      33.797  27.520  22.245  1.00  0.00     0.136 C 
ATOM     12  C   UNL A   1      33.242  28.395  23.368  1.00  0.00     0.071 C 
BRANCH   9  13
ATOM     13  C   UNL A   1      31.619  25.076  23.798  1.00  0.00     0.259 C 
ATOM     14  O   UNL A   1      30.587  24.926  23.149  1.00  0.00    -0.269 OA
BRANCH  13  15
ATOM     15  C   UNL A   1      31.898  24.202  24.996  1.00  0.00     0.093 A 
ATOM     16  C   UNL A   1      32.859  23.189  25.107  1.00  0.00     0.116 A 
ATOM     17  N   UNL A   1      33.046  22.468  26.239  1.00  0.00    -0.188 NA
ATOM     18  C   UNL A   1      32.251  22.741  27.255  1.00  0.00     0.315 A 
ATOM     19  C   UNL A   1      31.097  24.353  26.139  1.00  0.00     0.058 A 
ATOM     20  N   UNL A   1      31.262  23.622  27.276  1.00  0.00    -0.200 NA
ATOM     21  C   UNL A   1      29.916  25.279  26.209  1.00  0.00     0.068 C 
BRANCH  16  22
ATOM     22  S   UNL A   1      33.763  22.464  23.751  1.00  0.00    -0.109 SA
ATOM     23  C   UNL A   1      35.491  22.689  24.258  1.00  0.00     0.092 C 
ENDBRANCH  16  22
BRANCH  18  24
ATOM     24  O   UNL A   1      32.403  22.014  28.390  1.00  0.00    -0.479 OA
ATOM     25  H   UNL A   1      32.024  22.313  29.193  1.00  0.00     0.297 HD
ENDBRANCH  18  24
ENDBRANCH  13  15
ENDBRANCH   9  13
BRANCH  11  26
ATOM     26  O   UNL A   1      34.038  28.230  21.052  1.00  0.00    -0.391 OA
ATOM     27  H   UNL A   1      34.917  28.002  20.711  1.00  0.00     0.211 HD
ENDBRANCH  11  26
ENDBRANCH   6   8
ENDBRANCH   5   6
ENDBRANCH   4   5
ENDBRANCH   3   4
ENDBRANCH   2   3
ENDBRANCH   1   2
BRANCH   1  28
ATOM     28  C   UNL A   1      33.956  33.840  28.640  1.00  0.00     0.188 C 
BRANCH  28  29
ATOM     29  O   UNL A   1      34.197  33.991  30.017  1.00  0.00    -0.376 OA
BRANCH  29  30
ATOM     30  C   UNL A   1      35.406  33.531  30.597  1.00  0.00     0.202 C 
BRANCH  30  31
ATOM     31  C   UNL A   1      35.550  32.287  31.491  1.00  0.00     0.261 C 
BRANCH  31  32
ATOM     32  O   UNL A   1      36.514  31.307  31.106  1.00  0.00    -0.460 OA
BRANCH  32  33
ATOM     33  C   UNL A   1      37.527  31.094  31.970  1.00  0.00     0.338 C 
ATOM     34  O   UNL A   1      37.528  31.280  33.187  1.00  0.00    -0.246 OA
BRANCH  33  35
ATOM     35  C   UNL A   1      38.667  30.539  31.235  1.00  0.00     0.060 A 
ATOM     36  C   UNL A   1      39.744  29.970  31.930  1.00  0.00     0.016 A 
ATOM     37  C   UNL A   1      38.694  30.648  29.846  1.00  0.00     0.016 A 
ATOM     38  C   UNL A   1      40.854  29.500  31.234  1.00  0.00     0.010 A 
ATOM     39  C   UNL A   1      39.815  30.198  29.151  1.00  0.00     0.010 A 
ATOM     40  C   UNL A   1      40.905  29.642  29.844  1.00  0.00    -0.014 A 
BRANCH  40  41
ATOM     41  C   UNL A   1      42.159  29.363  29.116  1.00  0.00     0.031 A 
ATOM     42  C   UNL A   1      42.393  27.976  28.598  1.00  0.00     0.074 A 
ATOM     43  C   UNL A   1      43.074  30.331  28.936  1.00  0.00     0.049 A 
ATOM     44  N   UNL A   1      43.468  27.465  28.059  1.00  0.00    -0.248 NA
ATOM     45  C   UNL A   1      41.262  27.040  28.702  1.00  0.00     0.031 C 
ATOM     46  C   UNL A   1      42.913  31.728  29.332  1.00  0.00     0.029 A 
ATOM     47  N   UNL A   1      44.328  30.275  28.388  1.00  0.00    -0.354 N 
ATOM     48  C   UNL A   1      43.148  26.146  27.766  1.00  0.00     0.074 A 
ATOM     49  C   UNL A   1      41.784  25.930  28.200  1.00  0.00     0.031 C 
ATOM     50  C   UNL A   1      44.040  32.396  29.030  1.00  0.00     0.029 A 
ATOM     51  C   UNL A   1      45.012  31.463  28.463  1.00  0.00     0.049 A 
ATOM     52  H   UNL A   1      44.702  29.461  27.979  1.00  0.00     0.167 HD
ATOM     53  C   UNL A   1      43.926  25.202  27.188  1.00  0.00     0.037 A 
ATOM     54  C   UNL A   1      46.289  31.751  28.145  1.00  0.00     0.037 A 
ATOM     55  C   UNL A   1      45.288  25.424  26.783  1.00  0.00     0.049 A 
ATOM     56  C   UNL A   1      47.174  30.657  27.605  1.00  0.00     0.074 A 
ATOM     57  C   UNL A   1      46.172  24.533  26.205  1.00  0.00     0.029 A 
ATOM     58  N   UNL A   1      45.966  26.627  26.924  1.00  0.00    -0.354 N 
ATOM     59  N   UNL A   1      46.874  29.404  27.354  1.00  0.00    -0.248 NA
ATOM     60  C   UNL A   1      48.570  31.012  27.319  1.00  0.00     0.031 C 
ATOM     61  C   UNL A   1      47.399  25.184  26.037  1.00  0.00     0.029 A 
ATOM     62  C   UNL A   1      47.266  26.495  26.467  1.00  0.00     0.049 A 
ATOM     63  H   UNL A   1      45.579  27.454  27.294  1.00  0.00     0.167 HD
ATOM     64  C   UNL A   1      48.040  28.824  26.866  1.00  0.00     0.074 A 
ATOM     65  C   UNL A   1      49.048  29.866  26.851  1.00  0.00     0.031 C 
ATOM     66  C   UNL A   1      48.256  27.545  26.468  1.00  0.00     0.037 A 
BRANCH  53  67
ATOM     67  C   UNL A   1      43.327  23.836  27.006  1.00  0.00     0.058 A 
ATOM     68  C   UNL A   1      43.188  22.943  28.080  1.00  0.00     0.135 A 
ATOM     69  C   UNL A   1      42.891  23.414  25.740  1.00  0.00     0.135 A 
ATOM     70  F   UNL A   1      43.612  23.289  29.307  1.00  0.00    -0.206 F 
ATOM     71  C   UNL A   1      42.663  21.667  27.900  1.00  0.00     0.059 A 
ATOM     72  C   UNL A   1      42.342  22.152  25.542  1.00  0.00     0.059 A 
ATOM     73  F   UNL A   1      43.008  24.227  24.679  1.00  0.00    -0.206 F 
ATOM     74  C   UNL A   1      42.246  21.279  26.625  1.00  0.00     0.060 A 
BRANCH  74  75
ATOM     75  S   UNL A   1      41.583  19.615  26.404  1.00  0.00     0.124 S 
ATOM     76  O   UNL A   1      42.375  19.133  25.277  1.00  0.00    -0.237 OA
ATOM     77  O   UNL A   1      41.870  18.992  27.693  1.00  0.00    -0.237 OA
ATOM     78  O   UNL A   1      40.169  19.846  26.124  1.00  0.00    -0.744 OA
ENDBRANCH  74  75
ENDBRANCH  53  67
BRANCH  54  79
ATOM     79  C   UNL A   1      46.802  33.130  28.348  1.00  0.00     0.058 A 
ATOM     80  C   UNL A   1      46.720  34.085  27.325  1.00  0.00     0.135 A 
ATOM     81  C   UNL A   1      47.330  33.537  29.583  1.00  0.00     0.135 A 
ATOM     82  F   UNL A   1      46.235  33.738  26.122  1.00  0.00    -0.206 F 
ATOM     83  C   UNL A   1      47.132  35.398  27.521  1.00  0.00     0.059 A 
ATOM     84  C   UNL A   1      47.729  34.850  29.811  1.00  0.00     0.059 A 
ATOM     85  F   UNL A   1      47.423  32.660  30.596  1.00  0.00    -0.206 F 
ATOM     86  C   UNL A   1      47.623  35.774  28.773  1.00  0.00     0.060 A 
BRANCH  86  87
ATOM     87  S   UNL A   1      48.064  37.505  29.042  1.00  0.00     0.124 S 
ATOM     88  O   UNL A   1      49.517  37.462  28.933  1.00  0.00    -0.237 OA
ATOM     89  O   UNL A   1      47.361  38.171  27.949  1.00  0.00    -0.237 OA
ATOM     90  O   UNL A   1      47.539  37.783  30.375  1.00  0.00    -0.744 OA
ENDBRANCH  86  87
ENDBRANCH  54  79
BRANCH  66  91
ATOM     91  C   UNL A   1      49.630  27.196  25.967  1.00  0.00     0.058 A 
ATOM     92  C   UNL A   1      50.625  26.718  26.831  1.00  0.00     0.135 A 
ATOM     93  C   UNL A   1      49.924  27.262  24.596  1.00  0.00     0.135 A 
ATOM     94  F   UNL A   1      50.395  26.643  28.152  1.00  0.00    -0.206 F 
ATOM     95  C   UNL A   1      51.872  26.325  26.354  1.00  0.00     0.059 A 
ATOM     96  C   UNL A   1      51.156  26.852  24.093  1.00  0.00     0.059 A 
ATOM     97  F   UNL A   1      49.003  27.703  23.726  1.00  0.00    -0.206 F 
ATOM     98  C   UNL A   1      52.126  26.390  24.983  1.00  0.00     0.060 A 
BRANCH  98  99
ATOM     99  S   UNL A   1      53.729  25.827  24.373  1.00  0.00     0.124 S 
ATOM    100  O   UNL A   1      53.738  24.435  24.813  1.00  0.00    -0.237 OA
ATOM    101  O   UNL A   1      53.607  26.036  22.934  1.00  0.00    -0.237 OA
ATOM    102  O   UNL A   1      54.678  26.705  25.051  1.00  0.00    -0.744 OA
ENDBRANCH  98  99
ENDBRANCH  66  91
ENDBRANCH  40  41
ENDBRANCH  33  35
ENDBRANCH  32  33
ENDBRANCH  31  32
ENDBRANCH  30  31
ENDBRANCH  29  30
ENDBRANCH  28  29
ENDBRANCH   1  28
TORSDOF 25
ENDMDL
