MODEL 1
REMARK VINA RESULT:     -11.0      0.000      0.000
REMARK SMILES C[C@H](NC(=O)c1cccc(NC(=O)c2ccccc2C(=O)OCCOCCOCCOC(=O)c2ccc(-c3c4nc(c(-c5c(F)cc(S(=O)(=O)[O-])cc5F)c5ccc([nH]5)c(-c5c(F)cc(S(=O)(=O)[O-])cc5F)c5nc(c(-c6c(F)cc(S(=O)(=O)[O-])cc6F)c6ccc3[nH]6)C=C5)C=C4)cc2)c1)c1ccccc1
REMARK SMILES IDX 26 1 25 2 24 3 23 4 22 5 20 6 21 7 19 8 14 9 15 10 16 11
REMARK SMILES IDX 18 12 17 13 12 14 11 15 13 17 10 18 6 19 7 20 100 21 8 22
REMARK SMILES IDX 9 23 4 24 3 25 5 27 2 28 1 29 101 30 102 31 106 32 103 33
REMARK SMILES IDX 105 34 104 35 27 36 28 37 29 38 30 39 31 40 32 41 33 42
REMARK SMILES IDX 34 43 35 44 99 45 36 46 98 47 37 48 38 49 39 50 92 51 40 52
REMARK SMILES IDX 97 53 91 54 93 55 41 56 96 57 90 58 89 59 42 61 76 62 55 63
REMARK SMILES IDX 75 64 56 65 59 66 74 67 94 68 57 69 58 70 73 72 95 73 60 74
REMARK SMILES IDX 43 75 44 76 53 77 45 78 46 79 52 80 54 81 47 82 48 83 49 84
REMARK SMILES IDX 50 85 51 86 77 87 78 88 87 89 79 90 80 91 86 92 88 93 81 94
REMARK SMILES IDX 82 95 83 96 84 97 85 98 61 99 62 100 71 101 63 102 64 103
REMARK SMILES IDX 70 104 72 105 65 106 66 107 67 108 68 109 69 110
REMARK H PARENT 11 16 3 26 93 60 59 71
REMARK Flexibility Score: inf
ROOT
ATOM      1  C   UNL A   1      32.430  28.350  27.632  1.00  0.00     0.188 C 
ENDROOT
BRANCH   1   2
ATOM      2  O   UNL A   1      31.229  27.697  27.266  1.00  0.00    -0.376 OA
BRANCH   2   3
ATOM      3  C   UNL A   1      31.343  26.483  26.553  1.00  0.00     0.202 C 
BRANCH   3   4
ATOM      4  C   UNL A   1      30.247  26.081  25.558  1.00  0.00     0.261 C 
BRANCH   4   5
ATOM      5  O   UNL A   1      30.571  25.846  24.192  1.00  0.00    -0.460 OA
BRANCH   5   6
ATOM      6  C   UNL A   1      30.410  26.913  23.383  1.00  0.00     0.339 C 
ATOM      7  O   UNL A   1      29.351  27.383  22.985  1.00  0.00    -0.246 OA
BRANCH   6   8
ATOM      8  C   UNL A   1      31.700  27.570  23.142  1.00  0.00     0.072 A 
ATOM      9  C   UNL A   1      32.730  27.042  22.350  1.00  0.00     0.054 A 
ATOM     10  C   UNL A   1      33.937  27.768  22.285  1.00  0.00     0.015 A 
ATOM     11  C   UNL A   1      34.090  28.996  22.942  1.00  0.00     0.001 A 
ATOM     12  C   UNL A   1      31.853  28.813  23.787  1.00  0.00     0.016 A 
ATOM     13  C   UNL A   1      33.044  29.524  23.688  1.00  0.00     0.001 A 
BRANCH   9  14
ATOM     14  C   UNL A   1      32.724  25.728  21.644  1.00  0.00     0.256 C 
ATOM     15  N   UNL A   1      33.343  24.566  22.066  1.00  0.00    -0.322 N 
ATOM     16  H   UNL A   1      33.324  23.852  21.389  1.00  0.00     0.170 HD
ATOM     17  O   UNL A   1      32.118  25.679  20.568  1.00  0.00    -0.269 OA
BRANCH  15  18
ATOM     18  C   UNL A   1      33.995  24.183  23.252  1.00  0.00     0.042 A 
ATOM     19  C   UNL A   1      35.355  22.504  24.392  1.00  0.00     0.041 A 
ATOM     20  C   UNL A   1      35.660  23.464  25.370  1.00  0.00     0.014 A 
ATOM     21  C   UNL A   1      34.510  22.867  23.331  1.00  0.00     0.040 A 
ATOM     22  C   UNL A   1      35.065  24.725  25.345  1.00  0.00     0.003 A 
ATOM     23  C   UNL A   1      34.189  25.060  24.315  1.00  0.00     0.026 A 
BRANCH  19  24
ATOM     24  C   UNL A   1      35.914  21.136  24.605  1.00  0.00     0.251 C 
ATOM     25  N   UNL A   1      35.183  20.004  24.906  1.00  0.00    -0.346 N 
ATOM     26  H   UNL A   1      35.741  19.211  25.078  1.00  0.00     0.164 HD
ATOM     27  O   UNL A   1      37.126  20.992  24.439  1.00  0.00    -0.269 OA
BRANCH  25  28
ATOM     28  C   UNL A   1      33.744  19.743  25.020  1.00  0.00     0.109 C 
ATOM     29  C   UNL A   1      33.578  18.437  25.770  1.00  0.00     0.036 C 
BRANCH  28  30
ATOM     30  C   UNL A   1      32.914  20.817  25.749  1.00  0.00    -0.026 A 
ATOM     31  C   UNL A   1      33.326  21.272  27.027  1.00  0.00     0.006 A 
ATOM     32  C   UNL A   1      31.755  21.401  25.220  1.00  0.00     0.006 A 
ATOM     33  C   UNL A   1      32.691  22.329  27.684  1.00  0.00     0.000 A 
ATOM     34  C   UNL A   1      31.104  22.450  25.890  1.00  0.00     0.000 A 
ATOM     35  C   UNL A   1      31.583  22.928  27.108  1.00  0.00     0.000 A 
ENDBRANCH  28  30
ENDBRANCH  25  28
ENDBRANCH  19  24
ENDBRANCH  15  18
ENDBRANCH   9  14
ENDBRANCH   6   8
ENDBRANCH   5   6
ENDBRANCH   4   5
ENDBRANCH   3   4
ENDBRANCH   2   3
ENDBRANCH   1   2
BRANCH   1  36
ATOM     36  C   UNL A   1      32.596  29.846  27.267  1.00  0.00     0.188 C 
BRANCH  36  37
ATOM     37  O   UNL A   1      33.895  30.349  27.530  1.00  0.00    -0.376 OA
BRANCH  37  38
ATOM     38  C   UNL A   1      33.993  31.724  27.865  1.00  0.00     0.202 C 
BRANCH  38  39
ATOM     39  C   UNL A   1      34.735  32.171  29.144  1.00  0.00     0.261 C 
BRANCH  39  40
ATOM     40  O   UNL A   1      35.719  31.282  29.698  1.00  0.00    -0.460 OA
BRANCH  40  41
ATOM     41  C   UNL A   1      36.739  31.806  30.421  1.00  0.00     0.338 C 
ATOM     42  O   UNL A   1      36.640  32.562  31.369  1.00  0.00    -0.246 OA
BRANCH  41  43
ATOM     43  C   UNL A   1      37.978  31.084  30.022  1.00  0.00     0.060 A 
ATOM     44  C   UNL A   1      38.937  30.780  31.004  1.00  0.00     0.016 A 
ATOM     45  C   UNL A   1      38.133  30.591  28.723  1.00  0.00     0.016 A 
ATOM     46  C   UNL A   1      40.048  29.989  30.689  1.00  0.00     0.010 A 
ATOM     47  C   UNL A   1      39.270  29.840  28.397  1.00  0.00     0.010 A 
ATOM     48  C   UNL A   1      40.245  29.557  29.371  1.00  0.00    -0.014 A 
BRANCH  48  49
ATOM     49  C   UNL A   1      41.586  29.073  28.947  1.00  0.00     0.031 A 
ATOM     50  C   UNL A   1      42.687  30.099  28.866  1.00  0.00     0.074 A 
ATOM     51  C   UNL A   1      41.837  27.788  28.636  1.00  0.00     0.049 A 
ATOM     52  N   UNL A   1      43.919  29.970  28.453  1.00  0.00    -0.248 NA
ATOM     53  C   UNL A   1      42.338  31.461  29.308  1.00  0.00     0.031 C 
ATOM     54  C   UNL A   1      40.876  26.692  28.708  1.00  0.00     0.029 A 
ATOM     55  N   UNL A   1      42.990  27.196  28.175  1.00  0.00    -0.354 N 
ATOM     56  C   UNL A   1      44.487  31.234  28.569  1.00  0.00     0.074 A 
ATOM     57  C   UNL A   1      43.459  32.120  29.069  1.00  0.00     0.031 C 
ATOM     58  C   UNL A   1      41.472  25.562  28.279  1.00  0.00     0.029 A 
ATOM     59  C   UNL A   1      42.845  25.863  27.872  1.00  0.00     0.049 A 
ATOM     60  H   UNL A   1      43.841  27.682  28.073  1.00  0.00     0.167 HD
ATOM     61  C   UNL A   1      45.751  31.625  28.285  1.00  0.00     0.037 A 
ATOM     62  C   UNL A   1      43.710  24.995  27.301  1.00  0.00     0.037 A 
ATOM     63  C   UNL A   1      46.768  30.745  27.778  1.00  0.00     0.049 A 
ATOM     64  C   UNL A   1      45.098  25.466  26.932  1.00  0.00     0.074 A 
ATOM     65  C   UNL A   1      48.087  31.039  27.484  1.00  0.00     0.029 A 
ATOM     66  N   UNL A   1      46.576  29.406  27.472  1.00  0.00    -0.354 N 
ATOM     67  N   UNL A   1      45.636  26.654  27.081  1.00  0.00    -0.248 NA
ATOM     68  C   UNL A   1      45.998  24.478  26.317  1.00  0.00     0.031 C 
ATOM     69  C   UNL A   1      48.677  29.894  26.940  1.00  0.00     0.029 A 
ATOM     70  C   UNL A   1      47.745  28.868  26.961  1.00  0.00     0.049 A 
ATOM     71  H   UNL A   1      45.735  28.912  27.598  1.00  0.00     0.167 HD
ATOM     72  C   UNL A   1      46.942  26.547  26.608  1.00  0.00     0.074 A 
ATOM     73  C   UNL A   1      47.117  25.176  26.177  1.00  0.00     0.031 C 
ATOM     74  C   UNL A   1      47.910  27.497  26.542  1.00  0.00     0.037 A 
BRANCH  61  75
ATOM     75  C   UNL A   1      46.086  33.078  28.478  1.00  0.00     0.058 A 
ATOM     76  C   UNL A   1      45.972  34.014  27.437  1.00  0.00     0.135 A 
ATOM     77  C   UNL A   1      46.514  33.543  29.732  1.00  0.00     0.135 A 
ATOM     78  F   UNL A   1      45.591  33.620  26.211  1.00  0.00    -0.206 F 
ATOM     79  C   UNL A   1      46.298  35.353  27.625  1.00  0.00     0.059 A 
ATOM     80  C   UNL A   1      46.814  34.884  29.951  1.00  0.00     0.059 A 
ATOM     81  F   UNL A   1      46.648  32.690  30.760  1.00  0.00    -0.206 F 
ATOM     82  C   UNL A   1      46.717  35.778  28.886  1.00  0.00     0.060 A 
BRANCH  82  83
ATOM     83  S   UNL A   1      47.131  37.520  29.115  1.00  0.00     0.124 S 
ATOM     84  O   UNL A   1      48.584  37.494  28.983  1.00  0.00    -0.237 OA
ATOM     85  O   UNL A   1      46.406  38.157  28.020  1.00  0.00    -0.237 OA
ATOM     86  O   UNL A   1      46.627  37.818  30.452  1.00  0.00    -0.744 OA
ENDBRANCH  82  83
ENDBRANCH  61  75
BRANCH  62  87
ATOM     87  C   UNL A   1      43.287  23.595  27.020  1.00  0.00     0.058 A 
ATOM     88  C   UNL A   1      43.186  22.642  28.045  1.00  0.00     0.135 A 
ATOM     89  C   UNL A   1      42.984  23.177  25.714  1.00  0.00     0.135 A 
ATOM     90  F   UNL A   1      43.484  22.982  29.309  1.00  0.00    -0.206 F 
ATOM     91  C   UNL A   1      42.805  21.328  27.788  1.00  0.00     0.059 A 
ATOM     92  C   UNL A   1      42.574  21.876  25.435  1.00  0.00     0.059 A 
ATOM     93  F   UNL A   1      43.066  24.046  24.694  1.00  0.00    -0.206 F 
ATOM     94  C   UNL A   1      42.494  20.956  26.478  1.00  0.00     0.060 A 
BRANCH  94  95
ATOM     95  S   UNL A   1      41.938  19.265  26.167  1.00  0.00     0.124 S 
ATOM     96  O   UNL A   1      42.718  18.910  24.987  1.00  0.00    -0.237 OA
ATOM     97  O   UNL A   1      42.311  18.589  27.406  1.00  0.00    -0.237 OA
ATOM     98  O   UNL A   1      40.503  19.417  25.952  1.00  0.00    -0.744 OA
ENDBRANCH  94  95
ENDBRANCH  62  87
BRANCH  74  99
ATOM     99  C   UNL A   1      49.265  27.088  26.024  1.00  0.00     0.058 A 
ATOM    100  C   UNL A   1      49.609  27.195  24.668  1.00  0.00     0.135 A 
ATOM    101  C   UNL A   1      50.260  26.651  26.917  1.00  0.00     0.135 A 
ATOM    102  F   UNL A   1      48.699  27.604  23.771  1.00  0.00    -0.206 F 
ATOM    103  C   UNL A   1      50.881  26.860  24.211  1.00  0.00     0.059 A 
ATOM    104  C   UNL A   1      51.547  26.343  26.487  1.00  0.00     0.059 A 
ATOM    105  F   UNL A   1      49.993  26.543  28.228  1.00  0.00    -0.206 F 
ATOM    106  C   UNL A   1      51.844  26.439  25.129  1.00  0.00     0.060 A 
BRANCH 106 107
ATOM    107  S   UNL A   1      53.500  26.045  24.527  1.00  0.00     0.124 S 
ATOM    108  O   UNL A   1      53.521  24.591  24.655  1.00  0.00    -0.237 OA
ATOM    109  O   UNL A   1      53.468  26.561  23.162  1.00  0.00    -0.237 OA
ATOM    110  O   UNL A   1      54.377  26.767  25.443  1.00  0.00    -0.744 OA
ENDBRANCH 106 107
ENDBRANCH  74  99
ENDBRANCH  48  49
ENDBRANCH  41  43
ENDBRANCH  40  41
ENDBRANCH  39  40
ENDBRANCH  38  39
ENDBRANCH  37  38
ENDBRANCH  36  37
ENDBRANCH   1  36
TORSDOF 25
ENDMDL
MODEL 2
REMARK VINA RESULT:     -10.7      5.938     11.446
REMARK SMILES C[C@H](NC(=O)c1cccc(NC(=O)c2ccccc2C(=O)OCCOCCOCCOC(=O)c2ccc(-c3c4nc(c(-c5c(F)cc(S(=O)(=O)[O-])cc5F)c5ccc([nH]5)c(-c5c(F)cc(S(=O)(=O)[O-])cc5F)c5nc(c(-c6c(F)cc(S(=O)(=O)[O-])cc6F)c6ccc3[nH]6)C=C5)C=C4)cc2)c1)c1ccccc1
REMARK SMILES IDX 26 1 25 2 24 3 23 4 22 5 20 6 21 7 19 8 14 9 15 10 16 11
REMARK SMILES IDX 18 12 17 13 12 14 11 15 13 17 10 18 6 19 7 20 100 21 8 22
REMARK SMILES IDX 9 23 4 24 3 25 5 27 2 28 1 29 101 30 102 31 106 32 103 33
REMARK SMILES IDX 105 34 104 35 27 36 28 37 29 38 30 39 31 40 32 41 33 42
REMARK SMILES IDX 34 43 35 44 99 45 36 46 98 47 37 48 38 49 39 50 92 51 40 52
REMARK SMILES IDX 97 53 91 54 93 55 41 56 96 57 90 58 89 59 42 61 76 62 55 63
REMARK SMILES IDX 75 64 56 65 59 66 74 67 94 68 57 69 58 70 73 72 95 73 60 74
REMARK SMILES IDX 43 75 44 76 53 77 45 78 46 79 52 80 54 81 47 82 48 83 49 84
REMARK SMILES IDX 50 85 51 86 77 87 78 88 87 89 79 90 80 91 86 92 88 93 81 94
REMARK SMILES IDX 82 95 83 96 84 97 85 98 61 99 62 100 71 101 63 102 64 103
REMARK SMILES IDX 70 104 72 105 65 106 66 107 67 108 68 109 69 110
REMARK H PARENT 11 16 3 26 93 60 59 71
REMARK Flexibility Score: inf
ROOT
ATOM      1  C   UNL A   1      40.075  21.414  26.612  1.00  0.00     0.188 C 
ENDROOT
BRANCH   1   2
ATOM      2  O   UNL A   1      38.906  21.367  25.815  1.00  0.00    -0.376 OA
BRANCH   2   3
ATOM      3  C   UNL A   1      37.908  22.332  26.072  1.00  0.00     0.202 C 
BRANCH   3   4
ATOM      4  C   UNL A   1      36.527  22.188  25.420  1.00  0.00     0.261 C 
BRANCH   4   5
ATOM      5  O   UNL A   1      35.672  23.320  25.294  1.00  0.00    -0.460 OA
BRANCH   5   6
ATOM      6  C   UNL A   1      34.485  23.202  25.925  1.00  0.00     0.339 C 
ATOM      7  O   UNL A   1      34.271  23.333  27.123  1.00  0.00    -0.246 OA
BRANCH   6   8
ATOM      8  C   UNL A   1      33.404  23.038  24.947  1.00  0.00     0.072 A 
ATOM      9  C   UNL A   1      32.048  23.279  25.208  1.00  0.00     0.054 A 
ATOM     10  C   UNL A   1      31.126  22.999  24.177  1.00  0.00     0.015 A 
ATOM     11  C   UNL A   1      31.549  22.544  22.921  1.00  0.00     0.001 A 
ATOM     12  C   UNL A   1      33.825  22.597  23.677  1.00  0.00     0.016 A 
ATOM     13  C   UNL A   1      32.901  22.351  22.667  1.00  0.00     0.001 A 
BRANCH   9  14
ATOM     14  C   UNL A   1      31.455  23.708  26.508  1.00  0.00     0.256 C 
ATOM     15  N   UNL A   1      30.921  24.951  26.798  1.00  0.00    -0.322 N 
ATOM     16  H   UNL A   1      30.703  25.064  27.751  1.00  0.00     0.170 HD
ATOM     17  O   UNL A   1      31.454  22.874  27.420  1.00  0.00    -0.269 OA
BRANCH  15  18
ATOM     18  C   UNL A   1      30.623  26.088  26.027  1.00  0.00     0.042 A 
ATOM     19  C   UNL A   1      31.178  28.408  25.498  1.00  0.00     0.041 A 
ATOM     20  C   UNL A   1      30.431  28.283  24.316  1.00  0.00     0.014 A 
ATOM     21  C   UNL A   1      31.266  27.304  26.361  1.00  0.00     0.040 A 
ATOM     22  C   UNL A   1      29.713  27.118  24.045  1.00  0.00     0.003 A 
ATOM     23  C   UNL A   1      29.766  26.046  24.930  1.00  0.00     0.026 A 
BRANCH  19  24
ATOM     24  C   UNL A   1      31.770  29.752  25.772  1.00  0.00     0.251 C 
ATOM     25  N   UNL A   1      33.112  30.068  25.717  1.00  0.00    -0.346 N 
ATOM     26  H   UNL A   1      33.310  30.990  26.000  1.00  0.00     0.164 HD
ATOM     27  O   UNL A   1      30.986  30.673  26.009  1.00  0.00    -0.269 OA
BRANCH  25  28
ATOM     28  C   UNL A   1      34.303  29.309  25.322  1.00  0.00     0.109 C 
ATOM     29  C   UNL A   1      34.759  28.517  26.532  1.00  0.00     0.036 C 
BRANCH  28  30
ATOM     30  C   UNL A   1      34.124  28.323  24.152  1.00  0.00    -0.026 A 
ATOM     31  C   UNL A   1      33.976  26.938  24.418  1.00  0.00     0.006 A 
ATOM     32  C   UNL A   1      34.085  28.708  22.804  1.00  0.00     0.006 A 
ATOM     33  C   UNL A   1      33.687  26.011  23.415  1.00  0.00     0.000 A 
ATOM     34  C   UNL A   1      33.814  27.773  21.793  1.00  0.00     0.000 A 
ATOM     35  C   UNL A   1      33.594  26.431  22.099  1.00  0.00     0.000 A 
ENDBRANCH  28  30
ENDBRANCH  25  28
ENDBRANCH  19  24
ENDBRANCH  15  18
ENDBRANCH   9  14
ENDBRANCH   6   8
ENDBRANCH   5   6
ENDBRANCH   4   5
ENDBRANCH   3   4
ENDBRANCH   2   3
ENDBRANCH   1   2
BRANCH   1  36
ATOM     36  C   UNL A   1      41.304  22.188  26.073  1.00  0.00     0.188 C 
BRANCH  36  37
ATOM     37  O   UNL A   1      42.508  21.442  26.131  1.00  0.00    -0.376 OA
BRANCH  37  38
ATOM     38  C   UNL A   1      43.702  22.173  26.359  1.00  0.00     0.202 C 
BRANCH  38  39
ATOM     39  C   UNL A   1      43.920  23.551  25.696  1.00  0.00     0.261 C 
BRANCH  39  40
ATOM     40  O   UNL A   1      43.666  24.726  26.483  1.00  0.00    -0.460 OA
BRANCH  40  41
ATOM     41  C   UNL A   1      42.756  25.625  26.038  1.00  0.00     0.338 C 
ATOM     42  O   UNL A   1      42.223  25.636  24.944  1.00  0.00    -0.246 OA
BRANCH  41  43
ATOM     43  C   UNL A   1      42.324  26.432  27.213  1.00  0.00     0.060 A 
ATOM     44  C   UNL A   1      42.821  27.739  27.364  1.00  0.00     0.016 A 
ATOM     45  C   UNL A   1      41.336  25.960  28.083  1.00  0.00     0.016 A 
ATOM     46  C   UNL A   1      42.335  28.569  28.381  1.00  0.00     0.010 A 
ATOM     47  C   UNL A   1      40.887  26.774  29.129  1.00  0.00     0.010 A 
ATOM     48  C   UNL A   1      41.402  28.072  29.299  1.00  0.00    -0.014 A 
BRANCH  48  49
ATOM     49  C   UNL A   1      41.184  28.784  30.587  1.00  0.00     0.031 A 
ATOM     50  C   UNL A   1      40.063  29.791  30.629  1.00  0.00     0.074 A 
ATOM     51  C   UNL A   1      41.939  28.570  31.680  1.00  0.00     0.049 A 
ATOM     52  N   UNL A   1      39.706  30.603  31.587  1.00  0.00    -0.248 NA
ATOM     53  C   UNL A   1      39.239  29.894  29.412  1.00  0.00     0.031 C 
ATOM     54  C   UNL A   1      43.026  27.601  31.787  1.00  0.00     0.029 A 
ATOM     55  N   UNL A   1      41.908  29.178  32.914  1.00  0.00    -0.354 N 
ATOM     56  C   UNL A   1      38.629  31.324  31.084  1.00  0.00     0.074 A 
ATOM     57  C   UNL A   1      38.406  30.870  29.729  1.00  0.00     0.031 C 
ATOM     58  C   UNL A   1      43.578  27.700  33.012  1.00  0.00     0.029 A 
ATOM     59  C   UNL A   1      42.906  28.761  33.763  1.00  0.00     0.049 A 
ATOM     60  H   UNL A   1      41.234  29.851  33.165  1.00  0.00     0.167 HD
ATOM     61  C   UNL A   1      37.890  32.280  31.693  1.00  0.00     0.037 A 
ATOM     62  C   UNL A   1      43.253  29.206  34.990  1.00  0.00     0.037 A 
ATOM     63  C   UNL A   1      38.120  32.738  33.036  1.00  0.00     0.049 A 
ATOM     64  C   UNL A   1      42.456  30.318  35.630  1.00  0.00     0.074 A 
ATOM     65  C   UNL A   1      37.410  33.682  33.754  1.00  0.00     0.029 A 
ATOM     66  N   UNL A   1      39.148  32.298  33.857  1.00  0.00    -0.354 N 
ATOM     67  N   UNL A   1      41.416  30.967  35.161  1.00  0.00    -0.248 NA
ATOM     68  C   UNL A   1      42.877  30.760  36.969  1.00  0.00     0.031 C 
ATOM     69  C   UNL A   1      38.046  33.862  34.986  1.00  0.00     0.029 A 
ATOM     70  C   UNL A   1      39.110  32.977  35.064  1.00  0.00     0.049 A 
ATOM     71  H   UNL A   1      39.806  31.608  33.619  1.00  0.00     0.167 HD
ATOM     72  C   UNL A   1      41.043  31.869  36.156  1.00  0.00     0.074 A 
ATOM     73  C   UNL A   1      41.962  31.676  37.257  1.00  0.00     0.031 C 
ATOM     74  C   UNL A   1      40.028  32.770  36.158  1.00  0.00     0.037 A 
BRANCH  61  75
ATOM     75  C   UNL A   1      36.791  32.921  30.892  1.00  0.00     0.058 A 
ATOM     76  C   UNL A   1      37.048  33.924  29.944  1.00  0.00     0.135 A 
ATOM     77  C   UNL A   1      35.459  32.513  31.068  1.00  0.00     0.135 A 
ATOM     78  F   UNL A   1      38.300  34.370  29.752  1.00  0.00    -0.206 F 
ATOM     79  C   UNL A   1      36.021  34.519  29.218  1.00  0.00     0.059 A 
ATOM     80  C   UNL A   1      34.420  33.072  30.331  1.00  0.00     0.059 A 
ATOM     81  F   UNL A   1      35.156  31.564  31.968  1.00  0.00    -0.206 F 
ATOM     82  C   UNL A   1      34.710  34.085  29.418  1.00  0.00     0.060 A 
BRANCH  82  83
ATOM     83  S   UNL A   1      33.390  34.862  28.465  1.00  0.00     0.124 S 
ATOM     84  O   UNL A   1      34.140  35.812  27.650  1.00  0.00    -0.237 OA
ATOM     85  O   UNL A   1      32.815  33.727  27.749  1.00  0.00    -0.237 OA
ATOM     86  O   UNL A   1      32.533  35.454  29.488  1.00  0.00    -0.744 OA
ENDBRANCH  82  83
ENDBRANCH  61  75
BRANCH  62  87
ATOM     87  C   UNL A   1      44.428  28.618  35.693  1.00  0.00     0.058 A 
ATOM     88  C   UNL A   1      45.727  29.106  35.480  1.00  0.00     0.135 A 
ATOM     89  C   UNL A   1      44.276  27.546  36.588  1.00  0.00     0.135 A 
ATOM     90  F   UNL A   1      45.932  30.114  34.620  1.00  0.00    -0.206 F 
ATOM     91  C   UNL A   1      46.831  28.551  36.123  1.00  0.00     0.059 A 
ATOM     92  C   UNL A   1      45.360  26.993  37.264  1.00  0.00     0.059 A 
ATOM     93  F   UNL A   1      43.057  27.039  36.828  1.00  0.00    -0.206 F 
ATOM     94  C   UNL A   1      46.636  27.498  37.020  1.00  0.00     0.060 A 
BRANCH  94  95
ATOM     95  S   UNL A   1      48.068  26.832  37.896  1.00  0.00     0.124 S 
ATOM     96  O   UNL A   1      47.485  26.470  39.183  1.00  0.00    -0.237 OA
ATOM     97  O   UNL A   1      48.459  25.718  37.037  1.00  0.00    -0.237 OA
ATOM     98  O   UNL A   1      49.000  27.954  37.919  1.00  0.00    -0.744 OA
ENDBRANCH  94  95
ENDBRANCH  62  87
BRANCH  74  99
ATOM     99  C   UNL A   1      39.820  33.595  37.402  1.00  0.00     0.058 A 
ATOM    100  C   UNL A   1      40.525  34.786  37.634  1.00  0.00     0.135 A 
ATOM    101  C   UNL A   1      38.844  33.221  38.342  1.00  0.00     0.135 A 
ATOM    102  F   UNL A   1      41.471  35.190  36.772  1.00  0.00    -0.206 F 
ATOM    103  C   UNL A   1      40.288  35.564  38.764  1.00  0.00     0.059 A 
ATOM    104  C   UNL A   1      38.567  34.001  39.461  1.00  0.00     0.059 A 
ATOM    105  F   UNL A   1      38.127  32.100  38.165  1.00  0.00    -0.206 F 
ATOM    106  C   UNL A   1      39.303  35.165  39.670  1.00  0.00     0.060 A 
BRANCH 106 107
ATOM    107  S   UNL A   1      38.981  36.204  41.112  1.00  0.00     0.124 S 
ATOM    108  O   UNL A   1      38.609  37.468  40.485  1.00  0.00    -0.237 OA
ATOM    109  O   UNL A   1      37.900  35.485  41.779  1.00  0.00    -0.237 OA
ATOM    110  O   UNL A   1      40.256  36.207  41.822  1.00  0.00    -0.744 OA
ENDBRANCH 106 107
ENDBRANCH  74  99
ENDBRANCH  48  49
ENDBRANCH  41  43
ENDBRANCH  40  41
ENDBRANCH  39  40
ENDBRANCH  38  39
ENDBRANCH  37  38
ENDBRANCH  36  37
ENDBRANCH   1  36
TORSDOF 25
ENDMDL
MODEL 3
REMARK VINA RESULT:     -10.4      1.002      2.109
REMARK SMILES C[C@H](NC(=O)c1cccc(NC(=O)c2ccccc2C(=O)OCCOCCOCCOC(=O)c2ccc(-c3c4nc(c(-c5c(F)cc(S(=O)(=O)[O-])cc5F)c5ccc([nH]5)c(-c5c(F)cc(S(=O)(=O)[O-])cc5F)c5nc(c(-c6c(F)cc(S(=O)(=O)[O-])cc6F)c6ccc3[nH]6)C=C5)C=C4)cc2)c1)c1ccccc1
REMARK SMILES IDX 26 1 25 2 24 3 23 4 22 5 20 6 21 7 19 8 14 9 15 10 16 11
REMARK SMILES IDX 18 12 17 13 12 14 11 15 13 17 10 18 6 19 7 20 100 21 8 22
REMARK SMILES IDX 9 23 4 24 3 25 5 27 2 28 1 29 101 30 102 31 106 32 103 33
REMARK SMILES IDX 105 34 104 35 27 36 28 37 29 38 30 39 31 40 32 41 33 42
REMARK SMILES IDX 34 43 35 44 99 45 36 46 98 47 37 48 38 49 39 50 92 51 40 52
REMARK SMILES IDX 97 53 91 54 93 55 41 56 96 57 90 58 89 59 42 61 76 62 55 63
REMARK SMILES IDX 75 64 56 65 59 66 74 67 94 68 57 69 58 70 73 72 95 73 60 74
REMARK SMILES IDX 43 75 44 76 53 77 45 78 46 79 52 80 54 81 47 82 48 83 49 84
REMARK SMILES IDX 50 85 51 86 77 87 78 88 87 89 79 90 80 91 86 92 88 93 81 94
REMARK SMILES IDX 82 95 83 96 84 97 85 98 61 99 62 100 71 101 63 102 64 103
REMARK SMILES IDX 70 104 72 105 65 106 66 107 67 108 68 109 69 110
REMARK H PARENT 11 16 3 26 93 60 59 71
REMARK Flexibility Score: inf
ROOT
ATOM      1  C   UNL A   1      32.867  28.389  26.826  1.00  0.00     0.188 C 
ENDROOT
BRANCH   1   2
ATOM      2  O   UNL A   1      31.638  27.740  27.095  1.00  0.00    -0.376 OA
BRANCH   2   3
ATOM      3  C   UNL A   1      31.507  26.399  26.673  1.00  0.00     0.202 C 
BRANCH   3   4
ATOM      4  C   UNL A   1      30.175  25.913  26.091  1.00  0.00     0.261 C 
BRANCH   4   5
ATOM      5  O   UNL A   1      30.103  25.469  24.740  1.00  0.00    -0.460 OA
BRANCH   5   6
ATOM      6  C   UNL A   1      29.406  26.280  23.917  1.00  0.00     0.339 C 
ATOM      7  O   UNL A   1      28.217  26.197  23.633  1.00  0.00    -0.246 OA
BRANCH   6   8
ATOM      8  C   UNL A   1      30.235  27.415  23.498  1.00  0.00     0.072 A 
ATOM      9  C   UNL A   1      31.295  27.336  22.584  1.00  0.00     0.054 A 
ATOM     10  C   UNL A   1      32.041  28.510  22.348  1.00  0.00     0.015 A 
ATOM     11  C   UNL A   1      31.707  29.725  22.962  1.00  0.00     0.001 A 
ATOM     12  C   UNL A   1      29.893  28.643  24.099  1.00  0.00     0.016 A 
ATOM     13  C   UNL A   1      30.627  29.794  23.832  1.00  0.00     0.001 A 
BRANCH   9  14
ATOM     14  C   UNL A   1      31.793  26.105  21.904  1.00  0.00     0.256 C 
ATOM     15  N   UNL A   1      32.663  25.169  22.432  1.00  0.00    -0.322 N 
ATOM     16  H   UNL A   1      32.963  24.505  21.770  1.00  0.00     0.170 HD
ATOM     17  O   UNL A   1      31.399  25.912  20.749  1.00  0.00    -0.269 OA
BRANCH  15  18
ATOM     18  C   UNL A   1      33.214  24.961  23.709  1.00  0.00     0.042 A 
ATOM     19  C   UNL A   1      33.633  23.384  25.527  1.00  0.00     0.041 A 
ATOM     20  C   UNL A   1      34.590  24.276  26.036  1.00  0.00     0.014 A 
ATOM     21  C   UNL A   1      32.937  23.735  24.360  1.00  0.00     0.040 A 
ATOM     22  C   UNL A   1      34.782  25.528  25.452  1.00  0.00     0.003 A 
ATOM     23  C   UNL A   1      34.052  25.888  24.323  1.00  0.00     0.026 A 
BRANCH  19  24
ATOM     24  C   UNL A   1      33.389  22.144  26.324  1.00  0.00     0.251 C 
ATOM     25  N   UNL A   1      33.731  20.862  25.945  1.00  0.00    -0.346 N 
ATOM     26  H   UNL A   1      33.422  20.171  26.575  1.00  0.00     0.164 HD
ATOM     27  O   UNL A   1      32.893  22.285  27.443  1.00  0.00    -0.269 OA
BRANCH  25  28
ATOM     28  C   UNL A   1      34.462  20.319  24.795  1.00  0.00     0.109 C 
ATOM     29  C   UNL A   1      35.941  20.498  25.071  1.00  0.00     0.036 C 
BRANCH  28  30
ATOM     30  C   UNL A   1      34.216  18.833  24.473  1.00  0.00    -0.026 A 
ATOM     31  C   UNL A   1      33.060  18.456  23.744  1.00  0.00     0.006 A 
ATOM     32  C   UNL A   1      35.084  17.798  24.849  1.00  0.00     0.006 A 
ATOM     33  C   UNL A   1      32.843  17.145  23.312  1.00  0.00     0.000 A 
ATOM     34  C   UNL A   1      34.855  16.476  24.434  1.00  0.00     0.000 A 
ATOM     35  C   UNL A   1      33.750  16.154  23.649  1.00  0.00     0.000 A 
ENDBRANCH  28  30
ENDBRANCH  25  28
ENDBRANCH  19  24
ENDBRANCH  15  18
ENDBRANCH   9  14
ENDBRANCH   6   8
ENDBRANCH   5   6
ENDBRANCH   4   5
ENDBRANCH   3   4
ENDBRANCH   2   3
ENDBRANCH   1   2
BRANCH   1  36
ATOM     36  C   UNL A   1      33.084  29.818  27.384  1.00  0.00     0.188 C 
BRANCH  36  37
ATOM     37  O   UNL A   1      34.345  30.370  27.043  1.00  0.00    -0.376 OA
BRANCH  37  38
ATOM     38  C   UNL A   1      34.671  31.623  27.621  1.00  0.00     0.202 C 
BRANCH  38  39
ATOM     39  C   UNL A   1      34.767  31.780  29.155  1.00  0.00     0.261 C 
BRANCH  39  40
ATOM     40  O   UNL A   1      35.872  31.157  29.830  1.00  0.00    -0.460 OA
BRANCH  40  41
ATOM     41  C   UNL A   1      36.928  31.921  30.197  1.00  0.00     0.338 C 
ATOM     42  O   UNL A   1      36.891  32.928  30.880  1.00  0.00    -0.246 OA
BRANCH  41  43
ATOM     43  C   UNL A   1      38.163  31.165  29.847  1.00  0.00     0.060 A 
ATOM     44  C   UNL A   1      39.150  30.977  30.830  1.00  0.00     0.016 A 
ATOM     45  C   UNL A   1      38.287  30.533  28.606  1.00  0.00     0.016 A 
ATOM     46  C   UNL A   1      40.258  30.161  30.574  1.00  0.00     0.010 A 
ATOM     47  C   UNL A   1      39.421  29.757  28.334  1.00  0.00     0.010 A 
ATOM     48  C   UNL A   1      40.423  29.588  29.307  1.00  0.00    -0.014 A 
BRANCH  48  49
ATOM     49  C   UNL A   1      41.756  29.066  28.902  1.00  0.00     0.031 A 
ATOM     50  C   UNL A   1      42.885  30.062  28.832  1.00  0.00     0.074 A 
ATOM     51  C   UNL A   1      41.978  27.774  28.600  1.00  0.00     0.049 A 
ATOM     52  N   UNL A   1      44.119  29.899  28.436  1.00  0.00    -0.248 NA
ATOM     53  C   UNL A   1      42.567  31.434  29.264  1.00  0.00     0.031 C 
ATOM     54  C   UNL A   1      40.986  26.704  28.663  1.00  0.00     0.029 A 
ATOM     55  N   UNL A   1      43.120  27.149  28.157  1.00  0.00    -0.354 N 
ATOM     56  C   UNL A   1      44.719  31.148  28.554  1.00  0.00     0.074 A 
ATOM     57  C   UNL A   1      43.708  32.063  29.037  1.00  0.00     0.031 C 
ATOM     58  C   UNL A   1      41.557  25.557  28.247  1.00  0.00     0.029 A 
ATOM     59  C   UNL A   1      42.943  25.819  27.856  1.00  0.00     0.049 A 
ATOM     60  H   UNL A   1      43.985  27.612  28.064  1.00  0.00     0.167 HD
ATOM     61  C   UNL A   1      45.996  31.504  28.286  1.00  0.00     0.037 A 
ATOM     62  C   UNL A   1      43.793  24.927  27.301  1.00  0.00     0.037 A 
ATOM     63  C   UNL A   1      46.996  30.595  27.795  1.00  0.00     0.049 A 
ATOM     64  C   UNL A   1      45.197  25.358  26.948  1.00  0.00     0.074 A 
ATOM     65  C   UNL A   1      48.326  30.852  27.518  1.00  0.00     0.029 A 
ATOM     66  N   UNL A   1      46.773  29.260  27.492  1.00  0.00    -0.354 N 
ATOM     67  N   UNL A   1      45.765  26.532  27.100  1.00  0.00    -0.248 NA
ATOM     68  C   UNL A   1      46.079  24.345  26.350  1.00  0.00     0.031 C 
ATOM     69  C   UNL A   1      48.892  29.690  26.987  1.00  0.00     0.029 A 
ATOM     70  C   UNL A   1      47.934  28.689  26.999  1.00  0.00     0.049 A 
ATOM     71  H   UNL A   1      45.917  28.789  27.609  1.00  0.00     0.167 HD
ATOM     72  C   UNL A   1      47.074  26.389  26.645  1.00  0.00     0.074 A 
ATOM     73  C   UNL A   1      47.218  25.012  26.221  1.00  0.00     0.031 C 
ATOM     74  C   UNL A   1      48.067  27.312  26.588  1.00  0.00     0.037 A 
BRANCH  61  75
ATOM     75  C   UNL A   1      46.367  32.948  28.477  1.00  0.00     0.058 A 
ATOM     76  C   UNL A   1      46.873  33.432  29.694  1.00  0.00     0.135 A 
ATOM     77  C   UNL A   1      46.227  33.859  27.418  1.00  0.00     0.135 A 
ATOM     78  F   UNL A   1      47.004  32.611  30.748  1.00  0.00    -0.206 F 
ATOM     79  C   UNL A   1      47.200  34.774  29.863  1.00  0.00     0.059 A 
ATOM     80  C   UNL A   1      46.579  35.199  27.554  1.00  0.00     0.059 A 
ATOM     81  F   UNL A   1      45.740  33.451  26.235  1.00  0.00    -0.206 F 
ATOM     82  C   UNL A   1      47.051  35.649  28.786  1.00  0.00     0.060 A 
BRANCH  82  83
ATOM     83  S   UNL A   1      47.485  37.385  29.019  1.00  0.00     0.124 S 
ATOM     84  O   UNL A   1      47.447  37.502  30.473  1.00  0.00    -0.237 OA
ATOM     85  O   UNL A   1      48.811  37.456  28.412  1.00  0.00    -0.237 OA
ATOM     86  O   UNL A   1      46.433  38.099  28.304  1.00  0.00    -0.744 OA
ENDBRANCH  82  83
ENDBRANCH  61  75
BRANCH  62  87
ATOM     87  C   UNL A   1      43.336  23.536  27.019  1.00  0.00     0.058 A 
ATOM     88  C   UNL A   1      43.019  23.121  25.717  1.00  0.00     0.135 A 
ATOM     89  C   UNL A   1      43.199  22.595  28.052  1.00  0.00     0.135 A 
ATOM     90  F   UNL A   1      43.112  23.986  24.695  1.00  0.00    -0.206 F 
ATOM     91  C   UNL A   1      42.579  21.827  25.449  1.00  0.00     0.059 A 
ATOM     92  C   UNL A   1      42.788  21.288  27.806  1.00  0.00     0.059 A 
ATOM     93  F   UNL A   1      43.487  22.938  29.317  1.00  0.00    -0.206 F 
ATOM     94  C   UNL A   1      42.473  20.915  26.500  1.00  0.00     0.060 A 
BRANCH  94  95
ATOM     95  S   UNL A   1      41.963  19.222  26.129  1.00  0.00     0.124 S 
ATOM     96  O   UNL A   1      42.756  18.929  24.940  1.00  0.00    -0.237 OA
ATOM     97  O   UNL A   1      42.351  18.513  27.345  1.00  0.00    -0.237 OA
ATOM     98  O   UNL A   1      40.525  19.344  25.914  1.00  0.00    -0.744 OA
ENDBRANCH  94  95
ENDBRANCH  62  87
BRANCH  74  99
ATOM     99  C   UNL A   1      49.418  26.865  26.089  1.00  0.00     0.058 A 
ATOM    100  C   UNL A   1      49.802  27.007  24.748  1.00  0.00     0.135 A 
ATOM    101  C   UNL A   1      50.369  26.353  26.990  1.00  0.00     0.135 A 
ATOM    102  F   UNL A   1      48.935  27.488  23.844  1.00  0.00    -0.206 F 
ATOM    103  C   UNL A   1      51.071  26.636  24.311  1.00  0.00     0.059 A 
ATOM    104  C   UNL A   1      51.653  26.007  26.582  1.00  0.00     0.059 A 
ATOM    105  F   UNL A   1      50.062  26.209  28.289  1.00  0.00    -0.206 F 
ATOM    106  C   UNL A   1      51.991  26.140  25.237  1.00  0.00     0.060 A 
BRANCH 106 107
ATOM    107  S   UNL A   1      53.645  25.698  24.662  1.00  0.00     0.124 S 
ATOM    108  O   UNL A   1      53.625  24.245  24.800  1.00  0.00    -0.237 OA
ATOM    109  O   UNL A   1      53.647  26.206  23.295  1.00  0.00    -0.237 OA
ATOM    110  O   UNL A   1      54.527  26.403  25.588  1.00  0.00    -0.744 OA
ENDBRANCH 106 107
ENDBRANCH  74  99
ENDBRANCH  48  49
ENDBRANCH  41  43
ENDBRANCH  40  41
ENDBRANCH  39  40
ENDBRANCH  38  39
ENDBRANCH  37  38
ENDBRANCH  36  37
ENDBRANCH   1  36
TORSDOF 25
ENDMDL
