MODEL 1
REMARK VINA RESULT:     -10.6      0.000      0.000
REMARK SMILES O=C(OCCOCCOCCOC(=O)c1ccc(-c2c3nc(c(-c4c(F)cc(S(=O)(=O)[O-])cc4F)c4ccc([nH]4)c(-c4c(F)cc(S(=O)(=O)[O-])cc4F)c4nc(c(-c5c(F)cc(S(=O)(=O)[O-])cc5F)c5ccc2[nH]5)C=C4)C=C3)cc1)C1=Cc2c(cc(Cl)c(Cl)c2Cl)O[C@H]1C(F)(F)F
REMARK SMILES IDX 8 1 7 2 6 3 5 4 4 5 3 6 2 7 1 8 81 9 82 10 93 11 83 12 92 13
REMARK SMILES IDX 84 14 90 15 85 16 88 17 91 18 86 19 89 20 87 21 94 22 95 23
REMARK SMILES IDX 96 24 97 25 9 26 10 27 11 28 12 29 13 30 14 31 15 32 16 33
REMARK SMILES IDX 80 34 17 35 79 36 18 37 19 38 20 39 73 40 21 41 78 42 72 43
REMARK SMILES IDX 74 44 22 45 77 46 71 47 70 48 23 50 57 51 36 52 56 53 37 54
REMARK SMILES IDX 40 55 55 56 75 57 38 58 39 59 54 61 76 62 41 63 24 64 25 65
REMARK SMILES IDX 34 66 26 67 27 68 33 69 35 70 28 71 29 72 30 73 31 74 32 75
REMARK SMILES IDX 58 76 59 77 68 78 60 79 61 80 67 81 69 82 62 83 63 84 64 85
REMARK SMILES IDX 65 86 66 87 42 88 43 89 52 90 44 91 45 92 51 93 53 94 46 95
REMARK SMILES IDX 47 96 48 97 49 98 50 99
REMARK H PARENT 74 49 40 60
REMARK Flexibility Score: inf
ROOT
ATOM      1  C   UNL A   1      33.904  32.028  28.210  1.00  0.00     0.188 C 
ENDROOT
BRANCH   1   2
ATOM      2  C   UNL A   1      33.760  30.881  27.201  1.00  0.00     0.188 C 
BRANCH   2   3
ATOM      3  O   UNL A   1      32.408  30.474  27.022  1.00  0.00    -0.376 OA
BRANCH   3   4
ATOM      4  C   UNL A   1      32.297  29.072  26.786  1.00  0.00     0.202 C 
BRANCH   4   5
ATOM      5  C   UNL A   1      33.657  28.376  26.893  1.00  0.00     0.261 C 
BRANCH   5   6
ATOM      6  O   UNL A   1      34.070  27.763  25.649  1.00  0.00    -0.460 OA
BRANCH   6   7
ATOM      7  C   UNL A   1      33.419  26.921  24.819  1.00  0.00     0.338 C 
ATOM      8  O   UNL A   1      32.851  27.390  23.839  1.00  0.00    -0.246 OA
BRANCH   7   9
ATOM      9  C   UNL A   1      33.443  25.445  24.975  1.00  0.00     0.087 C 
ATOM     10  C   UNL A   1      34.526  24.743  25.317  1.00  0.00     0.029 C 
ATOM     11  C   UNL A   1      32.098  24.746  24.808  1.00  0.00     0.316 C 
ATOM     12  C   UNL A   1      34.560  23.294  25.177  1.00  0.00     0.038 A 
ATOM     13  O   UNL A   1      32.172  23.287  24.727  1.00  0.00    -0.475 OA
ATOM     14  C   UNL A   1      33.359  22.644  24.916  1.00  0.00     0.131 A 
ATOM     15  C   UNL A   1      35.762  22.546  25.204  1.00  0.00     0.072 A 
ATOM     16  C   UNL A   1      33.328  21.257  24.774  1.00  0.00     0.069 A 
ATOM     17  C   UNL A   1      35.738  21.152  25.023  1.00  0.00     0.079 A 
ATOM     18  Cl  UNL A   1      37.295  23.362  25.368  1.00  0.00    -0.082 Cl
ATOM     19  C   UNL A   1      34.509  20.512  24.831  1.00  0.00     0.064 A 
ATOM     20  Cl  UNL A   1      37.217  20.234  25.004  1.00  0.00    -0.081 Cl
ATOM     21  Cl  UNL A   1      34.381  18.800  24.615  1.00  0.00    -0.083 Cl
BRANCH  11  22
ATOM     22  C   UNL A   1      31.104  25.100  25.950  1.00  0.00     0.430 C 
ATOM     23  F   UNL A   1      30.258  26.092  25.576  1.00  0.00    -0.167 F 
ATOM     24  F   UNL A   1      30.362  24.053  26.358  1.00  0.00    -0.167 F 
ATOM     25  F   UNL A   1      31.766  25.549  27.047  1.00  0.00    -0.167 F 
ENDBRANCH  11  22
ENDBRANCH   7   9
ENDBRANCH   6   7
ENDBRANCH   5   6
ENDBRANCH   4   5
ENDBRANCH   3   4
ENDBRANCH   2   3
ENDBRANCH   1   2
BRANCH   1  26
ATOM     26  O   UNL A   1      34.233  33.309  27.677  1.00  0.00    -0.376 OA
BRANCH  26  27
ATOM     27  C   UNL A   1      35.196  34.099  28.387  1.00  0.00     0.202 C 
BRANCH  27  28
ATOM     28  C   UNL A   1      35.403  33.812  29.877  1.00  0.00     0.261 C 
BRANCH  28  29
ATOM     29  O   UNL A   1      36.587  33.027  30.113  1.00  0.00    -0.460 OA
BRANCH  29  30
ATOM     30  C   UNL A   1      36.360  31.845  30.731  1.00  0.00     0.338 C 
ATOM     31  O   UNL A   1      35.455  31.571  31.499  1.00  0.00    -0.246 OA
BRANCH  30  32
ATOM     32  C   UNL A   1      37.365  30.853  30.331  1.00  0.00     0.060 A 
ATOM     33  C   UNL A   1      38.085  30.159  31.310  1.00  0.00     0.016 A 
ATOM     34  C   UNL A   1      37.749  30.814  28.991  1.00  0.00     0.016 A 
ATOM     35  C   UNL A   1      39.241  29.467  30.955  1.00  0.00     0.010 A 
ATOM     36  C   UNL A   1      38.907  30.125  28.638  1.00  0.00     0.010 A 
ATOM     37  C   UNL A   1      39.684  29.503  29.628  1.00  0.00    -0.014 A 
BRANCH  37  38
ATOM     38  C   UNL A   1      41.071  29.109  29.295  1.00  0.00     0.031 A 
ATOM     39  C   UNL A   1      42.127  30.179  29.291  1.00  0.00     0.074 A 
ATOM     40  C   UNL A   1      41.363  27.841  28.964  1.00  0.00     0.049 A 
ATOM     41  N   UNL A   1      43.370  30.119  28.894  1.00  0.00    -0.248 NA
ATOM     42  C   UNL A   1      41.722  31.501  29.800  1.00  0.00     0.031 C 
ATOM     43  C   UNL A   1      40.419  26.726  28.982  1.00  0.00     0.029 A 
ATOM     44  N   UNL A   1      42.536  27.291  28.518  1.00  0.00    -0.354 N 
ATOM     45  C   UNL A   1      43.890  31.393  29.087  1.00  0.00     0.074 A 
ATOM     46  C   UNL A   1      42.827  32.211  29.627  1.00  0.00     0.031 C 
ATOM     47  C   UNL A   1      41.044  25.624  28.532  1.00  0.00     0.029 A 
ATOM     48  C   UNL A   1      42.415  25.970  28.161  1.00  0.00     0.049 A 
ATOM     49  H   UNL A   1      43.380  27.792  28.459  1.00  0.00     0.167 HD
ATOM     50  C   UNL A   1      45.142  31.841  28.829  1.00  0.00     0.037 A 
ATOM     51  C   UNL A   1      43.305  25.150  27.569  1.00  0.00     0.037 A 
ATOM     52  C   UNL A   1      46.180  31.016  28.273  1.00  0.00     0.049 A 
ATOM     53  C   UNL A   1      44.676  25.680  27.237  1.00  0.00     0.074 A 
ATOM     54  C   UNL A   1      47.484  31.359  27.963  1.00  0.00     0.029 A 
ATOM     55  N   UNL A   1      46.025  29.679  27.933  1.00  0.00    -0.354 N 
ATOM     56  N   UNL A   1      45.161  26.885  27.426  1.00  0.00    -0.248 NA
ATOM     57  C   UNL A   1      45.618  24.743  26.613  1.00  0.00     0.031 C 
ATOM     58  C   UNL A   1      48.106  30.238  27.401  1.00  0.00     0.029 A 
ATOM     59  C   UNL A   1      47.203  29.185  27.403  1.00  0.00     0.049 A 
ATOM     60  H   UNL A   1      45.197  29.159  28.052  1.00  0.00     0.167 HD
ATOM     61  C   UNL A   1      46.475  26.845  26.971  1.00  0.00     0.074 A 
ATOM     62  C   UNL A   1      46.707  25.493  26.498  1.00  0.00     0.031 C 
ATOM     63  C   UNL A   1      47.407  27.830  26.952  1.00  0.00     0.037 A 
BRANCH  50  64
ATOM     64  C   UNL A   1      45.428  33.290  29.108  1.00  0.00     0.058 A 
ATOM     65  C   UNL A   1      45.922  33.721  30.350  1.00  0.00     0.135 A 
ATOM     66  C   UNL A   1      45.191  34.263  28.125  1.00  0.00     0.135 A 
ATOM     67  F   UNL A   1      46.147  32.835  31.332  1.00  0.00    -0.206 F 
ATOM     68  C   UNL A   1      46.140  35.070  30.619  1.00  0.00     0.059 A 
ATOM     69  C   UNL A   1      45.423  35.616  28.364  1.00  0.00     0.059 A 
ATOM     70  F   UNL A   1      44.714  33.908  26.922  1.00  0.00    -0.206 F 
ATOM     71  C   UNL A   1      45.880  36.010  29.620  1.00  0.00     0.060 A 
BRANCH  71  72
ATOM     72  S   UNL A   1      46.145  37.758  29.988  1.00  0.00     0.124 S 
ATOM     73  O   UNL A   1      46.725  37.690  31.325  1.00  0.00    -0.237 OA
ATOM     74  O   UNL A   1      47.055  38.170  28.924  1.00  0.00    -0.237 OA
ATOM     75  O   UNL A   1      44.803  38.328  29.914  1.00  0.00    -0.744 OA
ENDBRANCH  71  72
ENDBRANCH  50  64
BRANCH  51  76
ATOM     76  C   UNL A   1      42.914  23.754  27.246  1.00  0.00     0.058 A 
ATOM     77  C   UNL A   1      42.498  23.401  25.955  1.00  0.00     0.135 A 
ATOM     78  C   UNL A   1      42.988  22.738  28.211  1.00  0.00     0.135 A 
ATOM     79  F   UNL A   1      42.401  24.339  25.001  1.00  0.00    -0.206 F 
ATOM     80  C   UNL A   1      42.170  22.088  25.630  1.00  0.00     0.059 A 
ATOM     81  C   UNL A   1      42.686  21.414  27.905  1.00  0.00     0.059 A 
ATOM     82  F   UNL A   1      43.388  23.023  29.460  1.00  0.00    -0.206 F 
ATOM     83  C   UNL A   1      42.273  21.100  26.610  1.00  0.00     0.060 A 
BRANCH  83  84
ATOM     84  S   UNL A   1      41.911  19.388  26.159  1.00  0.00     0.124 S 
ATOM     85  O   UNL A   1      42.283  18.678  27.378  1.00  0.00    -0.237 OA
ATOM     86  O   UNL A   1      40.483  19.442  25.863  1.00  0.00    -0.237 OA
ATOM     87  O   UNL A   1      42.774  19.155  25.005  1.00  0.00    -0.744 OA
ENDBRANCH  83  84
ENDBRANCH  51  76
BRANCH  63  88
ATOM     88  C   UNL A   1      48.776  27.477  26.445  1.00  0.00     0.058 A 
ATOM     89  C   UNL A   1      49.803  27.073  27.311  1.00  0.00     0.135 A 
ATOM     90  C   UNL A   1      49.035  27.465  25.065  1.00  0.00     0.135 A 
ATOM     91  F   UNL A   1      49.605  27.072  28.639  1.00  0.00    -0.206 F 
ATOM     92  C   UNL A   1      51.046  26.681  26.828  1.00  0.00     0.059 A 
ATOM     93  C   UNL A   1      50.264  27.057  24.558  1.00  0.00     0.059 A 
ATOM     94  F   UNL A   1      48.082  27.832  24.195  1.00  0.00    -0.206 F 
ATOM     95  C   UNL A   1      51.266  26.673  25.448  1.00  0.00     0.060 A 
BRANCH  95  96
ATOM     96  S   UNL A   1      52.867  26.112  24.828  1.00  0.00     0.124 S 
ATOM     97  O   UNL A   1      52.910  24.741  25.324  1.00  0.00    -0.237 OA
ATOM     98  O   UNL A   1      52.714  26.261  23.384  1.00  0.00    -0.237 OA
ATOM     99  O   UNL A   1      53.813  27.036  25.449  1.00  0.00    -0.744 OA
ENDBRANCH  95  96
ENDBRANCH  63  88
ENDBRANCH  37  38
ENDBRANCH  30  32
ENDBRANCH  29  30
ENDBRANCH  28  29
ENDBRANCH  27  28
ENDBRANCH  26  27
ENDBRANCH   1  26
TORSDOF 21
ENDMDL
MODEL 2
REMARK VINA RESULT:     -10.5      1.401      8.216
REMARK SMILES O=C(OCCOCCOCCOC(=O)c1ccc(-c2c3nc(c(-c4c(F)cc(S(=O)(=O)[O-])cc4F)c4ccc([nH]4)c(-c4c(F)cc(S(=O)(=O)[O-])cc4F)c4nc(c(-c5c(F)cc(S(=O)(=O)[O-])cc5F)c5ccc2[nH]5)C=C4)C=C3)cc1)C1=Cc2c(cc(Cl)c(Cl)c2Cl)O[C@H]1C(F)(F)F
REMARK SMILES IDX 8 1 7 2 6 3 5 4 4 5 3 6 2 7 1 8 81 9 82 10 93 11 83 12 92 13
REMARK SMILES IDX 84 14 90 15 85 16 88 17 91 18 86 19 89 20 87 21 94 22 95 23
REMARK SMILES IDX 96 24 97 25 9 26 10 27 11 28 12 29 13 30 14 31 15 32 16 33
REMARK SMILES IDX 80 34 17 35 79 36 18 37 19 38 20 39 73 40 21 41 78 42 72 43
REMARK SMILES IDX 74 44 22 45 77 46 71 47 70 48 23 50 57 51 36 52 56 53 37 54
REMARK SMILES IDX 40 55 55 56 75 57 38 58 39 59 54 61 76 62 41 63 24 64 25 65
REMARK SMILES IDX 34 66 26 67 27 68 33 69 35 70 28 71 29 72 30 73 31 74 32 75
REMARK SMILES IDX 58 76 59 77 68 78 60 79 61 80 67 81 69 82 62 83 63 84 64 85
REMARK SMILES IDX 65 86 66 87 42 88 43 89 52 90 44 91 45 92 51 93 53 94 46 95
REMARK SMILES IDX 47 96 48 97 49 98 50 99
REMARK H PARENT 74 49 40 60
REMARK Flexibility Score: inf
ROOT
ATOM      1  C   UNL A   1      35.710  32.010  29.219  1.00  0.00     0.188 C 
ENDROOT
BRANCH   1   2
ATOM      2  C   UNL A   1      35.124  31.389  27.945  1.00  0.00     0.188 C 
BRANCH   2   3
ATOM      3  O   UNL A   1      33.707  31.503  27.880  1.00  0.00    -0.376 OA
BRANCH   3   4
ATOM      4  C   UNL A   1      33.116  30.434  27.145  1.00  0.00     0.202 C 
BRANCH   4   5
ATOM      5  C   UNL A   1      33.974  29.166  27.212  1.00  0.00     0.261 C 
BRANCH   5   6
ATOM      6  O   UNL A   1      34.407  28.717  25.906  1.00  0.00    -0.460 OA
BRANCH   6   7
ATOM      7  C   UNL A   1      33.704  28.249  24.854  1.00  0.00     0.338 C 
ATOM      8  O   UNL A   1      33.495  29.004  23.910  1.00  0.00    -0.246 OA
BRANCH   7   9
ATOM      9  C   UNL A   1      33.259  26.838  24.734  1.00  0.00     0.087 C 
ATOM     10  C   UNL A   1      33.917  25.797  25.251  1.00  0.00     0.029 C 
ATOM     11  C   UNL A   1      31.916  26.630  24.043  1.00  0.00     0.316 C 
ATOM     12  C   UNL A   1      33.591  24.432  24.863  1.00  0.00     0.038 A 
ATOM     13  O   UNL A   1      31.603  25.238  23.720  1.00  0.00    -0.475 OA
ATOM     14  C   UNL A   1      32.422  24.231  24.137  1.00  0.00     0.131 A 
ATOM     15  C   UNL A   1      34.450  23.335  25.113  1.00  0.00     0.072 A 
ATOM     16  C   UNL A   1      32.057  22.946  23.738  1.00  0.00     0.069 A 
ATOM     17  C   UNL A   1      34.101  22.043  24.680  1.00  0.00     0.079 A 
ATOM     18  Cl  UNL A   1      35.996  23.593  25.880  1.00  0.00    -0.082 Cl
ATOM     19  C   UNL A   1      32.887  21.856  24.011  1.00  0.00     0.064 A 
ATOM     20  Cl  UNL A   1      35.177  20.700  24.939  1.00  0.00    -0.081 Cl
ATOM     21  Cl  UNL A   1      32.369  20.301  23.454  1.00  0.00    -0.083 Cl
BRANCH  11  22
ATOM     22  C   UNL A   1      30.731  27.193  24.877  1.00  0.00     0.430 C 
ATOM     23  F   UNL A   1      29.654  26.369  24.822  1.00  0.00    -0.167 F 
ATOM     24  F   UNL A   1      31.035  27.393  26.173  1.00  0.00    -0.167 F 
ATOM     25  F   UNL A   1      30.324  28.394  24.391  1.00  0.00    -0.167 F 
ENDBRANCH  11  22
ENDBRANCH   7   9
ENDBRANCH   6   7
ENDBRANCH   5   6
ENDBRANCH   4   5
ENDBRANCH   3   4
ENDBRANCH   2   3
ENDBRANCH   1   2
BRANCH   1  26
ATOM     26  O   UNL A   1      34.781  32.374  30.238  1.00  0.00    -0.376 OA
BRANCH  26  27
ATOM     27  C   UNL A   1      35.135  32.084  31.598  1.00  0.00     0.202 C 
BRANCH  27  28
ATOM     28  C   UNL A   1      36.465  31.370  31.857  1.00  0.00     0.261 C 
BRANCH  28  29
ATOM     29  O   UNL A   1      36.346  29.943  31.709  1.00  0.00    -0.460 OA
BRANCH  29  30
ATOM     30  C   UNL A   1      37.430  29.246  32.119  1.00  0.00     0.338 C 
ATOM     31  O   UNL A   1      37.474  28.376  32.972  1.00  0.00    -0.246 OA
BRANCH  30  32
ATOM     32  C   UNL A   1      38.620  29.649  31.361  1.00  0.00     0.060 A 
ATOM     33  C   UNL A   1      38.561  29.723  29.964  1.00  0.00     0.016 A 
ATOM     34  C   UNL A   1      39.839  29.704  32.035  1.00  0.00     0.016 A 
ATOM     35  C   UNL A   1      39.742  29.789  29.228  1.00  0.00     0.010 A 
ATOM     36  C   UNL A   1      41.019  29.767  31.298  1.00  0.00     0.010 A 
ATOM     37  C   UNL A   1      40.972  29.748  29.894  1.00  0.00    -0.014 A 
BRANCH  37  38
ATOM     38  C   UNL A   1      42.213  29.441  29.149  1.00  0.00     0.031 A 
ATOM     39  C   UNL A   1      42.391  28.046  28.618  1.00  0.00     0.074 A 
ATOM     40  C   UNL A   1      43.168  30.372  28.994  1.00  0.00     0.049 A 
ATOM     41  N   UNL A   1      43.439  27.492  28.070  1.00  0.00    -0.248 NA
ATOM     42  C   UNL A   1      41.227  27.149  28.729  1.00  0.00     0.031 C 
ATOM     43  C   UNL A   1      43.069  31.762  29.432  1.00  0.00     0.029 A 
ATOM     44  N   UNL A   1      44.421  30.272  28.449  1.00  0.00    -0.354 N 
ATOM     45  C   UNL A   1      43.070  26.183  27.785  1.00  0.00     0.074 A 
ATOM     46  C   UNL A   1      41.704  26.018  28.231  1.00  0.00     0.031 C 
ATOM     47  C   UNL A   1      44.232  32.382  29.167  1.00  0.00     0.029 A 
ATOM     48  C   UNL A   1      45.163  31.420  28.578  1.00  0.00     0.049 A 
ATOM     49  H   UNL A   1      44.756  29.458  28.009  1.00  0.00     0.167 HD
ATOM     50  C   UNL A   1      43.808  25.205  27.210  1.00  0.00     0.037 A 
ATOM     51  C   UNL A   1      46.457  31.650  28.286  1.00  0.00     0.037 A 
ATOM     52  C   UNL A   1      45.172  25.382  26.791  1.00  0.00     0.049 A 
ATOM     53  C   UNL A   1      47.281  30.534  27.698  1.00  0.00     0.074 A 
ATOM     54  C   UNL A   1      46.022  24.464  26.202  1.00  0.00     0.029 A 
ATOM     55  N   UNL A   1      45.889  26.563  26.929  1.00  0.00    -0.354 N 
ATOM     56  N   UNL A   1      46.924  29.299  27.429  1.00  0.00    -0.248 NA
ATOM     57  C   UNL A   1      48.680  30.839  27.375  1.00  0.00     0.031 C 
ATOM     58  C   UNL A   1      47.266  25.080  26.019  1.00  0.00     0.029 A 
ATOM     59  C   UNL A   1      47.176  26.395  26.451  1.00  0.00     0.049 A 
ATOM     60  H   UNL A   1      45.533  27.398  27.311  1.00  0.00     0.167 HD
ATOM     61  C   UNL A   1      48.045  28.687  26.877  1.00  0.00     0.074 A 
ATOM     62  C   UNL A   1      49.093  29.690  26.852  1.00  0.00     0.031 C 
ATOM     63  C   UNL A   1      48.194  27.417  26.428  1.00  0.00     0.037 A 
BRANCH  50  64
ATOM     64  C   UNL A   1      43.161  23.857  27.047  1.00  0.00     0.058 A 
ATOM     65  C   UNL A   1      42.616  23.441  25.821  1.00  0.00     0.135 A 
ATOM     66  C   UNL A   1      43.073  22.975  28.134  1.00  0.00     0.135 A 
ATOM     67  F   UNL A   1      42.655  24.254  24.754  1.00  0.00    -0.206 F 
ATOM     68  C   UNL A   1      41.976  22.212  25.689  1.00  0.00     0.059 A 
ATOM     69  C   UNL A   1      42.458  21.730  28.019  1.00  0.00     0.059 A 
ATOM     70  F   UNL A   1      43.573  23.323  29.330  1.00  0.00    -0.206 F 
ATOM     71  C   UNL A   1      41.896  21.367  26.797  1.00  0.00     0.060 A 
BRANCH  71  72
ATOM     72  S   UNL A   1      41.045  19.784  26.619  1.00  0.00     0.124 S 
ATOM     73  O   UNL A   1      40.920  19.362  28.010  1.00  0.00    -0.237 OA
ATOM     74  O   UNL A   1      39.801  20.167  25.960  1.00  0.00    -0.237 OA
ATOM     75  O   UNL A   1      41.963  18.994  25.804  1.00  0.00    -0.744 OA
ENDBRANCH  71  72
ENDBRANCH  50  64
BRANCH  51  76
ATOM     76  C   UNL A   1      47.045  32.986  28.560  1.00  0.00     0.058 A 
ATOM     77  C   UNL A   1      47.095  33.972  27.564  1.00  0.00     0.135 A 
ATOM     78  C   UNL A   1      47.530  33.319  29.834  1.00  0.00     0.135 A 
ATOM     79  F   UNL A   1      46.653  33.699  26.327  1.00  0.00    -0.206 F 
ATOM     80  C   UNL A   1      47.605  35.241  27.821  1.00  0.00     0.059 A 
ATOM     81  C   UNL A   1      48.024  34.588  30.122  1.00  0.00     0.059 A 
ATOM     82  F   UNL A   1      47.497  32.413  30.825  1.00  0.00    -0.206 F 
ATOM     83  C   UNL A   1      48.062  35.542  29.105  1.00  0.00     0.060 A 
BRANCH  83  84
ATOM     84  S   UNL A   1      48.657  37.214  29.445  1.00  0.00     0.124 S 
ATOM     85  O   UNL A   1      49.625  36.970  30.509  1.00  0.00    -0.237 OA
ATOM     86  O   UNL A   1      49.212  37.612  28.156  1.00  0.00    -0.237 OA
ATOM     87  O   UNL A   1      47.447  37.926  29.846  1.00  0.00    -0.744 OA
ENDBRANCH  83  84
ENDBRANCH  51  76
BRANCH  63  88
ATOM     88  C   UNL A   1      49.520  27.047  25.828  1.00  0.00     0.058 A 
ATOM     89  C   UNL A   1      49.813  27.289  24.477  1.00  0.00     0.135 A 
ATOM     90  C   UNL A   1      50.538  26.518  26.639  1.00  0.00     0.135 A 
ATOM     91  F   UNL A   1      48.872  27.790  23.662  1.00  0.00    -0.206 F 
ATOM     92  C   UNL A   1      51.068  27.008  23.947  1.00  0.00     0.059 A 
ATOM     93  C   UNL A   1      51.805  26.249  26.134  1.00  0.00     0.059 A 
ATOM     94  F   UNL A   1      50.310  26.279  27.939  1.00  0.00    -0.206 F 
ATOM     95  C   UNL A   1      52.059  26.491  24.785  1.00  0.00     0.060 A 
BRANCH  95  96
ATOM     96  S   UNL A   1      53.699  26.179  24.098  1.00  0.00     0.124 S 
ATOM     97  O   UNL A   1      54.415  27.389  24.486  1.00  0.00    -0.237 OA
ATOM     98  O   UNL A   1      54.100  24.956  24.786  1.00  0.00    -0.237 OA
ATOM     99  O   UNL A   1      53.445  26.030  22.668  1.00  0.00    -0.744 OA
ENDBRANCH  95  96
ENDBRANCH  63  88
ENDBRANCH  37  38
ENDBRANCH  30  32
ENDBRANCH  29  30
ENDBRANCH  28  29
ENDBRANCH  27  28
ENDBRANCH  26  27
ENDBRANCH   1  26
TORSDOF 21
ENDMDL
MODEL 3
REMARK VINA RESULT:     -10.2      4.373      7.212
REMARK SMILES O=C(OCCOCCOCCOC(=O)c1ccc(-c2c3nc(c(-c4c(F)cc(S(=O)(=O)[O-])cc4F)c4ccc([nH]4)c(-c4c(F)cc(S(=O)(=O)[O-])cc4F)c4nc(c(-c5c(F)cc(S(=O)(=O)[O-])cc5F)c5ccc2[nH]5)C=C4)C=C3)cc1)C1=Cc2c(cc(Cl)c(Cl)c2Cl)O[C@H]1C(F)(F)F
REMARK SMILES IDX 8 1 7 2 6 3 5 4 4 5 3 6 2 7 1 8 81 9 82 10 93 11 83 12 92 13
REMARK SMILES IDX 84 14 90 15 85 16 88 17 91 18 86 19 89 20 87 21 94 22 95 23
REMARK SMILES IDX 96 24 97 25 9 26 10 27 11 28 12 29 13 30 14 31 15 32 16 33
REMARK SMILES IDX 80 34 17 35 79 36 18 37 19 38 20 39 73 40 21 41 78 42 72 43
REMARK SMILES IDX 74 44 22 45 77 46 71 47 70 48 23 50 57 51 36 52 56 53 37 54
REMARK SMILES IDX 40 55 55 56 75 57 38 58 39 59 54 61 76 62 41 63 24 64 25 65
REMARK SMILES IDX 34 66 26 67 27 68 33 69 35 70 28 71 29 72 30 73 31 74 32 75
REMARK SMILES IDX 58 76 59 77 68 78 60 79 61 80 67 81 69 82 62 83 63 84 64 85
REMARK SMILES IDX 65 86 66 87 42 88 43 89 52 90 44 91 45 92 51 93 53 94 46 95
REMARK SMILES IDX 47 96 48 97 49 98 50 99
REMARK H PARENT 74 49 40 60
REMARK Flexibility Score: inf
ROOT
ATOM      1  C   UNL A   1      34.197  34.924  31.782  1.00  0.00     0.188 C 
ENDROOT
BRANCH   1   2
ATOM      2  C   UNL A   1      33.755  34.176  33.047  1.00  0.00     0.188 C 
BRANCH   2   3
ATOM      3  O   UNL A   1      34.018  32.780  32.978  1.00  0.00    -0.376 OA
BRANCH   3   4
ATOM      4  C   UNL A   1      35.410  32.501  32.848  1.00  0.00     0.202 C 
BRANCH   4   5
ATOM      5  C   UNL A   1      36.203  33.034  34.046  1.00  0.00     0.261 C 
BRANCH   5   6
ATOM      6  O   UNL A   1      37.400  32.265  34.308  1.00  0.00    -0.460 OA
BRANCH   6   7
ATOM      7  C   UNL A   1      38.410  31.895  33.492  1.00  0.00     0.338 C 
ATOM      8  O   UNL A   1      38.194  31.833  32.287  1.00  0.00    -0.246 OA
BRANCH   7   9
ATOM      9  C   UNL A   1      39.796  31.657  33.969  1.00  0.00     0.087 C 
ATOM     10  C   UNL A   1      40.560  30.635  33.576  1.00  0.00     0.029 C 
ATOM     11  C   UNL A   1      40.362  32.726  34.898  1.00  0.00     0.316 C 
ATOM     12  C   UNL A   1      41.787  30.297  34.283  1.00  0.00     0.038 A 
ATOM     13  O   UNL A   1      41.625  32.367  35.545  1.00  0.00    -0.475 OA
ATOM     14  C   UNL A   1      42.265  31.210  35.215  1.00  0.00     0.131 A 
ATOM     15  C   UNL A   1      42.448  29.054  34.126  1.00  0.00     0.072 A 
ATOM     16  C   UNL A   1      43.437  30.942  35.923  1.00  0.00     0.069 A 
ATOM     17  C   UNL A   1      43.609  28.766  34.866  1.00  0.00     0.079 A 
ATOM     18  Cl  UNL A   1      41.773  27.831  33.082  1.00  0.00    -0.082 Cl
ATOM     19  C   UNL A   1      44.109  29.730  35.747  1.00  0.00     0.064 A 
ATOM     20  Cl  UNL A   1      44.396  27.221  34.716  1.00  0.00    -0.081 Cl
ATOM     21  Cl  UNL A   1      45.539  29.470  36.687  1.00  0.00    -0.083 Cl
BRANCH  11  22
ATOM     22  C   UNL A   1      40.580  34.082  34.171  1.00  0.00     0.430 C 
ATOM     23  F   UNL A   1      39.512  34.903  34.330  1.00  0.00    -0.167 F 
ATOM     24  F   UNL A   1      41.677  34.743  34.586  1.00  0.00    -0.167 F 
ATOM     25  F   UNL A   1      40.729  33.898  32.834  1.00  0.00    -0.167 F 
ENDBRANCH  11  22
ENDBRANCH   7   9
ENDBRANCH   6   7
ENDBRANCH   5   6
ENDBRANCH   4   5
ENDBRANCH   3   4
ENDBRANCH   2   3
ENDBRANCH   1   2
BRANCH   1  26
ATOM     26  O   UNL A   1      33.291  34.906  30.680  1.00  0.00    -0.376 OA
BRANCH  26  27
ATOM     27  C   UNL A   1      33.774  34.402  29.428  1.00  0.00     0.202 C 
BRANCH  27  28
ATOM     28  C   UNL A   1      35.057  33.566  29.437  1.00  0.00     0.261 C 
BRANCH  28  29
ATOM     29  O   UNL A   1      34.791  32.177  29.710  1.00  0.00    -0.460 OA
BRANCH  29  30
ATOM     30  C   UNL A   1      34.802  31.380  28.617  1.00  0.00     0.338 C 
ATOM     31  O   UNL A   1      34.047  31.421  27.662  1.00  0.00    -0.246 OA
BRANCH  30  32
ATOM     32  C   UNL A   1      35.909  30.419  28.691  1.00  0.00     0.060 A 
ATOM     33  C   UNL A   1      36.320  29.927  29.935  1.00  0.00     0.016 A 
ATOM     34  C   UNL A   1      36.680  30.218  27.546  1.00  0.00     0.016 A 
ATOM     35  C   UNL A   1      37.548  29.280  30.049  1.00  0.00     0.010 A 
ATOM     36  C   UNL A   1      37.909  29.574  27.662  1.00  0.00     0.010 A 
ATOM     37  C   UNL A   1      38.369  29.159  28.922  1.00  0.00    -0.014 A 
BRANCH  37  38
ATOM     38  C   UNL A   1      39.802  28.827  29.077  1.00  0.00     0.031 A 
ATOM     39  C   UNL A   1      40.742  29.926  29.487  1.00  0.00     0.074 A 
ATOM     40  C   UNL A   1      40.251  27.589  28.815  1.00  0.00     0.049 A 
ATOM     41  N   UNL A   1      42.048  29.926  29.545  1.00  0.00    -0.248 NA
ATOM     42  C   UNL A   1      40.124  31.205  29.878  1.00  0.00     0.031 C 
ATOM     43  C   UNL A   1      39.414  26.446  28.456  1.00  0.00     0.029 A 
ATOM     44  N   UNL A   1      41.530  27.099  28.784  1.00  0.00    -0.354 N 
ATOM     45  C   UNL A   1      42.407  31.202  29.961  1.00  0.00     0.074 A 
ATOM     46  C   UNL A   1      41.185  31.956  30.131  1.00  0.00     0.031 C 
ATOM     47  C   UNL A   1      40.208  25.390  28.207  1.00  0.00     0.029 A 
ATOM     48  C   UNL A   1      41.604  25.798  28.352  1.00  0.00     0.049 A 
ATOM     49  H   UNL A   1      42.318  27.629  29.044  1.00  0.00     0.167 HD
ATOM     50  C   UNL A   1      43.647  31.701  30.176  1.00  0.00     0.037 A 
ATOM     51  C   UNL A   1      42.682  25.039  28.073  1.00  0.00     0.037 A 
ATOM     52  C   UNL A   1      44.852  30.940  29.982  1.00  0.00     0.049 A 
ATOM     53  C   UNL A   1      44.056  25.628  28.262  1.00  0.00     0.074 A 
ATOM     54  C   UNL A   1      46.165  31.339  30.161  1.00  0.00     0.029 A 
ATOM     55  N   UNL A   1      44.888  29.620  29.553  1.00  0.00    -0.354 N 
ATOM     56  N   UNL A   1      44.388  26.835  28.659  1.00  0.00    -0.248 NA
ATOM     57  C   UNL A   1      45.200  24.756  27.967  1.00  0.00     0.031 C 
ATOM     58  C   UNL A   1      46.995  30.271  29.804  1.00  0.00     0.029 A 
ATOM     59  C   UNL A   1      46.200  29.192  29.446  1.00  0.00     0.049 A 
ATOM     60  H   UNL A   1      44.096  29.070  29.354  1.00  0.00     0.167 HD
ATOM     61  C   UNL A   1      45.779  26.859  28.690  1.00  0.00     0.074 A 
ATOM     62  C   UNL A   1      46.225  25.544  28.270  1.00  0.00     0.031 C 
ATOM     63  C   UNL A   1      46.612  27.871  29.038  1.00  0.00     0.037 A 
BRANCH  50  64
ATOM     64  C   UNL A   1      43.749  33.140  30.597  1.00  0.00     0.058 A 
ATOM     65  C   UNL A   1      43.717  34.189  29.664  1.00  0.00     0.135 A 
ATOM     66  C   UNL A   1      43.895  33.475  31.952  1.00  0.00     0.135 A 
ATOM     67  F   UNL A   1      43.600  33.924  28.354  1.00  0.00    -0.206 F 
ATOM     68  C   UNL A   1      43.860  35.517  30.056  1.00  0.00     0.059 A 
ATOM     69  C   UNL A   1      44.017  34.798  32.370  1.00  0.00     0.059 A 
ATOM     70  F   UNL A   1      43.937  32.513  32.887  1.00  0.00    -0.206 F 
ATOM     71  C   UNL A   1      44.017  35.811  31.412  1.00  0.00     0.060 A 
BRANCH  71  72
ATOM     72  S   UNL A   1      44.224  37.535  31.906  1.00  0.00     0.124 S 
ATOM     73  O   UNL A   1      45.665  37.603  32.129  1.00  0.00    -0.237 OA
ATOM     74  O   UNL A   1      43.730  38.259  30.740  1.00  0.00    -0.237 OA
ATOM     75  O   UNL A   1      43.398  37.647  33.104  1.00  0.00    -0.744 OA
ENDBRANCH  71  72
ENDBRANCH  50  64
BRANCH  51  76
ATOM     76  C   UNL A   1      42.494  23.653  27.575  1.00  0.00     0.058 A 
ATOM     77  C   UNL A   1      42.476  23.374  26.201  1.00  0.00     0.135 A 
ATOM     78  C   UNL A   1      42.372  22.573  28.463  1.00  0.00     0.135 A 
ATOM     79  F   UNL A   1      42.580  24.374  25.313  1.00  0.00    -0.206 F 
ATOM     80  C   UNL A   1      42.343  22.074  25.724  1.00  0.00     0.059 A 
ATOM     81  C   UNL A   1      42.259  21.262  28.011  1.00  0.00     0.059 A 
ATOM     82  F   UNL A   1      42.391  22.786  29.789  1.00  0.00    -0.206 F 
ATOM     83  C   UNL A   1      42.241  21.023  26.637  1.00  0.00     0.060 A 
BRANCH  83  84
ATOM     84  S   UNL A   1      42.139  19.333  26.007  1.00  0.00     0.124 S 
ATOM     85  O   UNL A   1      40.710  19.203  25.744  1.00  0.00    -0.237 OA
ATOM     86  O   UNL A   1      43.001  19.388  24.831  1.00  0.00    -0.237 OA
ATOM     87  O   UNL A   1      42.652  18.530  27.113  1.00  0.00    -0.744 OA
ENDBRANCH  83  84
ENDBRANCH  51  76
BRANCH  63  88
ATOM     88  C   UNL A   1      48.086  27.588  29.026  1.00  0.00     0.058 A 
ATOM     89  C   UNL A   1      48.900  27.955  27.944  1.00  0.00     0.135 A 
ATOM     90  C   UNL A   1      48.703  27.015  30.150  1.00  0.00     0.135 A 
ATOM     91  F   UNL A   1      48.356  28.503  26.845  1.00  0.00    -0.206 F 
ATOM     92  C   UNL A   1      50.276  27.752  27.970  1.00  0.00     0.059 A 
ATOM     93  C   UNL A   1      50.079  26.822  30.207  1.00  0.00     0.059 A 
ATOM     94  F   UNL A   1      47.969  26.657  31.215  1.00  0.00    -0.206 F 
ATOM     95  C   UNL A   1      50.857  27.188  29.109  1.00  0.00     0.060 A 
BRANCH  95  96
ATOM     96  S   UNL A   1      52.649  26.977  29.154  1.00  0.00     0.124 S 
ATOM     97  O   UNL A   1      52.847  26.435  30.494  1.00  0.00    -0.237 OA
ATOM     98  O   UNL A   1      52.885  26.049  28.053  1.00  0.00    -0.237 OA
ATOM     99  O   UNL A   1      53.155  28.331  28.943  1.00  0.00    -0.744 OA
ENDBRANCH  95  96
ENDBRANCH  63  88
ENDBRANCH  37  38
ENDBRANCH  30  32
ENDBRANCH  29  30
ENDBRANCH  28  29
ENDBRANCH  27  28
ENDBRANCH  26  27
ENDBRANCH   1  26
TORSDOF 21
ENDMDL
