MODEL 1
REMARK VINA RESULT:     -10.1      0.000      0.000
REMARK SMILES C[C@@H](C(=O)OCCOCCOCCOC(=O)c1ccc(-c2c3nc(c(-c4c(F)cc(S(=O)(=O)[O-])cc4F)c4ccc([nH]4)c(-c4c(F)cc(S(=O)(=O)[O-])cc4F)c4nc(c(-c5c(F)cc(S(=O)(=O)[O-])cc5F)c5ccc2[nH]5)C=C4)C=C3)cc1)c1cccc(C(=O)c2ccccc2)c1
REMARK SMILES IDX 9 1 8 2 7 3 6 4 5 5 3 6 4 7 2 8 1 9 83 10 84 11 96 12 85 13
REMARK SMILES IDX 87 14 86 15 88 16 89 17 90 18 91 19 95 20 92 21 94 22 93 23
REMARK SMILES IDX 10 24 11 25 12 26 13 27 14 28 15 29 16 30 17 31 18 32 82 33
REMARK SMILES IDX 19 34 81 35 20 36 21 37 22 38 75 39 23 40 80 41 74 42 76 43
REMARK SMILES IDX 24 44 79 45 73 46 72 47 25 49 59 50 38 51 58 52 39 53 42 54
REMARK SMILES IDX 57 55 77 56 40 57 41 58 56 60 78 61 43 62 26 63 27 64 36 65
REMARK SMILES IDX 28 66 29 67 35 68 37 69 30 70 31 71 32 72 33 73 34 74 60 75
REMARK SMILES IDX 61 76 70 77 62 78 63 79 69 80 71 81 64 82 65 83 66 84 67 85
REMARK SMILES IDX 68 86 44 87 45 88 54 89 46 90 47 91 53 92 55 93 48 94 49 95
REMARK SMILES IDX 50 96 51 97 52 98
REMARK H PARENT 76 48 42 59
REMARK Flexibility Score: inf
ROOT
ATOM      1  C   UNL A   1      33.751  22.755  26.340  1.00  0.00     0.188 C 
ENDROOT
BRANCH   1   2
ATOM      2  O   UNL A   1      32.550  22.038  26.175  1.00  0.00    -0.376 OA
BRANCH   2   3
ATOM      3  C   UNL A   1      32.237  21.519  24.890  1.00  0.00     0.202 C 
BRANCH   3   4
ATOM      4  C   UNL A   1      33.150  21.723  23.666  1.00  0.00     0.261 C 
BRANCH   4   5
ATOM      5  O   UNL A   1      32.654  22.617  22.648  1.00  0.00    -0.463 OA
BRANCH   5   6
ATOM      6  C   UNL A   1      33.167  23.880  22.669  1.00  0.00     0.313 C 
ATOM      7  O   UNL A   1      34.367  24.117  22.780  1.00  0.00    -0.252 OA
BRANCH   6   8
ATOM      8  C   UNL A   1      32.129  25.011  22.549  1.00  0.00     0.126 C 
ATOM      9  C   UNL A   1      32.291  26.070  21.454  1.00  0.00     0.025 C 
BRANCH   8  10
ATOM     10  C   UNL A   1      31.801  25.651  23.897  1.00  0.00    -0.033 A 
ATOM     11  C   UNL A   1      31.181  24.966  24.946  1.00  0.00     0.004 A 
ATOM     12  C   UNL A   1      32.091  27.005  24.096  1.00  0.00     0.016 A 
ATOM     13  C   UNL A   1      30.788  25.625  26.111  1.00  0.00     0.001 A 
ATOM     14  C   UNL A   1      31.645  27.689  25.243  1.00  0.00     0.023 A 
ATOM     15  C   UNL A   1      31.002  26.988  26.260  1.00  0.00     0.012 A 
BRANCH  14  16
ATOM     16  C   UNL A   1      31.832  29.157  25.396  1.00  0.00     0.193 C 
ATOM     17  O   UNL A   1      31.030  29.949  24.916  1.00  0.00    -0.289 OA
BRANCH  16  18
ATOM     18  C   UNL A   1      32.965  29.675  26.193  1.00  0.00     0.022 A 
ATOM     19  C   UNL A   1      32.788  30.883  26.868  1.00  0.00     0.012 A 
ATOM     20  C   UNL A   1      34.146  28.938  26.345  1.00  0.00     0.012 A 
ATOM     21  C   UNL A   1      33.769  31.321  27.755  1.00  0.00     0.001 A 
ATOM     22  C   UNL A   1      35.115  29.372  27.246  1.00  0.00     0.001 A 
ATOM     23  C   UNL A   1      34.920  30.557  27.957  1.00  0.00     0.000 A 
ENDBRANCH  16  18
ENDBRANCH  14  16
ENDBRANCH   8  10
ENDBRANCH   6   8
ENDBRANCH   5   6
ENDBRANCH   4   5
ENDBRANCH   3   4
ENDBRANCH   2   3
ENDBRANCH   1   2
BRANCH   1  24
ATOM     24  C   UNL A   1      34.996  21.987  26.799  1.00  0.00     0.188 C 
BRANCH  24  25
ATOM     25  O   UNL A   1      36.157  21.921  26.005  1.00  0.00    -0.376 OA
BRANCH  25  26
ATOM     26  C   UNL A   1      36.798  23.112  25.596  1.00  0.00     0.202 C 
BRANCH  26  27
ATOM     27  C   UNL A   1      38.311  23.357  25.749  1.00  0.00     0.261 C 
BRANCH  27  28
ATOM     28  O   UNL A   1      38.754  24.131  26.867  1.00  0.00    -0.460 OA
BRANCH  28  29
ATOM     29  C   UNL A   1      39.851  24.900  26.648  1.00  0.00     0.338 C 
ATOM     30  O   UNL A   1      40.506  24.964  25.620  1.00  0.00    -0.246 OA
BRANCH  29  31
ATOM     31  C   UNL A   1      40.014  25.820  27.797  1.00  0.00     0.060 A 
ATOM     32  C   UNL A   1      39.145  25.697  28.890  1.00  0.00     0.016 A 
ATOM     33  C   UNL A   1      41.012  26.796  27.798  1.00  0.00     0.016 A 
ATOM     34  C   UNL A   1      39.259  26.565  29.978  1.00  0.00     0.010 A 
ATOM     35  C   UNL A   1      41.106  27.684  28.875  1.00  0.00     0.010 A 
ATOM     36  C   UNL A   1      40.215  27.591  29.958  1.00  0.00    -0.014 A 
BRANCH  36  37
ATOM     37  C   UNL A   1      40.159  28.673  30.974  1.00  0.00     0.031 A 
ATOM     38  C   UNL A   1      41.114  28.617  32.132  1.00  0.00     0.074 A 
ATOM     39  C   UNL A   1      39.288  29.694  30.871  1.00  0.00     0.049 A 
ATOM     40  N   UNL A   1      41.206  29.408  33.169  1.00  0.00    -0.248 NA
ATOM     41  C   UNL A   1      42.076  27.503  32.133  1.00  0.00     0.031 C 
ATOM     42  C   UNL A   1      38.309  29.853  29.803  1.00  0.00     0.029 A 
ATOM     43  N   UNL A   1      39.090  30.792  31.672  1.00  0.00    -0.354 N 
ATOM     44  C   UNL A   1      42.220  28.878  33.957  1.00  0.00     0.074 A 
ATOM     45  C   UNL A   1      42.701  27.689  33.287  1.00  0.00     0.031 C 
ATOM     46  C   UNL A   1      37.646  31.007  29.982  1.00  0.00     0.029 A 
ATOM     47  C   UNL A   1      38.092  31.629  31.227  1.00  0.00     0.049 A 
ATOM     48  H   UNL A   1      39.612  30.964  32.488  1.00  0.00     0.167 HD
ATOM     49  C   UNL A   1      42.702  29.339  35.135  1.00  0.00     0.037 A 
ATOM     50  C   UNL A   1      37.573  32.745  31.782  1.00  0.00     0.037 A 
ATOM     51  C   UNL A   1      42.209  30.516  35.804  1.00  0.00     0.049 A 
ATOM     52  C   UNL A   1      38.100  33.215  33.117  1.00  0.00     0.074 A 
ATOM     53  C   UNL A   1      42.629  31.059  37.005  1.00  0.00     0.029 A 
ATOM     54  N   UNL A   1      41.187  31.328  35.335  1.00  0.00    -0.354 N 
ATOM     55  N   UNL A   1      39.058  32.704  33.855  1.00  0.00    -0.248 NA
ATOM     56  C   UNL A   1      37.459  34.400  33.708  1.00  0.00     0.031 C 
ATOM     57  C   UNL A   1      41.826  32.169  37.289  1.00  0.00     0.029 A 
ATOM     58  C   UNL A   1      40.948  32.356  36.233  1.00  0.00     0.049 A 
ATOM     59  H   UNL A   1      40.702  31.194  34.488  1.00  0.00     0.167 HD
ATOM     60  C   UNL A   1      39.145  33.513  34.984  1.00  0.00     0.074 A 
ATOM     61  C   UNL A   1      38.157  34.559  34.825  1.00  0.00     0.031 C 
ATOM     62  C   UNL A   1      39.965  33.397  36.059  1.00  0.00     0.037 A 
BRANCH  49  63
ATOM     63  C   UNL A   1      43.789  28.540  35.799  1.00  0.00     0.058 A 
ATOM     64  C   UNL A   1      45.148  28.841  35.612  1.00  0.00     0.135 A 
ATOM     65  C   UNL A   1      43.467  27.474  36.653  1.00  0.00     0.135 A 
ATOM     66  F   UNL A   1      45.514  29.836  34.788  1.00  0.00    -0.206 F 
ATOM     67  C   UNL A   1      46.148  28.096  36.228  1.00  0.00     0.059 A 
ATOM     68  C   UNL A   1      44.449  26.735  37.305  1.00  0.00     0.059 A 
ATOM     69  F   UNL A   1      42.183  27.139  36.862  1.00  0.00    -0.206 F 
ATOM     70  C   UNL A   1      45.788  27.046  37.075  1.00  0.00     0.060 A 
BRANCH  70  71
ATOM     71  S   UNL A   1      47.098  26.094  37.871  1.00  0.00     0.124 S 
ATOM     72  O   UNL A   1      48.224  26.343  36.976  1.00  0.00    -0.237 OA
ATOM     73  O   UNL A   1      47.182  26.721  39.186  1.00  0.00    -0.237 OA
ATOM     74  O   UNL A   1      46.582  24.729  37.861  1.00  0.00    -0.744 OA
ENDBRANCH  70  71
ENDBRANCH  49  63
BRANCH  50  75
ATOM     75  C   UNL A   1      36.459  33.473  31.110  1.00  0.00     0.058 A 
ATOM     76  C   UNL A   1      35.153  33.448  31.624  1.00  0.00     0.135 A 
ATOM     77  C   UNL A   1      36.673  34.195  29.925  1.00  0.00     0.135 A 
ATOM     78  F   UNL A   1      34.885  32.754  32.741  1.00  0.00    -0.206 F 
ATOM     79  C   UNL A   1      34.100  34.097  30.984  1.00  0.00     0.059 A 
ATOM     80  C   UNL A   1      35.645  34.881  29.284  1.00  0.00     0.059 A 
ATOM     81  F   UNL A   1      37.901  34.257  29.387  1.00  0.00    -0.206 F 
ATOM     82  C   UNL A   1      34.358  34.816  29.815  1.00  0.00     0.060 A 
BRANCH  82  83
ATOM     83  S   UNL A   1      32.998  35.690  29.011  1.00  0.00     0.124 S 
ATOM     84  O   UNL A   1      33.701  36.781  28.346  1.00  0.00    -0.237 OA
ATOM     85  O   UNL A   1      32.442  34.661  28.138  1.00  0.00    -0.237 OA
ATOM     86  O   UNL A   1      32.143  36.081  30.129  1.00  0.00    -0.744 OA
ENDBRANCH  82  83
ENDBRANCH  50  75
BRANCH  62  87
ATOM     87  C   UNL A   1      39.863  34.448  37.135  1.00  0.00     0.058 A 
ATOM     88  C   UNL A   1      40.466  35.709  37.004  1.00  0.00     0.135 A 
ATOM     89  C   UNL A   1      39.096  34.209  38.287  1.00  0.00     0.135 A 
ATOM     90  F   UNL A   1      41.214  35.991  35.926  1.00  0.00    -0.206 F 
ATOM     91  C   UNL A   1      40.333  36.686  37.987  1.00  0.00     0.059 A 
ATOM     92  C   UNL A   1      38.923  35.181  39.268  1.00  0.00     0.059 A 
ATOM     93  F   UNL A   1      38.485  33.026  38.460  1.00  0.00    -0.206 F 
ATOM     94  C   UNL A   1      39.556  36.413  39.115  1.00  0.00     0.060 A 
BRANCH  94  95
ATOM     95  S   UNL A   1      39.361  37.702  40.365  1.00  0.00     0.124 S 
ATOM     96  O   UNL A   1      38.368  38.569  39.741  1.00  0.00    -0.237 OA
ATOM     97  O   UNL A   1      38.904  36.945  41.525  1.00  0.00    -0.237 OA
ATOM     98  O   UNL A   1      40.702  38.268  40.482  1.00  0.00    -0.744 OA
ENDBRANCH  94  95
ENDBRANCH  62  87
ENDBRANCH  36  37
ENDBRANCH  29  31
ENDBRANCH  28  29
ENDBRANCH  27  28
ENDBRANCH  26  27
ENDBRANCH  25  26
ENDBRANCH  24  25
ENDBRANCH   1  24
TORSDOF 23
ENDMDL
MODEL 2
REMARK VINA RESULT:     -10.0      2.419      9.612
REMARK SMILES C[C@@H](C(=O)OCCOCCOCCOC(=O)c1ccc(-c2c3nc(c(-c4c(F)cc(S(=O)(=O)[O-])cc4F)c4ccc([nH]4)c(-c4c(F)cc(S(=O)(=O)[O-])cc4F)c4nc(c(-c5c(F)cc(S(=O)(=O)[O-])cc5F)c5ccc2[nH]5)C=C4)C=C3)cc1)c1cccc(C(=O)c2ccccc2)c1
REMARK SMILES IDX 9 1 8 2 7 3 6 4 5 5 3 6 4 7 2 8 1 9 83 10 84 11 96 12 85 13
REMARK SMILES IDX 87 14 86 15 88 16 89 17 90 18 91 19 95 20 92 21 94 22 93 23
REMARK SMILES IDX 10 24 11 25 12 26 13 27 14 28 15 29 16 30 17 31 18 32 82 33
REMARK SMILES IDX 19 34 81 35 20 36 21 37 22 38 75 39 23 40 80 41 74 42 76 43
REMARK SMILES IDX 24 44 79 45 73 46 72 47 25 49 59 50 38 51 58 52 39 53 42 54
REMARK SMILES IDX 57 55 77 56 40 57 41 58 56 60 78 61 43 62 26 63 27 64 36 65
REMARK SMILES IDX 28 66 29 67 35 68 37 69 30 70 31 71 32 72 33 73 34 74 60 75
REMARK SMILES IDX 61 76 70 77 62 78 63 79 69 80 71 81 64 82 65 83 66 84 67 85
REMARK SMILES IDX 68 86 44 87 45 88 54 89 46 90 47 91 53 92 55 93 48 94 49 95
REMARK SMILES IDX 50 96 51 97 52 98
REMARK H PARENT 76 48 42 59
REMARK Flexibility Score: inf
ROOT
ATOM      1  C   UNL A   1      45.659  21.213  24.959  1.00  0.00     0.188 C 
ENDROOT
BRANCH   1   2
ATOM      2  O   UNL A   1      44.333  20.839  25.254  1.00  0.00    -0.376 OA
BRANCH   2   3
ATOM      3  C   UNL A   1      43.984  19.463  25.194  1.00  0.00     0.202 C 
BRANCH   3   4
ATOM      4  C   UNL A   1      42.741  18.888  25.901  1.00  0.00     0.261 C 
BRANCH   4   5
ATOM      5  O   UNL A   1      41.541  19.685  25.821  1.00  0.00    -0.463 OA
BRANCH   5   6
ATOM      6  C   UNL A   1      41.145  20.276  26.983  1.00  0.00     0.313 C 
ATOM      7  O   UNL A   1      40.777  19.642  27.969  1.00  0.00    -0.252 OA
BRANCH   6   8
ATOM      8  C   UNL A   1      41.181  21.816  26.982  1.00  0.00     0.126 C 
ATOM      9  C   UNL A   1      41.780  22.557  28.181  1.00  0.00     0.025 C 
BRANCH   8  10
ATOM     10  C   UNL A   1      39.850  22.433  26.554  1.00  0.00    -0.033 A 
ATOM     11  C   UNL A   1      39.475  23.745  26.856  1.00  0.00     0.004 A 
ATOM     12  C   UNL A   1      38.926  21.644  25.861  1.00  0.00     0.016 A 
ATOM     13  C   UNL A   1      38.199  24.223  26.555  1.00  0.00     0.001 A 
ATOM     14  C   UNL A   1      37.618  22.098  25.607  1.00  0.00     0.023 A 
ATOM     15  C   UNL A   1      37.261  23.401  25.946  1.00  0.00     0.012 A 
BRANCH  14  16
ATOM     16  C   UNL A   1      36.592  21.215  24.991  1.00  0.00     0.193 C 
ATOM     17  O   UNL A   1      36.721  19.997  25.000  1.00  0.00    -0.289 OA
BRANCH  16  18
ATOM     18  C   UNL A   1      35.364  21.805  24.415  1.00  0.00     0.022 A 
ATOM     19  C   UNL A   1      35.511  22.849  23.501  1.00  0.00     0.012 A 
ATOM     20  C   UNL A   1      34.099  21.277  24.701  1.00  0.00     0.012 A 
ATOM     21  C   UNL A   1      34.392  23.321  22.817  1.00  0.00     0.001 A 
ATOM     22  C   UNL A   1      32.988  21.741  24.002  1.00  0.00     0.001 A 
ATOM     23  C   UNL A   1      33.138  22.754  23.054  1.00  0.00     0.000 A 
ENDBRANCH  16  18
ENDBRANCH  14  16
ENDBRANCH   8  10
ENDBRANCH   6   8
ENDBRANCH   5   6
ENDBRANCH   4   5
ENDBRANCH   3   4
ENDBRANCH   2   3
ENDBRANCH   1   2
BRANCH   1  24
ATOM     24  C   UNL A   1      45.889  22.510  24.175  1.00  0.00     0.188 C 
BRANCH  24  25
ATOM     25  O   UNL A   1      45.011  23.605  24.287  1.00  0.00    -0.376 OA
BRANCH  25  26
ATOM     26  C   UNL A   1      45.308  24.657  25.182  1.00  0.00     0.202 C 
BRANCH  26  27
ATOM     27  C   UNL A   1      44.331  25.151  26.264  1.00  0.00     0.261 C 
BRANCH  27  28
ATOM     28  O   UNL A   1      42.935  24.914  26.066  1.00  0.00    -0.460 OA
BRANCH  28  29
ATOM     29  C   UNL A   1      42.162  26.024  25.954  1.00  0.00     0.338 C 
ATOM     30  O   UNL A   1      41.465  26.337  25.001  1.00  0.00    -0.246 OA
BRANCH  29  31
ATOM     31  C   UNL A   1      42.131  26.707  27.267  1.00  0.00     0.060 A 
ATOM     32  C   UNL A   1      41.430  26.110  28.324  1.00  0.00     0.016 A 
ATOM     33  C   UNL A   1      42.786  27.925  27.456  1.00  0.00     0.016 A 
ATOM     34  C   UNL A   1      41.364  26.742  29.568  1.00  0.00     0.010 A 
ATOM     35  C   UNL A   1      42.693  28.572  28.694  1.00  0.00     0.010 A 
ATOM     36  C   UNL A   1      41.962  27.998  29.747  1.00  0.00    -0.014 A 
BRANCH  36  37
ATOM     37  C   UNL A   1      41.663  28.790  30.968  1.00  0.00     0.031 A 
ATOM     38  C   UNL A   1      40.476  29.712  30.949  1.00  0.00     0.074 A 
ATOM     39  C   UNL A   1      42.417  28.690  32.077  1.00  0.00     0.049 A 
ATOM     40  N   UNL A   1      40.060  30.545  31.867  1.00  0.00    -0.248 NA
ATOM     41  C   UNL A   1      39.667  29.711  29.720  1.00  0.00     0.031 C 
ATOM     42  C   UNL A   1      43.595  27.842  32.213  1.00  0.00     0.029 A 
ATOM     43  N   UNL A   1      42.303  29.303  33.301  1.00  0.00    -0.354 N 
ATOM     44  C   UNL A   1      38.954  31.184  31.320  1.00  0.00     0.074 A 
ATOM     45  C   UNL A   1      38.775  30.654  29.985  1.00  0.00     0.031 C 
ATOM     46  C   UNL A   1      44.069  27.945  33.466  1.00  0.00     0.029 A 
ATOM     47  C   UNL A   1      43.280  28.934  34.198  1.00  0.00     0.049 A 
ATOM     48  H   UNL A   1      41.590  29.946  33.517  1.00  0.00     0.167 HD
ATOM     49  C   UNL A   1      38.165  32.131  31.879  1.00  0.00     0.037 A 
ATOM     50  C   UNL A   1      43.532  29.375  35.450  1.00  0.00     0.037 A 
ATOM     51  C   UNL A   1      38.357  32.664  33.203  1.00  0.00     0.049 A 
ATOM     52  C   UNL A   1      42.661  30.461  36.035  1.00  0.00     0.074 A 
ATOM     53  C   UNL A   1      37.613  33.631  33.855  1.00  0.00     0.029 A 
ATOM     54  N   UNL A   1      39.366  32.282  34.076  1.00  0.00    -0.354 N 
ATOM     55  N   UNL A   1      41.618  31.060  35.507  1.00  0.00    -0.248 NA
ATOM     56  C   UNL A   1      43.014  30.949  37.376  1.00  0.00     0.031 C 
ATOM     57  C   UNL A   1      38.203  33.872  35.101  1.00  0.00     0.029 A 
ATOM     58  C   UNL A   1      39.277  33.009  35.251  1.00  0.00     0.049 A 
ATOM     59  H   UNL A   1      40.046  31.595  33.886  1.00  0.00     0.167 HD
ATOM     60  C   UNL A   1      41.184  31.980  36.456  1.00  0.00     0.074 A 
ATOM     61  C   UNL A   1      42.062  31.846  37.599  1.00  0.00     0.031 C 
ATOM     62  C   UNL A   1      40.154  32.861  36.387  1.00  0.00     0.037 A 
BRANCH  49  63
ATOM     63  C   UNL A   1      37.046  32.683  31.040  1.00  0.00     0.058 A 
ATOM     64  C   UNL A   1      35.714  32.276  31.219  1.00  0.00     0.135 A 
ATOM     65  C   UNL A   1      37.306  33.653  30.059  1.00  0.00     0.135 A 
ATOM     66  F   UNL A   1      35.412  31.334  32.128  1.00  0.00    -0.206 F 
ATOM     67  C   UNL A   1      34.686  32.791  30.437  1.00  0.00     0.059 A 
ATOM     68  C   UNL A   1      36.289  34.205  29.287  1.00  0.00     0.059 A 
ATOM     69  F   UNL A   1      38.563  34.075  29.841  1.00  0.00    -0.206 F 
ATOM     70  C   UNL A   1      34.983  33.757  29.475  1.00  0.00     0.060 A 
BRANCH  70  71
ATOM     71  S   UNL A   1      33.635  34.419  28.474  1.00  0.00     0.124 S 
ATOM     72  O   UNL A   1      32.673  34.807  29.501  1.00  0.00    -0.237 OA
ATOM     73  O   UNL A   1      34.285  35.518  27.767  1.00  0.00    -0.237 OA
ATOM     74  O   UNL A   1      33.240  33.287  27.642  1.00  0.00    -0.744 OA
ENDBRANCH  70  71
ENDBRANCH  49  63
BRANCH  50  75
ATOM     75  C   UNL A   1      44.686  28.832  36.222  1.00  0.00     0.058 A 
ATOM     76  C   UNL A   1      45.959  29.417  36.142  1.00  0.00     0.135 A 
ATOM     77  C   UNL A   1      44.544  27.702  37.043  1.00  0.00     0.135 A 
ATOM     78  F   UNL A   1      46.159  30.485  35.354  1.00  0.00    -0.206 F 
ATOM     79  C   UNL A   1      47.051  28.896  36.833  1.00  0.00     0.059 A 
ATOM     80  C   UNL A   1      45.610  27.183  37.771  1.00  0.00     0.059 A 
ATOM     81  F   UNL A   1      43.350  27.101  37.161  1.00  0.00    -0.206 F 
ATOM     82  C   UNL A   1      46.864  27.779  37.650  1.00  0.00     0.060 A 
BRANCH  82  83
ATOM     83  S   UNL A   1      48.272  27.132  38.578  1.00  0.00     0.124 S 
ATOM     84  O   UNL A   1      48.467  25.831  37.948  1.00  0.00    -0.237 OA
ATOM     85  O   UNL A   1      49.301  28.132  38.314  1.00  0.00    -0.237 OA
ATOM     86  O   UNL A   1      47.781  27.099  39.953  1.00  0.00    -0.744 OA
ENDBRANCH  82  83
ENDBRANCH  50  75
BRANCH  62  87
ATOM     87  C   UNL A   1      39.888  33.726  37.592  1.00  0.00     0.058 A 
ATOM     88  C   UNL A   1      40.540  34.953  37.786  1.00  0.00     0.135 A 
ATOM     89  C   UNL A   1      38.919  33.346  38.536  1.00  0.00     0.135 A 
ATOM     90  F   UNL A   1      41.479  35.364  36.920  1.00  0.00    -0.206 F 
ATOM     91  C   UNL A   1      40.258  35.762  38.885  1.00  0.00     0.059 A 
ATOM     92  C   UNL A   1      38.598  34.153  39.623  1.00  0.00     0.059 A 
ATOM     93  F   UNL A   1      38.253  32.189  38.394  1.00  0.00    -0.206 F 
ATOM     94  C   UNL A   1      39.283  35.355  39.797  1.00  0.00     0.060 A 
BRANCH  94  95
ATOM     95  S   UNL A   1      38.901  36.431  41.195  1.00  0.00     0.124 S 
ATOM     96  O   UNL A   1      37.812  35.704  41.838  1.00  0.00    -0.237 OA
ATOM     97  O   UNL A   1      40.165  36.454  41.924  1.00  0.00    -0.237 OA
ATOM     98  O   UNL A   1      38.526  37.692  40.563  1.00  0.00    -0.744 OA
ENDBRANCH  94  95
ENDBRANCH  62  87
ENDBRANCH  36  37
ENDBRANCH  29  31
ENDBRANCH  28  29
ENDBRANCH  27  28
ENDBRANCH  26  27
ENDBRANCH  25  26
ENDBRANCH  24  25
ENDBRANCH   1  24
TORSDOF 23
ENDMDL
MODEL 3
REMARK VINA RESULT:      -9.8      0.957      8.200
REMARK SMILES C[C@@H](C(=O)OCCOCCOCCOC(=O)c1ccc(-c2c3nc(c(-c4c(F)cc(S(=O)(=O)[O-])cc4F)c4ccc([nH]4)c(-c4c(F)cc(S(=O)(=O)[O-])cc4F)c4nc(c(-c5c(F)cc(S(=O)(=O)[O-])cc5F)c5ccc2[nH]5)C=C4)C=C3)cc1)c1cccc(C(=O)c2ccccc2)c1
REMARK SMILES IDX 9 1 8 2 7 3 6 4 5 5 3 6 4 7 2 8 1 9 83 10 84 11 96 12 85 13
REMARK SMILES IDX 87 14 86 15 88 16 89 17 90 18 91 19 95 20 92 21 94 22 93 23
REMARK SMILES IDX 10 24 11 25 12 26 13 27 14 28 15 29 16 30 17 31 18 32 82 33
REMARK SMILES IDX 19 34 81 35 20 36 21 37 22 38 75 39 23 40 80 41 74 42 76 43
REMARK SMILES IDX 24 44 79 45 73 46 72 47 25 49 59 50 38 51 58 52 39 53 42 54
REMARK SMILES IDX 57 55 77 56 40 57 41 58 56 60 78 61 43 62 26 63 27 64 36 65
REMARK SMILES IDX 28 66 29 67 35 68 37 69 30 70 31 71 32 72 33 73 34 74 60 75
REMARK SMILES IDX 61 76 70 77 62 78 63 79 69 80 71 81 64 82 65 83 66 84 67 85
REMARK SMILES IDX 68 86 44 87 45 88 54 89 46 90 47 91 53 92 55 93 48 94 49 95
REMARK SMILES IDX 50 96 51 97 52 98
REMARK H PARENT 76 48 42 59
REMARK Flexibility Score: inf
ROOT
ATOM      1  C   UNL A   1      36.418  22.954  23.731  1.00  0.00     0.188 C 
ENDROOT
BRANCH   1   2
ATOM      2  O   UNL A   1      35.387  23.744  23.185  1.00  0.00    -0.376 OA
BRANCH   2   3
ATOM      3  C   UNL A   1      34.156  23.119  22.845  1.00  0.00     0.202 C 
BRANCH   3   4
ATOM      4  C   UNL A   1      33.548  21.974  23.677  1.00  0.00     0.261 C 
BRANCH   4   5
ATOM      5  O   UNL A   1      33.364  22.240  25.082  1.00  0.00    -0.463 OA
BRANCH   5   6
ATOM      6  C   UNL A   1      32.089  22.107  25.548  1.00  0.00     0.313 C 
ATOM      7  O   UNL A   1      31.487  21.036  25.564  1.00  0.00    -0.252 OA
BRANCH   6   8
ATOM      8  C   UNL A   1      31.437  23.407  26.055  1.00  0.00     0.126 C 
ATOM      9  C   UNL A   1      30.111  23.337  26.818  1.00  0.00     0.025 C 
BRANCH   8  10
ATOM     10  C   UNL A   1      31.410  24.503  24.990  1.00  0.00    -0.033 A 
ATOM     11  C   UNL A   1      30.657  24.418  23.815  1.00  0.00     0.004 A 
ATOM     12  C   UNL A   1      32.208  25.639  25.162  1.00  0.00     0.016 A 
ATOM     13  C   UNL A   1      30.762  25.385  22.815  1.00  0.00     0.001 A 
ATOM     14  C   UNL A   1      32.364  26.587  24.134  1.00  0.00     0.023 A 
ATOM     15  C   UNL A   1      31.624  26.462  22.960  1.00  0.00     0.012 A 
BRANCH  14  16
ATOM     16  C   UNL A   1      33.314  27.725  24.260  1.00  0.00     0.193 C 
ATOM     17  O   UNL A   1      34.129  27.966  23.378  1.00  0.00    -0.289 OA
BRANCH  16  18
ATOM     18  C   UNL A   1      33.238  28.620  25.434  1.00  0.00     0.022 A 
ATOM     19  C   UNL A   1      34.255  28.535  26.385  1.00  0.00     0.012 A 
ATOM     20  C   UNL A   1      32.232  29.587  25.549  1.00  0.00     0.012 A 
ATOM     21  C   UNL A   1      34.306  29.468  27.419  1.00  0.00     0.001 A 
ATOM     22  C   UNL A   1      32.297  30.528  26.574  1.00  0.00     0.001 A 
ATOM     23  C   UNL A   1      33.340  30.473  27.500  1.00  0.00     0.000 A 
ENDBRANCH  16  18
ENDBRANCH  14  16
ENDBRANCH   8  10
ENDBRANCH   6   8
ENDBRANCH   5   6
ENDBRANCH   4   5
ENDBRANCH   3   4
ENDBRANCH   2   3
ENDBRANCH   1   2
BRANCH   1  24
ATOM     24  C   UNL A   1      36.764  23.139  25.213  1.00  0.00     0.188 C 
BRANCH  24  25
ATOM     25  O   UNL A   1      37.350  22.105  25.968  1.00  0.00    -0.376 OA
BRANCH  25  26
ATOM     26  C   UNL A   1      38.721  21.804  25.805  1.00  0.00     0.202 C 
BRANCH  26  27
ATOM     27  C   UNL A   1      39.844  22.530  26.569  1.00  0.00     0.261 C 
BRANCH  27  28
ATOM     28  O   UNL A   1      39.718  23.941  26.766  1.00  0.00    -0.460 OA
BRANCH  28  29
ATOM     29  C   UNL A   1      40.886  24.624  26.879  1.00  0.00     0.338 C 
ATOM     30  O   UNL A   1      41.876  24.501  26.175  1.00  0.00    -0.246 OA
BRANCH  29  31
ATOM     31  C   UNL A   1      40.701  25.704  27.875  1.00  0.00     0.060 A 
ATOM     32  C   UNL A   1      41.709  26.667  28.022  1.00  0.00     0.016 A 
ATOM     33  C   UNL A   1      39.548  25.767  28.658  1.00  0.00     0.016 A 
ATOM     34  C   UNL A   1      41.574  27.685  28.969  1.00  0.00     0.010 A 
ATOM     35  C   UNL A   1      39.428  26.769  29.628  1.00  0.00     0.010 A 
ATOM     36  C   UNL A   1      40.450  27.716  29.806  1.00  0.00    -0.014 A 
BRANCH  36  37
ATOM     37  C   UNL A   1      40.432  28.620  30.985  1.00  0.00     0.031 A 
ATOM     38  C   UNL A   1      39.428  29.738  31.014  1.00  0.00     0.074 A 
ATOM     39  C   UNL A   1      41.279  28.452  32.017  1.00  0.00     0.049 A 
ATOM     40  N   UNL A   1      39.270  30.685  31.901  1.00  0.00    -0.248 NA
ATOM     41  C   UNL A   1      38.497  29.811  29.877  1.00  0.00     0.031 C 
ATOM     42  C   UNL A   1      42.300  27.415  32.099  1.00  0.00     0.029 A 
ATOM     43  N   UNL A   1      41.413  29.147  33.194  1.00  0.00    -0.354 N 
ATOM     44  C   UNL A   1      38.236  31.480  31.420  1.00  0.00     0.074 A 
ATOM     45  C   UNL A   1      37.818  30.913  30.156  1.00  0.00     0.031 C 
ATOM     46  C   UNL A   1      42.924  27.505  33.286  1.00  0.00     0.029 A 
ATOM     47  C   UNL A   1      42.406  28.662  34.014  1.00  0.00     0.049 A 
ATOM     48  H   UNL A   1      40.850  29.919  33.430  1.00  0.00     0.167 HD
ATOM     49  C   UNL A   1      37.691  32.586  31.980  1.00  0.00     0.037 A 
ATOM     50  C   UNL A   1      42.871  29.123  35.195  1.00  0.00     0.037 A 
ATOM     51  C   UNL A   1      38.122  33.152  33.232  1.00  0.00     0.049 A 
ATOM     52  C   UNL A   1      42.272  30.381  35.778  1.00  0.00     0.074 A 
ATOM     53  C   UNL A   1      37.635  34.275  33.878  1.00  0.00     0.029 A 
ATOM     54  N   UNL A   1      39.141  32.647  34.026  1.00  0.00    -0.354 N 
ATOM     55  N   UNL A   1      41.296  31.126  35.313  1.00  0.00    -0.248 NA
ATOM     56  C   UNL A   1      42.855  30.876  37.035  1.00  0.00     0.031 C 
ATOM     57  C   UNL A   1      38.395  34.479  35.035  1.00  0.00     0.029 A 
ATOM     58  C   UNL A   1      39.313  33.447  35.144  1.00  0.00     0.049 A 
ATOM     59  H   UNL A   1      39.667  31.839  33.823  1.00  0.00     0.167 HD
ATOM     60  C   UNL A   1      41.138  32.164  36.227  1.00  0.00     0.074 A 
ATOM     61  C   UNL A   1      42.104  31.942  37.282  1.00  0.00     0.031 C 
ATOM     62  C   UNL A   1      40.275  33.211  36.193  1.00  0.00     0.037 A 
BRANCH  49  63
ATOM     63  C   UNL A   1      36.597  33.280  31.218  1.00  0.00     0.058 A 
ATOM     64  C   UNL A   1      36.868  34.081  30.097  1.00  0.00     0.135 A 
ATOM     65  C   UNL A   1      35.255  33.122  31.599  1.00  0.00     0.135 A 
ATOM     66  F   UNL A   1      38.135  34.286  29.702  1.00  0.00    -0.206 F 
ATOM     67  C   UNL A   1      35.850  34.721  29.398  1.00  0.00     0.059 A 
ATOM     68  C   UNL A   1      34.218  33.726  30.896  1.00  0.00     0.059 A 
ATOM     69  F   UNL A   1      34.940  32.371  32.667  1.00  0.00    -0.206 F 
ATOM     70  C   UNL A   1      34.527  34.536  29.805  1.00  0.00     0.060 A 
BRANCH  70  71
ATOM     71  S   UNL A   1      33.219  35.369  28.883  1.00  0.00     0.124 S 
ATOM     72  O   UNL A   1      32.403  35.915  29.965  1.00  0.00    -0.237 OA
ATOM     73  O   UNL A   1      33.966  36.346  28.098  1.00  0.00    -0.237 OA
ATOM     74  O   UNL A   1      32.601  34.291  28.117  1.00  0.00    -0.744 OA
ENDBRANCH  70  71
ENDBRANCH  49  63
BRANCH  50  75
ATOM     75  C   UNL A   1      43.993  28.428  35.887  1.00  0.00     0.058 A 
ATOM     76  C   UNL A   1      43.757  27.433  36.847  1.00  0.00     0.135 A 
ATOM     77  C   UNL A   1      45.331  28.760  35.616  1.00  0.00     0.135 A 
ATOM     78  F   UNL A   1      42.498  27.092  37.164  1.00  0.00    -0.206 F 
ATOM     79  C   UNL A   1      44.799  26.802  37.523  1.00  0.00     0.059 A 
ATOM     80  C   UNL A   1      46.391  28.120  36.252  1.00  0.00     0.059 A 
ATOM     81  F   UNL A   1      45.620  29.703  34.706  1.00  0.00    -0.206 F 
ATOM     82  C   UNL A   1      46.115  27.151  37.214  1.00  0.00     0.060 A 
BRANCH  82  83
ATOM     83  S   UNL A   1      47.464  26.301  38.062  1.00  0.00     0.124 S 
ATOM     84  O   UNL A   1      48.297  25.878  36.941  1.00  0.00    -0.237 OA
ATOM     85  O   UNL A   1      48.014  27.359  38.904  1.00  0.00    -0.237 OA
ATOM     86  O   UNL A   1      46.785  25.228  38.782  1.00  0.00    -0.744 OA
ENDBRANCH  82  83
ENDBRANCH  50  75
BRANCH  62  87
ATOM     87  C   UNL A   1      40.301  34.179  37.347  1.00  0.00     0.058 A 
ATOM     88  C   UNL A   1      41.105  35.329  37.336  1.00  0.00     0.135 A 
ATOM     89  C   UNL A   1      39.459  33.982  38.455  1.00  0.00     0.135 A 
ATOM     90  F   UNL A   1      41.932  35.566  36.306  1.00  0.00    -0.206 F 
ATOM     91  C   UNL A   1      41.092  36.237  38.392  1.00  0.00     0.059 A 
ATOM     92  C   UNL A   1      39.407  34.892  39.507  1.00  0.00     0.059 A 
ATOM     93  F   UNL A   1      38.658  32.907  38.514  1.00  0.00    -0.206 F 
ATOM     94  C   UNL A   1      40.237  36.012  39.473  1.00  0.00     0.060 A 
BRANCH  94  95
ATOM     95  S   UNL A   1      40.203  37.216  40.817  1.00  0.00     0.124 S 
ATOM     96  O   UNL A   1      40.552  36.386  41.965  1.00  0.00    -0.237 OA
ATOM     97  O   UNL A   1      41.216  38.179  40.399  1.00  0.00    -0.237 OA
ATOM     98  O   UNL A   1      38.830  37.712  40.796  1.00  0.00    -0.744 OA
ENDBRANCH  94  95
ENDBRANCH  62  87
ENDBRANCH  36  37
ENDBRANCH  29  31
ENDBRANCH  28  29
ENDBRANCH  27  28
ENDBRANCH  26  27
ENDBRANCH  25  26
ENDBRANCH  24  25
ENDBRANCH   1  24
TORSDOF 23
ENDMDL
