MODEL 1
REMARK VINA RESULT:     -10.8      0.000      0.000
REMARK SMILES Cc1cc(Br)ccc1NS(=O)(=O)c1ccc(C(=O)OCCOCCOCCOC(=O)c2ccc(-c3c4nc(c(-c5c(F)cc(S(=O)(=O)[O-])cc5F)c5ccc([nH]5)c(-c5c(F)cc(S(=O)(=O)[O-])cc5F)c5nc(c(-c6c(F)cc(S(=O)(=O)[O-])cc6F)c6ccc3[nH]6)C=C5)C=C4)cc2)cc1
REMARK SMILES IDX 23 1 22 2 21 3 20 4 19 5 17 6 18 7 16 8 13 9 14 10 98 11
REMARK SMILES IDX 15 12 97 13 10 14 11 15 12 16 9 17 8 19 1 20 2 21 3 22 4 23
REMARK SMILES IDX 7 24 5 25 6 26 24 27 25 28 26 29 27 30 28 31 29 32 30 33
REMARK SMILES IDX 31 34 32 35 96 36 33 37 95 38 34 39 35 40 36 41 89 42 37 43
REMARK SMILES IDX 94 44 88 45 90 46 38 47 93 48 87 49 86 50 39 52 73 53 52 54
REMARK SMILES IDX 72 55 53 56 56 57 71 58 91 59 54 60 55 61 70 63 92 64 57 65
REMARK SMILES IDX 40 66 41 67 50 68 42 69 43 70 49 71 51 72 44 73 45 74 46 75
REMARK SMILES IDX 47 76 48 77 74 78 75 79 84 80 76 81 77 82 83 83 85 84 78 85
REMARK SMILES IDX 79 86 80 87 81 88 82 89 58 90 59 91 68 92 60 93 61 94 67 95
REMARK SMILES IDX 69 96 62 97 63 98 64 99 65 100 66 101
REMARK H PARENT 9 18 90 51 56 62
REMARK Flexibility Score: inf
ROOT
ATOM      1  C   UNL A   1      33.299  28.197  26.744  1.00  0.00     0.188 C 
ENDROOT
BRANCH   1   2
ATOM      2  O   UNL A   1      32.047  28.809  26.967  1.00  0.00    -0.376 OA
BRANCH   2   3
ATOM      3  C   UNL A   1      31.478  29.599  25.937  1.00  0.00     0.202 C 
BRANCH   3   4
ATOM      4  C   UNL A   1      31.607  29.256  24.437  1.00  0.00     0.261 C 
BRANCH   4   5
ATOM      5  O   UNL A   1      30.403  28.922  23.732  1.00  0.00    -0.460 OA
BRANCH   5   6
ATOM      6  C   UNL A   1      30.449  27.856  22.896  1.00  0.00     0.338 C 
ATOM      7  O   UNL A   1      30.493  27.895  21.678  1.00  0.00    -0.246 OA
BRANCH   6   8
ATOM      8  C   UNL A   1      30.571  26.597  23.681  1.00  0.00     0.060 A 
ATOM      9  C   UNL A   1      31.030  24.267  25.177  1.00  0.00     0.087 A 
ATOM     10  C   UNL A   1      31.637  24.421  23.929  1.00  0.00     0.023 A 
ATOM     11  C   UNL A   1      30.132  25.241  25.641  1.00  0.00     0.023 A 
ATOM     12  C   UNL A   1      31.429  25.598  23.198  1.00  0.00     0.017 A 
ATOM     13  C   UNL A   1      29.891  26.397  24.889  1.00  0.00     0.017 A 
BRANCH   9  14
ATOM     14  S   UNL A   1      31.429  22.937  26.303  1.00  0.00     0.261 S 
ATOM     15  O   UNL A   1      30.498  21.867  25.985  1.00  0.00    -0.201 OA
ATOM     16  O   UNL A   1      31.483  23.511  27.625  1.00  0.00    -0.201 OA
BRANCH  14  17
ATOM     17  N   UNL A   1      32.931  22.333  25.921  1.00  0.00    -0.279 N 
ATOM     18  H   UNL A   1      33.695  22.779  26.352  1.00  0.00     0.180 HD
BRANCH  17  19
ATOM     19  C   UNL A   1      33.254  21.251  25.050  1.00  0.00     0.052 A 
ATOM     20  C   UNL A   1      35.763  21.474  25.586  1.00  0.00     0.046 C 
ATOM     21  C   UNL A   1      34.552  20.708  25.131  1.00  0.00    -0.026 A 
ATOM     22  C   UNL A   1      34.753  19.377  24.742  1.00  0.00     0.021 A 
ATOM     23  C   UNL A   1      33.700  18.633  24.226  1.00  0.00     0.018 A 
ATOM     24  C   UNL A   1      32.276  20.567  24.321  1.00  0.00     0.028 A 
ATOM     25  Br  UNL A   1      33.925  16.780  24.016  1.00  0.00    -0.051 Br
ATOM     26  C   UNL A   1      32.486  19.240  23.937  1.00  0.00     0.018 A 
ENDBRANCH  17  19
ENDBRANCH  14  17
ENDBRANCH   9  14
ENDBRANCH   6   8
ENDBRANCH   5   6
ENDBRANCH   4   5
ENDBRANCH   3   4
ENDBRANCH   2   3
ENDBRANCH   1   2
BRANCH   1  27
ATOM     27  C   UNL A   1      34.483  29.051  27.243  1.00  0.00     0.188 C 
BRANCH  27  28
ATOM     28  O   UNL A   1      34.550  30.437  26.928  1.00  0.00    -0.376 OA
BRANCH  28  29
ATOM     29  C   UNL A   1      34.216  31.397  27.924  1.00  0.00     0.202 C 
BRANCH  29  30
ATOM     30  C   UNL A   1      33.118  32.452  27.691  1.00  0.00     0.261 C 
BRANCH  30  31
ATOM     31  O   UNL A   1      33.561  33.812  27.589  1.00  0.00    -0.460 OA
BRANCH  31  32
ATOM     32  C   UNL A   1      33.449  34.539  28.728  1.00  0.00     0.338 C 
ATOM     33  O   UNL A   1      32.531  35.275  29.051  1.00  0.00    -0.246 OA
BRANCH  32  34
ATOM     34  C   UNL A   1      34.556  34.193  29.637  1.00  0.00     0.060 A 
ATOM     35  C   UNL A   1      35.872  34.350  29.182  1.00  0.00     0.016 A 
ATOM     36  C   UNL A   1      34.298  33.652  30.897  1.00  0.00     0.016 A 
ATOM     37  C   UNL A   1      36.939  33.953  29.985  1.00  0.00     0.010 A 
ATOM     38  C   UNL A   1      35.370  33.232  31.691  1.00  0.00     0.010 A 
ATOM     39  C   UNL A   1      36.691  33.359  31.228  1.00  0.00    -0.014 A 
BRANCH  39  40
ATOM     40  C   UNL A   1      37.805  32.739  31.981  1.00  0.00     0.031 A 
ATOM     41  C   UNL A   1      38.531  31.573  31.374  1.00  0.00     0.074 A 
ATOM     42  C   UNL A   1      38.156  33.203  33.194  1.00  0.00     0.049 A 
ATOM     43  N   UNL A   1      39.512  30.862  31.865  1.00  0.00    -0.248 NA
ATOM     44  C   UNL A   1      38.078  31.141  30.042  1.00  0.00     0.031 C 
ATOM     45  C   UNL A   1      37.513  34.319  33.881  1.00  0.00     0.029 A 
ATOM     46  N   UNL A   1      39.132  32.785  34.062  1.00  0.00    -0.354 N 
ATOM     47  C   UNL A   1      39.781  29.885  30.914  1.00  0.00     0.074 A 
ATOM     48  C   UNL A   1      38.851  30.088  29.823  1.00  0.00     0.031 C 
ATOM     49  C   UNL A   1      38.111  34.495  35.073  1.00  0.00     0.029 A 
ATOM     50  C   UNL A   1      39.180  33.510  35.230  1.00  0.00     0.049 A 
ATOM     51  H   UNL A   1      39.742  32.037  33.868  1.00  0.00     0.167 HD
ATOM     52  C   UNL A   1      40.717  28.907  30.951  1.00  0.00     0.037 A 
ATOM     53  C   UNL A   1      39.998  33.393  36.296  1.00  0.00     0.037 A 
ATOM     54  C   UNL A   1      41.634  28.708  32.042  1.00  0.00     0.049 A 
ATOM     55  C   UNL A   1      41.037  32.300  36.308  1.00  0.00     0.074 A 
ATOM     56  C   UNL A   1      42.626  27.752  32.168  1.00  0.00     0.029 A 
ATOM     57  N   UNL A   1      41.665  29.473  33.199  1.00  0.00    -0.354 N 
ATOM     58  N   UNL A   1      41.306  31.404  35.386  1.00  0.00    -0.248 NA
ATOM     59  C   UNL A   1      41.873  32.187  37.513  1.00  0.00     0.031 C 
ATOM     60  C   UNL A   1      43.228  27.910  33.421  1.00  0.00     0.029 A 
ATOM     61  C   UNL A   1      42.647  28.998  34.053  1.00  0.00     0.049 A 
ATOM     62  H   UNL A   1      41.078  30.240  33.387  1.00  0.00     0.167 HD
ATOM     63  C   UNL A   1      42.346  30.633  35.895  1.00  0.00     0.074 A 
ATOM     64  C   UNL A   1      42.676  31.182  37.193  1.00  0.00     0.031 C 
ATOM     65  C   UNL A   1      42.966  29.561  35.342  1.00  0.00     0.037 A 
BRANCH  52  66
ATOM     66  C   UNL A   1      40.769  27.956  29.789  1.00  0.00     0.058 A 
ATOM     67  C   UNL A   1      39.811  26.945  29.616  1.00  0.00     0.135 A 
ATOM     68  C   UNL A   1      41.779  28.073  28.820  1.00  0.00     0.135 A 
ATOM     69  F   UNL A   1      38.835  26.776  30.523  1.00  0.00    -0.206 F 
ATOM     70  C   UNL A   1      39.867  26.068  28.538  1.00  0.00     0.059 A 
ATOM     71  C   UNL A   1      41.839  27.225  27.720  1.00  0.00     0.059 A 
ATOM     72  F   UNL A   1      42.724  29.020  28.941  1.00  0.00    -0.206 F 
ATOM     73  C   UNL A   1      40.886  26.215  27.596  1.00  0.00     0.060 A 
BRANCH  73  74
ATOM     74  S   UNL A   1      40.942  25.072  26.200  1.00  0.00     0.124 S 
ATOM     75  O   UNL A   1      41.300  25.967  25.104  1.00  0.00    -0.237 OA
ATOM     76  O   UNL A   1      41.977  24.128  26.610  1.00  0.00    -0.237 OA
ATOM     77  O   UNL A   1      39.588  24.529  26.150  1.00  0.00    -0.744 OA
ENDBRANCH  73  74
ENDBRANCH  52  66
BRANCH  53  78
ATOM     78  C   UNL A   1      39.884  34.340  37.440  1.00  0.00     0.058 A 
ATOM     79  C   UNL A   1      39.003  34.085  38.504  1.00  0.00     0.135 A 
ATOM     80  C   UNL A   1      40.647  35.515  37.498  1.00  0.00     0.135 A 
ATOM     81  F   UNL A   1      38.233  32.985  38.490  1.00  0.00    -0.206 F 
ATOM     82  C   UNL A   1      38.881  34.958  39.580  1.00  0.00     0.059 A 
ATOM     83  C   UNL A   1      40.560  36.394  38.574  1.00  0.00     0.059 A 
ATOM     84  F   UNL A   1      41.507  35.807  36.510  1.00  0.00    -0.206 F 
ATOM     85  C   UNL A   1      39.667  36.111  39.607  1.00  0.00     0.060 A 
BRANCH  85  86
ATOM     86  S   UNL A   1      39.536  37.218  41.027  1.00  0.00     0.124 S 
ATOM     87  O   UNL A   1      40.921  37.643  41.197  1.00  0.00    -0.237 OA
ATOM     88  O   UNL A   1      38.611  38.236  40.540  1.00  0.00    -0.237 OA
ATOM     89  O   UNL A   1      39.008  36.353  42.078  1.00  0.00    -0.744 OA
ENDBRANCH  85  86
ENDBRANCH  53  78
BRANCH  65  90
ATOM     90  C   UNL A   1      44.080  28.920  36.126  1.00  0.00     0.058 A 
ATOM     91  C   UNL A   1      45.380  29.451  36.129  1.00  0.00     0.135 A 
ATOM     92  C   UNL A   1      43.829  27.798  36.931  1.00  0.00     0.135 A 
ATOM     93  F   UNL A   1      45.675  30.520  35.373  1.00  0.00    -0.206 F 
ATOM     94  C   UNL A   1      46.396  28.878  36.887  1.00  0.00     0.059 A 
ATOM     95  C   UNL A   1      44.823  27.225  37.718  1.00  0.00     0.059 A 
ATOM     96  F   UNL A   1      42.600  27.257  36.974  1.00  0.00    -0.206 F 
ATOM     97  C   UNL A   1      46.107  27.766  37.681  1.00  0.00     0.060 A 
BRANCH  97  98
ATOM     98  S   UNL A   1      47.427  27.055  38.688  1.00  0.00     0.124 S 
ATOM     99  O   UNL A   1      46.804  27.020  40.006  1.00  0.00    -0.237 OA
ATOM    100  O   UNL A   1      47.642  25.759  38.053  1.00  0.00    -0.237 OA
ATOM    101  O   UNL A   1      48.522  28.010  38.536  1.00  0.00    -0.744 OA
ENDBRANCH  97  98
ENDBRANCH  65  90
ENDBRANCH  39  40
ENDBRANCH  32  34
ENDBRANCH  31  32
ENDBRANCH  30  31
ENDBRANCH  29  30
ENDBRANCH  28  29
ENDBRANCH  27  28
ENDBRANCH   1  27
TORSDOF 23
ENDMDL
MODEL 2
REMARK VINA RESULT:     -10.7      2.970      9.239
REMARK SMILES Cc1cc(Br)ccc1NS(=O)(=O)c1ccc(C(=O)OCCOCCOCCOC(=O)c2ccc(-c3c4nc(c(-c5c(F)cc(S(=O)(=O)[O-])cc5F)c5ccc([nH]5)c(-c5c(F)cc(S(=O)(=O)[O-])cc5F)c5nc(c(-c6c(F)cc(S(=O)(=O)[O-])cc6F)c6ccc3[nH]6)C=C5)C=C4)cc2)cc1
REMARK SMILES IDX 23 1 22 2 21 3 20 4 19 5 17 6 18 7 16 8 13 9 14 10 98 11
REMARK SMILES IDX 15 12 97 13 10 14 11 15 12 16 9 17 8 19 1 20 2 21 3 22 4 23
REMARK SMILES IDX 7 24 5 25 6 26 24 27 25 28 26 29 27 30 28 31 29 32 30 33
REMARK SMILES IDX 31 34 32 35 96 36 33 37 95 38 34 39 35 40 36 41 89 42 37 43
REMARK SMILES IDX 94 44 88 45 90 46 38 47 93 48 87 49 86 50 39 52 73 53 52 54
REMARK SMILES IDX 72 55 53 56 56 57 71 58 91 59 54 60 55 61 70 63 92 64 57 65
REMARK SMILES IDX 40 66 41 67 50 68 42 69 43 70 49 71 51 72 44 73 45 74 46 75
REMARK SMILES IDX 47 76 48 77 74 78 75 79 84 80 76 81 77 82 83 83 85 84 78 85
REMARK SMILES IDX 79 86 80 87 81 88 82 89 58 90 59 91 68 92 60 93 61 94 67 95
REMARK SMILES IDX 69 96 62 97 63 98 64 99 65 100 66 101
REMARK H PARENT 9 18 90 51 56 62
REMARK Flexibility Score: inf
ROOT
ATOM      1  C   UNL A   1      44.314  19.745  25.402  1.00  0.00     0.188 C 
ENDROOT
BRANCH   1   2
ATOM      2  O   UNL A   1      42.973  19.580  24.997  1.00  0.00    -0.376 OA
BRANCH   2   3
ATOM      3  C   UNL A   1      41.973  19.423  25.989  1.00  0.00     0.202 C 
BRANCH   3   4
ATOM      4  C   UNL A   1      41.220  20.609  26.627  1.00  0.00     0.261 C 
BRANCH   4   5
ATOM      5  O   UNL A   1      39.984  21.008  26.019  1.00  0.00    -0.460 OA
BRANCH   5   6
ATOM      6  C   UNL A   1      39.525  22.251  26.304  1.00  0.00     0.338 C 
ATOM      7  O   UNL A   1      40.169  23.166  26.789  1.00  0.00    -0.246 OA
BRANCH   6   8
ATOM      8  C   UNL A   1      38.125  22.401  25.819  1.00  0.00     0.060 A 
ATOM      9  C   UNL A   1      35.567  22.840  24.750  1.00  0.00     0.087 A 
ATOM     10  C   UNL A   1      36.256  23.893  25.355  1.00  0.00     0.023 A 
ATOM     11  C   UNL A   1      36.123  21.551  24.749  1.00  0.00     0.023 A 
ATOM     12  C   UNL A   1      37.545  23.677  25.862  1.00  0.00     0.017 A 
ATOM     13  C   UNL A   1      37.393  21.328  25.295  1.00  0.00     0.017 A 
BRANCH   9  14
ATOM     14  S   UNL A   1      34.043  23.060  23.843  1.00  0.00     0.261 S 
ATOM     15  O   UNL A   1      33.614  21.721  23.475  1.00  0.00    -0.201 OA
ATOM     16  O   UNL A   1      34.295  24.064  22.839  1.00  0.00    -0.201 OA
BRANCH  14  17
ATOM     17  N   UNL A   1      32.868  23.622  24.878  1.00  0.00    -0.279 N 
ATOM     18  H   UNL A   1      32.704  23.074  25.679  1.00  0.00     0.180 HD
BRANCH  17  19
ATOM     19  C   UNL A   1      32.068  24.797  24.754  1.00  0.00     0.052 A 
ATOM     20  C   UNL A   1      33.877  26.235  25.890  1.00  0.00     0.046 C 
ATOM     21  C   UNL A   1      32.687  26.040  24.992  1.00  0.00    -0.026 A 
ATOM     22  C   UNL A   1      32.158  27.185  24.382  1.00  0.00     0.021 A 
ATOM     23  C   UNL A   1      31.007  27.098  23.612  1.00  0.00     0.018 A 
ATOM     24  C   UNL A   1      30.797  24.770  24.173  1.00  0.00     0.028 A 
ATOM     25  Br  UNL A   1      30.513  28.575  22.562  1.00  0.00    -0.051 Br
ATOM     26  C   UNL A   1      30.277  25.918  23.568  1.00  0.00     0.018 A 
ENDBRANCH  17  19
ENDBRANCH  14  17
ENDBRANCH   9  14
ENDBRANCH   6   8
ENDBRANCH   5   6
ENDBRANCH   4   5
ENDBRANCH   3   4
ENDBRANCH   2   3
ENDBRANCH   1   2
BRANCH   1  27
ATOM     27  C   UNL A   1      44.982  20.987  24.777  1.00  0.00     0.188 C 
BRANCH  27  28
ATOM     28  O   UNL A   1      44.238  21.847  23.922  1.00  0.00    -0.376 OA
BRANCH  28  29
ATOM     29  C   UNL A   1      43.449  22.886  24.491  1.00  0.00     0.202 C 
BRANCH  29  30
ATOM     30  C   UNL A   1      43.776  23.481  25.874  1.00  0.00     0.261 C 
BRANCH  30  31
ATOM     31  O   UNL A   1      43.033  24.648  26.252  1.00  0.00    -0.460 OA
BRANCH  31  32
ATOM     32  C   UNL A   1      43.773  25.773  26.411  1.00  0.00     0.338 C 
ATOM     33  O   UNL A   1      44.707  26.150  25.722  1.00  0.00    -0.246 OA
BRANCH  32  34
ATOM     34  C   UNL A   1      43.180  26.599  27.477  1.00  0.00     0.060 A 
ATOM     35  C   UNL A   1      43.549  27.948  27.562  1.00  0.00     0.016 A 
ATOM     36  C   UNL A   1      42.326  26.034  28.425  1.00  0.00     0.016 A 
ATOM     37  C   UNL A   1      43.072  28.737  28.608  1.00  0.00     0.010 A 
ATOM     38  C   UNL A   1      41.869  26.819  29.486  1.00  0.00     0.010 A 
ATOM     39  C   UNL A   1      42.259  28.166  29.595  1.00  0.00    -0.014 A 
BRANCH  39  40
ATOM     40  C   UNL A   1      41.935  28.938  30.816  1.00  0.00     0.031 A 
ATOM     41  C   UNL A   1      40.715  29.814  30.819  1.00  0.00     0.074 A 
ATOM     42  C   UNL A   1      42.725  28.868  31.902  1.00  0.00     0.049 A 
ATOM     43  N   UNL A   1      40.259  30.596  31.762  1.00  0.00    -0.248 NA
ATOM     44  C   UNL A   1      39.911  29.820  29.586  1.00  0.00     0.031 C 
ATOM     45  C   UNL A   1      43.938  28.062  32.005  1.00  0.00     0.029 A 
ATOM     46  N   UNL A   1      42.628  29.493  33.120  1.00  0.00    -0.354 N 
ATOM     47  C   UNL A   1      39.128  31.204  31.232  1.00  0.00     0.074 A 
ATOM     48  C   UNL A   1      38.975  30.710  29.880  1.00  0.00     0.031 C 
ATOM     49  C   UNL A   1      44.478  28.246  33.222  1.00  0.00     0.029 A 
ATOM     50  C   UNL A   1      43.648  29.177  33.986  1.00  0.00     0.049 A 
ATOM     51  H   UNL A   1      41.897  30.110  33.351  1.00  0.00     0.167 HD
ATOM     52  C   UNL A   1      38.296  32.096  31.820  1.00  0.00     0.037 A 
ATOM     53  C   UNL A   1      43.878  29.587  35.250  1.00  0.00     0.037 A 
ATOM     54  C   UNL A   1      38.459  32.588  33.163  1.00  0.00     0.049 A 
ATOM     55  C   UNL A   1      42.931  30.576  35.884  1.00  0.00     0.074 A 
ATOM     56  C   UNL A   1      37.663  33.485  33.853  1.00  0.00     0.029 A 
ATOM     57  N   UNL A   1      39.493  32.231  34.017  1.00  0.00    -0.354 N 
ATOM     58  N   UNL A   1      41.844  31.117  35.385  1.00  0.00    -0.248 NA
ATOM     59  C   UNL A   1      43.251  31.025  37.247  1.00  0.00     0.031 C 
ATOM     60  C   UNL A   1      38.240  33.706  35.108  1.00  0.00     0.029 A 
ATOM     61  C   UNL A   1      39.366  32.905  35.220  1.00  0.00     0.049 A 
ATOM     62  H   UNL A   1      40.210  31.593  33.801  1.00  0.00     0.167 HD
ATOM     63  C   UNL A   1      41.347  31.959  36.375  1.00  0.00     0.074 A 
ATOM     64  C   UNL A   1      42.236  31.837  37.511  1.00  0.00     0.031 C 
ATOM     65  C   UNL A   1      40.259  32.768  36.344  1.00  0.00     0.037 A 
BRANCH  52  66
ATOM     66  C   UNL A   1      37.155  32.624  30.997  1.00  0.00     0.058 A 
ATOM     67  C   UNL A   1      37.303  33.736  30.153  1.00  0.00     0.135 A 
ATOM     68  C   UNL A   1      35.901  31.993  31.036  1.00  0.00     0.135 A 
ATOM     69  F   UNL A   1      38.475  34.388  30.093  1.00  0.00    -0.206 F 
ATOM     70  C   UNL A   1      36.241  34.219  29.396  1.00  0.00     0.059 A 
ATOM     71  C   UNL A   1      34.833  32.442  30.267  1.00  0.00     0.059 A 
ATOM     72  F   UNL A   1      35.704  30.929  31.831  1.00  0.00    -0.206 F 
ATOM     73  C   UNL A   1      35.009  33.566  29.460  1.00  0.00     0.060 A 
BRANCH  73  74
ATOM     74  S   UNL A   1      33.642  34.202  28.468  1.00  0.00     0.124 S 
ATOM     75  O   UNL A   1      34.322  35.189  27.634  1.00  0.00    -0.237 OA
ATOM     76  O   UNL A   1      33.173  33.005  27.777  1.00  0.00    -0.237 OA
ATOM     77  O   UNL A   1      32.725  34.748  29.463  1.00  0.00    -0.744 OA
ENDBRANCH  73  74
ENDBRANCH  52  66
BRANCH  53  78
ATOM     78  C   UNL A   1      45.044  29.061  36.013  1.00  0.00     0.058 A 
ATOM     79  C   UNL A   1      46.289  29.708  35.966  1.00  0.00     0.135 A 
ATOM     80  C   UNL A   1      44.943  27.906  36.802  1.00  0.00     0.135 A 
ATOM     81  F   UNL A   1      46.448  30.806  35.211  1.00  0.00    -0.206 F 
ATOM     82  C   UNL A   1      47.390  29.230  36.671  1.00  0.00     0.059 A 
ATOM     83  C   UNL A   1      46.022  27.420  37.533  1.00  0.00     0.059 A 
ATOM     84  F   UNL A   1      43.775  27.249  36.885  1.00  0.00    -0.206 F 
ATOM     85  C   UNL A   1      47.246  28.085  37.454  1.00  0.00     0.060 A 
BRANCH  85  86
ATOM     86  S   UNL A   1      48.666  27.495  38.400  1.00  0.00     0.124 S 
ATOM     87  O   UNL A   1      49.160  28.733  38.990  1.00  0.00    -0.237 OA
ATOM     88  O   UNL A   1      48.050  26.549  39.324  1.00  0.00    -0.237 OA
ATOM     89  O   UNL A   1      49.521  26.896  37.380  1.00  0.00    -0.744 OA
ENDBRANCH  85  86
ENDBRANCH  53  78
BRANCH  65  90
ATOM     90  C   UNL A   1      39.952  33.570  37.580  1.00  0.00     0.058 A 
ATOM     91  C   UNL A   1      40.564  34.810  37.825  1.00  0.00     0.135 A 
ATOM     92  C   UNL A   1      38.991  33.121  38.499  1.00  0.00     0.135 A 
ATOM     93  F   UNL A   1      41.493  35.284  36.981  1.00  0.00    -0.206 F 
ATOM     94  C   UNL A   1      40.247  35.566  38.949  1.00  0.00     0.059 A 
ATOM     95  C   UNL A   1      38.639  33.874  39.615  1.00  0.00     0.059 A 
ATOM     96  F   UNL A   1      38.367  31.947  38.307  1.00  0.00    -0.206 F 
ATOM     97  C   UNL A   1      39.281  35.090  39.838  1.00  0.00     0.060 A 
BRANCH  97  98
ATOM     98  S   UNL A   1      38.853  36.099  41.273  1.00  0.00     0.124 S 
ATOM     99  O   UNL A   1      37.614  35.469  41.716  1.00  0.00    -0.237 OA
ATOM    100  O   UNL A   1      40.008  35.911  42.145  1.00  0.00    -0.237 OA
ATOM    101  O   UNL A   1      38.710  37.441  40.714  1.00  0.00    -0.744 OA
ENDBRANCH  97  98
ENDBRANCH  65  90
ENDBRANCH  39  40
ENDBRANCH  32  34
ENDBRANCH  31  32
ENDBRANCH  30  31
ENDBRANCH  29  30
ENDBRANCH  28  29
ENDBRANCH  27  28
ENDBRANCH   1  27
TORSDOF 23
ENDMDL
MODEL 3
REMARK VINA RESULT:     -10.2      3.194      9.424
REMARK SMILES Cc1cc(Br)ccc1NS(=O)(=O)c1ccc(C(=O)OCCOCCOCCOC(=O)c2ccc(-c3c4nc(c(-c5c(F)cc(S(=O)(=O)[O-])cc5F)c5ccc([nH]5)c(-c5c(F)cc(S(=O)(=O)[O-])cc5F)c5nc(c(-c6c(F)cc(S(=O)(=O)[O-])cc6F)c6ccc3[nH]6)C=C5)C=C4)cc2)cc1
REMARK SMILES IDX 23 1 22 2 21 3 20 4 19 5 17 6 18 7 16 8 13 9 14 10 98 11
REMARK SMILES IDX 15 12 97 13 10 14 11 15 12 16 9 17 8 19 1 20 2 21 3 22 4 23
REMARK SMILES IDX 7 24 5 25 6 26 24 27 25 28 26 29 27 30 28 31 29 32 30 33
REMARK SMILES IDX 31 34 32 35 96 36 33 37 95 38 34 39 35 40 36 41 89 42 37 43
REMARK SMILES IDX 94 44 88 45 90 46 38 47 93 48 87 49 86 50 39 52 73 53 52 54
REMARK SMILES IDX 72 55 53 56 56 57 71 58 91 59 54 60 55 61 70 63 92 64 57 65
REMARK SMILES IDX 40 66 41 67 50 68 42 69 43 70 49 71 51 72 44 73 45 74 46 75
REMARK SMILES IDX 47 76 48 77 74 78 75 79 84 80 76 81 77 82 83 83 85 84 78 85
REMARK SMILES IDX 79 86 80 87 81 88 82 89 58 90 59 91 68 92 60 93 61 94 67 95
REMARK SMILES IDX 69 96 62 97 63 98 64 99 65 100 66 101
REMARK H PARENT 9 18 90 51 56 62
REMARK Flexibility Score: inf
ROOT
ATOM      1  C   UNL A   1      45.003  20.510  24.701  1.00  0.00     0.188 C 
ENDROOT
BRANCH   1   2
ATOM      2  O   UNL A   1      43.829  19.788  24.396  1.00  0.00    -0.376 OA
BRANCH   2   3
ATOM      3  C   UNL A   1      42.902  19.520  25.434  1.00  0.00     0.202 C 
BRANCH   3   4
ATOM      4  C   UNL A   1      42.261  20.624  26.303  1.00  0.00     0.261 C 
BRANCH   4   5
ATOM      5  O   UNL A   1      41.180  21.370  25.728  1.00  0.00    -0.460 OA
BRANCH   5   6
ATOM      6  C   UNL A   1      40.472  22.176  26.557  1.00  0.00     0.338 C 
ATOM      7  O   UNL A   1      40.923  22.847  27.470  1.00  0.00    -0.246 OA
BRANCH   6   8
ATOM      8  C   UNL A   1      39.052  22.238  26.118  1.00  0.00     0.060 A 
ATOM      9  C   UNL A   1      36.436  22.524  25.141  1.00  0.00     0.087 A 
ATOM     10  C   UNL A   1      37.058  23.597  25.783  1.00  0.00     0.023 A 
ATOM     11  C   UNL A   1      37.091  21.286  25.057  1.00  0.00     0.023 A 
ATOM     12  C   UNL A   1      38.374  23.460  26.243  1.00  0.00     0.017 A 
ATOM     13  C   UNL A   1      38.390  21.138  25.557  1.00  0.00     0.017 A 
BRANCH   9  14
ATOM     14  S   UNL A   1      34.872  22.668  24.287  1.00  0.00     0.261 S 
ATOM     15  O   UNL A   1      34.384  21.306  24.140  1.00  0.00    -0.201 OA
ATOM     16  O   UNL A   1      35.099  23.507  23.137  1.00  0.00    -0.201 OA
BRANCH  14  17
ATOM     17  N   UNL A   1      33.772  23.417  25.286  1.00  0.00    -0.279 N 
ATOM     18  H   UNL A   1      33.360  22.847  25.974  1.00  0.00     0.180 HD
BRANCH  17  19
ATOM     19  C   UNL A   1      33.349  24.779  25.272  1.00  0.00     0.052 A 
ATOM     20  C   UNL A   1      30.978  24.109  24.524  1.00  0.00     0.046 C 
ATOM     21  C   UNL A   1      31.967  25.035  25.175  1.00  0.00    -0.026 A 
ATOM     22  C   UNL A   1      31.466  26.239  25.689  1.00  0.00     0.021 A 
ATOM     23  C   UNL A   1      32.330  27.184  26.224  1.00  0.00     0.018 A 
ATOM     24  C   UNL A   1      34.214  25.828  25.598  1.00  0.00     0.028 A 
ATOM     25  Br  UNL A   1      31.604  28.628  27.182  1.00  0.00    -0.051 Br
ATOM     26  C   UNL A   1      33.705  27.025  26.109  1.00  0.00     0.018 A 
ENDBRANCH  17  19
ENDBRANCH  14  17
ENDBRANCH   9  14
ENDBRANCH   6   8
ENDBRANCH   5   6
ENDBRANCH   4   5
ENDBRANCH   3   4
ENDBRANCH   2   3
ENDBRANCH   1   2
BRANCH   1  27
ATOM     27  C   UNL A   1      45.060  21.886  24.006  1.00  0.00     0.188 C 
BRANCH  27  28
ATOM     28  O   UNL A   1      43.861  22.611  23.752  1.00  0.00    -0.376 OA
BRANCH  28  29
ATOM     29  C   UNL A   1      43.501  23.687  24.611  1.00  0.00     0.202 C 
BRANCH  29  30
ATOM     30  C   UNL A   1      44.401  24.118  25.784  1.00  0.00     0.261 C 
BRANCH  30  31
ATOM     31  O   UNL A   1      43.930  25.220  26.572  1.00  0.00    -0.460 OA
BRANCH  31  32
ATOM     32  C   UNL A   1      44.869  25.816  27.347  1.00  0.00     0.338 C 
ATOM     33  O   UNL A   1      46.081  25.733  27.238  1.00  0.00    -0.246 OA
BRANCH  32  34
ATOM     34  C   UNL A   1      44.211  26.742  28.284  1.00  0.00     0.060 A 
ATOM     35  C   UNL A   1      44.490  28.112  28.180  1.00  0.00     0.016 A 
ATOM     36  C   UNL A   1      43.384  26.259  29.300  1.00  0.00     0.016 A 
ATOM     37  C   UNL A   1      43.950  29.005  29.103  1.00  0.00     0.010 A 
ATOM     38  C   UNL A   1      42.864  27.154  30.239  1.00  0.00     0.010 A 
ATOM     39  C   UNL A   1      43.164  28.525  30.159  1.00  0.00    -0.014 A 
BRANCH  39  40
ATOM     40  C   UNL A   1      42.776  29.438  31.258  1.00  0.00     0.031 A 
ATOM     41  C   UNL A   1      41.484  30.197  31.150  1.00  0.00     0.074 A 
ATOM     42  C   UNL A   1      43.570  29.596  32.331  1.00  0.00     0.049 A 
ATOM     43  N   UNL A   1      40.964  31.067  31.974  1.00  0.00    -0.248 NA
ATOM     44  C   UNL A   1      40.682  29.954  29.940  1.00  0.00     0.031 C 
ATOM     45  C   UNL A   1      44.849  28.920  32.534  1.00  0.00     0.029 A 
ATOM     46  N   UNL A   1      43.421  30.382  33.446  1.00  0.00    -0.354 N 
ATOM     47  C   UNL A   1      39.783  31.492  31.377  1.00  0.00     0.074 A 
ATOM     48  C   UNL A   1      39.672  30.794  30.114  1.00  0.00     0.031 C 
ATOM     49  C   UNL A   1      45.372  29.326  33.704  1.00  0.00     0.029 A 
ATOM     50  C   UNL A   1      44.465  30.285  34.335  1.00  0.00     0.049 A 
ATOM     51  H   UNL A   1      42.639  30.961  33.595  1.00  0.00     0.167 HD
ATOM     52  C   UNL A   1      38.878  32.386  31.840  1.00  0.00     0.037 A 
ATOM     53  C   UNL A   1      44.660  30.895  35.522  1.00  0.00     0.037 A 
ATOM     54  C   UNL A   1      39.000  33.081  33.094  1.00  0.00     0.049 A 
ATOM     55  C   UNL A   1      43.632  31.881  36.018  1.00  0.00     0.074 A 
ATOM     56  C   UNL A   1      38.129  33.999  33.657  1.00  0.00     0.029 A 
ATOM     57  N   UNL A   1      40.061  32.944  33.977  1.00  0.00    -0.354 N 
ATOM     58  N   UNL A   1      42.501  32.248  35.461  1.00  0.00    -0.248 NA
ATOM     59  C   UNL A   1      43.914  32.551  37.296  1.00  0.00     0.031 C 
ATOM     60  C   UNL A   1      38.687  34.450  34.858  1.00  0.00     0.029 A 
ATOM     61  C   UNL A   1      39.877  33.774  35.071  1.00  0.00     0.049 A 
ATOM     62  H   UNL A   1      40.831  32.345  33.847  1.00  0.00     0.167 HD
ATOM     63  C   UNL A   1      41.935  33.180  36.324  1.00  0.00     0.074 A 
ATOM     64  C   UNL A   1      42.832  33.303  37.453  1.00  0.00     0.031 C 
ATOM     65  C   UNL A   1      40.780  33.880  36.190  1.00  0.00     0.037 A 
BRANCH  52  66
ATOM     66  C   UNL A   1      37.694  32.688  30.965  1.00  0.00     0.058 A 
ATOM     67  C   UNL A   1      37.764  33.626  29.923  1.00  0.00     0.135 A 
ATOM     68  C   UNL A   1      36.479  32.011  31.157  1.00  0.00     0.135 A 
ATOM     69  F   UNL A   1      38.896  34.316  29.709  1.00  0.00    -0.206 F 
ATOM     70  C   UNL A   1      36.664  33.900  29.118  1.00  0.00     0.059 A 
ATOM     71  C   UNL A   1      35.374  32.249  30.347  1.00  0.00     0.059 A 
ATOM     72  F   UNL A   1      36.357  31.108  32.142  1.00  0.00    -0.206 F 
ATOM     73  C   UNL A   1      35.472  33.207  29.339  1.00  0.00     0.060 A 
BRANCH  73  74
ATOM     74  S   UNL A   1      34.054  33.571  28.283  1.00  0.00     0.124 S 
ATOM     75  O   UNL A   1      33.732  32.247  27.760  1.00  0.00    -0.237 OA
ATOM     76  O   UNL A   1      33.093  34.129  29.230  1.00  0.00    -0.237 OA
ATOM     77  O   UNL A   1      34.589  34.517  27.309  1.00  0.00    -0.744 OA
ENDBRANCH  73  74
ENDBRANCH  52  66
BRANCH  53  78
ATOM     78  C   UNL A   1      45.868  30.588  36.338  1.00  0.00     0.058 A 
ATOM     79  C   UNL A   1      47.042  31.347  36.203  1.00  0.00     0.135 A 
ATOM     80  C   UNL A   1      45.879  29.535  37.264  1.00  0.00     0.135 A 
ATOM     81  F   UNL A   1      47.094  32.353  35.317  1.00  0.00    -0.206 F 
ATOM     82  C   UNL A   1      48.181  31.074  36.955  1.00  0.00     0.059 A 
ATOM     83  C   UNL A   1      46.997  29.256  38.043  1.00  0.00     0.059 A 
ATOM     84  F   UNL A   1      44.783  28.779  37.435  1.00  0.00    -0.206 F 
ATOM     85  C   UNL A   1      48.148  30.026  37.876  1.00  0.00     0.060 A 
BRANCH  85  86
ATOM     86  S   UNL A   1      49.615  29.704  38.879  1.00  0.00     0.124 S 
ATOM     87  O   UNL A   1      49.088  28.789  39.884  1.00  0.00    -0.237 OA
ATOM     88  O   UNL A   1      50.533  29.124  37.905  1.00  0.00    -0.237 OA
ATOM     89  O   UNL A   1      49.984  31.031  39.364  1.00  0.00    -0.744 OA
ENDBRANCH  85  86
ENDBRANCH  53  78
BRANCH  65  90
ATOM     90  C   UNL A   1      40.407  34.826  37.300  1.00  0.00     0.058 A 
ATOM     91  C   UNL A   1      39.577  34.427  38.360  1.00  0.00     0.135 A 
ATOM     92  C   UNL A   1      40.934  36.126  37.333  1.00  0.00     0.135 A 
ATOM     93  F   UNL A   1      39.042  33.196  38.375  1.00  0.00    -0.206 F 
ATOM     94  C   UNL A   1      39.267  35.293  39.404  1.00  0.00     0.059 A 
ATOM     95  C   UNL A   1      40.660  36.999  38.381  1.00  0.00     0.059 A 
ATOM     96  F   UNL A   1      41.742  36.554  36.350  1.00  0.00    -0.206 F 
ATOM     97  C   UNL A   1      39.816  36.577  39.407  1.00  0.00     0.060 A 
BRANCH  97  98
ATOM     98  S   UNL A   1      39.435  37.678  40.787  1.00  0.00     0.124 S 
ATOM     99  O   UNL A   1      40.717  38.341  40.996  1.00  0.00    -0.237 OA
ATOM    100  O   UNL A   1      38.371  38.513  40.238  1.00  0.00    -0.237 OA
ATOM    101  O   UNL A   1      39.021  36.763  41.847  1.00  0.00    -0.744 OA
ENDBRANCH  97  98
ENDBRANCH  65  90
ENDBRANCH  39  40
ENDBRANCH  32  34
ENDBRANCH  31  32
ENDBRANCH  30  31
ENDBRANCH  29  30
ENDBRANCH  28  29
ENDBRANCH  27  28
ENDBRANCH   1  27
TORSDOF 23
ENDMDL
