MODEL 1
REMARK VINA RESULT:     -10.2      0.000      0.000
REMARK SMILES O=C(NC1(C(=O)OCCOCCOCCOC(=O)c2ccc(-c3c4nc(c(-c5c(F)cc(S(=O)(=O)[O-])cc5F)c5ccc([nH]5)c(-c5c(F)cc(S(=O)(=O)[O-])cc5F)c5nc(c(-c6c(F)cc(S(=O)(=O)[O-])cc6F)c6ccc3[nH]6)C=C5)C=C4)cc2)CC[NH2+]CC1)OCC1c2ccccc2-c2ccccc21
REMARK SMILES IDX 11 1 10 2 9 3 8 4 7 5 5 6 6 7 4 8 85 9 89 10 86 11 88 12
REMARK SMILES IDX 87 13 3 16 1 17 2 18 90 20 91 21 92 22 93 23 104 24 94 25
REMARK SMILES IDX 98 26 99 27 103 28 95 29 97 30 100 31 102 32 96 33 101 34
REMARK SMILES IDX 12 35 13 36 14 37 15 38 16 39 17 40 18 41 19 42 20 43 84 44
REMARK SMILES IDX 21 45 83 46 22 47 23 48 24 49 77 50 25 51 82 52 76 53 78 54
REMARK SMILES IDX 26 55 81 56 75 57 74 58 27 60 61 61 40 62 60 63 41 64 44 65
REMARK SMILES IDX 59 66 79 67 42 68 43 69 58 71 80 72 45 73 28 74 29 75 38 76
REMARK SMILES IDX 30 77 31 78 37 79 39 80 32 81 33 82 34 83 35 84 36 85 62 86
REMARK SMILES IDX 63 87 72 88 64 89 65 90 71 91 73 92 66 93 67 94 68 95 69 96
REMARK SMILES IDX 70 97 46 98 47 99 56 100 48 101 49 102 55 103 57 104 50 105
REMARK SMILES IDX 51 106 52 107 53 108 54 109
REMARK H PARENT 87 14 87 15 3 19 78 59 44 70
REMARK Flexibility Score: inf
ROOT
ATOM      1  C   UNL A   1      41.785  25.150  26.770  1.00  0.00     0.188 C 
ENDROOT
BRANCH   1   2
ATOM      2  O   UNL A   1      40.441  25.523  26.386  1.00  0.00    -0.376 OA
BRANCH   2   3
ATOM      3  C   UNL A   1      39.271  25.039  27.083  1.00  0.00     0.202 C 
BRANCH   3   4
ATOM      4  C   UNL A   1      38.398  23.796  26.389  1.00  0.00     0.261 C 
BRANCH   4   5
ATOM      5  O   UNL A   1      36.807  23.958  25.615  1.00  0.00    -0.461 OA
BRANCH   5   6
ATOM      6  C   UNL A   1      35.324  23.060  24.859  1.00  0.00     0.332 C 
ATOM      7  O   UNL A   1      35.403  22.285  23.831  1.00  0.00    -0.249 OA
BRANCH   6   8
ATOM      8  C   UNL A   1      33.706  23.292  25.025  1.00  0.00     0.151 C 
ATOM      9  C   UNL A   1      33.360  21.721  25.231  1.00  0.00     0.102 C 
ATOM     10  C   UNL A   1      32.798  23.996  26.035  1.00  0.00     0.102 C 
ATOM     11  C   UNL A   1      31.907  21.324  25.294  1.00  0.00     0.263 C 
ATOM     12  C   UNL A   1      31.341  23.514  25.972  1.00  0.00     0.263 C 
ATOM     13  N   UNL A   1      31.233  22.100  26.315  1.00  0.00    -0.346 N 
ATOM     14  H   UNL A   1      31.671  21.931  27.220  1.00  0.00     0.346 HD
ATOM     15  H   UNL A   1      30.251  21.828  26.368  1.00  0.00     0.346 HD
BRANCH   8  16
ATOM     16  N   UNL A   1      33.301  23.632  23.555  1.00  0.00    -0.305 N 
ATOM     17  O   UNL A   1      33.716  24.824  21.673  1.00  0.00    -0.225 OA
ATOM     18  C   UNL A   1      33.316  24.807  22.832  1.00  0.00     0.408 C 
ATOM     19  H   UNL A   1      32.970  22.858  23.045  1.00  0.00     0.168 HD
BRANCH  18  20
ATOM     20  O   UNL A   1      32.864  25.926  23.452  1.00  0.00    -0.449 OA
BRANCH  20  21
ATOM     21  C   UNL A   1      31.450  26.280  23.184  1.00  0.00     0.248 C 
BRANCH  21  22
ATOM     22  C   UNL A   1      31.197  27.465  24.108  1.00  0.00     0.088 C 
ATOM     23  C   UNL A   1      31.859  28.196  25.299  1.00  0.00    -0.029 A 
ATOM     24  C   UNL A   1      29.957  28.250  23.790  1.00  0.00    -0.029 A 
ATOM     25  C   UNL A   1      32.773  27.724  26.224  1.00  0.00     0.005 A 
ATOM     26  C   UNL A   1      31.519  29.605  25.302  1.00  0.00    -0.014 A 
ATOM     27  C   UNL A   1      30.507  29.888  24.301  1.00  0.00    -0.014 A 
ATOM     28  C   UNL A   1      28.277  28.002  23.167  1.00  0.00     0.005 A 
ATOM     29  C   UNL A   1      33.280  28.628  27.176  1.00  0.00     0.000 A 
ATOM     30  C   UNL A   1      32.006  30.482  26.253  1.00  0.00     0.009 A 
ATOM     31  C   UNL A   1      29.495  31.322  24.087  1.00  0.00     0.009 A 
ATOM     32  C   UNL A   1      27.178  29.528  23.069  1.00  0.00     0.000 A 
ATOM     33  C   UNL A   1      32.891  29.982  27.200  1.00  0.00     0.001 A 
ATOM     34  C   UNL A   1      27.834  31.166  23.482  1.00  0.00     0.001 A 
ENDBRANCH  21  22
ENDBRANCH  20  21
ENDBRANCH  18  20
ENDBRANCH   8  16
ENDBRANCH   6   8
ENDBRANCH   5   6
ENDBRANCH   4   5
ENDBRANCH   3   4
ENDBRANCH   2   3
ENDBRANCH   1   2
BRANCH   1  35
ATOM     35  C   UNL A   1      42.175  23.708  27.229  1.00  0.00     0.188 C 
BRANCH  35  36
ATOM     36  O   UNL A   1      42.974  22.877  26.359  1.00  0.00    -0.376 OA
BRANCH  36  37
ATOM     37  C   UNL A   1      43.141  23.291  25.016  1.00  0.00     0.202 C 
BRANCH  37  38
ATOM     38  C   UNL A   1      44.560  23.747  24.662  1.00  0.00     0.261 C 
BRANCH  38  39
ATOM     39  O   UNL A   1      44.806  25.107  25.037  1.00  0.00    -0.460 OA
BRANCH  39  40
ATOM     40  C   UNL A   1      46.126  25.422  25.190  1.00  0.00     0.338 C 
ATOM     41  O   UNL A   1      46.930  25.640  24.300  1.00  0.00    -0.246 OA
BRANCH  40  42
ATOM     42  C   UNL A   1      46.383  25.690  26.629  1.00  0.00     0.060 A 
ATOM     43  C   UNL A   1      45.888  24.774  27.572  1.00  0.00     0.016 A 
ATOM     44  C   UNL A   1      47.223  26.733  27.039  1.00  0.00     0.016 A 
ATOM     45  C   UNL A   1      46.177  24.935  28.930  1.00  0.00     0.010 A 
ATOM     46  C   UNL A   1      47.494  26.909  28.396  1.00  0.00     0.010 A 
ATOM     47  C   UNL A   1      46.923  26.047  29.350  1.00  0.00    -0.014 A 
BRANCH  47  48
ATOM     48  C   UNL A   1      46.768  26.560  30.733  1.00  0.00     0.031 A 
ATOM     49  C   UNL A   1      47.804  26.094  31.725  1.00  0.00     0.074 A 
ATOM     50  C   UNL A   1      45.740  27.334  31.123  1.00  0.00     0.049 A 
ATOM     51  N   UNL A   1      47.834  26.216  33.024  1.00  0.00    -0.248 NA
ATOM     52  C   UNL A   1      48.961  25.370  31.164  1.00  0.00     0.031 C 
ATOM     53  C   UNL A   1      44.711  27.894  30.250  1.00  0.00     0.029 A 
ATOM     54  N   UNL A   1      45.385  27.761  32.380  1.00  0.00    -0.354 N 
ATOM     55  C   UNL A   1      49.005  25.585  33.429  1.00  0.00     0.074 A 
ATOM     56  C   UNL A   1      49.648  25.063  32.249  1.00  0.00     0.031 C 
ATOM     57  C   UNL A   1      43.819  28.564  31.005  1.00  0.00     0.029 A 
ATOM     58  C   UNL A   1      44.193  28.446  32.415  1.00  0.00     0.049 A 
ATOM     59  H   UNL A   1      45.933  27.593  33.181  1.00  0.00     0.167 HD
ATOM     60  C   UNL A   1      49.502  25.442  34.677  1.00  0.00     0.037 A 
ATOM     61  C   UNL A   1      43.477  28.888  33.471  1.00  0.00     0.037 A 
ATOM     62  C   UNL A   1      48.837  25.923  35.852  1.00  0.00     0.049 A 
ATOM     63  C   UNL A   1      44.004  28.644  34.867  1.00  0.00     0.074 A 
ATOM     64  C   UNL A   1      49.227  25.806  37.172  1.00  0.00     0.029 A 
ATOM     65  N   UNL A   1      47.630  26.608  35.843  1.00  0.00    -0.354 N 
ATOM     66  N   UNL A   1      45.109  28.040  35.241  1.00  0.00    -0.248 NA
ATOM     67  C   UNL A   1      43.185  29.135  35.984  1.00  0.00     0.031 C 
ATOM     68  C   UNL A   1      48.233  26.387  37.967  1.00  0.00     0.029 A 
ATOM     69  C   UNL A   1      47.251  26.908  37.137  1.00  0.00     0.049 A 
ATOM     70  H   UNL A   1      47.120  26.843  35.035  1.00  0.00     0.167 HD
ATOM     71  C   UNL A   1      45.131  28.104  36.631  1.00  0.00     0.074 A 
ATOM     72  C   UNL A   1      43.931  28.809  37.032  1.00  0.00     0.031 C 
ATOM     73  C   UNL A   1      46.056  27.626  37.501  1.00  0.00     0.037 A 
BRANCH  60  74
ATOM     74  C   UNL A   1      50.797  24.696  34.813  1.00  0.00     0.058 A 
ATOM     75  C   UNL A   1      52.036  25.347  34.699  1.00  0.00     0.135 A 
ATOM     76  C   UNL A   1      50.801  23.309  35.026  1.00  0.00     0.135 A 
ATOM     77  F   UNL A   1      52.087  26.667  34.456  1.00  0.00    -0.206 F 
ATOM     78  C   UNL A   1      53.234  24.645  34.767  1.00  0.00     0.059 A 
ATOM     79  C   UNL A   1      51.987  22.590  35.124  1.00  0.00     0.059 A 
ATOM     80  F   UNL A   1      49.643  22.637  35.121  1.00  0.00    -0.206 F 
ATOM     81  C   UNL A   1      53.199  23.265  34.979  1.00  0.00     0.060 A 
BRANCH  81  82
ATOM     82  S   UNL A   1      54.761  22.366  35.068  1.00  0.00     0.124 S 
ATOM     83  O   UNL A   1      55.482  22.918  33.926  1.00  0.00    -0.237 OA
ATOM     84  O   UNL A   1      55.268  22.749  36.382  1.00  0.00    -0.237 OA
ATOM     85  O   UNL A   1      54.357  20.970  34.940  1.00  0.00    -0.744 OA
ENDBRANCH  81  82
ENDBRANCH  60  74
BRANCH  61  86
ATOM     86  C   UNL A   1      42.168  29.571  33.263  1.00  0.00     0.058 A 
ATOM     87  C   UNL A   1      40.970  28.844  33.191  1.00  0.00     0.135 A 
ATOM     88  C   UNL A   1      42.091  30.965  33.106  1.00  0.00     0.135 A 
ATOM     89  F   UNL A   1      40.989  27.508  33.311  1.00  0.00    -0.206 F 
ATOM     90  C   UNL A   1      39.746  29.469  32.959  1.00  0.00     0.059 A 
ATOM     91  C   UNL A   1      40.877  31.615  32.898  1.00  0.00     0.059 A 
ATOM     92  F   UNL A   1      43.205  31.710  33.163  1.00  0.00    -0.206 F 
ATOM     93  C   UNL A   1      39.710  30.857  32.816  1.00  0.00     0.060 A 
BRANCH  93  94
ATOM     94  S   UNL A   1      38.114  31.664  32.551  1.00  0.00     0.124 S 
ATOM     95  O   UNL A   1      38.514  33.051  32.344  1.00  0.00    -0.237 OA
ATOM     96  O   UNL A   1      37.604  30.965  31.376  1.00  0.00    -0.237 OA
ATOM     97  O   UNL A   1      37.392  31.395  33.792  1.00  0.00    -0.744 OA
ENDBRANCH  93  94
ENDBRANCH  61  86
BRANCH  73  98
ATOM     98  C   UNL A   1      45.838  27.884  38.966  1.00  0.00     0.058 A 
ATOM     99  C   UNL A   1      45.187  26.957  39.790  1.00  0.00     0.135 A 
ATOM    100  C   UNL A   1      46.368  29.040  39.563  1.00  0.00     0.135 A 
ATOM    101  F   UNL A   1      44.664  25.836  39.268  1.00  0.00    -0.206 F 
ATOM    102  C   UNL A   1      45.051  27.174  41.159  1.00  0.00     0.059 A 
ATOM    103  C   UNL A   1      46.268  29.265  40.932  1.00  0.00     0.059 A 
ATOM    104  F   UNL A   1      47.017  29.950  38.820  1.00  0.00    -0.206 F 
ATOM    105  C   UNL A   1      45.598  28.330  41.720  1.00  0.00     0.060 A 
BRANCH 105 106
ATOM    106  S   UNL A   1      45.455  28.579  43.502  1.00  0.00     0.124 S 
ATOM    107  O   UNL A   1      44.173  27.941  43.786  1.00  0.00    -0.237 OA
ATOM    108  O   UNL A   1      46.635  27.887  44.012  1.00  0.00    -0.237 OA
ATOM    109  O   UNL A   1      45.478  30.032  43.645  1.00  0.00    -0.744 OA
ENDBRANCH 105 106
ENDBRANCH  73  98
ENDBRANCH  47  48
ENDBRANCH  40  42
ENDBRANCH  39  40
ENDBRANCH  38  39
ENDBRANCH  37  38
ENDBRANCH  36  37
ENDBRANCH  35  36
ENDBRANCH   1  35
TORSDOF 24
ENDMDL
MODEL 2
REMARK VINA RESULT:      -9.9      5.941     14.010
REMARK SMILES O=C(NC1(C(=O)OCCOCCOCCOC(=O)c2ccc(-c3c4nc(c(-c5c(F)cc(S(=O)(=O)[O-])cc5F)c5ccc([nH]5)c(-c5c(F)cc(S(=O)(=O)[O-])cc5F)c5nc(c(-c6c(F)cc(S(=O)(=O)[O-])cc6F)c6ccc3[nH]6)C=C5)C=C4)cc2)CC[NH2+]CC1)OCC1c2ccccc2-c2ccccc21
REMARK SMILES IDX 11 1 10 2 9 3 8 4 7 5 5 6 6 7 4 8 85 9 89 10 86 11 88 12
REMARK SMILES IDX 87 13 3 16 1 17 2 18 90 20 91 21 92 22 93 23 104 24 94 25
REMARK SMILES IDX 98 26 99 27 103 28 95 29 97 30 100 31 102 32 96 33 101 34
REMARK SMILES IDX 12 35 13 36 14 37 15 38 16 39 17 40 18 41 19 42 20 43 84 44
REMARK SMILES IDX 21 45 83 46 22 47 23 48 24 49 77 50 25 51 82 52 76 53 78 54
REMARK SMILES IDX 26 55 81 56 75 57 74 58 27 60 61 61 40 62 60 63 41 64 44 65
REMARK SMILES IDX 59 66 79 67 42 68 43 69 58 71 80 72 45 73 28 74 29 75 38 76
REMARK SMILES IDX 30 77 31 78 37 79 39 80 32 81 33 82 34 83 35 84 36 85 62 86
REMARK SMILES IDX 63 87 72 88 64 89 65 90 71 91 73 92 66 93 67 94 68 95 69 96
REMARK SMILES IDX 70 97 46 98 47 99 56 100 48 101 49 102 55 103 57 104 50 105
REMARK SMILES IDX 51 106 52 107 53 108 54 109
REMARK H PARENT 87 14 87 15 3 19 78 59 44 70
REMARK Flexibility Score: inf
ROOT
ATOM      1  C   UNL A   1      35.670  33.908  34.527  1.00  0.00     0.188 C 
ENDROOT
BRANCH   1   2
ATOM      2  O   UNL A   1      37.065  33.529  34.482  1.00  0.00    -0.376 OA
BRANCH   2   3
ATOM      3  C   UNL A   1      37.496  32.165  34.276  1.00  0.00     0.202 C 
BRANCH   3   4
ATOM      4  C   UNL A   1      38.040  31.302  35.597  1.00  0.00     0.261 C 
BRANCH   4   5
ATOM      5  O   UNL A   1      39.178  31.900  36.825  1.00  0.00    -0.461 OA
BRANCH   5   6
ATOM      6  C   UNL A   1      39.545  33.232  38.116  1.00  0.00     0.332 C 
ATOM      7  O   UNL A   1      38.709  33.596  39.029  1.00  0.00    -0.249 OA
BRANCH   6   8
ATOM      8  C   UNL A   1      40.699  34.401  38.181  1.00  0.00     0.151 C 
ATOM      9  C   UNL A   1      41.009  34.379  36.589  1.00  0.00     0.102 C 
ATOM     10  C   UNL A   1      40.732  35.889  38.534  1.00  0.00     0.102 C 
ATOM     11  C   UNL A   1      42.159  35.214  36.087  1.00  0.00     0.263 C 
ATOM     12  C   UNL A   1      41.971  36.610  37.981  1.00  0.00     0.263 C 
ATOM     13  N   UNL A   1      41.994  36.585  36.523  1.00  0.00    -0.346 N 
ATOM     14  H   UNL A   1      41.118  36.958  36.158  1.00  0.00     0.346 HD
ATOM     15  H   UNL A   1      42.765  37.156  36.177  1.00  0.00     0.346 HD
BRANCH   8  16
ATOM     16  N   UNL A   1      41.873  33.623  38.858  1.00  0.00    -0.305 N 
ATOM     17  O   UNL A   1      44.056  33.019  38.815  1.00  0.00    -0.225 OA
ATOM     18  C   UNL A   1      42.929  32.899  38.346  1.00  0.00     0.408 C 
ATOM     19  H   UNL A   1      41.855  33.657  39.842  1.00  0.00     0.168 HD
BRANCH  18  20
ATOM     20  O   UNL A   1      42.664  32.052  37.320  1.00  0.00    -0.449 OA
BRANCH  20  21
ATOM     21  C   UNL A   1      43.447  30.794  37.309  1.00  0.00     0.248 C 
BRANCH  21  22
ATOM     22  C   UNL A   1      44.034  30.750  35.903  1.00  0.00     0.088 C 
ATOM     23  C   UNL A   1      45.278  31.244  35.128  1.00  0.00    -0.029 A 
ATOM     24  C   UNL A   1      43.234  29.949  34.918  1.00  0.00    -0.029 A 
ATOM     25  C   UNL A   1      46.125  32.301  35.404  1.00  0.00     0.005 A 
ATOM     26  C   UNL A   1      45.610  30.341  34.043  1.00  0.00    -0.014 A 
ATOM     27  C   UNL A   1      44.573  29.339  33.879  1.00  0.00    -0.014 A 
ATOM     28  C   UNL A   1      41.515  29.543  34.527  1.00  0.00     0.005 A 
ATOM     29  C   UNL A   1      47.241  32.493  34.568  1.00  0.00     0.000 A 
ATOM     30  C   UNL A   1      46.696  30.548  33.213  1.00  0.00     0.009 A 
ATOM     31  C   UNL A   1      44.282  28.221  32.540  1.00  0.00     0.009 A 
ATOM     32  C   UNL A   1      41.226  28.452  33.021  1.00  0.00     0.000 A 
ATOM     33  C   UNL A   1      47.514  31.640  33.480  1.00  0.00     0.001 A 
ATOM     34  C   UNL A   1      42.625  27.770  32.092  1.00  0.00     0.001 A 
ENDBRANCH  21  22
ENDBRANCH  20  21
ENDBRANCH  18  20
ENDBRANCH   8  16
ENDBRANCH   6   8
ENDBRANCH   5   6
ENDBRANCH   4   5
ENDBRANCH   3   4
ENDBRANCH   2   3
ENDBRANCH   1   2
BRANCH   1  35
ATOM     35  C   UNL A   1      35.014  34.882  33.496  1.00  0.00     0.188 C 
BRANCH  35  36
ATOM     36  O   UNL A   1      33.893  34.430  32.704  1.00  0.00    -0.376 OA
BRANCH  36  37
ATOM     37  C   UNL A   1      33.951  34.624  31.304  1.00  0.00     0.202 C 
BRANCH  37  38
ATOM     38  C   UNL A   1      35.087  33.871  30.604  1.00  0.00     0.261 C 
BRANCH  38  39
ATOM     39  O   UNL A   1      34.906  32.452  30.638  1.00  0.00    -0.460 OA
BRANCH  39  40
ATOM     40  C   UNL A   1      34.956  31.844  29.417  1.00  0.00     0.338 C 
ATOM     41  O   UNL A   1      34.233  32.071  28.461  1.00  0.00    -0.246 OA
BRANCH  40  42
ATOM     42  C   UNL A   1      36.190  31.019  29.351  1.00  0.00     0.060 A 
ATOM     43  C   UNL A   1      36.587  30.328  30.508  1.00  0.00     0.016 A 
ATOM     44  C   UNL A   1      36.859  30.800  28.140  1.00  0.00     0.016 A 
ATOM     45  C   UNL A   1      37.690  29.471  30.473  1.00  0.00     0.010 A 
ATOM     46  C   UNL A   1      37.975  29.963  28.109  1.00  0.00     0.010 A 
ATOM     47  C   UNL A   1      38.429  29.344  29.287  1.00  0.00    -0.014 A 
BRANCH  47  48
ATOM     48  C   UNL A   1      39.856  28.942  29.346  1.00  0.00     0.031 A 
ATOM     49  C   UNL A   1      40.832  30.039  29.693  1.00  0.00     0.074 A 
ATOM     50  C   UNL A   1      40.288  27.706  29.044  1.00  0.00     0.049 A 
ATOM     51  N   UNL A   1      42.135  30.046  29.642  1.00  0.00    -0.248 NA
ATOM     52  C   UNL A   1      40.242  31.314  30.144  1.00  0.00     0.031 C 
ATOM     53  C   UNL A   1      39.442  26.551  28.750  1.00  0.00     0.029 A 
ATOM     54  N   UNL A   1      41.569  27.227  28.913  1.00  0.00    -0.354 N 
ATOM     55  C   UNL A   1      42.515  31.319  30.050  1.00  0.00     0.074 A 
ATOM     56  C   UNL A   1      41.313  32.066  30.325  1.00  0.00     0.031 C 
ATOM     57  C   UNL A   1      40.229  25.504  28.438  1.00  0.00     0.029 A 
ATOM     58  C   UNL A   1      41.630  25.925  28.472  1.00  0.00     0.049 A 
ATOM     59  H   UNL A   1      42.368  27.765  29.114  1.00  0.00     0.167 HD
ATOM     60  C   UNL A   1      43.760  31.831  30.178  1.00  0.00     0.037 A 
ATOM     61  C   UNL A   1      42.696  25.183  28.105  1.00  0.00     0.037 A 
ATOM     62  C   UNL A   1      44.951  31.101  29.861  1.00  0.00     0.049 A 
ATOM     63  C   UNL A   1      44.076  25.799  28.172  1.00  0.00     0.074 A 
ATOM     64  C   UNL A   1      46.264  31.527  29.919  1.00  0.00     0.029 A 
ATOM     65  N   UNL A   1      44.968  29.788  29.415  1.00  0.00    -0.354 N 
ATOM     66  N   UNL A   1      44.426  27.007  28.552  1.00  0.00    -0.248 NA
ATOM     67  C   UNL A   1      45.204  24.955  27.753  1.00  0.00     0.031 C 
ATOM     68  C   UNL A   1      47.075  30.481  29.467  1.00  0.00     0.029 A 
ATOM     69  C   UNL A   1      46.269  29.389  29.177  1.00  0.00     0.049 A 
ATOM     70  H   UNL A   1      44.171  29.224  29.285  1.00  0.00     0.167 HD
ATOM     71  C   UNL A   1      45.813  27.057  28.446  1.00  0.00     0.074 A 
ATOM     72  C   UNL A   1      46.239  25.758  27.970  1.00  0.00     0.031 C 
ATOM     73  C   UNL A   1      46.661  28.081  28.717  1.00  0.00     0.037 A 
BRANCH  60  74
ATOM     74  C   UNL A   1      43.865  33.257  30.635  1.00  0.00     0.058 A 
ATOM     75  C   UNL A   1      43.727  33.607  31.988  1.00  0.00     0.135 A 
ATOM     76  C   UNL A   1      44.073  34.289  29.707  1.00  0.00     0.135 A 
ATOM     77  F   UNL A   1      43.487  32.662  32.911  1.00  0.00    -0.206 F 
ATOM     78  C   UNL A   1      43.767  34.935  32.402  1.00  0.00     0.059 A 
ATOM     79  C   UNL A   1      44.143  35.621  30.101  1.00  0.00     0.059 A 
ATOM     80  F   UNL A   1      44.190  34.008  28.400  1.00  0.00    -0.206 F 
ATOM     81  C   UNL A   1      43.974  35.935  31.450  1.00  0.00     0.060 A 
BRANCH  81  82
ATOM     82  S   UNL A   1      44.027  37.653  32.000  1.00  0.00     0.124 S 
ATOM     83  O   UNL A   1      43.170  37.607  33.181  1.00  0.00    -0.237 OA
ATOM     84  O   UNL A   1      45.449  37.855  32.257  1.00  0.00    -0.237 OA
ATOM     85  O   UNL A   1      43.488  38.390  30.862  1.00  0.00    -0.744 OA
ENDBRANCH  81  82
ENDBRANCH  60  74
BRANCH  61  86
ATOM     86  C   UNL A   1      42.512  23.791  27.605  1.00  0.00     0.058 A 
ATOM     87  C   UNL A   1      42.317  23.526  26.240  1.00  0.00     0.135 A 
ATOM     88  C   UNL A   1      42.500  22.697  28.485  1.00  0.00     0.135 A 
ATOM     89  F   UNL A   1      42.296  24.537  25.359  1.00  0.00    -0.206 F 
ATOM     90  C   UNL A   1      42.105  22.232  25.768  1.00  0.00     0.059 A 
ATOM     91  C   UNL A   1      42.314  21.392  28.034  1.00  0.00     0.059 A 
ATOM     92  F   UNL A   1      42.678  22.891  29.801  1.00  0.00    -0.206 F 
ATOM     93  C   UNL A   1      42.107  21.170  26.673  1.00  0.00     0.060 A 
BRANCH  93  94
ATOM     94  S   UNL A   1      41.868  19.491  26.048  1.00  0.00     0.124 S 
ATOM     95  O   UNL A   1      42.743  19.482  24.881  1.00  0.00    -0.237 OA
ATOM     96  O   UNL A   1      42.303  18.675  27.177  1.00  0.00    -0.237 OA
ATOM     97  O   UNL A   1      40.437  19.439  25.763  1.00  0.00    -0.744 OA
ENDBRANCH  93  94
ENDBRANCH  61  86
BRANCH  73  98
ATOM     98  C   UNL A   1      48.134  27.831  28.552  1.00  0.00     0.058 A 
ATOM     99  C   UNL A   1      48.937  27.417  29.623  1.00  0.00     0.135 A 
ATOM    100  C   UNL A   1      48.726  27.926  27.281  1.00  0.00     0.135 A 
ATOM    101  F   UNL A   1      48.418  27.310  30.857  1.00  0.00    -0.206 F 
ATOM    102  C   UNL A   1      50.286  27.121  29.445  1.00  0.00     0.059 A 
ATOM    103  C   UNL A   1      50.064  27.610  27.076  1.00  0.00     0.059 A 
ATOM    104  F   UNL A   1      47.995  28.301  26.221  1.00  0.00    -0.206 F 
ATOM    105  C   UNL A   1      50.839  27.218  28.166  1.00  0.00     0.060 A 
BRANCH 105 106
ATOM    106  S   UNL A   1      52.577  26.788  27.939  1.00  0.00     0.124 S 
ATOM    107  O   UNL A   1      53.187  28.105  27.782  1.00  0.00    -0.237 OA
ATOM    108  O   UNL A   1      52.893  26.088  29.181  1.00  0.00    -0.237 OA
ATOM    109  O   UNL A   1      52.567  25.953  26.742  1.00  0.00    -0.744 OA
ENDBRANCH 105 106
ENDBRANCH  73  98
ENDBRANCH  47  48
ENDBRANCH  40  42
ENDBRANCH  39  40
ENDBRANCH  38  39
ENDBRANCH  37  38
ENDBRANCH  36  37
ENDBRANCH  35  36
ENDBRANCH   1  35
TORSDOF 24
ENDMDL
MODEL 3
REMARK VINA RESULT:      -9.8      7.645     10.608
REMARK SMILES O=C(NC1(C(=O)OCCOCCOCCOC(=O)c2ccc(-c3c4nc(c(-c5c(F)cc(S(=O)(=O)[O-])cc5F)c5ccc([nH]5)c(-c5c(F)cc(S(=O)(=O)[O-])cc5F)c5nc(c(-c6c(F)cc(S(=O)(=O)[O-])cc6F)c6ccc3[nH]6)C=C5)C=C4)cc2)CC[NH2+]CC1)OCC1c2ccccc2-c2ccccc21
REMARK SMILES IDX 11 1 10 2 9 3 8 4 7 5 5 6 6 7 4 8 85 9 89 10 86 11 88 12
REMARK SMILES IDX 87 13 3 16 1 17 2 18 90 20 91 21 92 22 93 23 104 24 94 25
REMARK SMILES IDX 98 26 99 27 103 28 95 29 97 30 100 31 102 32 96 33 101 34
REMARK SMILES IDX 12 35 13 36 14 37 15 38 16 39 17 40 18 41 19 42 20 43 84 44
REMARK SMILES IDX 21 45 83 46 22 47 23 48 24 49 77 50 25 51 82 52 76 53 78 54
REMARK SMILES IDX 26 55 81 56 75 57 74 58 27 60 61 61 40 62 60 63 41 64 44 65
REMARK SMILES IDX 59 66 79 67 42 68 43 69 58 71 80 72 45 73 28 74 29 75 38 76
REMARK SMILES IDX 30 77 31 78 37 79 39 80 32 81 33 82 34 83 35 84 36 85 62 86
REMARK SMILES IDX 63 87 72 88 64 89 65 90 71 91 73 92 66 93 67 94 68 95 69 96
REMARK SMILES IDX 70 97 46 98 47 99 56 100 48 101 49 102 55 103 57 104 50 105
REMARK SMILES IDX 51 106 52 107 53 108 54 109
REMARK H PARENT 87 14 87 15 3 19 78 59 44 70
REMARK Flexibility Score: inf
ROOT
ATOM      1  C   UNL A   1      39.928  27.567  28.013  1.00  0.00     0.188 C 
ENDROOT
BRANCH   1   2
ATOM      2  O   UNL A   1      38.940  26.512  28.067  1.00  0.00    -0.376 OA
BRANCH   2   3
ATOM      3  C   UNL A   1      39.291  25.112  27.982  1.00  0.00     0.202 C 
BRANCH   3   4
ATOM      4  C   UNL A   1      38.830  24.265  26.618  1.00  0.00     0.261 C 
BRANCH   4   5
ATOM      5  O   UNL A   1      37.199  24.252  25.913  1.00  0.00    -0.461 OA
BRANCH   5   6
ATOM      6  C   UNL A   1      35.754  23.194  25.303  1.00  0.00     0.332 C 
ATOM      7  O   UNL A   1      35.862  22.296  24.383  1.00  0.00    -0.249 OA
BRANCH   6   8
ATOM      8  C   UNL A   1      34.129  23.370  25.463  1.00  0.00     0.151 C 
ATOM      9  C   UNL A   1      33.853  21.808  25.802  1.00  0.00     0.102 C 
ATOM     10  C   UNL A   1      33.196  24.116  26.419  1.00  0.00     0.102 C 
ATOM     11  C   UNL A   1      32.419  21.356  25.911  1.00  0.00     0.263 C 
ATOM     12  C   UNL A   1      31.761  23.569  26.409  1.00  0.00     0.263 C 
ATOM     13  N   UNL A   1      31.716  22.185  26.869  1.00  0.00    -0.346 N 
ATOM     14  H   UNL A   1      32.167  22.111  27.781  1.00  0.00     0.346 HD
ATOM     15  H   UNL A   1      30.747  21.877  26.953  1.00  0.00     0.346 HD
BRANCH   8  16
ATOM     16  N   UNL A   1      33.702  23.568  23.974  1.00  0.00    -0.305 N 
ATOM     17  O   UNL A   1      34.037  24.637  22.004  1.00  0.00    -0.225 OA
ATOM     18  C   UNL A   1      33.638  24.683  23.163  1.00  0.00     0.408 C 
ATOM     19  H   UNL A   1      33.425  22.737  23.526  1.00  0.00     0.168 HD
BRANCH  18  20
ATOM     20  O   UNL A   1      33.112  25.813  23.697  1.00  0.00    -0.449 OA
BRANCH  20  21
ATOM     21  C   UNL A   1      31.632  25.890  23.700  1.00  0.00     0.248 C 
BRANCH  21  22
ATOM     22  C   UNL A   1      31.343  27.191  24.441  1.00  0.00     0.088 C 
ATOM     23  C   UNL A   1      31.983  28.108  25.509  1.00  0.00    -0.029 A 
ATOM     24  C   UNL A   1      30.081  27.884  24.016  1.00  0.00    -0.029 A 
ATOM     25  C   UNL A   1      32.911  27.805  26.489  1.00  0.00     0.005 A 
ATOM     26  C   UNL A   1      31.603  29.492  25.306  1.00  0.00    -0.014 A 
ATOM     27  C   UNL A   1      30.582  29.594  24.279  1.00  0.00    -0.014 A 
ATOM     28  C   UNL A   1      28.409  27.498  23.444  1.00  0.00     0.005 A 
ATOM     29  C   UNL A   1      33.391  28.853  27.296  1.00  0.00     0.000 A 
ATOM     30  C   UNL A   1      32.063  30.513  26.116  1.00  0.00     0.009 A 
ATOM     31  C   UNL A   1      29.529  30.951  23.861  1.00  0.00     0.009 A 
ATOM     32  C   UNL A   1      27.266  28.960  23.127  1.00  0.00     0.000 A 
ATOM     33  C   UNL A   1      32.962  30.184  27.122  1.00  0.00     0.001 A 
ATOM     34  C   UNL A   1      27.873  30.660  23.292  1.00  0.00     0.001 A 
ENDBRANCH  21  22
ENDBRANCH  20  21
ENDBRANCH  18  20
ENDBRANCH   8  16
ENDBRANCH   6   8
ENDBRANCH   5   6
ENDBRANCH   4   5
ENDBRANCH   3   4
ENDBRANCH   2   3
ENDBRANCH   1   2
BRANCH   1  35
ATOM     35  C   UNL A   1      39.558  29.080  27.883  1.00  0.00     0.188 C 
BRANCH  35  36
ATOM     36  O   UNL A   1      38.839  29.731  28.954  1.00  0.00    -0.376 OA
BRANCH  36  37
ATOM     37  C   UNL A   1      37.434  29.573  28.999  1.00  0.00     0.202 C 
BRANCH  37  38
ATOM     38  C   UNL A   1      36.918  28.806  30.221  1.00  0.00     0.261 C 
BRANCH  38  39
ATOM     39  O   UNL A   1      36.727  29.654  31.358  1.00  0.00    -0.460 OA
BRANCH  39  40
ATOM     40  C   UNL A   1      37.319  29.207  32.504  1.00  0.00     0.338 C 
ATOM     41  O   UNL A   1      37.394  28.050  32.881  1.00  0.00    -0.246 OA
BRANCH  40  42
ATOM     42  C   UNL A   1      38.072  30.334  33.116  1.00  0.00     0.060 A 
ATOM     43  C   UNL A   1      37.395  31.547  33.323  1.00  0.00     0.016 A 
ATOM     44  C   UNL A   1      39.368  30.158  33.618  1.00  0.00     0.016 A 
ATOM     45  C   UNL A   1      38.033  32.607  33.974  1.00  0.00     0.010 A 
ATOM     46  C   UNL A   1      40.014  31.224  34.247  1.00  0.00     0.010 A 
ATOM     47  C   UNL A   1      39.371  32.468  34.372  1.00  0.00    -0.014 A 
BRANCH  47  48
ATOM     48  C   UNL A   1      40.226  33.671  34.519  1.00  0.00     0.031 A 
ATOM     49  C   UNL A   1      41.074  34.023  33.322  1.00  0.00     0.074 A 
ATOM     50  C   UNL A   1      40.315  34.380  35.658  1.00  0.00     0.049 A 
ATOM     51  N   UNL A   1      42.043  34.889  33.208  1.00  0.00    -0.248 NA
ATOM     52  C   UNL A   1      40.794  33.271  32.084  1.00  0.00     0.031 C 
ATOM     53  C   UNL A   1      39.509  34.174  36.859  1.00  0.00     0.029 A 
ATOM     54  N   UNL A   1      41.157  35.414  35.990  1.00  0.00    -0.354 N 
ATOM     55  C   UNL A   1      42.484  34.782  31.894  1.00  0.00     0.074 A 
ATOM     56  C   UNL A   1      41.698  33.757  31.254  1.00  0.00     0.031 C 
ATOM     57  C   UNL A   1      39.920  35.033  37.811  1.00  0.00     0.029 A 
ATOM     58  C   UNL A   1      41.043  35.820  37.300  1.00  0.00     0.049 A 
ATOM     59  H   UNL A   1      41.784  35.824  35.352  1.00  0.00     0.167 HD
ATOM     60  C   UNL A   1      43.466  35.471  31.272  1.00  0.00     0.037 A 
ATOM     61  C   UNL A   1      41.789  36.698  38.002  1.00  0.00     0.037 A 
ATOM     62  C   UNL A   1      44.275  36.458  31.924  1.00  0.00     0.049 A 
ATOM     63  C   UNL A   1      42.940  37.398  37.315  1.00  0.00     0.074 A 
ATOM     64  C   UNL A   1      45.322  37.194  31.404  1.00  0.00     0.029 A 
ATOM     65  N   UNL A   1      44.129  36.836  33.250  1.00  0.00    -0.354 N 
ATOM     66  N   UNL A   1      43.355  37.284  36.073  1.00  0.00    -0.248 NA
ATOM     67  C   UNL A   1      43.730  38.337  38.124  1.00  0.00     0.031 C 
ATOM     68  C   UNL A   1      45.837  37.992  32.431  1.00  0.00     0.029 A 
ATOM     69  C   UNL A   1      45.077  37.786  33.575  1.00  0.00     0.049 A 
ATOM     70  H   UNL A   1      43.452  36.479  33.869  1.00  0.00     0.167 HD
ATOM     71  C   UNL A   1      44.431  38.158  35.946  1.00  0.00     0.074 A 
ATOM     72  C   UNL A   1      44.602  38.795  37.236  1.00  0.00     0.031 C 
ATOM     73  C   UNL A   1      45.211  38.414  34.865  1.00  0.00     0.037 A 
BRANCH  60  74
ATOM     74  C   UNL A   1      43.730  35.130  29.834  1.00  0.00     0.058 A 
ATOM     75  C   UNL A   1      44.654  34.136  29.472  1.00  0.00     0.135 A 
ATOM     76  C   UNL A   1      43.077  35.825  28.805  1.00  0.00     0.135 A 
ATOM     77  F   UNL A   1      45.335  33.468  30.417  1.00  0.00    -0.206 F 
ATOM     78  C   UNL A   1      44.940  33.861  28.139  1.00  0.00     0.059 A 
ATOM     79  C   UNL A   1      43.328  35.550  27.465  1.00  0.00     0.059 A 
ATOM     80  F   UNL A   1      42.200  36.799  29.099  1.00  0.00    -0.206 F 
ATOM     81  C   UNL A   1      44.271  34.575  27.142  1.00  0.00     0.060 A 
BRANCH  81  82
ATOM     82  S   UNL A   1      44.650  34.207  25.416  1.00  0.00     0.124 S 
ATOM     83  O   UNL A   1      45.794  35.079  25.176  1.00  0.00    -0.237 OA
ATOM     84  O   UNL A   1      44.940  32.777  25.458  1.00  0.00    -0.237 OA
ATOM     85  O   UNL A   1      43.424  34.573  24.715  1.00  0.00    -0.744 OA
ENDBRANCH  81  82
ENDBRANCH  60  74
BRANCH  61  86
ATOM     86  C   UNL A   1      41.506  36.945  39.445  1.00  0.00     0.058 A 
ATOM     87  C   UNL A   1      42.349  36.446  40.450  1.00  0.00     0.135 A 
ATOM     88  C   UNL A   1      40.369  37.663  39.852  1.00  0.00     0.135 A 
ATOM     89  F   UNL A   1      43.436  35.733  40.118  1.00  0.00    -0.206 F 
ATOM     90  C   UNL A   1      42.073  36.638  41.802  1.00  0.00     0.059 A 
ATOM     91  C   UNL A   1      40.085  37.890  41.196  1.00  0.00     0.059 A 
ATOM     92  F   UNL A   1      39.526  38.161  38.934  1.00  0.00    -0.206 F 
ATOM     93  C   UNL A   1      40.937  37.364  42.166  1.00  0.00     0.060 A 
BRANCH  93  94
ATOM     94  S   UNL A   1      40.604  37.640  43.920  1.00  0.00     0.124 S 
ATOM     95  O   UNL A   1      41.938  37.935  44.432  1.00  0.00    -0.237 OA
ATOM     96  O   UNL A   1      39.672  38.762  43.887  1.00  0.00    -0.237 OA
ATOM     97  O   UNL A   1      40.028  36.371  44.357  1.00  0.00    -0.744 OA
ENDBRANCH  93  94
ENDBRANCH  61  86
BRANCH  73  98
ATOM     98  C   UNL A   1      46.286  39.453  35.008  1.00  0.00     0.058 A 
ATOM     99  C   UNL A   1      46.059  40.800  34.692  1.00  0.00     0.135 A 
ATOM    100  C   UNL A   1      47.534  39.105  35.553  1.00  0.00     0.135 A 
ATOM    101  F   UNL A   1      44.882  41.183  34.170  1.00  0.00    -0.206 F 
ATOM    102  C   UNL A   1      47.039  41.767  34.894  1.00  0.00     0.059 A 
ATOM    103  C   UNL A   1      48.518  40.059  35.788  1.00  0.00     0.059 A 
ATOM    104  F   UNL A   1      47.794  37.833  35.889  1.00  0.00    -0.206 F 
ATOM    105  C   UNL A   1      48.264  41.387  35.445  1.00  0.00     0.060 A 
BRANCH 105 106
ATOM    106  S   UNL A   1      49.512  42.657  35.744  1.00  0.00     0.124 S 
ATOM    107  O   UNL A   1      50.742  41.945  35.410  1.00  0.00    -0.237 OA
ATOM    108  O   UNL A   1      49.116  43.710  34.814  1.00  0.00    -0.237 OA
ATOM    109  O   UNL A   1      49.336  42.979  37.157  1.00  0.00    -0.744 OA
ENDBRANCH 105 106
ENDBRANCH  73  98
ENDBRANCH  47  48
ENDBRANCH  40  42
ENDBRANCH  39  40
ENDBRANCH  38  39
ENDBRANCH  37  38
ENDBRANCH  36  37
ENDBRANCH  35  36
ENDBRANCH   1  35
TORSDOF 24
ENDMDL
