MODEL 1
REMARK VINA RESULT:     -10.4      0.000      0.000
REMARK SMILES CC(C)c1ccc([C@]2(C(=O)OCCOCCOCCOC(=O)c3ccc(-c4c5nc(c(-c6c(F)cc(S(=O)(=O)[O-])cc6F)c6ccc([nH]6)c(-c6c(F)cc(S(=O)(=O)[O-])cc6F)c6nc(c(-c7c(F)cc(S(=O)(=O)[O-])cc7F)c7ccc4[nH]7)C=C6)C=C5)cc3)CCC[C@@H]2C)cc1
REMARK SMILES IDX 16 1 15 2 14 3 13 4 12 5 11 6 9 7 10 8 8 9 89 10 92 11 90 12
REMARK SMILES IDX 91 13 93 14 7 15 4 16 5 17 95 18 6 19 94 20 2 21 1 22 3 23
REMARK SMILES IDX 17 24 18 25 19 26 20 27 21 28 22 29 23 30 24 31 88 32 25 33
REMARK SMILES IDX 87 34 26 35 27 36 28 37 81 38 29 39 86 40 80 41 82 42 30 43
REMARK SMILES IDX 85 44 79 45 78 46 31 48 65 49 44 50 64 51 45 52 48 53 63 54
REMARK SMILES IDX 83 55 46 56 47 57 62 59 84 60 49 61 32 62 33 63 42 64 34 65
REMARK SMILES IDX 35 66 41 67 43 68 36 69 37 70 38 71 39 72 40 73 66 74 67 75
REMARK SMILES IDX 76 76 68 77 69 78 75 79 77 80 70 81 71 82 72 83 73 84 74 85
REMARK SMILES IDX 50 86 51 87 60 88 52 89 53 90 59 91 61 92 54 93 55 94 56 95
REMARK SMILES IDX 57 96 58 97
REMARK H PARENT 82 47 48 58
REMARK Flexibility Score: inf
ROOT
ATOM      1  C   UNL A   1      40.279  21.123  26.933  1.00  0.00     0.188 C 
ENDROOT
BRANCH   1   2
ATOM      2  C   UNL A   1      39.294  21.005  25.765  1.00  0.00     0.188 C 
BRANCH   2   3
ATOM      3  O   UNL A   1      38.451  22.115  25.485  1.00  0.00    -0.376 OA
BRANCH   3   4
ATOM      4  C   UNL A   1      37.219  21.888  24.811  1.00  0.00     0.202 C 
BRANCH   4   5
ATOM      5  C   UNL A   1      36.800  22.874  23.711  1.00  0.00     0.261 C 
BRANCH   5   6
ATOM      6  O   UNL A   1      35.889  23.920  24.124  1.00  0.00    -0.463 OA
BRANCH   6   7
ATOM      7  C   UNL A   1      34.648  23.883  23.561  1.00  0.00     0.316 C 
ATOM      8  O   UNL A   1      34.446  24.134  22.375  1.00  0.00    -0.251 OA
BRANCH   7   9
ATOM      9  C   UNL A   1      33.474  23.573  24.554  1.00  0.00     0.095 C 
ATOM     10  C   UNL A   1      33.597  24.034  26.027  1.00  0.00     0.024 C 
ATOM     11  C   UNL A   1      32.319  24.544  24.113  1.00  0.00     0.008 C 
ATOM     12  C   UNL A   1      33.458  25.553  26.022  1.00  0.00     0.002 C 
ATOM     13  C   UNL A   1      32.787  25.896  24.693  1.00  0.00     0.005 C 
ATOM     14  C   UNL A   1      30.915  24.240  24.667  1.00  0.00     0.009 C 
BRANCH   9  15
ATOM     15  C   UNL A   1      33.216  22.060  24.466  1.00  0.00    -0.030 A 
ATOM     16  C   UNL A   1      32.773  19.226  24.326  1.00  0.00    -0.045 A 
ATOM     17  C   UNL A   1      32.424  20.074  23.270  1.00  0.00     0.004 A 
ATOM     18  C   UNL A   1      33.430  19.816  25.413  1.00  0.00     0.004 A 
ATOM     19  C   UNL A   1      32.666  21.456  23.328  1.00  0.00     0.005 A 
ATOM     20  C   UNL A   1      33.625  21.201  25.497  1.00  0.00     0.005 A 
BRANCH  16  21
ATOM     21  C   UNL A   1      32.544  17.714  24.293  1.00  0.00     0.013 C 
ATOM     22  C   UNL A   1      33.492  16.990  23.321  1.00  0.00     0.012 C 
ATOM     23  C   UNL A   1      32.650  17.012  25.655  1.00  0.00     0.012 C 
ENDBRANCH  16  21
ENDBRANCH   9  15
ENDBRANCH   7   9
ENDBRANCH   6   7
ENDBRANCH   5   6
ENDBRANCH   4   5
ENDBRANCH   3   4
ENDBRANCH   2   3
ENDBRANCH   1   2
BRANCH   1  24
ATOM     24  O   UNL A   1      41.270  22.118  26.767  1.00  0.00    -0.376 OA
BRANCH  24  25
ATOM     25  C   UNL A   1      42.376  21.796  25.943  1.00  0.00     0.202 C 
BRANCH  25  26
ATOM     26  C   UNL A   1      43.005  23.010  25.252  1.00  0.00     0.261 C 
BRANCH  26  27
ATOM     27  O   UNL A   1      42.428  24.278  25.612  1.00  0.00    -0.460 OA
BRANCH  27  28
ATOM     28  C   UNL A   1      43.279  25.321  25.766  1.00  0.00     0.338 C 
ATOM     29  O   UNL A   1      44.207  25.613  25.031  1.00  0.00    -0.246 OA
BRANCH  28  30
ATOM     30  C   UNL A   1      42.744  26.191  26.842  1.00  0.00     0.060 A 
ATOM     31  C   UNL A   1      43.096  27.547  26.851  1.00  0.00     0.016 A 
ATOM     32  C   UNL A   1      41.870  25.690  27.814  1.00  0.00     0.016 A 
ATOM     33  C   UNL A   1      42.593  28.394  27.845  1.00  0.00     0.010 A 
ATOM     34  C   UNL A   1      41.378  26.537  28.813  1.00  0.00     0.010 A 
ATOM     35  C   UNL A   1      41.747  27.891  28.844  1.00  0.00    -0.014 A 
BRANCH  35  36
ATOM     36  C   UNL A   1      41.410  28.727  30.026  1.00  0.00     0.031 A 
ATOM     37  C   UNL A   1      42.267  28.593  31.255  1.00  0.00     0.074 A 
ATOM     38  C   UNL A   1      40.371  29.583  30.026  1.00  0.00     0.049 A 
ATOM     39  N   UNL A   1      42.165  29.198  32.410  1.00  0.00    -0.248 NA
ATOM     40  C   UNL A   1      43.385  27.639  31.169  1.00  0.00     0.031 C 
ATOM     41  C   UNL A   1      39.469  29.821  28.902  1.00  0.00     0.029 A 
ATOM     42  N   UNL A   1      39.904  30.418  31.014  1.00  0.00    -0.354 N 
ATOM     43  C   UNL A   1      43.200  28.698  33.189  1.00  0.00     0.074 A 
ATOM     44  C   UNL A   1      43.912  27.731  32.379  1.00  0.00     0.031 C 
ATOM     45  C   UNL A   1      38.561  30.748  29.262  1.00  0.00     0.029 A 
ATOM     46  C   UNL A   1      38.799  31.151  30.648  1.00  0.00     0.049 A 
ATOM     47  H   UNL A   1      40.322  30.485  31.903  1.00  0.00     0.167 HD
ATOM     48  C   UNL A   1      43.526  29.003  34.467  1.00  0.00     0.037 A 
ATOM     49  C   UNL A   1      38.059  32.035  31.352  1.00  0.00     0.037 A 
ATOM     50  C   UNL A   1      42.797  29.926  35.293  1.00  0.00     0.049 A 
ATOM     51  C   UNL A   1      38.413  32.323  32.795  1.00  0.00     0.074 A 
ATOM     52  C   UNL A   1      43.040  30.277  36.610  1.00  0.00     0.029 A 
ATOM     53  N   UNL A   1      41.673  30.633  34.893  1.00  0.00    -0.354 N 
ATOM     54  N   UNL A   1      39.411  31.860  33.511  1.00  0.00    -0.248 NA
ATOM     55  C   UNL A   1      37.530  33.243  33.529  1.00  0.00     0.031 C 
ATOM     56  C   UNL A   1      42.033  31.156  37.021  1.00  0.00     0.029 A 
ATOM     57  C   UNL A   1      41.198  31.400  35.944  1.00  0.00     0.049 A 
ATOM     58  H   UNL A   1      41.272  30.594  33.994  1.00  0.00     0.167 HD
ATOM     59  C   UNL A   1      39.282  32.443  34.770  1.00  0.00     0.074 A 
ATOM     60  C   UNL A   1      38.125  33.311  34.713  1.00  0.00     0.031 C 
ATOM     61  C   UNL A   1      40.049  32.270  35.876  1.00  0.00     0.037 A 
BRANCH  48  62
ATOM     62  C   UNL A   1      44.704  28.284  35.062  1.00  0.00     0.058 A 
ATOM     63  C   UNL A   1      45.987  28.856  35.072  1.00  0.00     0.135 A 
ATOM     64  C   UNL A   1      44.545  27.013  35.635  1.00  0.00     0.135 A 
ATOM     65  F   UNL A   1      46.196  30.058  34.515  1.00  0.00    -0.206 F 
ATOM     66  C   UNL A   1      47.077  28.178  35.606  1.00  0.00     0.059 A 
ATOM     67  C   UNL A   1      45.617  26.329  36.199  1.00  0.00     0.059 A 
ATOM     68  F   UNL A   1      43.340  26.420  35.643  1.00  0.00    -0.206 F 
ATOM     69  C   UNL A   1      46.881  26.913  36.166  1.00  0.00     0.060 A 
BRANCH  69  70
ATOM     70  S   UNL A   1      48.308  26.044  36.846  1.00  0.00     0.124 S 
ATOM     71  O   UNL A   1      47.709  25.346  37.980  1.00  0.00    -0.237 OA
ATOM     72  O   UNL A   1      48.722  25.200  35.730  1.00  0.00    -0.237 OA
ATOM     73  O   UNL A   1      49.231  27.121  37.190  1.00  0.00    -0.744 OA
ENDBRANCH  69  70
ENDBRANCH  48  62
BRANCH  49  74
ATOM     74  C   UNL A   1      36.887  32.709  30.724  1.00  0.00     0.058 A 
ATOM     75  C   UNL A   1      37.057  33.797  29.851  1.00  0.00     0.135 A 
ATOM     76  C   UNL A   1      35.572  32.307  31.009  1.00  0.00     0.135 A 
ATOM     77  F   UNL A   1      38.292  34.235  29.558  1.00  0.00    -0.206 F 
ATOM     78  C   UNL A   1      35.971  34.473  29.303  1.00  0.00     0.059 A 
ATOM     79  C   UNL A   1      34.471  32.947  30.448  1.00  0.00     0.059 A 
ATOM     80  F   UNL A   1      35.351  31.273  31.835  1.00  0.00    -0.206 F 
ATOM     81  C   UNL A   1      34.680  34.038  29.607  1.00  0.00     0.060 A 
BRANCH  81  82
ATOM     82  S   UNL A   1      33.275  34.897  28.863  1.00  0.00     0.124 S 
ATOM     83  O   UNL A   1      32.444  35.168  30.030  1.00  0.00    -0.237 OA
ATOM     84  O   UNL A   1      33.913  36.059  28.252  1.00  0.00    -0.237 OA
ATOM     85  O   UNL A   1      32.742  33.917  27.922  1.00  0.00    -0.744 OA
ENDBRANCH  81  82
ENDBRANCH  49  74
BRANCH  61  86
ATOM     86  C   UNL A   1      39.691  33.049  37.115  1.00  0.00     0.058 A 
ATOM     87  C   UNL A   1      38.657  32.644  37.974  1.00  0.00     0.135 A 
ATOM     88  C   UNL A   1      40.444  34.176  37.488  1.00  0.00     0.135 A 
ATOM     89  F   UNL A   1      37.905  31.575  37.669  1.00  0.00    -0.206 F 
ATOM     90  C   UNL A   1      38.369  33.337  39.147  1.00  0.00     0.059 A 
ATOM     91  C   UNL A   1      40.192  34.868  38.669  1.00  0.00     0.059 A 
ATOM     92  F   UNL A   1      41.453  34.601  36.711  1.00  0.00    -0.206 F 
ATOM     93  C   UNL A   1      39.146  34.447  39.488  1.00  0.00     0.060 A 
BRANCH  93  94
ATOM     94  S   UNL A   1      38.790  35.314  41.033  1.00  0.00     0.124 S 
ATOM     95  O   UNL A   1      38.561  36.676  40.560  1.00  0.00    -0.237 OA
ATOM     96  O   UNL A   1      37.610  34.607  41.523  1.00  0.00    -0.237 OA
ATOM     97  O   UNL A   1      40.003  35.119  41.820  1.00  0.00    -0.744 OA
ENDBRANCH  93  94
ENDBRANCH  61  86
ENDBRANCH  35  36
ENDBRANCH  28  30
ENDBRANCH  27  28
ENDBRANCH  26  27
ENDBRANCH  25  26
ENDBRANCH  24  25
ENDBRANCH   1  24
TORSDOF 22
ENDMDL
MODEL 2
REMARK VINA RESULT:      -9.8      5.776     10.623
REMARK SMILES CC(C)c1ccc([C@]2(C(=O)OCCOCCOCCOC(=O)c3ccc(-c4c5nc(c(-c6c(F)cc(S(=O)(=O)[O-])cc6F)c6ccc([nH]6)c(-c6c(F)cc(S(=O)(=O)[O-])cc6F)c6nc(c(-c7c(F)cc(S(=O)(=O)[O-])cc7F)c7ccc4[nH]7)C=C6)C=C5)cc3)CCC[C@@H]2C)cc1
REMARK SMILES IDX 16 1 15 2 14 3 13 4 12 5 11 6 9 7 10 8 8 9 89 10 92 11 90 12
REMARK SMILES IDX 91 13 93 14 7 15 4 16 5 17 95 18 6 19 94 20 2 21 1 22 3 23
REMARK SMILES IDX 17 24 18 25 19 26 20 27 21 28 22 29 23 30 24 31 88 32 25 33
REMARK SMILES IDX 87 34 26 35 27 36 28 37 81 38 29 39 86 40 80 41 82 42 30 43
REMARK SMILES IDX 85 44 79 45 78 46 31 48 65 49 44 50 64 51 45 52 48 53 63 54
REMARK SMILES IDX 83 55 46 56 47 57 62 59 84 60 49 61 32 62 33 63 42 64 34 65
REMARK SMILES IDX 35 66 41 67 43 68 36 69 37 70 38 71 39 72 40 73 66 74 67 75
REMARK SMILES IDX 76 76 68 77 69 78 75 79 77 80 70 81 71 82 72 83 73 84 74 85
REMARK SMILES IDX 50 86 51 87 60 88 52 89 53 90 59 91 61 92 54 93 55 94 56 95
REMARK SMILES IDX 57 96 58 97
REMARK H PARENT 82 47 48 58
REMARK Flexibility Score: inf
ROOT
ATOM      1  C   UNL A   1      34.881  20.359  24.975  1.00  0.00     0.188 C 
ENDROOT
BRANCH   1   2
ATOM      2  C   UNL A   1      33.375  20.497  25.230  1.00  0.00     0.188 C 
BRANCH   2   3
ATOM      3  O   UNL A   1      32.782  21.778  25.060  1.00  0.00    -0.376 OA
BRANCH   3   4
ATOM      4  C   UNL A   1      32.024  22.330  26.130  1.00  0.00     0.202 C 
BRANCH   4   5
ATOM      5  C   UNL A   1      30.706  23.043  25.795  1.00  0.00     0.261 C 
BRANCH   5   6
ATOM      6  O   UNL A   1      30.823  24.193  24.924  1.00  0.00    -0.463 OA
BRANCH   6   7
ATOM      7  C   UNL A   1      31.091  25.379  25.539  1.00  0.00     0.316 C 
ATOM      8  O   UNL A   1      30.710  25.641  26.677  1.00  0.00    -0.251 OA
BRANCH   7   9
ATOM      9  C   UNL A   1      31.857  26.429  24.661  1.00  0.00     0.095 C 
ATOM     10  C   UNL A   1      33.033  27.216  25.290  1.00  0.00     0.024 C 
ATOM     11  C   UNL A   1      32.687  25.563  23.645  1.00  0.00     0.008 C 
ATOM     12  C   UNL A   1      34.180  26.224  25.460  1.00  0.00     0.002 C 
ATOM     13  C   UNL A   1      33.858  25.065  24.518  1.00  0.00     0.005 C 
ATOM     14  C   UNL A   1      33.271  26.302  22.428  1.00  0.00     0.009 C 
BRANCH   9  15
ATOM     15  C   UNL A   1      30.792  27.383  24.094  1.00  0.00    -0.030 A 
ATOM     16  C   UNL A   1      28.820  29.197  23.062  1.00  0.00    -0.045 A 
ATOM     17  C   UNL A   1      28.554  27.831  23.206  1.00  0.00     0.004 A 
ATOM     18  C   UNL A   1      30.060  29.646  23.530  1.00  0.00     0.004 A 
ATOM     19  C   UNL A   1      29.509  26.949  23.736  1.00  0.00     0.005 A 
ATOM     20  C   UNL A   1      31.035  28.761  24.010  1.00  0.00     0.005 A 
BRANCH  16  21
ATOM     21  C   UNL A   1      27.799  30.191  22.508  1.00  0.00     0.013 C 
ATOM     22  C   UNL A   1      27.486  31.333  23.492  1.00  0.00     0.012 C 
ATOM     23  C   UNL A   1      28.177  30.828  21.163  1.00  0.00     0.012 C 
ENDBRANCH  16  21
ENDBRANCH   9  15
ENDBRANCH   7   9
ENDBRANCH   6   7
ENDBRANCH   5   6
ENDBRANCH   4   5
ENDBRANCH   3   4
ENDBRANCH   2   3
ENDBRANCH   1   2
BRANCH   1  24
ATOM     24  O   UNL A   1      35.696  21.096  25.864  1.00  0.00    -0.376 OA
BRANCH  24  25
ATOM     25  C   UNL A   1      36.824  21.750  25.312  1.00  0.00     0.202 C 
BRANCH  25  26
ATOM     26  C   UNL A   1      38.098  20.898  25.319  1.00  0.00     0.261 C 
BRANCH  26  27
ATOM     27  O   UNL A   1      39.108  21.327  26.251  1.00  0.00    -0.460 OA
BRANCH  27  28
ATOM     28  C   UNL A   1      40.300  20.686  26.205  1.00  0.00     0.338 C 
ATOM     29  O   UNL A   1      40.492  19.537  25.845  1.00  0.00    -0.246 OA
BRANCH  28  30
ATOM     30  C   UNL A   1      41.368  21.692  26.432  1.00  0.00     0.060 A 
ATOM     31  C   UNL A   1      42.626  21.254  26.865  1.00  0.00     0.016 A 
ATOM     32  C   UNL A   1      41.149  23.051  26.183  1.00  0.00     0.016 A 
ATOM     33  C   UNL A   1      43.655  22.178  27.072  1.00  0.00     0.010 A 
ATOM     34  C   UNL A   1      42.177  23.974  26.401  1.00  0.00     0.010 A 
ATOM     35  C   UNL A   1      43.433  23.547  26.861  1.00  0.00    -0.014 A 
BRANCH  35  36
ATOM     36  C   UNL A   1      44.441  24.544  27.307  1.00  0.00     0.031 A 
ATOM     37  C   UNL A   1      44.377  25.028  28.730  1.00  0.00     0.074 A 
ATOM     38  C   UNL A   1      45.391  25.022  26.481  1.00  0.00     0.049 A 
ATOM     39  N   UNL A   1      45.130  25.901  29.346  1.00  0.00    -0.248 NA
ATOM     40  C   UNL A   1      43.311  24.451  29.566  1.00  0.00     0.031 C 
ATOM     41  C   UNL A   1      45.576  24.631  25.086  1.00  0.00     0.029 A 
ATOM     42  N   UNL A   1      46.387  25.943  26.707  1.00  0.00    -0.354 N 
ATOM     43  C   UNL A   1      44.630  25.983  30.639  1.00  0.00     0.074 A 
ATOM     44  C   UNL A   1      43.501  25.078  30.716  1.00  0.00     0.031 C 
ATOM     45  C   UNL A   1      46.628  25.303  24.582  1.00  0.00     0.029 A 
ATOM     46  C   UNL A   1      47.177  26.191  25.608  1.00  0.00     0.049 A 
ATOM     47  H   UNL A   1      46.523  26.385  27.576  1.00  0.00     0.167 HD
ATOM     48  C   UNL A   1      45.059  26.748  31.670  1.00  0.00     0.037 A 
ATOM     49  C   UNL A   1      48.212  27.042  25.445  1.00  0.00     0.037 A 
ATOM     50  C   UNL A   1      46.148  27.683  31.589  1.00  0.00     0.049 A 
ATOM     51  C   UNL A   1      48.642  27.923  26.597  1.00  0.00     0.074 A 
ATOM     52  C   UNL A   1      46.635  28.521  32.577  1.00  0.00     0.029 A 
ATOM     53  N   UNL A   1      46.909  27.919  30.454  1.00  0.00    -0.354 N 
ATOM     54  N   UNL A   1      48.175  27.972  27.822  1.00  0.00    -0.248 NA
ATOM     55  C   UNL A   1      49.733  28.878  26.338  1.00  0.00     0.031 C 
ATOM     56  C   UNL A   1      47.657  29.300  32.024  1.00  0.00     0.029 A 
ATOM     57  C   UNL A   1      47.847  28.906  30.710  1.00  0.00     0.049 A 
ATOM     58  H   UNL A   1      46.798  27.454  29.593  1.00  0.00     0.167 HD
ATOM     59  C   UNL A   1      48.923  28.947  28.479  1.00  0.00     0.074 A 
ATOM     60  C   UNL A   1      49.888  29.447  27.525  1.00  0.00     0.031 C 
ATOM     61  C   UNL A   1      48.813  29.393  29.756  1.00  0.00     0.037 A 
BRANCH  48  62
ATOM     62  C   UNL A   1      44.305  26.636  32.964  1.00  0.00     0.058 A 
ATOM     63  C   UNL A   1      43.187  27.440  33.238  1.00  0.00     0.135 A 
ATOM     64  C   UNL A   1      44.701  25.707  33.940  1.00  0.00     0.135 A 
ATOM     65  F   UNL A   1      42.783  28.360  32.349  1.00  0.00    -0.206 F 
ATOM     66  C   UNL A   1      42.505  27.347  34.446  1.00  0.00     0.059 A 
ATOM     67  C   UNL A   1      44.017  25.578  35.143  1.00  0.00     0.059 A 
ATOM     68  F   UNL A   1      45.769  24.920  33.730  1.00  0.00    -0.206 F 
ATOM     69  C   UNL A   1      42.930  26.413  35.394  1.00  0.00     0.060 A 
BRANCH  69  70
ATOM     70  S   UNL A   1      42.040  26.310  36.960  1.00  0.00     0.124 S 
ATOM     71  O   UNL A   1      43.126  26.462  37.922  1.00  0.00    -0.237 OA
ATOM     72  O   UNL A   1      41.114  27.434  36.866  1.00  0.00    -0.237 OA
ATOM     73  O   UNL A   1      41.423  24.987  36.914  1.00  0.00    -0.744 OA
ENDBRANCH  69  70
ENDBRANCH  48  62
BRANCH  49  74
ATOM     74  C   UNL A   1      48.918  27.132  24.134  1.00  0.00     0.058 A 
ATOM     75  C   UNL A   1      50.227  26.647  23.979  1.00  0.00     0.135 A 
ATOM     76  C   UNL A   1      48.315  27.735  23.019  1.00  0.00     0.135 A 
ATOM     77  F   UNL A   1      50.858  26.077  25.018  1.00  0.00    -0.206 F 
ATOM     78  C   UNL A   1      50.919  26.777  22.778  1.00  0.00     0.059 A 
ATOM     79  C   UNL A   1      48.974  27.848  21.799  1.00  0.00     0.059 A 
ATOM     80  F   UNL A   1      47.064  28.215  23.110  1.00  0.00    -0.206 F 
ATOM     81  C   UNL A   1      50.281  27.378  21.692  1.00  0.00     0.060 A 
BRANCH  81  82
ATOM     82  S   UNL A   1      51.172  27.510  20.125  1.00  0.00     0.124 S 
ATOM     83  O   UNL A   1      52.426  26.837  20.442  1.00  0.00    -0.237 OA
ATOM     84  O   UNL A   1      50.285  26.804  19.205  1.00  0.00    -0.237 OA
ATOM     85  O   UNL A   1      51.264  28.952  19.913  1.00  0.00    -0.744 OA
ENDBRANCH  81  82
ENDBRANCH  49  74
BRANCH  61  86
ATOM     86  C   UNL A   1      49.774  30.457  30.220  1.00  0.00     0.058 A 
ATOM     87  C   UNL A   1      49.469  31.824  30.130  1.00  0.00     0.135 A 
ATOM     88  C   UNL A   1      50.989  30.099  30.832  1.00  0.00     0.135 A 
ATOM     89  F   UNL A   1      48.324  32.223  29.555  1.00  0.00    -0.206 F 
ATOM     90  C   UNL A   1      50.338  32.799  30.612  1.00  0.00     0.059 A 
ATOM     91  C   UNL A   1      51.860  31.055  31.345  1.00  0.00     0.059 A 
ATOM     92  F   UNL A   1      51.327  28.806  30.957  1.00  0.00    -0.206 F 
ATOM     93  C   UNL A   1      51.531  32.404  31.222  1.00  0.00     0.060 A 
BRANCH  93  94
ATOM     94  S   UNL A   1      52.632  33.676  31.881  1.00  0.00     0.124 S 
ATOM     95  O   UNL A   1      53.548  33.880  30.763  1.00  0.00    -0.237 OA
ATOM     96  O   UNL A   1      51.711  34.776  32.154  1.00  0.00    -0.237 OA
ATOM     97  O   UNL A   1      53.213  33.046  33.061  1.00  0.00    -0.744 OA
ENDBRANCH  93  94
ENDBRANCH  61  86
ENDBRANCH  35  36
ENDBRANCH  28  30
ENDBRANCH  27  28
ENDBRANCH  26  27
ENDBRANCH  25  26
ENDBRANCH  24  25
ENDBRANCH   1  24
TORSDOF 22
ENDMDL
MODEL 3
REMARK VINA RESULT:      -9.7      4.786      7.079
REMARK SMILES CC(C)c1ccc([C@]2(C(=O)OCCOCCOCCOC(=O)c3ccc(-c4c5nc(c(-c6c(F)cc(S(=O)(=O)[O-])cc6F)c6ccc([nH]6)c(-c6c(F)cc(S(=O)(=O)[O-])cc6F)c6nc(c(-c7c(F)cc(S(=O)(=O)[O-])cc7F)c7ccc4[nH]7)C=C6)C=C5)cc3)CCC[C@@H]2C)cc1
REMARK SMILES IDX 16 1 15 2 14 3 13 4 12 5 11 6 9 7 10 8 8 9 89 10 92 11 90 12
REMARK SMILES IDX 91 13 93 14 7 15 4 16 5 17 95 18 6 19 94 20 2 21 1 22 3 23
REMARK SMILES IDX 17 24 18 25 19 26 20 27 21 28 22 29 23 30 24 31 88 32 25 33
REMARK SMILES IDX 87 34 26 35 27 36 28 37 81 38 29 39 86 40 80 41 82 42 30 43
REMARK SMILES IDX 85 44 79 45 78 46 31 48 65 49 44 50 64 51 45 52 48 53 63 54
REMARK SMILES IDX 83 55 46 56 47 57 62 59 84 60 49 61 32 62 33 63 42 64 34 65
REMARK SMILES IDX 35 66 41 67 43 68 36 69 37 70 38 71 39 72 40 73 66 74 67 75
REMARK SMILES IDX 76 76 68 77 69 78 75 79 77 80 70 81 71 82 72 83 73 84 74 85
REMARK SMILES IDX 50 86 51 87 60 88 52 89 53 90 59 91 61 92 54 93 55 94 56 95
REMARK SMILES IDX 57 96 58 97
REMARK H PARENT 82 47 48 58
REMARK Flexibility Score: inf
ROOT
ATOM      1  C   UNL A   1      34.345  20.428  24.989  1.00  0.00     0.188 C 
ENDROOT
BRANCH   1   2
ATOM      2  C   UNL A   1      32.937  20.380  25.592  1.00  0.00     0.188 C 
BRANCH   2   3
ATOM      3  O   UNL A   1      32.147  21.562  25.545  1.00  0.00    -0.376 OA
BRANCH   3   4
ATOM      4  C   UNL A   1      32.287  22.522  26.585  1.00  0.00     0.202 C 
BRANCH   4   5
ATOM      5  C   UNL A   1      31.391  23.768  26.548  1.00  0.00     0.261 C 
BRANCH   5   6
ATOM      6  O   UNL A   1      31.887  24.870  25.752  1.00  0.00    -0.463 OA
BRANCH   6   7
ATOM      7  C   UNL A   1      31.259  26.065  25.934  1.00  0.00     0.316 C 
ATOM      8  O   UNL A   1      30.366  26.229  26.763  1.00  0.00    -0.251 OA
BRANCH   7   9
ATOM      9  C   UNL A   1      31.697  27.207  24.953  1.00  0.00     0.095 C 
ATOM     10  C   UNL A   1      32.465  26.830  23.661  1.00  0.00     0.024 C 
ATOM     11  C   UNL A   1      30.359  27.688  24.284  1.00  0.00     0.008 C 
ATOM     12  C   UNL A   1      31.458  26.151  22.738  1.00  0.00     0.002 C 
ATOM     13  C   UNL A   1      30.083  26.568  23.258  1.00  0.00     0.005 C 
ATOM     14  C   UNL A   1      30.408  29.030  23.532  1.00  0.00     0.009 C 
BRANCH   9  15
ATOM     15  C   UNL A   1      32.489  28.223  25.792  1.00  0.00    -0.030 A 
ATOM     16  C   UNL A   1      33.996  30.086  27.375  1.00  0.00    -0.045 A 
ATOM     17  C   UNL A   1      32.625  30.254  27.155  1.00  0.00     0.004 A 
ATOM     18  C   UNL A   1      34.575  28.919  26.863  1.00  0.00     0.004 A 
ATOM     19  C   UNL A   1      31.884  29.328  26.403  1.00  0.00     0.005 A 
ATOM     20  C   UNL A   1      33.850  28.020  26.068  1.00  0.00     0.005 A 
BRANCH  16  21
ATOM     21  C   UNL A   1      34.833  31.061  28.204  1.00  0.00     0.013 C 
ATOM     22  C   UNL A   1      36.343  30.924  27.939  1.00  0.00     0.012 C 
ATOM     23  C   UNL A   1      34.465  32.542  28.030  1.00  0.00     0.012 C 
ENDBRANCH  16  21
ENDBRANCH   9  15
ENDBRANCH   7   9
ENDBRANCH   6   7
ENDBRANCH   5   6
ENDBRANCH   4   5
ENDBRANCH   3   4
ENDBRANCH   2   3
ENDBRANCH   1   2
BRANCH   1  24
ATOM     24  O   UNL A   1      35.306  21.084  25.792  1.00  0.00    -0.376 OA
BRANCH  24  25
ATOM     25  C   UNL A   1      35.889  22.262  25.267  1.00  0.00     0.202 C 
BRANCH  25  26
ATOM     26  C   UNL A   1      37.404  22.164  25.062  1.00  0.00     0.261 C 
BRANCH  26  27
ATOM     27  O   UNL A   1      38.173  23.183  25.726  1.00  0.00    -0.460 OA
BRANCH  27  28
ATOM     28  C   UNL A   1      39.253  22.776  26.435  1.00  0.00     0.338 C 
ATOM     29  O   UNL A   1      39.673  21.635  26.525  1.00  0.00    -0.246 OA
BRANCH  28  30
ATOM     30  C   UNL A   1      39.985  23.986  26.886  1.00  0.00     0.060 A 
ATOM     31  C   UNL A   1      40.654  23.951  28.117  1.00  0.00     0.016 A 
ATOM     32  C   UNL A   1      40.050  25.134  26.089  1.00  0.00     0.016 A 
ATOM     33  C   UNL A   1      41.364  25.071  28.559  1.00  0.00     0.010 A 
ATOM     34  C   UNL A   1      40.753  26.257  26.539  1.00  0.00     0.010 A 
ATOM     35  C   UNL A   1      41.402  26.239  27.784  1.00  0.00    -0.014 A 
BRANCH  35  36
ATOM     36  C   UNL A   1      41.949  27.497  28.356  1.00  0.00     0.031 A 
ATOM     37  C   UNL A   1      43.442  27.682  28.361  1.00  0.00     0.074 A 
ATOM     38  C   UNL A   1      41.155  28.456  28.869  1.00  0.00     0.049 A 
ATOM     39  N   UNL A   1      44.155  28.679  28.817  1.00  0.00    -0.248 NA
ATOM     40  C   UNL A   1      44.236  26.589  27.777  1.00  0.00     0.031 C 
ATOM     41  C   UNL A   1      39.697  28.413  28.918  1.00  0.00     0.029 A 
ATOM     42  N   UNL A   1      41.475  29.664  29.446  1.00  0.00    -0.354 N 
ATOM     43  C   UNL A   1      45.479  28.333  28.580  1.00  0.00     0.074 A 
ATOM     44  C   UNL A   1      45.471  27.030  27.949  1.00  0.00     0.031 C 
ATOM     45  C   UNL A   1      39.246  29.547  29.486  1.00  0.00     0.029 A 
ATOM     46  C   UNL A   1      40.382  30.387  29.866  1.00  0.00     0.049 A 
ATOM     47  H   UNL A   1      42.401  29.982  29.548  1.00  0.00     0.167 HD
ATOM     48  C   UNL A   1      46.604  29.028  28.869  1.00  0.00     0.037 A 
ATOM     49  C   UNL A   1      40.309  31.580  30.493  1.00  0.00     0.037 A 
ATOM     50  C   UNL A   1      46.623  30.301  29.538  1.00  0.00     0.049 A 
ATOM     51  C   UNL A   1      41.581  32.315  30.852  1.00  0.00     0.074 A 
ATOM     52  C   UNL A   1      47.719  31.066  29.896  1.00  0.00     0.029 A 
ATOM     53  N   UNL A   1      45.498  30.990  29.965  1.00  0.00    -0.354 N 
ATOM     54  N   UNL A   1      42.826  31.987  30.599  1.00  0.00    -0.248 NA
ATOM     55  C   UNL A   1      41.438  33.578  31.594  1.00  0.00     0.031 C 
ATOM     56  C   UNL A   1      47.259  32.193  30.586  1.00  0.00     0.029 A 
ATOM     57  C   UNL A   1      45.875  32.161  30.603  1.00  0.00     0.049 A 
ATOM     58  H   UNL A   1      44.569  30.691  29.834  1.00  0.00     0.167 HD
ATOM     59  C   UNL A   1      43.609  33.007  31.137  1.00  0.00     0.074 A 
ATOM     60  C   UNL A   1      42.698  33.975  31.709  1.00  0.00     0.031 C 
ATOM     61  C   UNL A   1      44.960  33.126  31.162  1.00  0.00     0.037 A 
BRANCH  48  62
ATOM     62  C   UNL A   1      47.914  28.391  28.504  1.00  0.00     0.058 A 
ATOM     63  C   UNL A   1      48.469  28.531  27.221  1.00  0.00     0.135 A 
ATOM     64  C   UNL A   1      48.627  27.638  29.450  1.00  0.00     0.135 A 
ATOM     65  F   UNL A   1      47.815  29.219  26.274  1.00  0.00    -0.206 F 
ATOM     66  C   UNL A   1      49.672  27.921  26.882  1.00  0.00     0.059 A 
ATOM     67  C   UNL A   1      49.845  27.043  29.141  1.00  0.00     0.059 A 
ATOM     68  F   UNL A   1      48.136  27.468  30.688  1.00  0.00    -0.206 F 
ATOM     69  C   UNL A   1      50.352  27.178  27.850  1.00  0.00     0.060 A 
BRANCH  69  70
ATOM     70  S   UNL A   1      51.907  26.387  27.391  1.00  0.00     0.124 S 
ATOM     71  O   UNL A   1      51.444  25.083  26.928  1.00  0.00    -0.237 OA
ATOM     72  O   UNL A   1      52.419  27.282  26.357  1.00  0.00    -0.237 OA
ATOM     73  O   UNL A   1      52.665  26.377  28.639  1.00  0.00    -0.744 OA
ENDBRANCH  69  70
ENDBRANCH  48  62
BRANCH  49  74
ATOM     74  C   UNL A   1      38.984  32.164  30.853  1.00  0.00     0.058 A 
ATOM     75  C   UNL A   1      38.290  31.739  31.998  1.00  0.00     0.135 A 
ATOM     76  C   UNL A   1      38.368  33.132  30.045  1.00  0.00     0.135 A 
ATOM     77  F   UNL A   1      38.825  30.801  32.797  1.00  0.00    -0.206 F 
ATOM     78  C   UNL A   1      37.028  32.232  32.314  1.00  0.00     0.059 A 
ATOM     79  C   UNL A   1      37.121  33.664  30.357  1.00  0.00     0.059 A 
ATOM     80  F   UNL A   1      38.987  33.576  28.939  1.00  0.00    -0.206 F 
ATOM     81  C   UNL A   1      36.452  33.198  31.487  1.00  0.00     0.060 A 
BRANCH  81  82
ATOM     82  S   UNL A   1      34.829  33.861  31.924  1.00  0.00     0.124 S 
ATOM     83  O   UNL A   1      34.530  34.695  30.766  1.00  0.00    -0.237 OA
ATOM     84  O   UNL A   1      34.027  32.649  32.060  1.00  0.00    -0.237 OA
ATOM     85  O   UNL A   1      35.084  34.577  33.171  1.00  0.00    -0.744 OA
ENDBRANCH  81  82
ENDBRANCH  49  74
BRANCH  61  86
ATOM     86  C   UNL A   1      45.551  34.356  31.801  1.00  0.00     0.058 A 
ATOM     87  C   UNL A   1      45.913  34.388  33.157  1.00  0.00     0.135 A 
ATOM     88  C   UNL A   1      45.829  35.496  31.026  1.00  0.00     0.135 A 
ATOM     89  F   UNL A   1      45.671  33.329  33.945  1.00  0.00    -0.206 F 
ATOM     90  C   UNL A   1      46.510  35.510  33.727  1.00  0.00     0.059 A 
ATOM     91  C   UNL A   1      46.449  36.618  31.567  1.00  0.00     0.059 A 
ATOM     92  F   UNL A   1      45.516  35.517  29.720  1.00  0.00    -0.206 F 
ATOM     93  C   UNL A   1      46.778  36.620  32.922  1.00  0.00     0.060 A 
BRANCH  93  94
ATOM     94  S   UNL A   1      47.590  38.053  33.663  1.00  0.00     0.124 S 
ATOM     95  O   UNL A   1      48.560  38.408  32.631  1.00  0.00    -0.237 OA
ATOM     96  O   UNL A   1      46.481  38.986  33.838  1.00  0.00    -0.237 OA
ATOM     97  O   UNL A   1      48.156  37.523  34.899  1.00  0.00    -0.744 OA
ENDBRANCH  93  94
ENDBRANCH  61  86
ENDBRANCH  35  36
ENDBRANCH  28  30
ENDBRANCH  27  28
ENDBRANCH  26  27
ENDBRANCH  25  26
ENDBRANCH  24  25
ENDBRANCH   1  24
TORSDOF 22
ENDMDL
