MODEL 1
REMARK VINA RESULT:     -11.1      0.000      0.000
REMARK SMILES O=C(OCCOCCOCCOC(=O)[C@@H](Cc1ccc(O)cc1)Nc1c2ccccc2nc2ccccc12)c1ccc(-c2c3nc(c(-c4c(F)cc(S(=O)(=O)[O-])cc4F)c4ccc([nH]4)c(-c4c(F)cc(S(=O)(=O)[O-])cc4F)c4nc(c(-c5c(F)cc(S(=O)(=O)[O-])cc5F)c5ccc2[nH]5)C=C4)C=C3)cc1
REMARK SMILES IDX 7 1 6 2 5 3 4 4 3 5 2 6 1 7 39 8 40 9 104 10 41 11 103 12
REMARK SMILES IDX 42 13 43 14 44 15 97 16 45 17 102 18 96 19 98 20 46 21
REMARK SMILES IDX 101 22 95 23 94 24 47 26 81 27 60 28 80 29 61 30 64 31 79 32
REMARK SMILES IDX 99 33 62 34 63 35 78 37 100 38 65 39 48 40 49 41 58 42 50 43
REMARK SMILES IDX 51 44 57 45 59 46 52 47 53 48 54 49 55 50 56 51 82 52 83 53
REMARK SMILES IDX 92 54 84 55 85 56 91 57 93 58 86 59 87 60 88 61 89 62 90 63
REMARK SMILES IDX 66 64 67 65 76 66 68 67 69 68 75 69 77 70 70 71 71 72 72 73
REMARK SMILES IDX 73 74 74 75 8 76 9 77 10 78 11 79 12 80 13 81 14 82 15 83
REMARK SMILES IDX 16 84 17 85 18 86 23 87 19 88 22 89 20 90 21 91 24 93 25 95
REMARK SMILES IDX 26 96 38 97 27 98 31 99 33 100 37 101 28 102 30 103 32 104
REMARK SMILES IDX 34 105 36 106 29 107 35 108
REMARK H PARENT 98 25 64 36 21 92 24 94
REMARK Flexibility Score: inf
ROOT
ATOM      1  C   UNL A   1      33.383  29.127  26.633  1.00  0.00     0.188 C 
ENDROOT
BRANCH   1   2
ATOM      2  O   UNL A   1      34.428  29.734  27.399  1.00  0.00    -0.376 OA
BRANCH   2   3
ATOM      3  C   UNL A   1      34.198  31.090  27.774  1.00  0.00     0.202 C 
BRANCH   3   4
ATOM      4  C   UNL A   1      35.423  31.996  27.964  1.00  0.00     0.261 C 
BRANCH   4   5
ATOM      5  O   UNL A   1      36.079  31.927  29.241  1.00  0.00    -0.460 OA
BRANCH   5   6
ATOM      6  C   UNL A   1      36.638  30.895  29.912  1.00  0.00     0.338 C 
ATOM      7  O   UNL A   1      35.983  30.394  30.828  1.00  0.00    -0.246 OA
BRANCH   6   8
ATOM      8  C   UNL A   1      38.009  30.352  29.661  1.00  0.00     0.060 A 
ATOM      9  C   UNL A   1      38.968  30.103  30.636  1.00  0.00     0.016 A 
ATOM     10  C   UNL A   1      38.369  30.106  28.316  1.00  0.00     0.016 A 
ATOM     11  C   UNL A   1      40.227  29.620  30.291  1.00  0.00     0.010 A 
ATOM     12  C   UNL A   1      39.639  29.629  27.962  1.00  0.00     0.010 A 
ATOM     13  C   UNL A   1      40.578  29.381  28.957  1.00  0.00    -0.014 A 
BRANCH  13  14
ATOM     14  C   UNL A   1      41.990  29.017  28.686  1.00  0.00     0.031 A 
ATOM     15  C   UNL A   1      42.250  27.648  28.138  1.00  0.00     0.074 A 
ATOM     16  C   UNL A   1      42.968  29.940  28.736  1.00  0.00     0.049 A 
ATOM     17  N   UNL A   1      43.342  27.155  27.626  1.00  0.00    -0.248 NA
ATOM     18  C   UNL A   1      41.107  26.719  28.147  1.00  0.00     0.031 C 
ATOM     19  C   UNL A   1      42.791  31.313  29.195  1.00  0.00     0.029 A 
ATOM     20  N   UNL A   1      44.272  29.903  28.310  1.00  0.00    -0.354 N 
ATOM     21  C   UNL A   1      43.031  25.845  27.289  1.00  0.00     0.074 A 
ATOM     22  C   UNL A   1      41.628  25.647  27.577  1.00  0.00     0.031 C 
ATOM     23  C   UNL A   1      43.888  32.026  28.895  1.00  0.00     0.029 A 
ATOM     24  C   UNL A   1      44.900  31.132  28.338  1.00  0.00     0.049 A 
ATOM     25  H   UNL A   1      44.718  29.078  28.012  1.00  0.00     0.167 HD
ATOM     26  C   UNL A   1      43.866  24.873  26.859  1.00  0.00     0.037 A 
ATOM     27  C   UNL A   1      46.154  31.480  27.978  1.00  0.00     0.037 A 
ATOM     28  C   UNL A   1      45.278  25.068  26.693  1.00  0.00     0.049 A 
ATOM     29  C   UNL A   1      47.080  30.374  27.525  1.00  0.00     0.074 A 
ATOM     30  C   UNL A   1      46.253  24.129  26.423  1.00  0.00     0.029 A 
ATOM     31  N   UNL A   1      45.920  26.295  26.821  1.00  0.00    -0.354 N 
ATOM     32  N   UNL A   1      46.797  29.114  27.283  1.00  0.00    -0.248 NA
ATOM     33  C   UNL A   1      48.501  30.710  27.362  1.00  0.00     0.031 C 
ATOM     34  C   UNL A   1      47.493  24.777  26.450  1.00  0.00     0.029 A 
ATOM     35  C   UNL A   1      47.283  26.134  26.664  1.00  0.00     0.049 A 
ATOM     36  H   UNL A   1      45.469  27.152  26.998  1.00  0.00     0.167 HD
ATOM     37  C   UNL A   1      48.006  28.500  26.973  1.00  0.00     0.074 A 
ATOM     38  C   UNL A   1      49.017  29.538  27.010  1.00  0.00     0.031 C 
ATOM     39  C   UNL A   1      48.262  27.195  26.710  1.00  0.00     0.037 A 
BRANCH  26  40
ATOM     40  C   UNL A   1      43.273  23.499  26.751  1.00  0.00     0.058 A 
ATOM     41  C   UNL A   1      43.027  22.695  27.874  1.00  0.00     0.135 A 
ATOM     42  C   UNL A   1      43.077  22.933  25.480  1.00  0.00     0.135 A 
ATOM     43  F   UNL A   1      43.245  23.174  29.110  1.00  0.00    -0.206 F 
ATOM     44  C   UNL A   1      42.661  21.359  27.741  1.00  0.00     0.059 A 
ATOM     45  C   UNL A   1      42.687  21.608  25.323  1.00  0.00     0.059 A 
ATOM     46  F   UNL A   1      43.320  23.653  24.374  1.00  0.00    -0.206 F 
ATOM     47  C   UNL A   1      42.511  20.821  26.460  1.00  0.00     0.060 A 
BRANCH  47  48
ATOM     48  S   UNL A   1      42.131  19.064  26.294  1.00  0.00     0.124 S 
ATOM     49  O   UNL A   1      43.082  18.660  25.261  1.00  0.00    -0.237 OA
ATOM     50  O   UNL A   1      42.401  18.558  27.635  1.00  0.00    -0.237 OA
ATOM     51  O   UNL A   1      40.729  19.056  25.892  1.00  0.00    -0.744 OA
ENDBRANCH  47  48
ENDBRANCH  26  40
BRANCH  27  52
ATOM     52  C   UNL A   1      46.631  32.893  28.109  1.00  0.00     0.058 A 
ATOM     53  C   UNL A   1      47.284  33.348  29.266  1.00  0.00     0.135 A 
ATOM     54  C   UNL A   1      46.446  33.827  27.074  1.00  0.00     0.135 A 
ATOM     55  F   UNL A   1      47.470  32.518  30.304  1.00  0.00    -0.206 F 
ATOM     56  C   UNL A   1      47.734  34.664  29.390  1.00  0.00     0.059 A 
ATOM     57  C   UNL A   1      46.922  35.133  27.155  1.00  0.00     0.059 A 
ATOM     58  F   UNL A   1      45.809  33.464  25.949  1.00  0.00    -0.206 F 
ATOM     59  C   UNL A   1      47.554  35.548  28.324  1.00  0.00     0.060 A 
BRANCH  59  60
ATOM     60  S   UNL A   1      48.167  37.242  28.481  1.00  0.00     0.124 S 
ATOM     61  O   UNL A   1      49.345  37.051  29.319  1.00  0.00    -0.237 OA
ATOM     62  O   UNL A   1      48.431  37.604  27.090  1.00  0.00    -0.237 OA
ATOM     63  O   UNL A   1      47.057  37.948  29.112  1.00  0.00    -0.744 OA
ENDBRANCH  59  60
ENDBRANCH  27  52
BRANCH  39  64
ATOM     64  C   UNL A   1      49.687  26.797  26.446  1.00  0.00     0.058 A 
ATOM     65  C   UNL A   1      50.481  26.212  27.445  1.00  0.00     0.135 A 
ATOM     66  C   UNL A   1      50.206  26.863  25.144  1.00  0.00     0.135 A 
ATOM     67  F   UNL A   1      50.028  26.128  28.706  1.00  0.00    -0.206 F 
ATOM     68  C   UNL A   1      51.739  25.696  27.158  1.00  0.00     0.059 A 
ATOM     69  C   UNL A   1      51.453  26.333  24.830  1.00  0.00     0.059 A 
ATOM     70  F   UNL A   1      49.479  27.402  24.153  1.00  0.00    -0.206 F 
ATOM     71  C   UNL A   1      52.211  25.748  25.844  1.00  0.00     0.060 A 
BRANCH  71  72
ATOM     72  S   UNL A   1      53.801  24.984  25.464  1.00  0.00     0.124 S 
ATOM     73  O   UNL A   1      54.570  25.290  26.665  1.00  0.00    -0.237 OA
ATOM     74  O   UNL A   1      53.439  23.582  25.283  1.00  0.00    -0.237 OA
ATOM     75  O   UNL A   1      54.230  25.675  24.251  1.00  0.00    -0.744 OA
ENDBRANCH  71  72
ENDBRANCH  39  64
ENDBRANCH  13  14
ENDBRANCH   6   8
ENDBRANCH   5   6
ENDBRANCH   4   5
ENDBRANCH   3   4
ENDBRANCH   2   3
ENDBRANCH   1   2
BRANCH   1  76
ATOM     76  C   UNL A   1      33.305  29.679  25.206  1.00  0.00     0.188 C 
BRANCH  76  77
ATOM     77  O   UNL A   1      32.213  29.205  24.413  1.00  0.00    -0.376 OA
BRANCH  77  78
ATOM     78  C   UNL A   1      32.329  27.902  23.853  1.00  0.00     0.202 C 
BRANCH  78  79
ATOM     79  C   UNL A   1      32.118  27.797  22.343  1.00  0.00     0.261 C 
BRANCH  79  80
ATOM     80  O   UNL A   1      31.756  26.468  21.954  1.00  0.00    -0.462 OA
BRANCH  80  81
ATOM     81  C   UNL A   1      32.710  25.717  21.331  1.00  0.00     0.328 C 
ATOM     82  O   UNL A   1      33.228  26.035  20.266  1.00  0.00    -0.250 OA
BRANCH  81  83
ATOM     83  C   UNL A   1      33.098  24.483  22.170  1.00  0.00     0.194 C 
BRANCH  83  84
ATOM     84  C   UNL A   1      33.755  24.823  23.521  1.00  0.00     0.072 C 
BRANCH  84  85
ATOM     85  C   UNL A   1      34.891  23.983  24.084  1.00  0.00    -0.045 A 
ATOM     86  C   UNL A   1      35.350  24.019  25.403  1.00  0.00     0.007 A 
ATOM     87  C   UNL A   1      35.600  23.180  23.180  1.00  0.00     0.007 A 
ATOM     88  C   UNL A   1      36.519  23.341  25.773  1.00  0.00     0.046 A 
ATOM     89  C   UNL A   1      36.768  22.510  23.532  1.00  0.00     0.046 A 
ATOM     90  C   UNL A   1      37.233  22.615  24.826  1.00  0.00     0.115 A 
BRANCH  90  91
ATOM     91  O   UNL A   1      38.405  21.993  25.132  1.00  0.00    -0.508 OA
ATOM     92  H   UNL A   1      38.524  21.088  24.918  1.00  0.00     0.293 HD
ENDBRANCH  90  91
ENDBRANCH  84  85
ENDBRANCH  83  84
BRANCH  83  93
ATOM     93  N   UNL A   1      31.983  23.569  22.436  1.00  0.00    -0.371 N 
ATOM     94  H   UNL A   1      31.415  23.305  21.676  1.00  0.00     0.161 HD
BRANCH  93  95
ATOM     95  C   UNL A   1      31.672  23.044  23.694  1.00  0.00     0.054 A 
ATOM     96  C   UNL A   1      32.195  21.798  24.140  1.00  0.00     0.024 A 
ATOM     97  C   UNL A   1      30.907  23.835  24.591  1.00  0.00     0.024 A 
ATOM     98  C   UNL A   1      32.984  20.921  23.350  1.00  0.00     0.012 A 
ATOM     99  C   UNL A   1      31.952  21.441  25.482  1.00  0.00     0.073 A 
ATOM    100  C   UNL A   1      30.744  23.364  25.905  1.00  0.00     0.073 A 
ATOM    101  C   UNL A   1      30.309  25.068  24.232  1.00  0.00     0.012 A 
ATOM    102  C   UNL A   1      33.508  19.736  23.871  1.00  0.00     0.001 A 
ATOM    103  C   UNL A   1      32.502  20.267  25.984  1.00  0.00     0.029 A 
ATOM    104  N   UNL A   1      31.232  22.190  26.323  1.00  0.00    -0.248 NA
ATOM    105  C   UNL A   1      30.051  24.154  26.816  1.00  0.00     0.029 A 
ATOM    106  C   UNL A   1      29.589  25.825  25.151  1.00  0.00     0.001 A 
ATOM    107  C   UNL A   1      33.274  19.412  25.197  1.00  0.00     0.002 A 
ATOM    108  C   UNL A   1      29.476  25.375  26.455  1.00  0.00     0.002 A 
ENDBRANCH  93  95
ENDBRANCH  83  93
ENDBRANCH  81  83
ENDBRANCH  80  81
ENDBRANCH  79  80
ENDBRANCH  78  79
ENDBRANCH  77  78
ENDBRANCH  76  77
ENDBRANCH   1  76
TORSDOF 25
ENDMDL
MODEL 2
REMARK VINA RESULT:     -10.9      0.834      7.785
REMARK SMILES O=C(OCCOCCOCCOC(=O)[C@@H](Cc1ccc(O)cc1)Nc1c2ccccc2nc2ccccc12)c1ccc(-c2c3nc(c(-c4c(F)cc(S(=O)(=O)[O-])cc4F)c4ccc([nH]4)c(-c4c(F)cc(S(=O)(=O)[O-])cc4F)c4nc(c(-c5c(F)cc(S(=O)(=O)[O-])cc5F)c5ccc2[nH]5)C=C4)C=C3)cc1
REMARK SMILES IDX 7 1 6 2 5 3 4 4 3 5 2 6 1 7 39 8 40 9 104 10 41 11 103 12
REMARK SMILES IDX 42 13 43 14 44 15 97 16 45 17 102 18 96 19 98 20 46 21
REMARK SMILES IDX 101 22 95 23 94 24 47 26 81 27 60 28 80 29 61 30 64 31 79 32
REMARK SMILES IDX 99 33 62 34 63 35 78 37 100 38 65 39 48 40 49 41 58 42 50 43
REMARK SMILES IDX 51 44 57 45 59 46 52 47 53 48 54 49 55 50 56 51 82 52 83 53
REMARK SMILES IDX 92 54 84 55 85 56 91 57 93 58 86 59 87 60 88 61 89 62 90 63
REMARK SMILES IDX 66 64 67 65 76 66 68 67 69 68 75 69 77 70 70 71 71 72 72 73
REMARK SMILES IDX 73 74 74 75 8 76 9 77 10 78 11 79 12 80 13 81 14 82 15 83
REMARK SMILES IDX 16 84 17 85 18 86 23 87 19 88 22 89 20 90 21 91 24 93 25 95
REMARK SMILES IDX 26 96 38 97 27 98 31 99 33 100 37 101 28 102 30 103 32 104
REMARK SMILES IDX 34 105 36 106 29 107 35 108
REMARK H PARENT 98 25 64 36 21 92 24 94
REMARK Flexibility Score: inf
ROOT
ATOM      1  C   UNL A   1      33.183  29.208  26.741  1.00  0.00     0.188 C 
ENDROOT
BRANCH   1   2
ATOM      2  O   UNL A   1      33.161  30.609  27.032  1.00  0.00    -0.376 OA
BRANCH   2   3
ATOM      3  C   UNL A   1      34.433  31.193  27.305  1.00  0.00     0.202 C 
BRANCH   3   4
ATOM      4  C   UNL A   1      34.723  31.632  28.748  1.00  0.00     0.261 C 
BRANCH   4   5
ATOM      5  O   UNL A   1      35.349  30.659  29.599  1.00  0.00    -0.460 OA
BRANCH   5   6
ATOM      6  C   UNL A   1      36.492  30.697  30.322  1.00  0.00     0.338 C 
ATOM      7  O   UNL A   1      36.453  31.272  31.412  1.00  0.00    -0.246 OA
BRANCH   6   8
ATOM      8  C   UNL A   1      37.808  30.143  29.876  1.00  0.00     0.060 A 
ATOM      9  C   UNL A   1      38.812  29.675  30.715  1.00  0.00     0.016 A 
ATOM     10  C   UNL A   1      38.062  30.128  28.485  1.00  0.00     0.016 A 
ATOM     11  C   UNL A   1      40.012  29.202  30.195  1.00  0.00     0.010 A 
ATOM     12  C   UNL A   1      39.274  29.662  27.956  1.00  0.00     0.010 A 
ATOM     13  C   UNL A   1      40.260  29.192  28.818  1.00  0.00    -0.014 A 
BRANCH  13  14
ATOM     14  C   UNL A   1      41.626  28.816  28.379  1.00  0.00     0.031 A 
ATOM     15  C   UNL A   1      42.730  29.782  28.676  1.00  0.00     0.074 A 
ATOM     16  C   UNL A   1      41.893  27.578  27.922  1.00  0.00     0.049 A 
ATOM     17  N   UNL A   1      44.020  29.616  28.593  1.00  0.00    -0.248 NA
ATOM     18  C   UNL A   1      42.316  31.112  29.157  1.00  0.00     0.031 C 
ATOM     19  C   UNL A   1      40.887  26.554  27.666  1.00  0.00     0.029 A 
ATOM     20  N   UNL A   1      43.083  26.936  27.687  1.00  0.00    -0.354 N 
ATOM     21  C   UNL A   1      44.572  30.832  28.973  1.00  0.00     0.074 A 
ATOM     22  C   UNL A   1      43.482  31.697  29.365  1.00  0.00     0.031 C 
ATOM     23  C   UNL A   1      41.498  25.377  27.453  1.00  0.00     0.029 A 
ATOM     24  C   UNL A   1      42.943  25.587  27.428  1.00  0.00     0.049 A 
ATOM     25  H   UNL A   1      43.954  27.393  27.702  1.00  0.00     0.167 HD
ATOM     26  C   UNL A   1      45.867  31.215  28.915  1.00  0.00     0.037 A 
ATOM     27  C   UNL A   1      43.877  24.645  27.176  1.00  0.00     0.037 A 
ATOM     28  C   UNL A   1      46.913  30.372  28.411  1.00  0.00     0.049 A 
ATOM     29  C   UNL A   1      45.316  25.099  27.090  1.00  0.00     0.074 A 
ATOM     30  C   UNL A   1      48.229  30.694  28.148  1.00  0.00     0.029 A 
ATOM     31  N   UNL A   1      46.742  29.038  28.057  1.00  0.00    -0.354 N 
ATOM     32  N   UNL A   1      45.825  26.277  27.375  1.00  0.00    -0.248 NA
ATOM     33  C   UNL A   1      46.299  24.130  26.586  1.00  0.00     0.031 C 
ATOM     34  C   UNL A   1      48.839  29.572  27.576  1.00  0.00     0.029 A 
ATOM     35  C   UNL A   1      47.922  28.529  27.550  1.00  0.00     0.049 A 
ATOM     36  H   UNL A   1      45.904  28.531  28.153  1.00  0.00     0.167 HD
ATOM     37  C   UNL A   1      47.176  26.202  27.054  1.00  0.00     0.074 A 
ATOM     38  C   UNL A   1      47.417  24.847  26.598  1.00  0.00     0.031 C 
ATOM     39  C   UNL A   1      48.124  27.171  27.103  1.00  0.00     0.037 A 
BRANCH  26  40
ATOM     40  C   UNL A   1      46.138  32.658  29.222  1.00  0.00     0.058 A 
ATOM     41  C   UNL A   1      46.386  33.118  30.525  1.00  0.00     0.135 A 
ATOM     42  C   UNL A   1      46.008  33.614  28.200  1.00  0.00     0.135 A 
ATOM     43  F   UNL A   1      46.471  32.248  31.544  1.00  0.00    -0.206 F 
ATOM     44  C   UNL A   1      46.441  34.478  30.813  1.00  0.00     0.059 A 
ATOM     45  C   UNL A   1      46.085  34.977  28.461  1.00  0.00     0.059 A 
ATOM     46  F   UNL A   1      45.747  33.228  26.941  1.00  0.00    -0.206 F 
ATOM     47  C   UNL A   1      46.271  35.399  29.776  1.00  0.00     0.060 A 
BRANCH  47  48
ATOM     48  S   UNL A   1      46.247  37.160  30.173  1.00  0.00     0.124 S 
ATOM     49  O   UNL A   1      47.610  37.366  30.656  1.00  0.00    -0.237 OA
ATOM     50  O   UNL A   1      45.934  37.766  28.884  1.00  0.00    -0.237 OA
ATOM     51  O   UNL A   1      45.201  37.266  31.184  1.00  0.00    -0.744 OA
ENDBRANCH  47  48
ENDBRANCH  26  40
BRANCH  27  52
ATOM     52  C   UNL A   1      43.488  23.225  26.906  1.00  0.00     0.058 A 
ATOM     53  C   UNL A   1      43.540  22.679  25.613  1.00  0.00     0.135 A 
ATOM     54  C   UNL A   1      43.056  22.376  27.940  1.00  0.00     0.135 A 
ATOM     55  F   UNL A   1      43.918  23.441  24.575  1.00  0.00    -0.206 F 
ATOM     56  C   UNL A   1      43.182  21.353  25.358  1.00  0.00     0.059 A 
ATOM     57  C   UNL A   1      42.734  21.039  27.719  1.00  0.00     0.059 A 
ATOM     58  F   UNL A   1      42.962  22.841  29.196  1.00  0.00    -0.206 F 
ATOM     59  C   UNL A   1      42.787  20.539  26.421  1.00  0.00     0.060 A 
BRANCH  59  60
ATOM     60  S   UNL A   1      42.355  18.815  26.087  1.00  0.00     0.124 S 
ATOM     61  O   UNL A   1      43.270  18.489  24.998  1.00  0.00    -0.237 OA
ATOM     62  O   UNL A   1      42.642  18.172  27.367  1.00  0.00    -0.237 OA
ATOM     63  O   UNL A   1      40.944  18.882  25.721  1.00  0.00    -0.744 OA
ENDBRANCH  59  60
ENDBRANCH  27  52
BRANCH  39  64
ATOM     64  C   UNL A   1      49.513  26.818  26.651  1.00  0.00     0.058 A 
ATOM     65  C   UNL A   1      50.455  26.271  27.535  1.00  0.00     0.135 A 
ATOM     66  C   UNL A   1      49.848  26.888  25.289  1.00  0.00     0.135 A 
ATOM     67  F   UNL A   1      50.180  26.185  28.847  1.00  0.00    -0.206 F 
ATOM     68  C   UNL A   1      51.680  25.795  27.083  1.00  0.00     0.059 A 
ATOM     69  C   UNL A   1      51.059  26.396  24.812  1.00  0.00     0.059 A 
ATOM     70  F   UNL A   1      48.975  27.391  24.403  1.00  0.00    -0.206 F 
ATOM     71  C   UNL A   1      51.967  25.848  25.718  1.00  0.00     0.060 A 
BRANCH  71  72
ATOM     72  S   UNL A   1      53.517  25.133  25.130  1.00  0.00     0.124 S 
ATOM     73  O   UNL A   1      53.557  25.607  23.752  1.00  0.00    -0.237 OA
ATOM     74  O   UNL A   1      54.497  25.726  26.035  1.00  0.00    -0.237 OA
ATOM     75  O   UNL A   1      53.312  23.697  25.294  1.00  0.00    -0.744 OA
ENDBRANCH  71  72
ENDBRANCH  39  64
ENDBRANCH  13  14
ENDBRANCH   6   8
ENDBRANCH   5   6
ENDBRANCH   4   5
ENDBRANCH   3   4
ENDBRANCH   2   3
ENDBRANCH   1   2
BRANCH   1  76
ATOM     76  C   UNL A   1      32.181  28.820  25.650  1.00  0.00     0.188 C 
BRANCH  76  77
ATOM     77  O   UNL A   1      32.686  27.975  24.612  1.00  0.00    -0.376 OA
BRANCH  77  78
ATOM     78  C   UNL A   1      33.485  28.586  23.604  1.00  0.00     0.202 C 
BRANCH  78  79
ATOM     79  C   UNL A   1      33.355  28.002  22.197  1.00  0.00     0.261 C 
BRANCH  79  80
ATOM     80  O   UNL A   1      32.576  26.801  22.196  1.00  0.00    -0.462 OA
BRANCH  80  81
ATOM     81  C   UNL A   1      32.971  25.801  21.356  1.00  0.00     0.328 C 
ATOM     82  O   UNL A   1      33.073  25.943  20.142  1.00  0.00    -0.250 OA
BRANCH  81  83
ATOM     83  C   UNL A   1      33.340  24.520  22.131  1.00  0.00     0.194 C 
BRANCH  83  84
ATOM     84  C   UNL A   1      34.041  24.781  23.478  1.00  0.00     0.072 C 
BRANCH  84  85
ATOM     85  C   UNL A   1      35.180  23.898  23.961  1.00  0.00    -0.045 A 
ATOM     86  C   UNL A   1      36.043  23.166  23.141  1.00  0.00     0.007 A 
ATOM     87  C   UNL A   1      35.310  23.724  25.346  1.00  0.00     0.007 A 
ATOM     88  C   UNL A   1      36.940  22.242  23.691  1.00  0.00     0.046 A 
ATOM     89  C   UNL A   1      36.190  22.802  25.905  1.00  0.00     0.046 A 
ATOM     90  C   UNL A   1      36.986  22.047  25.067  1.00  0.00     0.115 A 
BRANCH  90  91
ATOM     91  O   UNL A   1      37.800  21.116  25.635  1.00  0.00    -0.508 OA
ATOM     92  H   UNL A   1      38.385  21.363  26.324  1.00  0.00     0.293 HD
ENDBRANCH  90  91
ENDBRANCH  84  85
ENDBRANCH  83  84
BRANCH  83  93
ATOM     93  N   UNL A   1      32.203  23.630  22.387  1.00  0.00    -0.371 N 
ATOM     94  H   UNL A   1      31.682  23.317  21.612  1.00  0.00     0.161 HD
BRANCH  93  95
ATOM     95  C   UNL A   1      31.808  23.195  23.656  1.00  0.00     0.054 A 
ATOM     96  C   UNL A   1      32.279  21.973  24.212  1.00  0.00     0.024 A 
ATOM     97  C   UNL A   1      31.008  24.055  24.452  1.00  0.00     0.024 A 
ATOM     98  C   UNL A   1      33.096  21.034  23.530  1.00  0.00     0.012 A 
ATOM     99  C   UNL A   1      31.951  21.709  25.558  1.00  0.00     0.073 A 
ATOM    100  C   UNL A   1      30.758  23.675  25.782  1.00  0.00     0.073 A 
ATOM    101  C   UNL A   1      30.456  25.272  23.979  1.00  0.00     0.012 A 
ATOM    102  C   UNL A   1      33.566  19.878  24.156  1.00  0.00     0.001 A 
ATOM    103  C   UNL A   1      32.448  20.563  26.167  1.00  0.00     0.029 A 
ATOM    104  N   UNL A   1      31.198  22.523  26.304  1.00  0.00    -0.248 NA
ATOM    105  C   UNL A   1      30.029  24.534  26.596  1.00  0.00     0.029 A 
ATOM    106  C   UNL A   1      29.698  26.099  24.802  1.00  0.00     0.001 A 
ATOM    107  C   UNL A   1      33.248  19.646  25.485  1.00  0.00     0.002 A 
ATOM    108  C   UNL A   1      29.500  25.737  26.123  1.00  0.00     0.002 A 
ENDBRANCH  93  95
ENDBRANCH  83  93
ENDBRANCH  81  83
ENDBRANCH  80  81
ENDBRANCH  79  80
ENDBRANCH  78  79
ENDBRANCH  77  78
ENDBRANCH  76  77
ENDBRANCH   1  76
TORSDOF 25
ENDMDL
MODEL 3
REMARK VINA RESULT:     -10.7      6.012     11.278
REMARK SMILES O=C(OCCOCCOCCOC(=O)[C@@H](Cc1ccc(O)cc1)Nc1c2ccccc2nc2ccccc12)c1ccc(-c2c3nc(c(-c4c(F)cc(S(=O)(=O)[O-])cc4F)c4ccc([nH]4)c(-c4c(F)cc(S(=O)(=O)[O-])cc4F)c4nc(c(-c5c(F)cc(S(=O)(=O)[O-])cc5F)c5ccc2[nH]5)C=C4)C=C3)cc1
REMARK SMILES IDX 7 1 6 2 5 3 4 4 3 5 2 6 1 7 39 8 40 9 104 10 41 11 103 12
REMARK SMILES IDX 42 13 43 14 44 15 97 16 45 17 102 18 96 19 98 20 46 21
REMARK SMILES IDX 101 22 95 23 94 24 47 26 81 27 60 28 80 29 61 30 64 31 79 32
REMARK SMILES IDX 99 33 62 34 63 35 78 37 100 38 65 39 48 40 49 41 58 42 50 43
REMARK SMILES IDX 51 44 57 45 59 46 52 47 53 48 54 49 55 50 56 51 82 52 83 53
REMARK SMILES IDX 92 54 84 55 85 56 91 57 93 58 86 59 87 60 88 61 89 62 90 63
REMARK SMILES IDX 66 64 67 65 76 66 68 67 69 68 75 69 77 70 70 71 71 72 72 73
REMARK SMILES IDX 73 74 74 75 8 76 9 77 10 78 11 79 12 80 13 81 14 82 15 83
REMARK SMILES IDX 16 84 17 85 18 86 23 87 19 88 22 89 20 90 21 91 24 93 25 95
REMARK SMILES IDX 26 96 38 97 27 98 31 99 33 100 37 101 28 102 30 103 32 104
REMARK SMILES IDX 34 105 36 106 29 107 35 108
REMARK H PARENT 98 25 64 36 21 92 24 94
REMARK Flexibility Score: inf
ROOT
ATOM      1  C   UNL A   1      39.699  22.690  26.955  1.00  0.00     0.188 C 
ENDROOT
BRANCH   1   2
ATOM      2  O   UNL A   1      40.533  22.159  25.921  1.00  0.00    -0.376 OA
BRANCH   2   3
ATOM      3  C   UNL A   1      41.888  21.921  26.296  1.00  0.00     0.202 C 
BRANCH   3   4
ATOM      4  C   UNL A   1      42.958  22.881  25.758  1.00  0.00     0.261 C 
BRANCH   4   5
ATOM      5  O   UNL A   1      43.005  24.187  26.356  1.00  0.00    -0.460 OA
BRANCH   5   6
ATOM      6  C   UNL A   1      42.237  25.286  26.178  1.00  0.00     0.338 C 
ATOM      7  O   UNL A   1      41.841  25.522  25.036  1.00  0.00    -0.246 OA
BRANCH   6   8
ATOM      8  C   UNL A   1      41.880  26.264  27.253  1.00  0.00     0.060 A 
ATOM      9  C   UNL A   1      42.365  27.563  27.354  1.00  0.00     0.016 A 
ATOM     10  C   UNL A   1      41.002  25.815  28.266  1.00  0.00     0.016 A 
ATOM     11  C   UNL A   1      41.987  28.384  28.412  1.00  0.00     0.010 A 
ATOM     12  C   UNL A   1      40.625  26.635  29.340  1.00  0.00     0.010 A 
ATOM     13  C   UNL A   1      41.120  27.933  29.415  1.00  0.00    -0.014 A 
BRANCH  13  14
ATOM     14  C   UNL A   1      40.904  28.831  30.575  1.00  0.00     0.031 A 
ATOM     15  C   UNL A   1      42.010  28.927  31.580  1.00  0.00     0.074 A 
ATOM     16  C   UNL A   1      39.855  29.673  30.618  1.00  0.00     0.049 A 
ATOM     17  N   UNL A   1      42.170  29.774  32.557  1.00  0.00    -0.248 NA
ATOM     18  C   UNL A   1      43.098  27.942  31.442  1.00  0.00     0.031 C 
ATOM     19  C   UNL A   1      38.768  29.693  29.647  1.00  0.00     0.029 A 
ATOM     20  N   UNL A   1      39.577  30.734  31.443  1.00  0.00    -0.354 N 
ATOM     21  C   UNL A   1      43.355  29.401  33.177  1.00  0.00     0.074 A 
ATOM     22  C   UNL A   1      43.914  28.307  32.417  1.00  0.00     0.031 C 
ATOM     23  C   UNL A   1      38.022  30.793  29.838  1.00  0.00     0.029 A 
ATOM     24  C   UNL A   1      38.501  31.492  31.028  1.00  0.00     0.049 A 
ATOM     25  H   UNL A   1      40.096  30.936  32.254  1.00  0.00     0.167 HD
ATOM     26  C   UNL A   1      43.880  29.877  34.328  1.00  0.00     0.037 A 
ATOM     27  C   UNL A   1      37.957  32.604  31.567  1.00  0.00     0.037 A 
ATOM     28  C   UNL A   1      43.241  30.886  35.124  1.00  0.00     0.049 A 
ATOM     29  C   UNL A   1      38.543  33.104  32.868  1.00  0.00     0.074 A 
ATOM     30  C   UNL A   1      43.583  31.335  36.384  1.00  0.00     0.029 A 
ATOM     31  N   UNL A   1      42.097  31.577  34.743  1.00  0.00    -0.354 N 
ATOM     32  N   UNL A   1      39.623  32.695  33.494  1.00  0.00    -0.248 NA
ATOM     33  C   UNL A   1      37.809  34.164  33.573  1.00  0.00     0.031 C 
ATOM     34  C   UNL A   1      42.609  32.253  36.791  1.00  0.00     0.029 A 
ATOM     35  C   UNL A   1      41.701  32.430  35.755  1.00  0.00     0.049 A 
ATOM     36  H   UNL A   1      41.636  31.473  33.879  1.00  0.00     0.167 HD
ATOM     37  C   UNL A   1      39.680  33.420  34.679  1.00  0.00     0.074 A 
ATOM     38  C   UNL A   1      38.552  34.329  34.662  1.00  0.00     0.031 C 
ATOM     39  C   UNL A   1      40.567  33.322  35.701  1.00  0.00     0.037 A 
BRANCH  26  40
ATOM     40  C   UNL A   1      45.084  29.149  34.849  1.00  0.00     0.058 A 
ATOM     41  C   UNL A   1      46.393  29.504  34.488  1.00  0.00     0.135 A 
ATOM     42  C   UNL A   1      44.905  27.986  35.617  1.00  0.00     0.135 A 
ATOM     43  F   UNL A   1      46.613  30.579  33.714  1.00  0.00    -0.206 F 
ATOM     44  C   UNL A   1      47.479  28.701  34.824  1.00  0.00     0.059 A 
ATOM     45  C   UNL A   1      45.978  27.183  35.986  1.00  0.00     0.059 A 
ATOM     46  F   UNL A   1      43.671  27.591  35.969  1.00  0.00    -0.206 F 
ATOM     47  C   UNL A   1      47.257  27.533  35.559  1.00  0.00     0.060 A 
BRANCH  47  48
ATOM     48  S   UNL A   1      48.656  26.447  35.907  1.00  0.00     0.124 S 
ATOM     49  O   UNL A   1      47.979  25.178  36.163  1.00  0.00    -0.237 OA
ATOM     50  O   UNL A   1      49.422  26.516  34.668  1.00  0.00    -0.237 OA
ATOM     51  O   UNL A   1      49.286  27.067  37.068  1.00  0.00    -0.744 OA
ENDBRANCH  47  48
ENDBRANCH  26  40
BRANCH  27  52
ATOM     52  C   UNL A   1      36.765  33.260  30.944  1.00  0.00     0.058 A 
ATOM     53  C   UNL A   1      36.873  34.032  29.776  1.00  0.00     0.135 A 
ATOM     54  C   UNL A   1      35.481  33.127  31.503  1.00  0.00     0.135 A 
ATOM     55  F   UNL A   1      38.072  34.223  29.204  1.00  0.00    -0.206 F 
ATOM     56  C   UNL A   1      35.762  34.642  29.189  1.00  0.00     0.059 A 
ATOM     57  C   UNL A   1      34.351  33.689  30.914  1.00  0.00     0.059 A 
ATOM     58  F   UNL A   1      35.310  32.421  32.631  1.00  0.00    -0.206 F 
ATOM     59  C   UNL A   1      34.502  34.457  29.763  1.00  0.00     0.060 A 
BRANCH  59  60
ATOM     60  S   UNL A   1      33.064  35.224  28.979  1.00  0.00     0.124 S 
ATOM     61  O   UNL A   1      32.649  34.182  28.046  1.00  0.00    -0.237 OA
ATOM     62  O   UNL A   1      32.175  35.445  30.117  1.00  0.00    -0.237 OA
ATOM     63  O   UNL A   1      33.613  36.430  28.368  1.00  0.00    -0.744 OA
ENDBRANCH  59  60
ENDBRANCH  27  52
BRANCH  39  64
ATOM     64  C   UNL A   1      40.362  34.211  36.896  1.00  0.00     0.058 A 
ATOM     65  C   UNL A   1      40.943  35.487  36.967  1.00  0.00     0.135 A 
ATOM     66  C   UNL A   1      39.454  33.841  37.901  1.00  0.00     0.135 A 
ATOM     67  F   UNL A   1      41.818  35.884  36.030  1.00  0.00    -0.206 F 
ATOM     68  C   UNL A   1      40.623  36.370  37.992  1.00  0.00     0.059 A 
ATOM     69  C   UNL A   1      39.103  34.718  38.922  1.00  0.00     0.059 A 
ATOM     70  F   UNL A   1      38.863  32.637  37.868  1.00  0.00    -0.206 F 
ATOM     71  C   UNL A   1      39.690  35.982  38.956  1.00  0.00     0.060 A 
BRANCH  71  72
ATOM     72  S   UNL A   1      39.207  37.175  40.222  1.00  0.00     0.124 S 
ATOM     73  O   UNL A   1      38.440  36.339  41.138  1.00  0.00    -0.237 OA
ATOM     74  O   UNL A   1      40.496  37.644  40.718  1.00  0.00    -0.237 OA
ATOM     75  O   UNL A   1      38.432  38.165  39.478  1.00  0.00    -0.744 OA
ENDBRANCH  71  72
ENDBRANCH  39  64
ENDBRANCH  13  14
ENDBRANCH   6   8
ENDBRANCH   5   6
ENDBRANCH   4   5
ENDBRANCH   3   4
ENDBRANCH   2   3
ENDBRANCH   1   2
BRANCH   1  76
ATOM     76  C   UNL A   1      38.654  23.674  26.418  1.00  0.00     0.188 C 
BRANCH  76  77
ATOM     77  O   UNL A   1      37.800  23.176  25.385  1.00  0.00    -0.376 OA
BRANCH  77  78
ATOM     78  C   UNL A   1      36.929  22.101  25.720  1.00  0.00     0.202 C 
BRANCH  78  79
ATOM     79  C   UNL A   1      35.500  22.486  26.100  1.00  0.00     0.261 C 
BRANCH  79  80
ATOM     80  O   UNL A   1      35.297  23.900  26.016  1.00  0.00    -0.462 OA
BRANCH  80  81
ATOM     81  C   UNL A   1      34.028  24.363  26.216  1.00  0.00     0.328 C 
ATOM     82  O   UNL A   1      33.209  23.794  26.930  1.00  0.00    -0.250 OA
BRANCH  81  83
ATOM     83  C   UNL A   1      33.796  25.710  25.503  1.00  0.00     0.194 C 
BRANCH  83  84
ATOM     84  C   UNL A   1      33.678  25.597  23.971  1.00  0.00     0.072 C 
BRANCH  84  85
ATOM     85  C   UNL A   1      32.961  24.426  23.316  1.00  0.00    -0.045 A 
ATOM     86  C   UNL A   1      31.749  23.878  23.742  1.00  0.00     0.007 A 
ATOM     87  C   UNL A   1      33.622  23.782  22.262  1.00  0.00     0.007 A 
ATOM     88  C   UNL A   1      31.266  22.687  23.183  1.00  0.00     0.046 A 
ATOM     89  C   UNL A   1      33.159  22.593  21.704  1.00  0.00     0.046 A 
ATOM     90  C   UNL A   1      31.991  22.040  22.188  1.00  0.00     0.115 A 
BRANCH  90  91
ATOM     91  O   UNL A   1      31.587  20.851  21.662  1.00  0.00    -0.508 OA
ATOM     92  H   UNL A   1      30.742  20.778  21.264  1.00  0.00     0.293 HD
ENDBRANCH  90  91
ENDBRANCH  84  85
ENDBRANCH  83  84
BRANCH  83  93
ATOM     93  N   UNL A   1      32.623  26.445  25.985  1.00  0.00    -0.371 N 
ATOM     94  H   UNL A   1      31.991  25.967  26.570  1.00  0.00     0.161 HD
BRANCH  93  95
ATOM     95  C   UNL A   1      32.341  27.779  25.674  1.00  0.00     0.054 A 
ATOM     96  C   UNL A   1      31.288  28.137  24.786  1.00  0.00     0.024 A 
ATOM     97  C   UNL A   1      33.052  28.802  26.353  1.00  0.00     0.024 A 
ATOM     98  C   UNL A   1      30.492  27.214  24.057  1.00  0.00     0.012 A 
ATOM     99  C   UNL A   1      30.983  29.509  24.668  1.00  0.00     0.073 A 
ATOM    100  C   UNL A   1      32.644  30.131  26.150  1.00  0.00     0.073 A 
ATOM    101  C   UNL A   1      34.141  28.552  27.224  1.00  0.00     0.012 A 
ATOM    102  C   UNL A   1      29.440  27.636  23.243  1.00  0.00     0.001 A 
ATOM    103  C   UNL A   1      29.917  29.903  23.868  1.00  0.00     0.029 A 
ATOM    104  N   UNL A   1      31.656  30.469  25.312  1.00  0.00    -0.248 NA
ATOM    105  C   UNL A   1      33.286  31.142  26.855  1.00  0.00     0.029 A 
ATOM    106  C   UNL A   1      34.794  29.583  27.891  1.00  0.00     0.001 A 
ATOM    107  C   UNL A   1      29.145  28.986  23.156  1.00  0.00     0.002 A 
ATOM    108  C   UNL A   1      34.352  30.884  27.721  1.00  0.00     0.002 A 
ENDBRANCH  93  95
ENDBRANCH  83  93
ENDBRANCH  81  83
ENDBRANCH  80  81
ENDBRANCH  79  80
ENDBRANCH  78  79
ENDBRANCH  77  78
ENDBRANCH  76  77
ENDBRANCH   1  76
TORSDOF 25
ENDMDL
